# generated using pymatgen
data_KCePCO7
_symmetry_space_group_name_H-M   'P 1'
_cell_length_a   10.19428695
_cell_length_b   7.09232058
_cell_length_c   5.81836901
_cell_angle_alpha   90.00000000
_cell_angle_beta   89.51526902
_cell_angle_gamma   90.00000000
_symmetry_Int_Tables_number   1
_chemical_formula_structural   KCePCO7
_chemical_formula_sum   'K2 Ce2 P2 C2 O14'
_cell_volume   420.65972206
_cell_formula_units_Z   2
loop_
 _symmetry_equiv_pos_site_id
 _symmetry_equiv_pos_as_xyz
  1  'x, y, z'
loop_
 _atom_site_type_symbol
 _atom_site_label
 _atom_site_symmetry_multiplicity
 _atom_site_fract_x
 _atom_site_fract_y
 _atom_site_fract_z
 _atom_site_occupancy
  K  K0  1  0.218807  0.456902  0.249016  1
  K  K1  1  0.781193  0.956902  0.750984  1
  Ce  Ce2  1  0.349742  0.774963  0.781336  1
  Ce  Ce3  1  0.650258  0.274963  0.218664  1
  P  P4  1  0.435359  0.267222  0.718757  1
  P  P5  1  0.564641  0.767222  0.281243  1
  C  C6  1  0.084112  0.732401  0.725572  1
  C  C7  1  0.915888  0.232401  0.274428  1
  O  O8  1  0.035370  0.223151  0.305809  1
  O  O9  1  0.141744  0.738422  0.930747  1
  O  O10  1  0.173459  0.739073  0.553721  1
  O  O11  1  0.349772  0.091020  0.769811  1
  O  O12  1  0.357412  0.447591  0.782602  1
  O  O13  1  0.436470  0.754400  0.136752  1
  O  O14  1  0.472783  0.272704  0.458126  1
  O  O15  1  0.527217  0.772704  0.541874  1
  O  O16  1  0.563530  0.254400  0.863248  1
  O  O17  1  0.642588  0.947591  0.217398  1
  O  O18  1  0.650228  0.591020  0.230189  1
  O  O19  1  0.826541  0.239073  0.446279  1
  O  O20  1  0.858256  0.238422  0.069253  1
  O  O21  1  0.964630  0.723151  0.694191  1
