# generated using pymatgen
data_Li3Ni2SbO6
_symmetry_space_group_name_H-M   'P 1'
_cell_length_a   15.44100887
_cell_length_b   9.98316874
_cell_length_c   9.98316886
_cell_angle_alpha   17.63782141
_cell_angle_beta   17.01650883
_cell_angle_gamma   17.01650557
_symmetry_Int_Tables_number   1
_chemical_formula_structural   Li3Ni2SbO6
_chemical_formula_sum   'Li3 Ni2 Sb1 O6'
_cell_volume   117.62418969
_cell_formula_units_Z   1
loop_
 _symmetry_equiv_pos_site_id
 _symmetry_equiv_pos_as_xyz
  1  'x, y, z'
loop_
 _atom_site_type_symbol
 _atom_site_label
 _atom_site_symmetry_multiplicity
 _atom_site_fract_x
 _atom_site_fract_y
 _atom_site_fract_z
 _atom_site_occupancy
  Li  Li0  1  0.166667  0.500000  0.500000  1
  Li  Li1  1  0.510203  0.479527  0.479527  1
  Li  Li2  1  0.823130  0.520473  0.520473  1
  Ni  Ni3  1  0.970128  0.024762  0.024762  1
  Ni  Ni4  1  0.363205  0.975238  0.975238  1
  Sb  Sb5  1  0.666667  0.000000  0.000000  1
  O  O6  1  0.261916  0.248416  0.248416  1
  O  O7  1  0.566246  0.264151  0.264151  1
  O  O8  1  0.071417  0.751584  0.751584  1
  O  O9  1  0.881196  0.281830  0.281830  1
  O  O10  1  0.452138  0.718170  0.718170  1
  O  O11  1  0.767087  0.735849  0.735849  1
