# generated using pymatgen
data_Li3Fe4SnO8
_symmetry_space_group_name_H-M   'P 1'
_cell_length_a   6.13646964
_cell_length_b   6.13646959
_cell_length_c   6.05050217
_cell_angle_alpha   92.15194333
_cell_angle_beta   61.66759126
_cell_angle_gamma   60.32769158
_symmetry_Int_Tables_number   1
_chemical_formula_structural   Li3Fe4SnO8
_chemical_formula_sum   'Li3 Fe4 Sn1 O8'
_cell_volume   162.81358166
_cell_formula_units_Z   1
loop_
 _symmetry_equiv_pos_site_id
 _symmetry_equiv_pos_as_xyz
  1  'x, y, z'
loop_
 _atom_site_type_symbol
 _atom_site_label
 _atom_site_symmetry_multiplicity
 _atom_site_fract_x
 _atom_site_fract_y
 _atom_site_fract_z
 _atom_site_occupancy
  Li  Li0  1  0.000000  0.000000  0.500000  1
  Li  Li1  1  0.500000  0.000000  0.500000  1
  Li  Li2  1  0.500000  0.500000  0.500000  1
  Fe  Fe3  1  0.000000  0.500000  0.500000  1
  Fe  Fe4  1  0.000000  0.000000  0.000000  1
  Fe  Fe5  1  0.500000  0.000000  0.000000  1
  Fe  Fe6  1  0.000000  0.500000  0.000000  1
  Sn  Sn7  1  0.500000  0.500000  0.000000  1
  O  O8  1  0.480820  0.256110  0.775289  1
  O  O9  1  0.982177  0.242488  0.762101  1
  O  O10  1  0.480385  0.744278  0.762101  1
  O  O11  1  0.999568  0.753370  0.753802  1
  O  O12  1  0.000432  0.246630  0.246198  1
  O  O13  1  0.519615  0.255722  0.237899  1
  O  O14  1  0.017823  0.757512  0.237899  1
  O  O15  1  0.519180  0.743890  0.224711  1
