# generated using pymatgen
data_CuH12(BrO6)2
_symmetry_space_group_name_H-M   'P 1'
_cell_length_a   10.56587253
_cell_length_b   10.56587253
_cell_length_c   10.56587253
_cell_angle_alpha   90.00000000
_cell_angle_beta   90.00000000
_cell_angle_gamma   90.00000000
_symmetry_Int_Tables_number   1
_chemical_formula_structural   CuH12(BrO6)2
_chemical_formula_sum   'Cu4 H48 Br8 O48'
_cell_volume   1179.54930962
_cell_formula_units_Z   4
loop_
 _symmetry_equiv_pos_site_id
 _symmetry_equiv_pos_as_xyz
  1  'x, y, z'
loop_
 _atom_site_type_symbol
 _atom_site_label
 _atom_site_symmetry_multiplicity
 _atom_site_fract_x
 _atom_site_fract_y
 _atom_site_fract_z
 _atom_site_occupancy
  Cu  Cu0  1  0.500000  0.500000  0.000000  1
  Cu  Cu1  1  0.500000  0.000000  0.500000  1
  Cu  Cu2  1  0.000000  0.500000  0.500000  1
  Cu  Cu3  1  0.000000  0.000000  0.000000  1
  H  H4  1  0.113017  0.608999  0.227289  1
  H  H5  1  0.886983  0.108999  0.272711  1
  H  H6  1  0.386983  0.391001  0.727289  1
  H  H7  1  0.613017  0.891001  0.772711  1
  H  H8  1  0.227289  0.113017  0.608999  1
  H  H9  1  0.272711  0.886983  0.108999  1
  H  H10  1  0.727289  0.386983  0.391001  1
  H  H11  1  0.772711  0.613017  0.891001  1
  H  H12  1  0.608999  0.227289  0.113017  1
  H  H13  1  0.108999  0.272711  0.886983  1
  H  H14  1  0.391001  0.727289  0.386983  1
  H  H15  1  0.891001  0.772711  0.613017  1
  H  H16  1  0.886983  0.391001  0.772711  1
  H  H17  1  0.113017  0.891001  0.727289  1
  H  H18  1  0.613017  0.608999  0.272711  1
  H  H19  1  0.386983  0.108999  0.227289  1
  H  H20  1  0.772711  0.886983  0.391001  1
  H  H21  1  0.727289  0.113017  0.891001  1
  H  H22  1  0.272711  0.613017  0.608999  1
  H  H23  1  0.227289  0.386983  0.108999  1
  H  H24  1  0.391001  0.772711  0.886983  1
  H  H25  1  0.891001  0.727289  0.113017  1
  H  H26  1  0.608999  0.272711  0.613017  1
  H  H27  1  0.108999  0.227289  0.386983  1
  H  H28  1  0.186216  0.395565  0.903949  1
  H  H29  1  0.813784  0.895565  0.596051  1
  H  H30  1  0.313784  0.604435  0.403949  1
  H  H31  1  0.686216  0.104435  0.096051  1
  H  H32  1  0.903949  0.186216  0.395565  1
  H  H33  1  0.596051  0.813784  0.895565  1
  H  H34  1  0.403949  0.313784  0.604435  1
  H  H35  1  0.096051  0.686216  0.104435  1
  H  H36  1  0.395565  0.903949  0.186216  1
  H  H37  1  0.895565  0.596051  0.813784  1
  H  H38  1  0.604435  0.403949  0.313784  1
  H  H39  1  0.104435  0.096051  0.686216  1
  H  H40  1  0.813784  0.604435  0.096051  1
  H  H41  1  0.186216  0.104435  0.403949  1
  H  H42  1  0.686216  0.395565  0.596051  1
  H  H43  1  0.313784  0.895565  0.903949  1
  H  H44  1  0.096051  0.813784  0.604435  1
  H  H45  1  0.403949  0.186216  0.104435  1
  H  H46  1  0.596051  0.686216  0.395565  1
  H  H47  1  0.903949  0.313784  0.895565  1
  H  H48  1  0.604435  0.096051  0.813784  1
  H  H49  1  0.104435  0.403949  0.186216  1
  H  H50  1  0.395565  0.596051  0.686216  1
  H  H51  1  0.895565  0.903949  0.313784  1
  Br  Br52  1  0.158680  0.841320  0.341320  1
  Br  Br53  1  0.841320  0.341320  0.158680  1
  Br  Br54  1  0.341320  0.158680  0.841320  1
  Br  Br55  1  0.658680  0.658680  0.658680  1
  Br  Br56  1  0.841320  0.158680  0.658680  1
  Br  Br57  1  0.158680  0.658680  0.841320  1
  Br  Br58  1  0.658680  0.841320  0.158680  1
  Br  Br59  1  0.341320  0.341320  0.341320  1
  O  O60  1  0.156555  0.632648  0.149594  1
  O  O61  1  0.843445  0.132648  0.350406  1
  O  O62  1  0.343445  0.367352  0.649594  1
  O  O63  1  0.656555  0.867352  0.850406  1
  O  O64  1  0.149594  0.156555  0.632648  1
  O  O65  1  0.350406  0.843445  0.132648  1
  O  O66  1  0.649594  0.343445  0.367352  1
  O  O67  1  0.850406  0.656555  0.867352  1
  O  O68  1  0.632648  0.149594  0.156555  1
  O  O69  1  0.132648  0.350406  0.843445  1
  O  O70  1  0.367352  0.649594  0.343445  1
  O  O71  1  0.867352  0.850406  0.656555  1
  O  O72  1  0.843445  0.367352  0.850406  1
  O  O73  1  0.156555  0.867352  0.649594  1
  O  O74  1  0.656555  0.632648  0.350406  1
  O  O75  1  0.343445  0.132648  0.149594  1
  O  O76  1  0.850406  0.843445  0.367352  1
  O  O77  1  0.649594  0.156555  0.867352  1
  O  O78  1  0.350406  0.656555  0.632648  1
  O  O79  1  0.149594  0.343445  0.132648  1
  O  O80  1  0.367352  0.850406  0.843445  1
  O  O81  1  0.867352  0.649594  0.156555  1
  O  O82  1  0.632648  0.350406  0.656555  1
  O  O83  1  0.132648  0.149594  0.343445  1
  O  O84  1  0.515615  0.604611  0.857076  1
  O  O85  1  0.484385  0.104611  0.642924  1
  O  O86  1  0.984385  0.395389  0.357076  1
  O  O87  1  0.015615  0.895389  0.142924  1
  O  O88  1  0.857076  0.515615  0.604611  1
  O  O89  1  0.642924  0.484385  0.104611  1
  O  O90  1  0.357076  0.984385  0.395389  1
  O  O91  1  0.142924  0.015615  0.895389  1
  O  O92  1  0.604611  0.857076  0.515615  1
  O  O93  1  0.104611  0.642924  0.484385  1
  O  O94  1  0.395389  0.357076  0.984385  1
  O  O95  1  0.895389  0.142924  0.015615  1
  O  O96  1  0.484385  0.395389  0.142924  1
  O  O97  1  0.515615  0.895389  0.357076  1
  O  O98  1  0.015615  0.604611  0.642924  1
  O  O99  1  0.984385  0.104611  0.857076  1
  O  O100  1  0.142924  0.484385  0.395389  1
  O  O101  1  0.357076  0.515615  0.895389  1
  O  O102  1  0.642924  0.015615  0.604611  1
  O  O103  1  0.857076  0.984385  0.104611  1
  O  O104  1  0.395389  0.142924  0.484385  1
  O  O105  1  0.895389  0.357076  0.515615  1
  O  O106  1  0.604611  0.642924  0.015615  1
  O  O107  1  0.104611  0.857076  0.984385  1
