# generated using pymatgen
data_Fe5O7F3
_symmetry_space_group_name_H-M   'P 1'
_cell_length_a   4.67708629
_cell_length_b   4.66686723
_cell_length_c   15.23342956
_cell_angle_alpha   89.98625693
_cell_angle_beta   89.90046868
_cell_angle_gamma   91.57366420
_symmetry_Int_Tables_number   1
_chemical_formula_structural   Fe5O7F3
_chemical_formula_sum   'Fe10 O14 F6'
_cell_volume   332.37933624
_cell_formula_units_Z   2
loop_
 _symmetry_equiv_pos_site_id
 _symmetry_equiv_pos_as_xyz
  1  'x, y, z'
loop_
 _atom_site_type_symbol
 _atom_site_label
 _atom_site_symmetry_multiplicity
 _atom_site_fract_x
 _atom_site_fract_y
 _atom_site_fract_z
 _atom_site_occupancy
  Fe  Fe0  1  0.005138  0.001114  0.000521  1
  Fe  Fe1  1  0.968747  0.980672  0.204579  1
  Fe  Fe2  1  0.036027  0.014563  0.393952  1
  Fe  Fe3  1  0.011388  0.981587  0.599961  1
  Fe  Fe4  1  0.014700  0.985653  0.800756  1
  Fe  Fe5  1  0.535873  0.477657  0.093079  1
  Fe  Fe6  1  0.469878  0.513888  0.506310  1
  Fe  Fe7  1  0.502538  0.498334  0.299183  1
  Fe  Fe8  1  0.483044  0.516393  0.701841  1
  Fe  Fe9  1  0.479125  0.521239  0.899470  1
  O  O10  1  0.201955  0.797309  0.296522  1
  O  O11  1  0.192043  0.822127  0.498095  1
  O  O12  1  0.185388  0.809138  0.701979  1
  O  O13  1  0.185069  0.817907  0.903502  1
  O  O14  1  0.307912  0.302607  0.997090  1
  O  O15  1  0.319865  0.324406  0.399550  1
  O  O16  1  0.297786  0.307927  0.605613  1
  O  O17  1  0.303533  0.311352  0.801162  1
  O  O18  1  0.699303  0.697763  0.995872  1
  O  O19  1  0.686969  0.668584  0.198454  1
  O  O20  1  0.687357  0.696710  0.603771  1
  O  O21  1  0.687627  0.697373  0.800914  1
  O  O22  1  0.820058  0.172647  0.097879  1
  O  O23  1  0.803201  0.197727  0.300797  1
  F  F24  1  0.202078  0.786999  0.100643  1
  F  F25  1  0.303689  0.282088  0.194739  1
  F  F26  1  0.703793  0.709382  0.403121  1
  F  F27  1  0.803731  0.207367  0.500414  1
  F  F28  1  0.801565  0.203369  0.898205  1
  F  F29  1  0.800619  0.196118  0.702025  1
