# generated using pymatgen
data_Zr2N2O
_symmetry_space_group_name_H-M   'P 1'
_cell_length_a   8.87510788
_cell_length_b   8.86910655
_cell_length_c   8.88817250
_cell_angle_alpha   109.60528574
_cell_angle_beta   109.43471842
_cell_angle_gamma   109.40574852
_symmetry_Int_Tables_number   1
_chemical_formula_structural   Zr2N2O
_chemical_formula_sum   'Zr16 N16 O8'
_cell_volume   538.35757047
_cell_formula_units_Z   8
loop_
 _symmetry_equiv_pos_site_id
 _symmetry_equiv_pos_as_xyz
  1  'x, y, z'
loop_
 _atom_site_type_symbol
 _atom_site_label
 _atom_site_symmetry_multiplicity
 _atom_site_fract_x
 _atom_site_fract_y
 _atom_site_fract_z
 _atom_site_occupancy
  Zr  Zr0  1  0.964382  0.250208  0.213620  1
  Zr  Zr1  1  0.507540  0.006094  0.996826  1
  Zr  Zr2  1  0.710774  0.461838  0.241875  1
  Zr  Zr3  1  0.789735  0.034662  0.760034  1
  Zr  Zr4  1  0.747572  0.286147  0.527984  1
  Zr  Zr5  1  0.750876  0.779798  0.033185  1
  Zr  Zr6  1  0.491713  0.497500  0.509487  1
  Zr  Zr7  1  0.458305  0.249907  0.714237  1
  Zr  Zr8  1  0.537450  0.750045  0.293241  1
  Zr  Zr9  1  0.008890  0.507588  0.995750  1
  Zr  Zr10  1  0.006767  0.995855  0.505854  1
  Zr  Zr11  1  0.258824  0.717384  0.470381  1
  Zr  Zr12  1  0.239665  0.211439  0.953639  1
  Zr  Zr13  1  0.280449  0.535291  0.744465  1
  Zr  Zr14  1  0.219606  0.961197  0.256784  1
  Zr  Zr15  1  0.038177  0.750780  0.787435  1
  N  N16  1  0.740791  0.229247  0.275053  1
  N  N17  1  0.468228  0.227844  0.451979  1
  N  N18  1  0.770166  0.727425  0.260445  1
  N  N19  1  0.048245  0.276828  0.014798  1
  N  N20  1  0.273658  0.736117  0.223212  1
  N  N21  1  0.225956  0.452431  0.463878  1
  N  N22  1  0.514519  0.241008  0.968513  1
  N  N23  1  0.986428  0.952072  0.724800  1
  N  N24  1  0.543637  0.535722  0.772913  1
  N  N25  1  0.958079  0.731572  0.992387  1
  N  N26  1  0.534706  0.771527  0.541954  1
  N  N27  1  0.224138  0.271029  0.737961  1
  N  N28  1  0.027298  0.485416  0.757862  1
  N  N29  1  0.726412  0.986074  0.955236  1
  N  N30  1  0.233740  0.964738  0.507180  1
  N  N31  1  0.263630  0.775708  0.731202  1
  O  O32  1  0.758223  0.035395  0.488755  1
  O  O33  1  0.271995  0.010936  0.044066  1
  O  O34  1  0.963297  0.510087  0.237152  1
  O  O35  1  0.458457  0.466613  0.229456  1
  O  O36  1  0.726201  0.256786  0.771538  1
  O  O37  1  0.011507  0.048511  0.275027  1
  O  O38  1  0.772196  0.547052  0.532264  1
  O  O39  1  0.487765  0.764124  0.037571  1
