# generated using pymatgen
data_Li6V3P8O29
_symmetry_space_group_name_H-M   'P 1'
_cell_length_a   9.80824935
_cell_length_b   9.83369835
_cell_length_c   14.01527655
_cell_angle_alpha   90.50510407
_cell_angle_beta   90.66705672
_cell_angle_gamma   60.04228381
_symmetry_Int_Tables_number   1
_chemical_formula_structural   Li6V3P8O29
_chemical_formula_sum   'Li12 V6 P16 O58'
_cell_volume   1171.09878023
_cell_formula_units_Z   2
loop_
 _symmetry_equiv_pos_site_id
 _symmetry_equiv_pos_as_xyz
  1  'x, y, z'
loop_
 _atom_site_type_symbol
 _atom_site_label
 _atom_site_symmetry_multiplicity
 _atom_site_fract_x
 _atom_site_fract_y
 _atom_site_fract_z
 _atom_site_occupancy
  Li  Li0  1  0.765964  0.907210  0.553991  1
  Li  Li1  1  0.908596  0.331536  0.556842  1
  Li  Li2  1  0.676601  0.668496  0.890194  1
  Li  Li3  1  0.771584  0.313446  0.065885  1
  Li  Li4  1  0.320203  0.906103  0.068442  1
  Li  Li5  1  0.662484  0.238110  0.434966  1
  Li  Li6  1  0.333806  0.765241  0.556295  1
  Li  Li7  1  0.698338  0.080704  0.943902  1
  Li  Li8  1  0.226477  0.681478  0.945495  1
  Li  Li9  1  0.101222  0.665450  0.434627  1
  Li  Li10  1  0.092717  0.221535  0.945850  1
  Li  Li11  1  0.042064  0.010379  0.481980  1
  V  V12  1  0.563702  0.431912  0.248935  1
  V  V13  1  0.432110  0.568232  0.747146  1
  V  V14  1  0.562352  0.000493  0.747447  1
  V  V15  1  0.429837  0.005012  0.254419  1
  V  V16  1  0.998661  0.566201  0.249090  1
  V  V17  1  0.000075  0.436378  0.750355  1
  P  P18  1  0.912553  0.774213  0.840012  1
  P  P19  1  0.774843  0.915355  0.341900  1
  P  P20  1  0.912959  0.313689  0.342998  1
  P  P21  1  0.664559  0.664208  0.130293  1
  P  P22  1  0.667080  0.666833  0.628162  1
  P  P23  1  0.768965  0.322958  0.843949  1
  P  P24  1  0.685543  0.229766  0.658076  1
  P  P25  1  0.321314  0.909282  0.844292  1
  P  P26  1  0.680489  0.084988  0.157640  1
  P  P27  1  0.315215  0.773619  0.340090  1
  P  P28  1  0.226002  0.681550  0.158375  1
  P  P29  1  0.332670  0.336065  0.371480  1
  P  P30  1  0.333953  0.333629  0.870073  1
  P  P31  1  0.083160  0.685075  0.654705  1
  P  P32  1  0.220700  0.083013  0.658595  1
  P  P33  1  0.086880  0.230508  0.160893  1
  O  O34  1  0.000015  0.766944  0.563561  1
  O  O35  1  0.919631  0.749707  0.342151  1
  O  O36  1  0.753970  0.001862  0.067270  1
  O  O37  1  0.746352  0.921849  0.841285  1
  O  O38  1  0.888118  0.629193  0.825150  1
  O  O39  1  0.812497  0.661453  0.177740  1
  O  O40  1  0.916470  0.466655  0.335970  1
  O  O41  1  0.997000  0.241375  0.070399  1
  O  O42  1  0.920488  0.333834  0.846167  1
  O  O43  1  0.675876  0.812720  0.670879  1
  O  O44  1  0.621351  0.911656  0.331873  1
  O  O45  1  0.812056  0.512864  0.671276  1
  O  O46  1  0.671540  0.659645  0.022817  1
  O  O47  1  0.672521  0.666119  0.522040  1
  O  O48  1  0.669621  0.510625  0.165803  1
  O  O49  1  0.488801  0.884168  0.825686  1
  O  O50  1  0.513842  0.813353  0.166418  1
  O  O51  1  0.741573  0.342200  0.337025  1
  O  O52  1  0.789165  0.211937  0.752408  1
  O  O53  1  0.768567  0.236521  0.569930  1
  O  O54  1  0.749822  0.247855  0.931819  1
  O  O55  1  0.628272  0.489424  0.824179  1
  O  O56  1  0.510631  0.677560  0.665344  1
  O  O57  1  0.660774  0.251978  0.159732  1
  O  O58  1  0.468443  0.618525  0.332667  1
  O  O59  1  0.342941  0.914682  0.335985  1
  O  O60  1  0.793174  0.999687  0.248583  1
  O  O61  1  0.779006  0.005108  0.430016  1
  O  O62  1  0.206648  0.988687  0.578413  1
  O  O63  1  0.662031  0.086283  0.656461  1
  O  O64  1  0.527439  0.384903  0.673898  1
  O  O65  1  0.335056  0.744589  0.840491  1
  O  O66  1  0.488028  0.322798  0.330713  1
  O  O67  1  0.379418  0.522677  0.177327  1
  O  O68  1  0.244874  0.756205  0.069878  1
  O  O69  1  0.220528  0.786890  0.428916  1
  O  O70  1  0.205963  0.794006  0.248748  1
  O  O71  1  0.249812  0.666286  0.658862  1
  O  O72  1  0.478829  0.182247  0.823525  1
  O  O73  1  0.520945  0.094134  0.178181  1
  O  O74  1  0.333956  0.481163  0.830873  1
  O  O75  1  0.337022  0.322992  0.975691  1
  O  O76  1  0.334433  0.344719  0.477969  1
  O  O77  1  0.185982  0.491774  0.330043  1
  O  O78  1  0.380104  0.078659  0.665160  1
  O  O79  1  0.320739  0.195789  0.328198  1
  O  O80  1  0.084448  0.658736  0.158891  1
  O  O81  1  0.989327  0.796596  0.743180  1
  O  O82  1  0.012569  0.759601  0.923354  1
  O  O83  1  0.089625  0.526938  0.669410  1
  O  O84  1  0.181536  0.335103  0.827433  1
  O  O85  1  0.102940  0.376071  0.176881  1
  O  O86  1  0.250465  0.080392  0.160924  1
  O  O87  1  0.251802  0.994419  0.936172  1
  O  O88  1  0.205518  0.007714  0.758930  1
  O  O89  1  0.080359  0.251611  0.659272  1
  O  O90  1  0.987280  0.220532  0.432453  1
  O  O91  1  0.996991  0.207547  0.250011  1
