# generated using pymatgen
data_NaTi6O12
_symmetry_space_group_name_H-M   'P 1'
_cell_length_a   5.96498635
_cell_length_b   5.96788767
_cell_length_c   7.16528217
_cell_angle_alpha   82.74851399
_cell_angle_beta   94.71726167
_cell_angle_gamma   59.90298641
_symmetry_Int_Tables_number   1
_chemical_formula_structural   NaTi6O12
_chemical_formula_sum   'Na1 Ti6 O12'
_cell_volume   215.74738875
_cell_formula_units_Z   1
loop_
 _symmetry_equiv_pos_site_id
 _symmetry_equiv_pos_as_xyz
  1  'x, y, z'
loop_
 _atom_site_type_symbol
 _atom_site_label
 _atom_site_symmetry_multiplicity
 _atom_site_fract_x
 _atom_site_fract_y
 _atom_site_fract_z
 _atom_site_occupancy
  Na  Na0  1  0.590703  0.363518  0.442684  1
  Ti  Ti1  1  0.993650  0.001177  0.006056  1
  Ti  Ti2  1  0.066942  0.414484  0.301097  1
  Ti  Ti3  1  0.412064  0.071260  0.698276  1
  Ti  Ti4  1  0.505430  0.497116  0.984646  1
  Ti  Ti5  1  0.559763  0.913449  0.300012  1
  Ti  Ti6  1  0.944015  0.602507  0.689393  1
  O  O7  1  0.267624  0.043839  0.450412  1
  O  O8  1  0.103781  0.206740  0.812420  1
  O  O9  1  0.391522  0.296092  0.190729  1
  O  O10  1  0.234521  0.448665  0.553349  1
  O  O11  1  0.128671  0.697001  0.865550  1
  O  O12  1  0.623837  0.191266  0.864056  1
  O  O13  1  0.866957  0.305216  0.143268  1
  O  O14  1  0.377742  0.799132  0.139747  1
  O  O15  1  0.784140  0.558796  0.449304  1
  O  O16  1  0.611820  0.695239  0.808615  1
  O  O17  1  0.891419  0.797940  0.187138  1
  O  O18  1  0.725099  0.955863  0.554049  1
