# generated using pymatgen
data_KVH4O7
_symmetry_space_group_name_H-M   'P 1'
_cell_length_a   6.57639303
_cell_length_b   7.89607082
_cell_length_c   7.72218446
_cell_angle_alpha   101.13173140
_cell_angle_beta   95.40081858
_cell_angle_gamma   115.99811463
_symmetry_Int_Tables_number   1
_chemical_formula_structural   KVH4O7
_chemical_formula_sum   'K2 V2 H8 O14'
_cell_volume   346.29638567
_cell_formula_units_Z   2
loop_
 _symmetry_equiv_pos_site_id
 _symmetry_equiv_pos_as_xyz
  1  'x, y, z'
loop_
 _atom_site_type_symbol
 _atom_site_label
 _atom_site_symmetry_multiplicity
 _atom_site_fract_x
 _atom_site_fract_y
 _atom_site_fract_z
 _atom_site_occupancy
  K  K0  1  0.009267  0.986515  0.008351  1
  K  K1  1  0.631661  0.423810  0.598666  1
  V  V2  1  0.433237  0.901787  0.778525  1
  V  V3  1  0.253842  0.549225  0.952015  1
  H  H4  1  0.276202  0.638843  0.303013  1
  H  H5  1  0.984032  0.513584  0.196212  1
  H  H6  1  0.705299  0.055694  0.497185  1
  H  H7  1  0.635524  0.062175  0.298969  1
  H  H8  1  0.685599  0.305482  0.093550  1
  H  H9  1  0.682657  0.516713  0.130705  1
  H  H10  1  0.129916  0.832370  0.432324  1
  H  H11  1  0.018794  0.964047  0.444716  1
  O  O12  1  0.421342  0.946220  0.029402  1
  O  O13  1  0.645713  0.079671  0.995617  1
  O  O14  1  0.463855  0.741659  0.572490  1
  O  O15  1  0.679148  0.922297  0.656984  1
  O  O16  1  0.152188  0.635501  0.752413  1
  O  O17  1  0.019770  0.624487  0.896337  1
  O  O18  1  0.551672  0.656113  0.893261  1
  O  O19  1  0.562567  0.653012  0.082580  1
  O  O20  1  0.312969  0.023224  0.702763  1
  O  O21  1  0.144523  0.314660  0.871998  1
  O  O22  1  0.163738  0.548482  0.193521  1
  O  O23  1  0.727960  0.144722  0.417698  1
  O  O24  1  0.747559  0.437811  0.179226  1
  O  O25  1  0.033167  0.865296  0.356381  1
