# generated using pymatgen
data_Li4Ni3SnO8
_symmetry_space_group_name_H-M   'P 1'
_cell_length_a   10.33973461
_cell_length_b   10.35034335
_cell_length_c   14.65289649
_cell_angle_alpha   19.42691236
_cell_angle_beta   19.43160090
_cell_angle_gamma   33.43344681
_symmetry_Int_Tables_number   1
_chemical_formula_structural   Li4Ni3SnO8
_chemical_formula_sum   'Li4 Ni3 Sn1 O8'
_cell_volume   150.72347812
_cell_formula_units_Z   1
loop_
 _symmetry_equiv_pos_site_id
 _symmetry_equiv_pos_as_xyz
  1  'x, y, z'
loop_
 _atom_site_type_symbol
 _atom_site_label
 _atom_site_symmetry_multiplicity
 _atom_site_fract_x
 _atom_site_fract_y
 _atom_site_fract_z
 _atom_site_occupancy
  Li  Li0  1  0.999951  0.999942  0.500066  1
  Li  Li1  1  0.999935  0.499925  0.500088  1
  Li  Li2  1  0.499931  0.999929  0.500088  1
  Li  Li3  1  0.499978  0.499972  0.500030  1
  Ni  Ni4  1  0.000213  0.500152  -0.000243  1
  Ni  Ni5  1  0.500102  0.000183  -0.000199  1
  Ni  Ni6  1  0.499855  0.499875  0.000168  1
  Sn  Sn7  1  0.000333  0.000340  -0.000426  1
  O  O8  1  0.992251  0.994170  0.274023  1
  O  O9  1  0.007463  0.504890  0.244759  1
  O  O10  1  0.504067  0.001495  0.248676  1
  O  O11  1  0.007581  0.005661  0.726216  1
  O  O12  1  0.502380  0.503073  0.251404  1
  O  O13  1  0.992450  0.495106  0.755312  1
  O  O14  1  0.495931  0.998412  0.751396  1
  O  O15  1  0.497580  0.496874  0.748640  1
