# generated using pymatgen
data_Li8Fe7Sb(PO4)12
_symmetry_space_group_name_H-M   'P 1'
_cell_length_a   8.66837025
_cell_length_b   8.79565297
_cell_length_c   12.23361333
_cell_angle_alpha   90.22298589
_cell_angle_beta   90.00900645
_cell_angle_gamma   90.09081053
_symmetry_Int_Tables_number   1
_chemical_formula_structural   Li8Fe7Sb(PO4)12
_chemical_formula_sum   'Li8 Fe7 Sb1 P12 O48'
_cell_volume   932.73108057
_cell_formula_units_Z   1
loop_
 _symmetry_equiv_pos_site_id
 _symmetry_equiv_pos_as_xyz
  1  'x, y, z'
loop_
 _atom_site_type_symbol
 _atom_site_label
 _atom_site_symmetry_multiplicity
 _atom_site_fract_x
 _atom_site_fract_y
 _atom_site_fract_z
 _atom_site_occupancy
  Li  Li0  1  0.217110  0.722943  0.182406  1
  Li  Li1  1  0.218882  0.777392  0.817819  1
  Li  Li2  1  0.282507  0.222450  0.317786  1
  Li  Li3  1  0.280501  0.276672  0.682680  1
  Li  Li4  1  0.715979  0.724043  0.315812  1
  Li  Li5  1  0.717191  0.788862  0.682606  1
  Li  Li6  1  0.783897  0.222142  0.181967  1
  Li  Li7  1  0.786375  0.274279  0.825655  1
  Fe  Fe8  1  0.247481  0.959977  0.612560  1
  Fe  Fe9  1  0.248849  0.540262  0.386631  1
  Fe  Fe10  1  0.251048  0.040819  0.112642  1
  Fe  Fe11  1  0.251478  0.458463  0.887541  1
  Fe  Fe12  1  0.748685  0.540651  0.111456  1
  Fe  Fe13  1  0.748014  0.960381  0.889360  1
  Fe  Fe14  1  0.750919  0.037956  0.385965  1
  Sb  Sb15  1  0.752194  0.461642  0.613016  1
  P  P16  1  0.041865  0.247613  0.498449  1
  P  P17  1  0.461139  0.749638  0.000058  1
  P  P18  1  0.539004  0.250226  0.000946  1
  P  P19  1  0.961624  0.750514  0.497899  1
  P  P20  1  0.105203  0.392549  0.146566  1
  P  P21  1  0.106119  0.106207  0.853214  1
  P  P22  1  0.392063  0.604195  0.646208  1
  P  P23  1  0.393746  0.892937  0.353726  1
  P  P24  1  0.602985  0.106153  0.645112  1
  P  P25  1  0.604089  0.392207  0.349932  1
  P  P26  1  0.896164  0.609350  0.852079  1
  P  P27  1  0.895153  0.892094  0.146522  1
  O  O28  1  0.053730  0.637055  0.430795  1
  O  O29  1  0.054601  0.855111  0.571972  1
  O  O30  1  0.073704  0.895369  0.155593  1
  O  O31  1  0.072829  0.604355  0.840633  1
  O  O32  1  0.145492  0.163061  0.580520  1
  O  O33  1  0.146570  0.337962  0.420617  1
  O  O34  1  0.154520  0.434428  0.030306  1
  O  O35  1  0.156072  0.065826  0.969253  1
  O  O36  1  0.161827  0.232481  0.179272  1
  O  O37  1  0.161765  0.267299  0.820748  1
  O  O38  1  0.173160  0.514306  0.225439  1
  O  O39  1  0.174388  0.985351  0.773856  1
  O  O40  1  0.326013  0.013530  0.274562  1
  O  O41  1  0.328987  0.483505  0.725150  1
  O  O42  1  0.344602  0.766397  0.680155  1
  O  O43  1  0.336361  0.732218  0.320678  1
  O  O44  1  0.348698  0.565418  0.529155  1
  O  O45  1  0.344059  0.934482  0.470060  1
  O  O46  1  0.352404  0.837102  0.079483  1
  O  O47  1  0.352234  0.661849  0.920894  1
  O  O48  1  0.426634  0.109685  0.656365  1
  O  O49  1  0.426954  0.394040  0.344116  1
  O  O50  1  0.443344  0.142548  0.071224  1
  O  O51  1  0.444080  0.357659  0.929608  1
  O  O52  1  0.556763  0.642823  0.071097  1
  O  O53  1  0.556533  0.856960  0.928921  1
  O  O54  1  0.577796  0.603988  0.656742  1
  O  O55  1  0.572473  0.895562  0.344054  1
  O  O56  1  0.647085  0.338054  0.080520  1
  O  O57  1  0.647442  0.162660  0.921374  1
  O  O58  1  0.655577  0.072512  0.529430  1
  O  O59  1  0.652599  0.434482  0.470712  1
  O  O60  1  0.664322  0.232921  0.320520  1
  O  O61  1  0.664136  0.272159  0.681547  1
  O  O62  1  0.675583  0.514729  0.275838  1
  O  O63  1  0.675184  0.992867  0.725802  1
  O  O64  1  0.826565  0.013020  0.225728  1
  O  O65  1  0.825264  0.482170  0.770622  1
  O  O66  1  0.838391  0.731325  0.178349  1
  O  O67  1  0.834937  0.766257  0.817933  1
  O  O68  1  0.841289  0.560335  0.964624  1
  O  O69  1  0.845252  0.932550  0.030350  1
  O  O70  1  0.850003  0.662695  0.582464  1
  O  O71  1  0.849073  0.835023  0.421856  1
  O  O72  1  0.927172  0.103352  0.844859  1
  O  O73  1  0.926327  0.395609  0.154979  1
  O  O74  1  0.939873  0.143394  0.430921  1
  O  O75  1  0.947070  0.360896  0.573693  1
