# generated using pymatgen
data_Li5Fe7O3F13
_symmetry_space_group_name_H-M   'P 1'
_cell_length_a   6.17082990
_cell_length_b   6.17082990
_cell_length_c   10.80383097
_cell_angle_alpha   106.34800185
_cell_angle_beta   73.65199815
_cell_angle_gamma   121.06776466
_symmetry_Int_Tables_number   1
_chemical_formula_structural   Li5Fe7O3F13
_chemical_formula_sum   'Li5 Fe7 O3 F13'
_cell_volume   333.46511965
_cell_formula_units_Z   1
loop_
 _symmetry_equiv_pos_site_id
 _symmetry_equiv_pos_as_xyz
  1  'x, y, z'
loop_
 _atom_site_type_symbol
 _atom_site_label
 _atom_site_symmetry_multiplicity
 _atom_site_fract_x
 _atom_site_fract_y
 _atom_site_fract_z
 _atom_site_occupancy
  Li  Li0  1  0.010450  0.989550  0.988091  1
  Li  Li1  1  0.117288  0.882712  0.631484  1
  Li  Li2  1  0.598765  0.401235  0.132991  1
  Li  Li3  1  0.525533  0.474467  0.507617  1
  Li  Li4  1  0.557062  0.442938  0.808550  1
  Fe  Fe5  1  0.317848  0.682152  0.063570  1
  Fe  Fe6  1  0.060882  0.939118  0.313073  1
  Fe  Fe7  1  0.562993  0.936434  0.313096  1
  Fe  Fe8  1  0.063566  0.437007  0.313096  1
  Fe  Fe9  1  0.609668  0.973825  0.807199  1
  Fe  Fe10  1  0.026175  0.390332  0.807199  1
  Fe  Fe11  1  0.815101  0.184899  0.560629  1
  O  O12  1  0.403724  0.596276  0.199826  1
  O  O13  1  0.724369  0.275631  0.425826  1
  O  O14  1  0.927252  0.072748  0.676892  1
  F  F15  1  0.177412  0.822588  0.433490  1
  F  F16  1  0.202359  0.304743  0.431786  1
  F  F17  1  0.695257  0.797641  0.431786  1
  F  F18  1  0.422859  0.063082  0.187611  1
  F  F19  1  0.936918  0.577141  0.187611  1
  F  F20  1  0.209232  0.790768  0.932368  1
  F  F21  1  0.431458  0.568542  0.706049  1
  F  F22  1  0.950633  0.049367  0.185369  1
  F  F23  1  0.676455  0.812845  0.931538  1
  F  F24  1  0.187155  0.323545  0.931538  1
  F  F25  1  0.922523  0.554293  0.701157  1
  F  F26  1  0.445707  0.077477  0.701157  1
  F  F27  1  0.671357  0.328643  0.939404  1
