# generated using pymatgen
data_Li4Fe3Co2Sn3O16
_symmetry_space_group_name_H-M   'P 1'
_cell_length_a   6.10419166
_cell_length_b   6.11122699
_cell_length_c   9.48551757
_cell_angle_alpha   90.01830653
_cell_angle_beta   90.03847239
_cell_angle_gamma   120.01633498
_symmetry_Int_Tables_number   1
_chemical_formula_structural   Li4Fe3Co2Sn3O16
_chemical_formula_sum   'Li4 Fe3 Co2 Sn3 O16'
_cell_volume   306.39135648
_cell_formula_units_Z   1
loop_
 _symmetry_equiv_pos_site_id
 _symmetry_equiv_pos_as_xyz
  1  'x, y, z'
loop_
 _atom_site_type_symbol
 _atom_site_label
 _atom_site_symmetry_multiplicity
 _atom_site_fract_x
 _atom_site_fract_y
 _atom_site_fract_z
 _atom_site_occupancy
  Li  Li0  1  0.340222  0.670082  0.888183  1
  Li  Li1  1  0.969826  0.984890  0.988389  1
  Li  Li2  1  0.975807  0.987897  0.500819  1
  Li  Li3  1  0.670302  0.335153  0.398043  1
  Fe  Fe4  1  0.664731  0.832469  0.212454  1
  Fe  Fe5  1  0.830263  0.655101  0.714243  1
  Fe  Fe6  1  0.830692  0.175616  0.714206  1
  Co  Co7  1  0.339890  0.670042  0.489200  1
  Co  Co8  1  0.675438  0.337722  0.977505  1
  Sn  Sn9  1  0.170533  0.831118  0.210671  1
  Sn  Sn10  1  0.170442  0.339369  0.210612  1
  Sn  Sn11  1  0.345031  0.172532  0.711274  1
  O  O12  1  0.170440  0.827709  0.593908  1
  O  O13  1  0.048403  0.524217  0.351580  1
  O  O14  1  0.344657  0.672250  0.097113  1
  O  O15  1  0.995628  0.997931  0.313515  1
  O  O16  1  0.994709  0.997336  0.800393  1
  O  O17  1  0.170411  0.342437  0.594057  1
  O  O18  1  0.480436  0.950682  0.351426  1
  O  O19  1  0.480250  0.529936  0.351348  1
  O  O20  1  0.330699  0.165294  0.093672  1
  O  O21  1  0.648198  0.823963  0.598839  1
  O  O22  1  0.531172  0.480921  0.850506  1
  O  O23  1  0.531267  0.050266  0.850419  1
  O  O24  1  0.678258  0.339096  0.599207  1
  O  O25  1  0.829190  0.664045  0.099314  1
  O  O26  1  0.953948  0.477052  0.847635  1
  O  O27  1  0.829156  0.165173  0.099309  1
