# generated using pymatgen
data_Li4V3P8O29
_symmetry_space_group_name_H-M   'P 1'
_cell_length_a   9.78095943
_cell_length_b   9.78862425
_cell_length_c   14.25203879
_cell_angle_alpha   89.85015828
_cell_angle_beta   90.00957370
_cell_angle_gamma   59.75526794
_symmetry_Int_Tables_number   1
_chemical_formula_structural   Li4V3P8O29
_chemical_formula_sum   'Li8 V6 P16 O58'
_cell_volume   1178.77880732
_cell_formula_units_Z   2
loop_
 _symmetry_equiv_pos_site_id
 _symmetry_equiv_pos_as_xyz
  1  'x, y, z'
loop_
 _atom_site_type_symbol
 _atom_site_label
 _atom_site_symmetry_multiplicity
 _atom_site_fract_x
 _atom_site_fract_y
 _atom_site_fract_z
 _atom_site_occupancy
  Li  Li0  1  0.760745  0.904280  0.557133  1
  Li  Li1  1  0.907949  0.330098  0.560373  1
  Li  Li2  1  0.766744  0.327962  0.059371  1
  Li  Li3  1  0.328825  0.902194  0.058927  1
  Li  Li4  1  0.328800  0.765477  0.561637  1
  Li  Li5  1  0.331413  0.335937  0.103062  1
  Li  Li6  1  0.973878  0.968298  0.003843  1
  Li  Li7  1  0.003647  0.000550  0.497645  1
  V  V8  1  0.568776  0.433316  0.251849  1
  V  V9  1  0.436026  0.564543  0.747660  1
  V  V10  1  0.564415  0.999186  0.752032  1
  V  V11  1  0.432846  0.001410  0.251875  1
  V  V12  1  0.997030  0.570739  0.249260  1
  V  V13  1  0.999871  0.438182  0.753908  1
  P  P14  1  0.917922  0.777965  0.842364  1
  P  P15  1  0.774386  0.917446  0.341111  1
  P  P16  1  0.918023  0.310571  0.343913  1
  P  P17  1  0.665359  0.666420  0.129827  1
  P  P18  1  0.668523  0.668629  0.630591  1
  P  P19  1  0.774464  0.312079  0.844621  1
  P  P20  1  0.697252  0.219317  0.663185  1
  P  P21  1  0.313668  0.911318  0.843261  1
  P  P22  1  0.691111  0.088360  0.158164  1
  P  P23  1  0.310750  0.774919  0.343916  1
  P  P24  1  0.219344  0.692720  0.163170  1
  P  P25  1  0.331355  0.335148  0.366511  1
  P  P26  1  0.333664  0.333990  0.866177  1
  P  P27  1  0.083385  0.693505  0.657965  1
  P  P28  1  0.219368  0.087039  0.663046  1
  P  P29  1  0.087731  0.221901  0.161687  1
  O  O30  1  0.991184  0.793543  0.576363  1
  O  O31  1  0.914257  0.744965  0.328327  1
  O  O32  1  0.791033  0.998974  0.078023  1
  O  O33  1  0.742191  0.912811  0.828934  1
  O  O34  1  0.919562  0.618008  0.829302  1
  O  O35  1  0.815996  0.658200  0.177078  1
  O  O36  1  0.917933  0.466889  0.326361  1
  O  O37  1  0.990974  0.215495  0.083734  1
  O  O38  1  0.915924  0.342636  0.827272  1
  O  O39  1  0.671824  0.816853  0.672434  1
  O  O40  1  0.617541  0.915923  0.324036  1
  O  O41  1  0.813266  0.517563  0.676019  1
  O  O42  1  0.663260  0.671886  0.025814  1
  O  O43  1  0.682216  0.667865  0.526293  1
  O  O44  1  0.665947  0.516366  0.167492  1
  O  O45  1  0.473447  0.908153  0.824217  1
  O  O46  1  0.518201  0.817224  0.172968  1
  O  O47  1  0.748256  0.341112  0.327819  1
  O  O48  1  0.790908  0.192654  0.761559  1
  O  O49  1  0.803516  0.205210  0.583963  1
  O  O50  1  0.791852  0.232195  0.936310  1
  O  O51  1  0.621038  0.467886  0.828915  1
  O  O52  1  0.513684  0.675587  0.664415  1
  O  O53  1  0.655142  0.262401  0.158689  1
  O  O54  1  0.466459  0.621620  0.329000  1
  O  O55  1  0.339087  0.917500  0.325778  1
  O  O56  1  0.788197  0.015484  0.256071  1
  O  O57  1  0.784332  0.983289  0.432927  1
  O  O58  1  0.205833  0.994870  0.584074  1
  O  O59  1  0.656790  0.084132  0.661149  1
  O  O60  1  0.542394  0.380379  0.671281  1
  O  O61  1  0.343366  0.743435  0.825684  1
  O  O62  1  0.477132  0.333177  0.323684  1
  O  O63  1  0.374444  0.530666  0.170185  1
  O  O64  1  0.207115  0.797838  0.083973  1
  O  O65  1  0.230918  0.795375  0.436161  1
  O  O66  1  0.193460  0.787864  0.260855  1
  O  O67  1  0.256364  0.657215  0.657029  1
  O  O68  1  0.479725  0.181869  0.821631  1
  O  O69  1  0.528368  0.095761  0.169040  1
  O  O70  1  0.333639  0.477448  0.823885  1
  O  O71  1  0.334020  0.325637  0.970471  1
  O  O72  1  0.323744  0.329777  0.469705  1
  O  O73  1  0.182532  0.480304  0.318984  1
  O  O74  1  0.381471  0.079253  0.672535  1
  O  O75  1  0.333908  0.185315  0.317686  1
  O  O76  1  0.081561  0.655958  0.162987  1
  O  O77  1  0.007237  0.794833  0.752614  1
  O  O78  1  0.991076  0.793487  0.928776  1
  O  O79  1  0.078903  0.538207  0.672707  1
  O  O80  1  0.185518  0.332953  0.821903  1
  O  O81  1  0.098672  0.374715  0.169742  1
  O  O82  1  0.262544  0.080913  0.157407  1
  O  O83  1  0.244556  0.976535  0.936167  1
  O  O84  1  0.194690  0.019242  0.761607  1
  O  O85  1  0.083689  0.262236  0.660792  1
  O  O86  1  0.981271  0.232015  0.436192  1
  O  O87  1  0.022796  0.194775  0.260529  1
