# generated using pymatgen
data_FeOF
_symmetry_space_group_name_H-M   'P 1'
_cell_length_a   14.13048944
_cell_length_b   14.23480615
_cell_length_c   3.10529240
_cell_angle_alpha   90.00000000
_cell_angle_beta   90.00000000
_cell_angle_gamma   90.18852383
_symmetry_Int_Tables_number   1
_chemical_formula_structural   FeOF
_chemical_formula_sum   'Fe18 O18 F18'
_cell_volume   624.60996922
_cell_formula_units_Z   18
loop_
 _symmetry_equiv_pos_site_id
 _symmetry_equiv_pos_as_xyz
  1  'x, y, z'
loop_
 _atom_site_type_symbol
 _atom_site_label
 _atom_site_symmetry_multiplicity
 _atom_site_fract_x
 _atom_site_fract_y
 _atom_site_fract_z
 _atom_site_occupancy
  Fe  Fe0  1  0.017043  0.990686  0.000000  1
  Fe  Fe1  1  0.005525  0.323565  0.000000  1
  Fe  Fe2  1  0.001146  0.675810  0.000000  1
  Fe  Fe3  1  0.153418  0.161999  0.500000  1
  Fe  Fe4  1  0.175848  0.511513  0.500000  1
  Fe  Fe5  1  0.164668  0.823698  0.500000  1
  Fe  Fe6  1  0.348581  0.997302  0.000000  1
  Fe  Fe7  1  0.344405  0.336334  0.000000  1
  Fe  Fe8  1  0.329554  0.671623  0.000000  1
  Fe  Fe9  1  0.480824  0.507031  0.500000  1
  Fe  Fe10  1  0.504318  0.146631  0.500000  1
  Fe  Fe11  1  0.507575  0.851076  0.500000  1
  Fe  Fe12  1  0.665859  0.999597  0.000000  1
  Fe  Fe13  1  0.678960  0.330026  0.000000  1
  Fe  Fe14  1  0.680208  0.666199  0.000000  1
  Fe  Fe15  1  0.814061  0.155792  0.500000  1
  Fe  Fe16  1  0.817341  0.498699  0.500000  1
  Fe  Fe17  1  0.812866  0.839052  0.500000  1
  O  O18  1  0.067407  0.271869  0.500000  1
  O  O19  1  0.068465  0.929139  0.500000  1
  O  O20  1  0.101747  0.102430  0.000000  1
  O  O21  1  0.101410  0.764674  0.000000  1
  O  O22  1  0.228958  0.563309  0.000000  1
  O  O23  1  0.267101  0.733892  0.500000  1
  O  O24  1  0.396083  0.605729  0.500000  1
  O  O25  1  0.396989  0.934223  0.500000  1
  O  O26  1  0.435413  0.102348  0.000000  1
  O  O27  1  0.430011  0.435097  0.000000  1
  O  O28  1  0.568345  0.900064  0.000000  1
  O  O29  1  0.604593  0.063464  0.500000  1
  O  O30  1  0.730987  0.267411  0.500000  1
  O  O31  1  0.733391  0.602446  0.500000  1
  O  O32  1  0.729720  0.938285  0.500000  1
  O  O33  1  0.767394  0.097885  0.000000  1
  O  O34  1  0.770668  0.435101  0.000000  1
  O  O35  1  0.765731  0.771392  0.000000  1
  F  F36  1  0.059691  0.596736  0.500000  1
  F  F37  1  0.099371  0.437280  0.000000  1
  F  F38  1  0.237403  0.233639  0.000000  1
  F  F39  1  0.232235  0.901682  0.000000  1
  F  F40  1  0.267158  0.068240  0.500000  1
  F  F41  1  0.262369  0.392156  0.500000  1
  F  F42  1  0.400368  0.266141  0.500000  1
  F  F43  1  0.440688  0.771929  0.000000  1
  F  F44  1  0.563663  0.235313  0.000000  1
  F  F45  1  0.564311  0.566441  0.000000  1
  F  F46  1  0.600430  0.400725  0.500000  1
  F  F47  1  0.599668  0.729057  0.500000  1
  F  F48  1  0.899144  0.231382  0.000000  1
  F  F49  1  0.902724  0.567321  0.000000  1
  F  F50  1  0.899143  0.899819  0.000000  1
  F  F51  1  0.936410  0.062682  0.500000  1
  F  F52  1  0.937811  0.399806  0.500000  1
  F  F53  1  0.930801  0.734258  0.500000  1
