# generated using pymatgen
data_CaH8(NO5)2
_symmetry_space_group_name_H-M   'P 1'
_cell_length_a   6.33634699
_cell_length_b   9.22361758
_cell_length_c   14.73145921
_cell_angle_alpha   89.99999275
_cell_angle_beta   98.44515311
_cell_angle_gamma   89.99999262
_symmetry_Int_Tables_number   1
_chemical_formula_structural   CaH8(NO5)2
_chemical_formula_sum   'Ca4 H32 N8 O40'
_cell_volume   851.63047529
_cell_formula_units_Z   4
loop_
 _symmetry_equiv_pos_site_id
 _symmetry_equiv_pos_as_xyz
  1  'x, y, z'
loop_
 _atom_site_type_symbol
 _atom_site_label
 _atom_site_symmetry_multiplicity
 _atom_site_fract_x
 _atom_site_fract_y
 _atom_site_fract_z
 _atom_site_occupancy
  Ca  Ca0  1  0.041705  0.087517  0.364571  1
  Ca  Ca1  1  0.541705  0.412482  0.864572  1
  Ca  Ca2  1  0.458295  0.587518  0.135428  1
  Ca  Ca3  1  0.958295  0.912483  0.635429  1
  H  H4  1  0.153097  0.211457  0.888003  1
  H  H5  1  0.114334  0.389337  0.741289  1
  H  H6  1  0.171543  0.554821  0.744010  1
  H  H7  1  0.139995  0.627446  0.570673  1
  H  H8  1  0.001674  0.491428  0.067014  1
  H  H9  1  0.360005  0.127446  0.929327  1
  H  H10  1  0.328457  0.054820  0.755990  1
  H  H11  1  0.123344  0.347856  0.094337  1
  H  H12  1  0.385666  0.889337  0.758711  1
  H  H13  1  0.185779  0.866341  0.142835  1
  H  H14  1  0.346903  0.711457  0.611997  1
  H  H15  1  0.313133  0.321388  0.459546  1
  H  H16  1  0.186867  0.821388  0.040454  1
  H  H17  1  0.314221  0.366341  0.357165  1
  H  H18  1  0.376656  0.847856  0.405663  1
  H  H19  1  0.498326  0.991428  0.432986  1
  H  H20  1  0.501674  0.008572  0.567014  1
  H  H21  1  0.623344  0.152144  0.594337  1
  H  H22  1  0.685779  0.633659  0.642835  1
  H  H23  1  0.813133  0.178612  0.959546  1
  H  H24  1  0.686867  0.678612  0.540454  1
  H  H25  1  0.653097  0.288543  0.388003  1
  H  H26  1  0.814221  0.133659  0.857165  1
  H  H27  1  0.614334  0.110663  0.241289  1
  H  H28  1  0.876656  0.652144  0.905663  1
  H  H29  1  0.671543  0.945180  0.244010  1
  H  H30  1  0.639995  0.872554  0.070673  1
  H  H31  1  0.998326  0.508572  0.932986  1
  H  H32  1  0.860005  0.372554  0.429327  1
  H  H33  1  0.828457  0.445179  0.255990  1
  H  H34  1  0.885666  0.610663  0.258711  1
  H  H35  1  0.846903  0.788543  0.111997  1
  N  N36  1  0.073067  0.234514  0.592226  1
  N  N37  1  0.096851  0.126893  0.170790  1
  N  N38  1  0.426933  0.734514  0.907773  1
  N  N39  1  0.403149  0.626892  0.329210  1
  N  N40  1  0.596851  0.373108  0.670790  1
  N  N41  1  0.573067  0.265486  0.092227  1
  N  N42  1  0.903149  0.873107  0.829210  1
  N  N43  1  0.926933  0.765486  0.407774  1
  O  O44  1  0.022216  0.217367  0.671608  1
  O  O45  1  0.082082  0.120922  0.542255  1
  O  O46  1  0.194150  0.464960  0.779267  1
  O  O47  1  0.113552  0.357102  0.562358  1
  O  O48  1  0.026400  0.227983  0.216331  1
  O  O49  1  0.194844  0.699221  0.617211  1
  O  O50  1  0.305156  0.199221  0.882789  1
  O  O51  1  0.386448  0.857102  0.937642  1
  O  O52  1  0.305850  0.964960  0.720733  1
  O  O53  1  0.108570  0.141100  0.086984  1
  O  O54  1  0.157385  0.009836  0.213826  1
  O  O55  1  0.144101  0.450980  0.079532  1
  O  O56  1  0.417918  0.620922  0.957745  1
  O  O57  1  0.173050  0.780574  0.100929  1
  O  O58  1  0.326950  0.280574  0.399071  1
  O  O59  1  0.477784  0.717367  0.828392  1
  O  O60  1  0.355899  0.950980  0.420468  1
  O  O61  1  0.342615  0.509836  0.286174  1
  O  O62  1  0.391430  0.641100  0.413016  1
  O  O63  1  0.526400  0.272017  0.716331  1
  O  O64  1  0.473600  0.727983  0.283669  1
  O  O65  1  0.608570  0.358900  0.586984  1
  O  O66  1  0.657385  0.490164  0.713826  1
  O  O67  1  0.644101  0.049020  0.579532  1
  O  O68  1  0.522216  0.282633  0.171608  1
  O  O69  1  0.673050  0.719426  0.600929  1
  O  O70  1  0.826950  0.219426  0.899071  1
  O  O71  1  0.582082  0.379078  0.042255  1
  O  O72  1  0.855899  0.549020  0.920468  1
  O  O73  1  0.842615  0.990164  0.786174  1
  O  O74  1  0.891430  0.858900  0.913016  1
  O  O75  1  0.694150  0.035040  0.279267  1
  O  O76  1  0.613552  0.142898  0.062358  1
  O  O77  1  0.694844  0.800779  0.117211  1
  O  O78  1  0.805156  0.300779  0.382789  1
  O  O79  1  0.973600  0.772017  0.783669  1
  O  O80  1  0.886448  0.642898  0.437642  1
  O  O81  1  0.805850  0.535040  0.220733  1
  O  O82  1  0.917918  0.879078  0.457745  1
  O  O83  1  0.977784  0.782633  0.328392  1
