# generated using pymatgen
data_LiP3(WO6)2
_symmetry_space_group_name_H-M   'P 1'
_cell_length_a   8.85683550
_cell_length_b   8.93516432
_cell_length_c   8.90648984
_cell_angle_alpha   119.89389634
_cell_angle_beta   59.81437076
_cell_angle_gamma   119.87582358
_symmetry_Int_Tables_number   1
_chemical_formula_structural   LiP3(WO6)2
_chemical_formula_sum   'Li2 P6 W4 O24'
_cell_volume   498.55288604
_cell_formula_units_Z   2
loop_
 _symmetry_equiv_pos_site_id
 _symmetry_equiv_pos_as_xyz
  1  'x, y, z'
loop_
 _atom_site_type_symbol
 _atom_site_label
 _atom_site_symmetry_multiplicity
 _atom_site_fract_x
 _atom_site_fract_y
 _atom_site_fract_z
 _atom_site_occupancy
  Li  Li0  1  0.523002  0.492443  0.396853  1
  Li  Li1  1  0.976998  0.007557  0.927412  1
  P  P2  1  0.040110  0.251324  0.459840  1
  P  P3  1  0.541409  0.749239  0.247126  1
  P  P4  1  0.250000  0.750000  0.962155  1
  P  P5  1  0.750000  0.250000  0.039752  1
  P  P6  1  0.459890  0.248676  0.748626  1
  P  P7  1  0.958591  0.750761  0.539297  1
  W  W8  1  0.143024  0.425200  0.142013  1
  W  W9  1  0.356976  0.074800  0.359837  1
  W  W10  1  0.641226  0.924466  0.642292  1
  W  W11  1  0.858774  0.575534  0.859052  1
  O  O12  1  0.294495  0.923456  0.124116  1
  O  O13  1  0.115664  0.926681  0.513324  1
  O  O14  1  0.058225  0.254698  0.279346  1
  O  O15  1  0.005858  0.424555  0.622143  1
  O  O16  1  0.086095  0.746031  0.939214  1
  O  O17  1  0.505903  0.922694  0.297639  1
  O  O18  1  0.384336  0.573319  0.202307  1
  O  O19  1  0.228196  0.254165  0.435149  1
  O  O20  1  0.565264  0.743507  0.405393  1
  O  O21  1  0.725256  0.752701  0.079722  1
  O  O22  1  0.205505  0.576544  0.995154  1
  O  O23  1  0.413905  0.753969  0.779278  1
  O  O24  1  0.587512  0.258462  0.226486  1
  O  O25  1  0.799461  0.425430  0.009996  1
  O  O26  1  0.271804  0.245835  0.909181  1
  O  O27  1  0.441775  0.245302  0.582874  1
  O  O28  1  0.774744  0.747299  0.552276  1
  O  O29  1  0.494142  0.075445  0.703446  1
  O  O30  1  0.620127  0.422942  0.795329  1
  O  O31  1  0.912488  0.241538  0.055536  1
  O  O32  1  0.994097  0.577306  0.380849  1
  O  O33  1  0.934736  0.756493  0.727149  1
  O  O34  1  0.879873  0.077058  0.492513  1
  O  O35  1  0.700539  0.074570  0.884027  1
