# generated using pymatgen
data_Li2DyPCO7
_symmetry_space_group_name_H-M   'P 1'
_cell_length_a   9.13956315
_cell_length_b   6.76341064
_cell_length_c   4.92255095
_cell_angle_alpha   90.00000000
_cell_angle_beta   86.63694041
_cell_angle_gamma   90.00000000
_symmetry_Int_Tables_number   1
_chemical_formula_structural   Li2DyPCO7
_chemical_formula_sum   'Li4 Dy2 P2 C2 O14'
_cell_volume   303.76158628
_cell_formula_units_Z   2
loop_
 _symmetry_equiv_pos_site_id
 _symmetry_equiv_pos_as_xyz
  1  'x, y, z'
loop_
 _atom_site_type_symbol
 _atom_site_label
 _atom_site_symmetry_multiplicity
 _atom_site_fract_x
 _atom_site_fract_y
 _atom_site_fract_z
 _atom_site_occupancy
  Li  Li0  1  0.198992  0.018422  0.199598  1
  Li  Li1  1  0.198992  0.481578  0.199598  1
  Li  Li2  1  0.801008  0.518422  0.800402  1
  Li  Li3  1  0.801008  0.981578  0.800402  1
  Dy  Dy4  1  0.365793  0.750000  0.738443  1
  Dy  Dy5  1  0.634207  0.250000  0.261557  1
  P  P6  1  0.405214  0.250000  0.728352  1
  P  P7  1  0.594786  0.750000  0.271648  1
  C  C8  1  0.064825  0.750000  0.742375  1
  C  C9  1  0.935175  0.250000  0.257625  1
  O  O10  1  0.073617  0.250000  0.270357  1
  O  O11  1  0.129316  0.750000  0.973323  1
  O  O12  1  0.153969  0.750000  0.521214  1
  O  O13  1  0.334618  0.064487  0.862631  1
  O  O14  1  0.334618  0.435513  0.862631  1
  O  O15  1  0.424345  0.750000  0.238521  1
  O  O16  1  0.390409  0.250000  0.415156  1
  O  O17  1  0.609591  0.750000  0.584844  1
  O  O18  1  0.575655  0.250000  0.761479  1
  O  O19  1  0.665382  0.564487  0.137369  1
  O  O20  1  0.665382  0.935513  0.137369  1
  O  O21  1  0.846031  0.250000  0.478786  1
  O  O22  1  0.870684  0.250000  0.026677  1
  O  O23  1  0.926383  0.750000  0.729643  1
