# generated using pymatgen
data_LaTa2NO5
_symmetry_space_group_name_H-M   'P 1'
_cell_length_a   11.30557797
_cell_length_b   7.74117518
_cell_length_c   5.52936276
_cell_angle_alpha   89.98394104
_cell_angle_beta   90.00226263
_cell_angle_gamma   90.03195215
_symmetry_Int_Tables_number   1
_chemical_formula_structural   LaTa2NO5
_chemical_formula_sum   'La4 Ta8 N4 O20'
_cell_volume   483.92121666
_cell_formula_units_Z   4
loop_
 _symmetry_equiv_pos_site_id
 _symmetry_equiv_pos_as_xyz
  1  'x, y, z'
loop_
 _atom_site_type_symbol
 _atom_site_label
 _atom_site_symmetry_multiplicity
 _atom_site_fract_x
 _atom_site_fract_y
 _atom_site_fract_z
 _atom_site_occupancy
  La  La0  1  0.039376  0.752411  0.553341  1
  La  La1  1  0.457095  0.247632  0.045286  1
  La  La2  1  0.538339  0.754228  0.951935  1
  La  La3  1  0.962914  0.247572  0.448348  1
  Ta  Ta4  1  0.141538  0.997730  0.037477  1
  Ta  Ta5  1  0.143445  0.504257  0.039064  1
  Ta  Ta6  1  0.357147  0.002902  0.541695  1
  Ta  Ta7  1  0.356703  0.496451  0.538907  1
  Ta  Ta8  1  0.646449  0.000894  0.446709  1
  Ta  Ta9  1  0.642770  0.496435  0.457429  1
  Ta  Ta10  1  0.858402  0.492918  0.965121  1
  Ta  Ta11  1  0.851138  0.996018  0.964668  1
  N  N12  1  0.145900  0.749664  0.953748  1
  N  N13  1  0.356933  0.250952  0.451906  1
  N  N14  1  0.707470  0.941134  0.129828  1
  N  N15  1  0.854966  0.251626  0.044451  1
  O  O16  1  0.028222  0.036866  0.766442  1
  O  O17  1  0.023430  0.464661  0.771926  1
  O  O18  1  0.121999  0.250534  0.152798  1
  O  O19  1  0.211112  0.555672  0.372013  1
  O  O20  1  0.211336  0.944897  0.371757  1
  O  O21  1  0.289589  0.057002  0.873332  1
  O  O22  1  0.289985  0.443784  0.871974  1
  O  O23  1  0.379163  0.749600  0.649722  1
  O  O24  1  0.478275  0.536937  0.271712  1
  O  O25  1  0.475774  0.963263  0.272297  1
  O  O26  1  0.521228  0.033456  0.728501  1
  O  O27  1  0.525403  0.466595  0.728791  1
  O  O28  1  0.621895  0.252191  0.357755  1
  O  O29  1  0.642501  0.748903  0.549898  1
  O  O30  1  0.711053  0.558767  0.134907  1
  O  O31  1  0.788890  0.053684  0.626353  1
  O  O32  1  0.787029  0.448540  0.628424  1
  O  O33  1  0.878873  0.751060  0.843866  1
  O  O34  1  0.976754  0.536135  0.230385  1
  O  O35  1  0.976906  0.964629  0.227237  1
