# generated using pymatgen
data_LiVCrP2(HO5)2
_symmetry_space_group_name_H-M   'P 1'
_cell_length_a   7.44060728
_cell_length_b   11.02001228
_cell_length_c   6.88595142
_cell_angle_alpha   72.79959472
_cell_angle_beta   89.38131881
_cell_angle_gamma   81.32980851
_symmetry_Int_Tables_number   1
_chemical_formula_structural   LiVCrP2(HO5)2
_chemical_formula_sum   'Li3 V3 Cr3 P6 H6 O30'
_cell_volume   532.86093754
_cell_formula_units_Z   3
loop_
 _symmetry_equiv_pos_site_id
 _symmetry_equiv_pos_as_xyz
  1  'x, y, z'
loop_
 _atom_site_type_symbol
 _atom_site_label
 _atom_site_symmetry_multiplicity
 _atom_site_fract_x
 _atom_site_fract_y
 _atom_site_fract_z
 _atom_site_occupancy
  Li  Li0  1  0.688332  0.159502  0.750083  1
  Li  Li1  1  0.647662  0.506380  0.915801  1
  Li  Li2  1  0.310906  0.839976  0.249719  1
  V  V3  1  0.667729  0.834592  0.830163  1
  V  V4  1  0.334701  0.166868  0.171726  1
  V  V5  1  0.000867  0.501225  0.496840  1
  Cr  Cr6  1  0.668237  0.332976  0.333981  1
  Cr  Cr7  1  0.330902  0.665292  0.668230  1
  Cr  Cr8  1  0.001390  0.999694  0.000367  1
  P  P9  1  0.927059  0.300358  0.947125  1
  P  P10  1  0.742624  0.032448  0.383618  1
  P  P11  1  0.406876  0.365104  0.719632  1
  P  P12  1  0.594034  0.634777  0.280676  1
  P  P13  1  0.258410  0.966415  0.616224  1
  P  P14  1  0.075694  0.700041  0.050908  1
  H  H15  1  0.328380  0.017240  0.955793  1
  H  H16  1  0.999176  0.338890  0.309421  1
  H  H17  1  0.662399  0.682308  0.623466  1
  H  H18  1  0.334653  0.328708  0.358214  1
  H  H19  1  0.001072  0.660207  0.692641  1
  H  H20  1  0.671676  0.983421  0.044839  1
  O  O21  1  0.923352  0.187659  0.859901  1
  O  O22  1  0.911534  0.429565  0.772252  1
  O  O23  1  0.420182  0.235587  0.895041  1
  O  O24  1  0.899809  0.718157  0.913788  1
  O  O25  1  0.729488  0.144027  0.477021  1
  O  O26  1  0.912516  0.021439  0.262533  1
  O  O27  1  0.411853  0.477546  0.806880  1
  O  O28  1  0.913188  0.369152  0.401024  1
  O  O29  1  0.579263  0.345860  0.599664  1
  O  O30  1  0.570981  0.048009  0.241207  1
  O  O31  1  0.747970  0.971701  0.930458  1
  O  O32  1  0.586562  0.693864  0.738278  1
  O  O33  1  0.243603  0.686391  0.926921  1
  O  O34  1  0.254585  0.092908  0.436998  1
  O  O35  1  0.235399  0.383978  0.579448  1
  O  O36  1  0.761890  0.617920  0.426261  1
  O  O37  1  0.744746  0.905496  0.563030  1
  O  O38  1  0.755224  0.319396  0.068435  1
  O  O39  1  0.420817  0.297496  0.267174  1
  O  O40  1  0.252942  0.027521  0.071073  1
  O  O41  1  0.430862  0.951148  0.758045  1
  O  O42  1  0.419942  0.651537  0.398366  1
  O  O43  1  0.087394  0.629396  0.601841  1
  O  O44  1  0.604178  0.522732  0.189756  1
  O  O45  1  0.088779  0.977881  0.737837  1
  O  O46  1  0.273001  0.854118  0.523978  1
  O  O47  1  0.099698  0.281595  0.086088  1
  O  O48  1  0.580884  0.764437  0.104997  1
  O  O49  1  0.079051  0.573624  0.229058  1
  O  O50  1  0.075946  0.812462  0.140780  1
