# generated using pymatgen
data_Fe5O3F7
_symmetry_space_group_name_H-M   'P 1'
_cell_length_a   4.82201098
_cell_length_b   4.82201098
_cell_length_c   15.70924233
_cell_angle_alpha   89.97928330
_cell_angle_beta   89.97928330
_cell_angle_gamma   91.55484416
_symmetry_Int_Tables_number   1
_chemical_formula_structural   Fe5O3F7
_chemical_formula_sum   'Fe10 O6 F14'
_cell_volume   365.13346566
_cell_formula_units_Z   2
loop_
 _symmetry_equiv_pos_site_id
 _symmetry_equiv_pos_as_xyz
  1  'x, y, z'
loop_
 _atom_site_type_symbol
 _atom_site_label
 _atom_site_symmetry_multiplicity
 _atom_site_fract_x
 _atom_site_fract_y
 _atom_site_fract_z
 _atom_site_occupancy
  Fe  Fe0  1  0.991259  0.968984  0.992983  1
  Fe  Fe1  1  0.978604  0.980102  0.199150  1
  Fe  Fe2  1  0.019898  0.021396  0.400850  1
  Fe  Fe3  1  0.031016  0.008741  0.607017  1
  Fe  Fe4  1  0.025736  0.974264  0.800000  1
  Fe  Fe5  1  0.527675  0.520236  0.101469  1
  Fe  Fe6  1  0.479764  0.472325  0.498531  1
  Fe  Fe7  1  0.499499  0.500501  0.300000  1
  Fe  Fe8  1  0.477070  0.509053  0.694744  1
  Fe  Fe9  1  0.490947  0.522930  0.905256  1
  O  O10  1  0.181927  0.814605  0.700390  1
  O  O11  1  0.185395  0.818073  0.899610  1
  O  O12  1  0.324038  0.322223  0.396790  1
  O  O13  1  0.302639  0.303200  0.593289  1
  O  O14  1  0.696800  0.697361  0.006711  1
  O  O15  1  0.677777  0.675962  0.203210  1
  F  F16  1  0.197131  0.795502  0.096506  1
  F  F17  1  0.203036  0.796964  0.300000  1
  F  F18  1  0.204498  0.802869  0.503494  1
  F  F19  1  0.291330  0.293229  0.010825  1
  F  F20  1  0.298296  0.297321  0.199461  1
  F  F21  1  0.297148  0.306351  0.802062  1
  F  F22  1  0.702679  0.701704  0.400539  1
  F  F23  1  0.706771  0.708670  0.589175  1
  F  F24  1  0.693649  0.702852  0.797938  1
  F  F25  1  0.799076  0.193768  0.095150  1
  F  F26  1  0.806232  0.200924  0.504850  1
  F  F27  1  0.796183  0.203817  0.300000  1
  F  F28  1  0.804199  0.190271  0.898312  1
  F  F29  1  0.809729  0.195801  0.701687  1
