# generated using pymatgen
data_K2P3H7O9
_symmetry_space_group_name_H-M   'P 1'
_cell_length_a   8.75701208
_cell_length_b   9.16738622
_cell_length_c   7.65277116
_cell_angle_alpha   112.99755618
_cell_angle_beta   88.48765929
_cell_angle_gamma   100.87655922
_symmetry_Int_Tables_number   1
_chemical_formula_structural   K2P3H7O9
_chemical_formula_sum   'K4 P6 H14 O18'
_cell_volume   554.60720859
_cell_formula_units_Z   2
loop_
 _symmetry_equiv_pos_site_id
 _symmetry_equiv_pos_as_xyz
  1  'x, y, z'
loop_
 _atom_site_type_symbol
 _atom_site_label
 _atom_site_symmetry_multiplicity
 _atom_site_fract_x
 _atom_site_fract_y
 _atom_site_fract_z
 _atom_site_occupancy
  K  K0  1  0.596175  0.902591  0.683991  1
  K  K1  1  0.403825  0.097409  0.316009  1
  K  K2  1  0.076198  0.849714  0.591231  1
  K  K3  1  0.923802  0.150286  0.408769  1
  P  P4  1  0.102550  0.776318  0.060442  1
  P  P5  1  0.897450  0.223682  0.939558  1
  P  P6  1  0.720439  0.482271  0.531126  1
  P  P7  1  0.279561  0.517729  0.468874  1
  P  P8  1  0.635443  0.758367  0.145101  1
  P  P9  1  0.364557  0.241633  0.854899  1
  H  H10  1  0.088432  0.624848  0.072502  1
  H  H11  1  0.911568  0.375152  0.927498  1
  H  H12  1  0.292396  0.747725  0.853337  1
  H  H13  1  0.707604  0.252275  0.146663  1
  H  H14  1  0.598724  0.497364  0.658252  1
  H  H15  1  0.401276  0.502636  0.341748  1
  H  H16  1  0.916355  0.572732  0.747028  1
  H  H17  1  0.083645  0.427268  0.252972  1
  H  H18  1  0.485942  0.669185  0.070655  1
  H  H19  1  0.514058  0.330815  0.929345  1
  H  H20  1  0.823106  0.789093  0.952550  1
  H  H21  1  0.176894  0.210907  0.047450  1
  H  H22  1  0.740914  0.634865  0.301903  1
  H  H23  1  0.259086  0.365135  0.698097  1
  O  O24  1  0.092608  0.906044  0.254419  1
  O  O25  1  0.907392  0.093956  0.745581  1
  O  O26  1  0.984791  0.755241  0.901897  1
  O  O27  1  0.015209  0.244759  0.098103  1
  O  O28  1  0.275310  0.810742  0.993529  1
  O  O29  1  0.724690  0.189258  0.006471  1
  O  O30  1  0.674918  0.322282  0.363061  1
  O  O31  1  0.325082  0.677718  0.636939  1
  O  O32  1  0.757317  0.637051  0.494295  1
  O  O33  1  0.242683  0.362949  0.505705  1
  O  O34  1  0.862794  0.466562  0.644657  1
  O  O35  1  0.137206  0.533438  0.355343  1
  O  O36  1  0.624964  0.903995  0.322691  1
  O  O37  1  0.375036  0.096005  0.677309  1
  O  O38  1  0.706991  0.799363  0.974367  1
  O  O39  1  0.293009  0.200637  0.025633  1
  O  O40  1  0.731315  0.637176  0.166862  1
  O  O41  1  0.268685  0.362824  0.833138  1
