# generated using pymatgen
data_LiCuF3
_symmetry_space_group_name_H-M   'P 1'
_cell_length_a   5.05728622
_cell_length_b   5.05692901
_cell_length_c   14.61170152
_cell_angle_alpha   90.00025864
_cell_angle_beta   90.00008819
_cell_angle_gamma   59.99241146
_symmetry_Int_Tables_number   1
_chemical_formula_structural   LiCuF3
_chemical_formula_sum   'Li6 Cu6 F18'
_cell_volume   323.59559382
_cell_formula_units_Z   6
loop_
 _symmetry_equiv_pos_site_id
 _symmetry_equiv_pos_as_xyz
  1  'x, y, z'
loop_
 _atom_site_type_symbol
 _atom_site_label
 _atom_site_symmetry_multiplicity
 _atom_site_fract_x
 _atom_site_fract_y
 _atom_site_fract_z
 _atom_site_occupancy
  Li  Li0  1  0.058596  0.058535  0.416651  1
  Li  Li1  1  0.058505  0.882962  0.083336  1
  Li  Li2  1  0.117123  0.941438  0.250010  1
  Li  Li3  1  0.882988  0.058494  0.750000  1
  Li  Li4  1  0.941420  0.117174  0.583332  1
  Li  Li5  1  0.941318  0.941387  0.916651  1
  Cu  Cu6  1  0.286057  0.286133  0.916717  1
  Cu  Cu7  1  0.286103  0.427803  0.583291  1
  Cu  Cu8  1  0.427894  0.286055  0.249990  1
  Cu  Cu9  1  0.572325  0.713821  0.749999  1
  Cu  Cu10  1  0.713783  0.572413  0.083307  1
  Cu  Cu11  1  0.713896  0.713799  0.416704  1
  F  F12  1  0.999870  0.241014  0.000010  1
  F  F13  1  0.109581  0.298919  0.323685  1
  F  F14  1  0.298961  0.109412  0.509641  1
  F  F15  1  0.999949  0.759074  0.499974  1
  F  F16  1  0.109573  0.591626  0.176305  1
  F  F17  1  0.298734  0.591719  0.990345  1
  F  F18  1  0.240983  0.759191  0.666633  1
  F  F19  1  0.591471  0.109652  0.657040  1
  F  F20  1  0.240935  0.999828  0.833370  1
  F  F21  1  0.591407  0.298765  0.842969  1
  F  F22  1  0.408739  0.700965  0.342954  1
  F  F23  1  0.759117  0.000020  0.333394  1
  F  F24  1  0.408683  0.890465  0.157096  1
  F  F25  1  0.759116  0.240893  0.166608  1
  F  F26  1  0.701057  0.408412  0.490345  1
  F  F27  1  0.890522  0.408522  0.676275  1
  F  F28  1  0.700814  0.890672  0.009627  1
  F  F29  1  0.890516  0.700811  0.823727  1
