# generated using pymatgen
data_MgCoO3
_symmetry_space_group_name_H-M   'P 1'
_cell_length_a   4.91168943
_cell_length_b   5.12228325
_cell_length_c   7.17085413
_cell_angle_alpha   89.98482769
_cell_angle_beta   90.00268854
_cell_angle_gamma   89.99944453
_symmetry_Int_Tables_number   1
_chemical_formula_structural   MgCoO3
_chemical_formula_sum   'Mg4 Co4 O12'
_cell_volume   180.41197512
_cell_formula_units_Z   4
loop_
 _symmetry_equiv_pos_site_id
 _symmetry_equiv_pos_as_xyz
  1  'x, y, z'
loop_
 _atom_site_type_symbol
 _atom_site_label
 _atom_site_symmetry_multiplicity
 _atom_site_fract_x
 _atom_site_fract_y
 _atom_site_fract_z
 _atom_site_occupancy
  Mg  Mg0  1  0.017723  0.932084  0.750058  1
  Mg  Mg1  1  0.482270  0.432110  0.750069  1
  Mg  Mg2  1  0.517728  0.567889  0.249932  1
  Mg  Mg3  1  0.982277  0.067919  0.249942  1
  Co  Co4  1  -0.000000  0.500000  -0.000000  1
  Co  Co5  1  1.000000  0.500000  0.500000  1
  Co  Co6  1  0.500000  -0.000000  0.500000  1
  Co  Co7  1  0.500000  0.999999  0.000000  1
  O  O8  1  0.125856  0.446862  0.249999  1
  O  O9  1  0.187440  0.191273  0.565676  1
  O  O10  1  0.187472  0.191300  0.934300  1
  O  O11  1  0.312574  0.691280  0.565677  1
  O  O12  1  0.312534  0.691294  0.934315  1
  O  O13  1  0.374142  0.946861  0.249995  1
  O  O14  1  0.625858  0.053139  0.750005  1
  O  O15  1  0.687466  0.308706  0.065685  1
  O  O16  1  0.687427  0.308719  0.434323  1
  O  O17  1  0.812528  0.808701  0.065700  1
  O  O18  1  0.812560  0.808727  0.434323  1
  O  O19  1  0.874144  0.553139  0.750001  1
