# generated using pymatgen
data_Nb3O7F
_symmetry_space_group_name_H-M   'P 1'
_cell_length_a   16.02879129
_cell_length_b   10.52278240
_cell_length_c   3.88590649
_cell_angle_alpha   90.00000000
_cell_angle_beta   90.00000000
_cell_angle_gamma   90.00000000
_symmetry_Int_Tables_number   1
_chemical_formula_structural   Nb3O7F
_chemical_formula_sum   'Nb12 O28 F4'
_cell_volume   655.42606637
_cell_formula_units_Z   4
loop_
 _symmetry_equiv_pos_site_id
 _symmetry_equiv_pos_as_xyz
  1  'x, y, z'
loop_
 _atom_site_type_symbol
 _atom_site_label
 _atom_site_symmetry_multiplicity
 _atom_site_fract_x
 _atom_site_fract_y
 _atom_site_fract_z
 _atom_site_occupancy
  Nb  Nb0  1  0.036075  0.250000  0.455379  1
  Nb  Nb1  1  0.166850  0.550524  0.498500  1
  Nb  Nb2  1  0.166850  0.949476  0.498500  1
  Nb  Nb3  1  0.333150  0.050524  0.998500  1
  Nb  Nb4  1  0.333150  0.449476  0.998500  1
  Nb  Nb5  1  0.463925  0.750000  0.955379  1
  Nb  Nb6  1  0.536075  0.250000  0.044621  1
  Nb  Nb7  1  0.666850  0.550524  0.001500  1
  Nb  Nb8  1  0.666850  0.949476  0.001500  1
  Nb  Nb9  1  0.833150  0.050524  0.501500  1
  Nb  Nb10  1  0.833150  0.449476  0.501500  1
  Nb  Nb11  1  0.963925  0.750000  0.544621  1
  O  O12  1  0.029086  0.250000  0.984480  1
  O  O13  1  0.063593  0.624677  0.508209  1
  O  O14  1  0.063593  0.875323  0.508209  1
  O  O15  1  0.120068  0.113393  0.490951  1
  O  O16  1  0.120068  0.386607  0.490951  1
  O  O17  1  0.203202  0.956825  0.997306  1
  O  O18  1  0.203202  0.543175  0.997306  1
  O  O19  1  0.296798  0.043175  0.497306  1
  O  O20  1  0.296798  0.456825  0.497306  1
  O  O21  1  0.379932  0.613393  0.990951  1
  O  O22  1  0.379932  0.886607  0.990951  1
  O  O23  1  0.436407  0.124677  0.008209  1
  O  O24  1  0.436407  0.375323  0.008209  1
  O  O25  1  0.470914  0.750000  0.484480  1
  O  O26  1  0.529086  0.250000  0.515520  1
  O  O27  1  0.563593  0.624677  0.991791  1
  O  O28  1  0.563593  0.875323  0.991791  1
  O  O29  1  0.620068  0.113393  0.009049  1
  O  O30  1  0.620068  0.386607  0.009049  1
  O  O31  1  0.703202  0.543175  0.502694  1
  O  O32  1  0.703202  0.956825  0.502694  1
  O  O33  1  0.796798  0.043175  0.002694  1
  O  O34  1  0.796798  0.456825  0.002694  1
  O  O35  1  0.879932  0.613393  0.509049  1
  O  O36  1  0.879932  0.886607  0.509049  1
  O  O37  1  0.936407  0.124677  0.491791  1
  O  O38  1  0.936407  0.375323  0.491791  1
  O  O39  1  0.970914  0.750000  0.015520  1
  F  F40  1  0.213462  0.750000  0.494746  1
  F  F41  1  0.286538  0.250000  0.994746  1
  F  F42  1  0.713462  0.750000  0.005254  1
  F  F43  1  0.786538  0.250000  0.505254  1
