# generated using pymatgen
data_Li4Fe2(PO4)3
_symmetry_space_group_name_H-M   'P 1'
_cell_length_a   9.23294828
_cell_length_b   8.49130864
_cell_length_c   8.39327052
_cell_angle_alpha   59.73829654
_cell_angle_beta   62.80942404
_cell_angle_gamma   62.52065177
_symmetry_Int_Tables_number   1
_chemical_formula_structural   Li4Fe2(PO4)3
_chemical_formula_sum   'Li8 Fe4 P6 O24'
_cell_volume   482.13015754
_cell_formula_units_Z   2
loop_
 _symmetry_equiv_pos_site_id
 _symmetry_equiv_pos_as_xyz
  1  'x, y, z'
loop_
 _atom_site_type_symbol
 _atom_site_label
 _atom_site_symmetry_multiplicity
 _atom_site_fract_x
 _atom_site_fract_y
 _atom_site_fract_z
 _atom_site_occupancy
  Li  Li0  1  0.142815  0.662406  0.276246  1
  Li  Li1  1  0.137688  0.273070  0.920785  1
  Li  Li2  1  0.102373  0.933822  0.689946  1
  Li  Li3  1  0.585532  0.215632  0.461619  1
  Li  Li4  1  0.414468  0.784368  0.538381  1
  Li  Li5  1  0.897627  0.066178  0.310054  1
  Li  Li6  1  0.862312  0.726930  0.079215  1
  Li  Li7  1  0.857185  0.337594  0.723754  1
  Fe  Fe8  1  0.039462  0.646107  0.659940  1
  Fe  Fe9  1  0.557534  0.152226  0.141288  1
  Fe  Fe10  1  0.442466  0.847774  0.858712  1
  Fe  Fe11  1  0.960538  0.353893  0.340060  1
  P  P12  1  0.243160  0.243472  0.551826  1
  P  P13  1  0.255803  0.955732  0.251085  1
  P  P14  1  0.250623  0.544399  0.955262  1
  P  P15  1  0.749377  0.455601  0.044738  1
  P  P16  1  0.744197  0.044268  0.748915  1
  P  P17  1  0.756840  0.756528  0.448174  1
  O  O18  1  0.106390  0.144245  0.202099  1
  O  O19  1  0.099223  0.565677  0.137973  1
  O  O20  1  0.095871  0.200476  0.552304  1
  O  O21  1  0.195472  0.456766  0.509813  1
  O  O22  1  0.269790  0.118213  0.755878  1
  O  O23  1  0.414900  0.187732  0.402496  1
  O  O24  1  0.279370  0.846184  0.133518  1
  O  O25  1  0.207651  0.833823  0.470896  1
  O  O26  1  0.200072  0.499695  0.835877  1
  O  O27  1  0.587429  0.608131  0.991474  1
  O  O28  1  0.713547  0.255906  0.170844  1
  O  O29  1  0.577737  0.008671  0.795699  1
  O  O30  1  0.422263  0.991329  0.204301  1
  O  O31  1  0.286453  0.744094  0.829156  1
  O  O32  1  0.412571  0.391869  0.008526  1
  O  O33  1  0.799928  0.500305  0.164123  1
  O  O34  1  0.792349  0.166177  0.529104  1
  O  O35  1  0.720630  0.153816  0.866482  1
  O  O36  1  0.585100  0.812268  0.597504  1
  O  O37  1  0.730210  0.881787  0.244122  1
  O  O38  1  0.804528  0.543234  0.490187  1
  O  O39  1  0.904129  0.799524  0.447696  1
  O  O40  1  0.900777  0.434323  0.862027  1
  O  O41  1  0.893610  0.855755  0.797901  1
