# generated using pymatgen
data_CuH12(NO)6
_symmetry_space_group_name_H-M   'P 1'
_cell_length_a   12.08699792
_cell_length_b   25.88470391
_cell_length_c   7.58746422
_cell_angle_alpha   90.00000000
_cell_angle_beta   90.00000000
_cell_angle_gamma   90.00000000
_symmetry_Int_Tables_number   1
_chemical_formula_structural   CuH12(NO)6
_chemical_formula_sum   'Cu8 H96 N48 O48'
_cell_volume   2373.87750467
_cell_formula_units_Z   8
loop_
 _symmetry_equiv_pos_site_id
 _symmetry_equiv_pos_as_xyz
  1  'x, y, z'
loop_
 _atom_site_type_symbol
 _atom_site_label
 _atom_site_symmetry_multiplicity
 _atom_site_fract_x
 _atom_site_fract_y
 _atom_site_fract_z
 _atom_site_occupancy
  Cu  Cu0  1  0.515340  0.405626  0.500000  1
  Cu  Cu1  1  0.484660  0.594374  0.500000  1
  Cu  Cu2  1  0.015340  0.094374  0.000000  1
  Cu  Cu3  1  0.984660  0.905626  0.000000  1
  Cu  Cu4  1  0.586165  0.111043  0.500000  1
  Cu  Cu5  1  0.413835  0.888957  0.500000  1
  Cu  Cu6  1  0.086165  0.388957  0.000000  1
  Cu  Cu7  1  0.913835  0.611043  0.000000  1
  H  H8  1  0.536421  0.315314  0.745096  1
  H  H9  1  0.463579  0.684686  0.745096  1
  H  H10  1  0.036421  0.184686  0.754904  1
  H  H11  1  0.963579  0.815314  0.754904  1
  H  H12  1  0.463579  0.684686  0.254904  1
  H  H13  1  0.536421  0.315314  0.254904  1
  H  H14  1  0.963579  0.815314  0.245096  1
  H  H15  1  0.036421  0.184686  0.245096  1
  H  H16  1  0.282943  0.388055  0.897813  1
  H  H17  1  0.717057  0.611945  0.897813  1
  H  H18  1  0.782943  0.111945  0.602187  1
  H  H19  1  0.217057  0.888055  0.602187  1
  H  H20  1  0.717057  0.611945  0.102187  1
  H  H21  1  0.282943  0.388055  0.102187  1
  H  H22  1  0.217057  0.888055  0.397813  1
  H  H23  1  0.782943  0.111945  0.397813  1
  H  H24  1  0.284466  0.287524  0.393758  1
  H  H25  1  0.715534  0.712476  0.393758  1
  H  H26  1  0.784466  0.212476  0.106242  1
  H  H27  1  0.215534  0.787524  0.106242  1
  H  H28  1  0.715534  0.712476  0.606242  1
  H  H29  1  0.284466  0.287524  0.606242  1
  H  H30  1  0.215534  0.787524  0.893758  1
  H  H31  1  0.784466  0.212476  0.893758  1
  H  H32  1  0.532595  0.443310  0.801673  1
  H  H33  1  0.467405  0.556690  0.801673  1
  H  H34  1  0.032595  0.056690  0.698327  1
  H  H35  1  0.967405  0.943310  0.698327  1
  H  H36  1  0.467405  0.556690  0.198327  1
  H  H37  1  0.532595  0.443310  0.198327  1
  H  H38  1  0.967405  0.943310  0.301673  1
  H  H39  1  0.032595  0.056690  0.301673  1
  H  H40  1  0.766972  0.360604  0.899611  1
  H  H41  1  0.233028  0.639396  0.899611  1
  H  H42  1  0.266972  0.139396  0.600389  1
  H  H43  1  0.733028  0.860604  0.600389  1
  H  H44  1  0.233028  0.639396  0.100389  1
  H  H45  1  0.766972  0.360604  0.100389  1
  H  H46  1  0.733028  0.860604  0.399611  1
  H  H47  1  0.266972  0.139396  0.399611  1
  H  H48  1  0.630902  0.466475  0.674338  1
  H  H49  1  0.369098  0.533525  0.674338  1
  H  H50  1  0.130902  0.033525  0.825662  1
  H  H51  1  0.869098  0.966475  0.825662  1
  H  H52  1  0.369098  0.533525  0.325662  1
  H  H53  1  0.630902  0.466475  0.325662  1
  H  H54  1  0.869098  0.966475  0.174338  1
  H  H55  1  0.130902  0.033525  0.174338  1
  H  H56  1  0.541549  0.083607  0.691221  1
  H  H57  1  0.458451  0.916393  0.691221  1
  H  H58  1  0.041549  0.416393  0.808779  1
  H  H59  1  0.958451  0.583607  0.808779  1
  H  H60  1  0.458451  0.916393  0.308779  1
  H  H61  1  0.541549  0.083607  0.308779  1
  H  H62  1  0.958451  0.583607  0.191221  1
  H  H63  1  0.041549  0.416393  0.191221  1
  H  H64  1  0.430174  0.129601  0.898444  1
  H  H65  1  0.569826  0.870399  0.898444  1
  H  H66  1  0.930174  0.370399  0.601556  1
  H  H67  1  0.069826  0.629601  0.601556  1
  H  H68  1  0.569826  0.870399  0.101556  1
  H  H69  1  0.430174  0.129601  0.101556  1
  H  H70  1  0.069826  0.629601  0.398444  1
  H  H71  1  0.930174  0.370399  0.398444  1
  H  H72  1  0.806099  0.874819  0.812779  1
  H  H73  1  0.193901  0.125181  0.812779  1
  H  H74  1  0.306099  0.625181  0.687221  1
  H  H75  1  0.693901  0.374819  0.687221  1
  H  H76  1  0.193901  0.125181  0.187221  1
  H  H77  1  0.806099  0.874819  0.187221  1
  H  H78  1  0.693901  0.374819  0.312779  1
  H  H79  1  0.306099  0.625181  0.312779  1
  H  H80  1  0.568089  0.110875  0.721533  1
  H  H81  1  0.431911  0.889125  0.721533  1
  H  H82  1  0.068089  0.389125  0.778467  1
  H  H83  1  0.931911  0.610875  0.778467  1
  H  H84  1  0.431911  0.889125  0.278467  1
  H  H85  1  0.568089  0.110875  0.278467  1
  H  H86  1  0.931911  0.610875  0.221533  1
  H  H87  1  0.068089  0.389125  0.221533  1
  H  H88  1  0.741360  0.393283  0.693386  1
  H  H89  1  0.258640  0.606717  0.693386  1
  H  H90  1  0.241360  0.106717  0.806614  1
  H  H91  1  0.758640  0.893283  0.806614  1
  H  H92  1  0.258640  0.606717  0.306614  1
  H  H93  1  0.741360  0.393283  0.306614  1
  H  H94  1  0.758640  0.893283  0.193386  1
  H  H95  1  0.241360  0.106717  0.193386  1
  H  H96  1  0.605705  0.183571  0.948797  1
  H  H97  1  0.394295  0.816429  0.948797  1
  H  H98  1  0.105705  0.316429  0.551203  1
  H  H99  1  0.894295  0.683571  0.551203  1
  H  H100  1  0.394295  0.816429  0.051203  1
  H  H101  1  0.605705  0.183571  0.051203  1
  H  H102  1  0.894295  0.683571  0.448797  1
  H  H103  1  0.105705  0.316429  0.448797  1
  N  N104  1  0.510850  0.339664  0.642899  1
  N  N105  1  0.489150  0.660336  0.642899  1
  N  N106  1  0.010850  0.160336  0.857101  1
  N  N107  1  0.989150  0.839664  0.857101  1
  N  N108  1  0.489150  0.660336  0.357101  1
  N  N109  1  0.510850  0.339664  0.357101  1
  N  N110  1  0.989150  0.839664  0.142899  1
  N  N111  1  0.010850  0.160336  0.142899  1
  N  N112  1  0.548357  0.456336  0.676298  1
  N  N113  1  0.451643  0.543664  0.676298  1
  N  N114  1  0.048357  0.043664  0.823702  1
  N  N115  1  0.951643  0.956336  0.823702  1
  N  N116  1  0.451643  0.543664  0.323702  1
  N  N117  1  0.548357  0.456336  0.323702  1
  N  N118  1  0.951643  0.956336  0.176298  1
  N  N119  1  0.048357  0.043664  0.176298  1
  N  N120  1  0.059881  0.250356  0.657747  1
  N  N121  1  0.940119  0.749644  0.657747  1
  N  N122  1  0.559881  0.249644  0.842253  1
  N  N123  1  0.440119  0.750356  0.842253  1
  N  N124  1  0.940119  0.749644  0.342253  1
  N  N125  1  0.059881  0.250356  0.342253  1
  N  N126  1  0.440119  0.750356  0.157747  1
  N  N127  1  0.559881  0.249644  0.157747  1
  N  N128  1  0.449785  0.005237  0.665239  1
  N  N129  1  0.550215  0.994763  0.665239  1
  N  N130  1  0.949785  0.494763  0.834761  1
  N  N131  1  0.050215  0.505237  0.834761  1
  N  N132  1  0.550215  0.994763  0.334761  1
  N  N133  1  0.449785  0.005237  0.334761  1
  N  N134  1  0.050215  0.505237  0.165239  1
  N  N135  1  0.949785  0.494763  0.165239  1
  N  N136  1  0.770533  0.287158  0.500000  1
  N  N137  1  0.229467  0.712842  0.500000  1
  N  N138  1  0.270533  0.212842  0.000000  1
  N  N139  1  0.729467  0.787158  0.000000  1
  N  N140  1  0.233398  0.438177  0.500000  1
  N  N141  1  0.766602  0.561823  0.500000  1
  N  N142  1  0.733398  0.061823  0.000000  1
  N  N143  1  0.266602  0.938177  0.000000  1
  N  N144  1  0.303679  0.213348  0.500000  1
  N  N145  1  0.696321  0.786652  0.500000  1
  N  N146  1  0.803679  0.286652  0.000000  1
  N  N147  1  0.196321  0.713348  0.000000  1
  N  N148  1  0.827095  0.025238  0.500000  1
  N  N149  1  0.172905  0.974762  0.500000  1
  N  N150  1  0.327095  0.474762  0.000000  1
  N  N151  1  0.672905  0.525238  0.000000  1
  O  O152  1  0.531824  0.309193  0.500000  1
  O  O153  1  0.468176  0.690807  0.500000  1
  O  O154  1  0.031824  0.190807  0.000000  1
  O  O155  1  0.968176  0.809193  0.000000  1
  O  O156  1  0.881388  0.371272  0.500000  1
  O  O157  1  0.118612  0.628728  0.500000  1
  O  O158  1  0.381388  0.128728  0.000000  1
  O  O159  1  0.618612  0.871272  0.000000  1
  O  O160  1  0.829745  0.251570  0.500000  1
  O  O161  1  0.170255  0.748430  0.500000  1
  O  O162  1  0.329745  0.248430  0.000000  1
  O  O163  1  0.670255  0.751570  0.000000  1
  O  O164  1  0.337664  0.443245  0.500000  1
  O  O165  1  0.662336  0.556755  0.500000  1
  O  O166  1  0.837664  0.056755  0.000000  1
  O  O167  1  0.162336  0.943245  0.000000  1
  O  O168  1  0.191169  0.391962  0.500000  1
  O  O169  1  0.808831  0.608038  0.500000  1
  O  O170  1  0.691169  0.108038  0.000000  1
  O  O171  1  0.308831  0.891962  0.000000  1
  O  O172  1  0.171574  0.476833  0.500000  1
  O  O173  1  0.828426  0.523167  0.500000  1
  O  O174  1  0.671574  0.023167  0.000000  1
  O  O175  1  0.328426  0.976833  0.000000  1
  O  O176  1  0.278537  0.116348  0.500000  1
  O  O177  1  0.721463  0.883652  0.500000  1
  O  O178  1  0.778537  0.383652  0.000000  1
  O  O179  1  0.221463  0.616348  0.000000  1
  O  O180  1  0.053218  0.238034  0.500000  1
  O  O181  1  0.946782  0.761966  0.500000  1
  O  O182  1  0.553218  0.261966  0.000000  1
  O  O183  1  0.446782  0.738034  0.000000  1
  O  O184  1  0.315498  0.271063  0.500000  1
  O  O185  1  0.684502  0.728937  0.500000  1
  O  O186  1  0.815498  0.228937  0.000000  1
  O  O187  1  0.184502  0.771063  0.000000  1
  O  O188  1  0.750061  0.129326  0.500000  1
  O  O189  1  0.249939  0.870674  0.500000  1
  O  O190  1  0.250061  0.370674  0.000000  1
  O  O191  1  0.749939  0.629326  0.000000  1
  O  O192  1  0.609984  0.989319  0.500000  1
  O  O193  1  0.390016  0.010681  0.500000  1
  O  O194  1  0.109984  0.510681  0.000000  1
  O  O195  1  0.890016  0.489319  0.000000  1
  O  O196  1  0.922790  0.035554  0.500000  1
  O  O197  1  0.077210  0.964446  0.500000  1
  O  O198  1  0.422790  0.464446  0.000000  1
  O  O199  1  0.577210  0.535554  0.000000  1
