# generated using pymatgen
data_Li6Ni2P(CO4)4
_symmetry_space_group_name_H-M   'P 1'
_cell_length_a   9.32611702
_cell_length_b   9.32611649
_cell_length_c   9.32611692
_cell_angle_alpha   90.00000370
_cell_angle_beta   60.00000321
_cell_angle_gamma   60.00000168
_symmetry_Int_Tables_number   1
_chemical_formula_structural   Li6Ni2P(CO4)4
_chemical_formula_sum   'Li12 Ni4 P2 C8 O32'
_cell_volume   573.57151204
_cell_formula_units_Z   2
loop_
 _symmetry_equiv_pos_site_id
 _symmetry_equiv_pos_as_xyz
  1  'x, y, z'
loop_
 _atom_site_type_symbol
 _atom_site_label
 _atom_site_symmetry_multiplicity
 _atom_site_fract_x
 _atom_site_fract_y
 _atom_site_fract_z
 _atom_site_occupancy
  Li  Li0  1  0.750000  0.657394  0.907394  1
  Li  Li1  1  0.685212  0.907394  0.657394  1
  Li  Li2  1  0.750000  0.657394  0.342606  1
  Li  Li3  1  0.750000  0.092606  0.907394  1
  Li  Li4  1  0.814788  0.342606  0.092606  1
  Li  Li5  1  0.250000  0.907394  0.657394  1
  Li  Li6  1  0.185212  0.657394  0.907394  1
  Li  Li7  1  0.750000  0.092606  0.342606  1
  Li  Li8  1  0.250000  0.907394  0.092606  1
  Li  Li9  1  0.250000  0.342606  0.657394  1
  Li  Li10  1  0.314788  0.092606  0.342606  1
  Li  Li11  1  0.250000  0.342606  0.092606  1
  Ni  Ni12  1  0.500000  0.500000  0.500000  1
  Ni  Ni13  1  0.500000  0.500000  0.000000  1
  Ni  Ni14  1  0.000000  0.500000  0.500000  1
  Ni  Ni15  1  0.000000  0.000000  0.500000  1
  P  P16  1  0.750000  0.875000  0.125000  1
  P  P17  1  0.250000  0.125000  0.875000  1
  C  C18  1  0.946177  0.276911  0.723089  1
  C  C19  1  0.553823  0.669265  0.723089  1
  C  C20  1  0.946177  0.276911  0.330735  1
  C  C21  1  0.553823  0.276911  0.723089  1
  C  C22  1  0.446177  0.723089  0.276911  1
  C  C23  1  0.053823  0.723089  0.669265  1
  C  C24  1  0.446177  0.330735  0.276911  1
  C  C25  1  0.053823  0.723089  0.276911  1
  O  O26  1  0.919932  0.868092  0.670341  1
  O  O27  1  0.919932  0.711976  0.409727  1
  O  O28  1  0.802249  0.409727  0.868092  1
  O  O29  1  0.697751  0.670341  0.711976  1
  O  O30  1  0.958365  0.131908  0.711976  1
  O  O31  1  0.885552  0.942775  0.057225  1
  O  O32  1  0.958365  0.409727  0.329659  1
  O  O33  1  0.614448  0.942775  0.328327  1
  O  O34  1  0.885552  0.671673  0.057225  1
  O  O35  1  0.419932  0.670341  0.868092  1
  O  O36  1  0.541635  0.670341  0.590273  1
  O  O37  1  0.614448  0.942775  0.057225  1
  O  O38  1  0.541635  0.288024  0.868092  1
  O  O39  1  0.802249  0.288024  0.329659  1
  O  O40  1  0.697751  0.131908  0.590273  1
  O  O41  1  0.580068  0.590273  0.288024  1
  O  O42  1  0.419932  0.409727  0.711976  1
  O  O43  1  0.302249  0.868092  0.409727  1
  O  O44  1  0.197751  0.711976  0.670341  1
  O  O45  1  0.458365  0.711976  0.131908  1
  O  O46  1  0.385552  0.057225  0.942775  1
  O  O47  1  0.458365  0.329659  0.409727  1
  O  O48  1  0.580068  0.329659  0.131908  1
  O  O49  1  0.114448  0.328327  0.942775  1
  O  O50  1  0.385552  0.057225  0.671673  1
  O  O51  1  0.041635  0.590273  0.670341  1
  O  O52  1  0.114448  0.057225  0.942775  1
  O  O53  1  0.041635  0.868092  0.288024  1
  O  O54  1  0.302249  0.329659  0.288024  1
  O  O55  1  0.197751  0.590273  0.131908  1
  O  O56  1  0.080068  0.288024  0.590273  1
  O  O57  1  0.080068  0.131908  0.329659  1
