# generated using pymatgen
data_Li2FeSiO4
_symmetry_space_group_name_H-M   'P 1'
_cell_length_a   5.18325792
_cell_length_b   6.31091449
_cell_length_c   11.00513202
_cell_angle_alpha   90.16124193
_cell_angle_beta   90.00000000
_cell_angle_gamma   90.00000000
_symmetry_Int_Tables_number   1
_chemical_formula_structural   Li2FeSiO4
_chemical_formula_sum   'Li8 Fe4 Si4 O16'
_cell_volume   359.98852140
_cell_formula_units_Z   4
loop_
 _symmetry_equiv_pos_site_id
 _symmetry_equiv_pos_as_xyz
  1  'x, y, z'
loop_
 _atom_site_type_symbol
 _atom_site_label
 _atom_site_symmetry_multiplicity
 _atom_site_fract_x
 _atom_site_fract_y
 _atom_site_fract_z
 _atom_site_occupancy
  Li  Li0  1  0.302928  0.450079  0.911924  1
  Li  Li1  1  0.689319  0.203196  0.822999  1
  Li  Li2  1  0.190161  0.702662  0.672588  1
  Li  Li3  1  0.796343  0.947700  0.584489  1
  Li  Li4  1  0.197072  0.450079  0.411924  1
  Li  Li5  1  0.810681  0.203196  0.322999  1
  Li  Li6  1  0.309839  0.702662  0.172588  1
  Li  Li7  1  0.703657  0.947700  0.084489  1
  Fe  Fe8  1  0.182693  0.968340  0.912016  1
  Fe  Fe9  1  0.317307  0.968340  0.412016  1
  Fe  Fe10  1  0.681832  0.465307  0.583472  1
  Fe  Fe11  1  0.818168  0.465307  0.083472  1
  Si  Si12  1  0.678520  0.711125  0.834663  1
  Si  Si13  1  0.178151  0.210279  0.660948  1
  Si  Si14  1  0.821480  0.711125  0.334663  1
  Si  Si15  1  0.321849  0.210279  0.160948  1
  O  O16  1  0.743949  0.486053  0.905830  1
  O  O17  1  0.786530  0.923195  0.908659  1
  O  O18  1  0.359843  0.720404  0.831003  1
  O  O19  1  0.296953  0.207714  0.800556  1
  O  O20  1  0.797514  0.705608  0.695100  1
  O  O21  1  0.859232  0.218425  0.664520  1
  O  O22  1  0.285441  0.421832  0.586745  1
  O  O23  1  0.246721  0.984984  0.590152  1
  O  O24  1  0.756051  0.486053  0.405830  1
  O  O25  1  0.713470  0.923195  0.408659  1
  O  O26  1  0.140157  0.720404  0.331003  1
  O  O27  1  0.203047  0.207714  0.300556  1
  O  O28  1  0.702486  0.705608  0.195100  1
  O  O29  1  0.640768  0.218425  0.164520  1
  O  O30  1  0.214559  0.421832  0.086745  1
  O  O31  1  0.253279  0.984984  0.090152  1
