# generated using pymatgen
data_VAs2H4O9
_symmetry_space_group_name_H-M   'P 1'
_cell_length_a   9.28543667
_cell_length_b   9.28543667
_cell_length_c   8.53959139
_cell_angle_alpha   90.00000000
_cell_angle_beta   90.00000000
_cell_angle_gamma   90.00000000
_symmetry_Int_Tables_number   1
_chemical_formula_structural   VAs2H4O9
_chemical_formula_sum   'V4 As8 H16 O36'
_cell_volume   736.27788358
_cell_formula_units_Z   4
loop_
 _symmetry_equiv_pos_site_id
 _symmetry_equiv_pos_as_xyz
  1  'x, y, z'
loop_
 _atom_site_type_symbol
 _atom_site_label
 _atom_site_symmetry_multiplicity
 _atom_site_fract_x
 _atom_site_fract_y
 _atom_site_fract_z
 _atom_site_occupancy
  V  V0  1  0.250000  0.250000  0.303878  1
  V  V1  1  0.250000  0.250000  0.803878  1
  V  V2  1  0.750000  0.750000  0.696306  1
  V  V3  1  0.750000  0.750000  0.196306  1
  As  As4  1  0.534970  0.464974  0.250003  1
  As  As5  1  0.965030  0.464974  0.750003  1
  As  As6  1  0.534970  0.035026  0.750003  1
  As  As7  1  0.965030  0.035026  0.250003  1
  As  As8  1  0.464974  0.534970  0.750003  1
  As  As9  1  0.035026  0.534970  0.250003  1
  As  As10  1  0.464974  0.965030  0.250003  1
  As  As11  1  0.035026  0.965030  0.750003  1
  H  H12  1  0.587211  0.288234  0.429313  1
  H  H13  1  0.912789  0.288234  0.929313  1
  H  H14  1  0.587211  0.211766  0.929313  1
  H  H15  1  0.912789  0.211766  0.429313  1
  H  H16  1  0.288234  0.587211  0.929313  1
  H  H17  1  0.211766  0.587211  0.429313  1
  H  H18  1  0.288234  0.912789  0.429313  1
  H  H19  1  0.211766  0.912789  0.929313  1
  H  H20  1  0.412752  0.711686  0.570646  1
  H  H21  1  0.087248  0.711686  0.070646  1
  H  H22  1  0.412752  0.788314  0.070646  1
  H  H23  1  0.087248  0.788314  0.570646  1
  H  H24  1  0.711686  0.412752  0.070646  1
  H  H25  1  0.788314  0.412752  0.570646  1
  H  H26  1  0.711686  0.087248  0.570646  1
  H  H27  1  0.788314  0.087248  0.070646  1
  O  O28  1  0.620984  0.388651  0.415276  1
  O  O29  1  0.879016  0.388651  0.915276  1
  O  O30  1  0.620984  0.111349  0.915276  1
  O  O31  1  0.879016  0.111349  0.415276  1
  O  O32  1  0.388651  0.620984  0.915276  1
  O  O33  1  0.111349  0.620984  0.415276  1
  O  O34  1  0.388651  0.879016  0.415276  1
  O  O35  1  0.111349  0.879016  0.915276  1
  O  O36  1  0.378916  0.611221  0.584750  1
  O  O37  1  0.121084  0.611221  0.084750  1
  O  O38  1  0.378916  0.888779  0.084750  1
  O  O39  1  0.121084  0.888779  0.584750  1
  O  O40  1  0.611221  0.378916  0.084750  1
  O  O41  1  0.888779  0.378916  0.584750  1
  O  O42  1  0.611221  0.121084  0.584750  1
  O  O43  1  0.888779  0.121084  0.084750  1
  O  O44  1  0.355304  0.433684  0.254446  1
  O  O45  1  0.144696  0.433684  0.754446  1
  O  O46  1  0.355304  0.066316  0.754446  1
  O  O47  1  0.144696  0.066316  0.254446  1
  O  O48  1  0.433684  0.355304  0.754446  1
  O  O49  1  0.066316  0.355304  0.254446  1
  O  O50  1  0.433684  0.144696  0.254446  1
  O  O51  1  0.066316  0.144696  0.754446  1
  O  O52  1  0.644618  0.566282  0.745575  1
  O  O53  1  0.855382  0.566282  0.245575  1
  O  O54  1  0.644618  0.933718  0.245575  1
  O  O55  1  0.855382  0.933718  0.745575  1
  O  O56  1  0.566282  0.644618  0.245575  1
  O  O57  1  0.933718  0.644618  0.745575  1
  O  O58  1  0.566282  0.855382  0.745575  1
  O  O59  1  0.933718  0.855382  0.245575  1
  O  O60  1  0.250000  0.250000  0.496105  1
  O  O61  1  0.250000  0.250000  0.996105  1
  O  O62  1  0.750000  0.750000  0.503677  1
  O  O63  1  0.750000  0.750000  0.003677  1
