# generated using pymatgen
data_Li2FeP2O7
_symmetry_space_group_name_H-M   'P 1'
_cell_length_a   5.17579243
_cell_length_b   7.20322852
_cell_length_c   8.76887485
_cell_angle_alpha   112.85831896
_cell_angle_beta   91.39823998
_cell_angle_gamma   111.58806491
_symmetry_Int_Tables_number   1
_chemical_formula_structural   Li2FeP2O7
_chemical_formula_sum   'Li4 Fe2 P4 O14'
_cell_volume   274.72582482
_cell_formula_units_Z   2
loop_
 _symmetry_equiv_pos_site_id
 _symmetry_equiv_pos_as_xyz
  1  'x, y, z'
loop_
 _atom_site_type_symbol
 _atom_site_label
 _atom_site_symmetry_multiplicity
 _atom_site_fract_x
 _atom_site_fract_y
 _atom_site_fract_z
 _atom_site_occupancy
  Li  Li0  1  0.074233  0.315278  0.008341  1
  Li  Li1  1  0.319075  0.615303  0.749968  1
  Li  Li2  1  0.680925  0.384697  0.250032  1
  Li  Li3  1  0.925767  0.684722  0.991659  1
  Fe  Fe4  1  0.143572  0.149396  0.333961  1
  Fe  Fe5  1  0.856428  0.850604  0.666039  1
  P  P6  1  0.248057  0.646075  0.392887  1
  P  P7  1  0.479102  0.833582  0.140823  1
  P  P8  1  0.520898  0.166418  0.859177  1
  P  P9  1  0.751943  0.353925  0.607113  1
  O  O10  1  0.993141  0.704724  0.430718  1
  O  O11  1  0.440586  0.690700  0.547905  1
  O  O12  1  0.146902  0.403750  0.257794  1
  O  O13  1  0.199655  0.089341  0.848575  1
  O  O14  1  0.304662  0.611581  0.989346  1
  O  O15  1  0.447587  0.802018  0.315077  1
  O  O16  1  0.638178  0.998652  0.852166  1
  O  O17  1  0.361822  0.001348  0.147834  1
  O  O18  1  0.552413  0.197982  0.684923  1
  O  O19  1  0.695338  0.388419  0.010654  1
  O  O20  1  0.800345  0.910659  0.151425  1
  O  O21  1  0.853098  0.596250  0.742206  1
  O  O22  1  0.559414  0.309300  0.452095  1
  O  O23  1  0.006859  0.295276  0.569282  1
