# generated using pymatgen
data_Sc16O15
_symmetry_space_group_name_H-M   'P 1'
_cell_length_a   6.33913792
_cell_length_b   6.33913792
_cell_length_c   11.00268072
_cell_angle_alpha   106.74259030
_cell_angle_beta   90.00000000
_cell_angle_gamma   60.00000000
_symmetry_Int_Tables_number   1
_chemical_formula_structural   Sc16O15
_chemical_formula_sum   'Sc16 O15'
_cell_volume   361.09915863
_cell_formula_units_Z   1
loop_
 _symmetry_equiv_pos_site_id
 _symmetry_equiv_pos_as_xyz
  1  'x, y, z'
loop_
 _atom_site_type_symbol
 _atom_site_label
 _atom_site_symmetry_multiplicity
 _atom_site_fract_x
 _atom_site_fract_y
 _atom_site_fract_z
 _atom_site_occupancy
  Sc  Sc0  1  0.498709  0.497836  0.999127  1
  Sc  Sc1  1  0.003453  0.497836  0.999127  1
  Sc  Sc2  1  0.751291  0.497420  0.250873  1
  Sc  Sc3  1  0.250199  0.499601  0.249402  1
  Sc  Sc4  1  0.999801  0.000399  0.000598  1
  Sc  Sc5  1  0.498709  0.002580  0.999127  1
  Sc  Sc6  1  0.499742  0.499654  0.499052  1
  Sc  Sc7  1  0.000603  0.499654  0.499052  1
  Sc  Sc8  1  0.751291  0.002164  0.250873  1
  Sc  Sc9  1  0.246547  0.002164  0.250873  1
  Sc  Sc10  1  0.749633  0.500734  0.751101  1
  Sc  Sc11  1  0.000603  0.998794  0.499052  1
  Sc  Sc12  1  0.249397  0.501206  0.750948  1
  Sc  Sc13  1  0.500367  0.999266  0.498899  1
  Sc  Sc14  1  0.750258  0.000346  0.750948  1
  Sc  Sc15  1  0.249397  0.000346  0.750948  1
  O  O16  1  0.125000  0.750000  0.125000  1
  O  O17  1  0.625000  0.250000  0.125000  1
  O  O18  1  0.875977  0.750023  0.376024  1
  O  O19  1  0.373999  0.750023  0.376024  1
  O  O20  1  0.125000  0.250000  0.125000  1
  O  O21  1  0.625000  0.750000  0.625000  1
  O  O22  1  0.874580  0.250840  0.376260  1
  O  O23  1  0.373999  0.252002  0.376024  1
  O  O24  1  0.125000  0.750000  0.625000  1
  O  O25  1  0.876001  0.749977  0.873976  1
  O  O26  1  0.625000  0.250000  0.625000  1
  O  O27  1  0.374023  0.749977  0.873976  1
  O  O28  1  0.125000  0.250000  0.625000  1
  O  O29  1  0.375420  0.249160  0.873740  1
  O  O30  1  0.876001  0.247998  0.873976  1
