# generated using pymatgen
data_LiFe(PO3)3
_symmetry_space_group_name_H-M   'P 1'
_cell_length_a   7.31154057
_cell_length_b   12.23496211
_cell_length_c   9.15363756
_cell_angle_alpha   90.00000000
_cell_angle_beta   90.00000000
_cell_angle_gamma   90.00000000
_symmetry_Int_Tables_number   1
_chemical_formula_structural   LiFe(PO3)3
_chemical_formula_sum   'Li4 Fe4 P12 O36'
_cell_volume   818.85166293
_cell_formula_units_Z   4
loop_
 _symmetry_equiv_pos_site_id
 _symmetry_equiv_pos_as_xyz
  1  'x, y, z'
loop_
 _atom_site_type_symbol
 _atom_site_label
 _atom_site_symmetry_multiplicity
 _atom_site_fract_x
 _atom_site_fract_y
 _atom_site_fract_z
 _atom_site_occupancy
  Li  Li0  1  0.250000  0.997635  0.047358  1
  Li  Li1  1  0.250000  0.502365  0.547358  1
  Li  Li2  1  0.750000  0.497635  0.452642  1
  Li  Li3  1  0.750000  0.002365  0.952642  1
  Fe  Fe4  1  0.250000  0.717242  0.471523  1
  Fe  Fe5  1  0.250000  0.782758  0.971523  1
  Fe  Fe6  1  0.750000  0.217242  0.028477  1
  Fe  Fe7  1  0.750000  0.282758  0.528477  1
  P  P8  1  0.045195  0.351225  0.252115  1
  P  P9  1  0.045195  0.148775  0.752115  1
  P  P10  1  0.250000  0.957419  0.691198  1
  P  P11  1  0.250000  0.542581  0.191198  1
  P  P12  1  0.454805  0.148775  0.752115  1
  P  P13  1  0.454805  0.351225  0.252115  1
  P  P14  1  0.545195  0.648775  0.747885  1
  P  P15  1  0.545195  0.851225  0.247885  1
  P  P16  1  0.750000  0.457419  0.808802  1
  P  P17  1  0.750000  0.042581  0.308802  1
  P  P18  1  0.954805  0.648775  0.747885  1
  P  P19  1  0.954805  0.851225  0.247885  1
  O  O20  1  0.026876  0.763869  0.345539  1
  O  O21  1  0.026876  0.736131  0.845539  1
  O  O22  1  0.059825  0.882833  0.111543  1
  O  O23  1  0.059825  0.617167  0.611543  1
  O  O24  1  0.080040  0.039286  0.656224  1
  O  O25  1  0.080040  0.460714  0.156224  1
  O  O26  1  0.250000  0.318418  0.305239  1
  O  O27  1  0.250000  0.633594  0.085816  1
  O  O28  1  0.250000  0.866406  0.585816  1
  O  O29  1  0.250000  0.936399  0.854349  1
  O  O30  1  0.250000  0.181582  0.805239  1
  O  O31  1  0.250000  0.563601  0.354349  1
  O  O32  1  0.419960  0.039286  0.656224  1
  O  O33  1  0.419960  0.460714  0.156224  1
  O  O34  1  0.440175  0.882833  0.111543  1
  O  O35  1  0.440175  0.617167  0.611543  1
  O  O36  1  0.473124  0.763869  0.345539  1
  O  O37  1  0.473124  0.736131  0.845539  1
  O  O38  1  0.526876  0.263869  0.154461  1
  O  O39  1  0.526876  0.236131  0.654461  1
  O  O40  1  0.559825  0.117167  0.888457  1
  O  O41  1  0.559825  0.382833  0.388457  1
  O  O42  1  0.580040  0.539286  0.843776  1
  O  O43  1  0.580040  0.960714  0.343776  1
  O  O44  1  0.750000  0.063601  0.145651  1
  O  O45  1  0.750000  0.133594  0.414184  1
  O  O46  1  0.750000  0.436399  0.645651  1
  O  O47  1  0.750000  0.366406  0.914184  1
  O  O48  1  0.750000  0.681582  0.694761  1
  O  O49  1  0.750000  0.818418  0.194761  1
  O  O50  1  0.919960  0.539286  0.843776  1
  O  O51  1  0.919960  0.960714  0.343776  1
  O  O52  1  0.940175  0.382833  0.388457  1
  O  O53  1  0.940175  0.117167  0.888457  1
  O  O54  1  0.973124  0.236131  0.654461  1
  O  O55  1  0.973124  0.263869  0.154461  1
