# generated using pymatgen
data_CoH4SeO5
_symmetry_space_group_name_H-M   'P 1'
_cell_length_a   5.71633145
_cell_length_b   11.71126225
_cell_length_c   7.84313608
_cell_angle_alpha   90.00000000
_cell_angle_beta   101.44177726
_cell_angle_gamma   90.00000000
_symmetry_Int_Tables_number   1
_chemical_formula_structural   CoH4SeO5
_chemical_formula_sum   'Co4 H16 Se4 O20'
_cell_volume   514.62765420
_cell_formula_units_Z   4
loop_
 _symmetry_equiv_pos_site_id
 _symmetry_equiv_pos_as_xyz
  1  'x, y, z'
loop_
 _atom_site_type_symbol
 _atom_site_label
 _atom_site_symmetry_multiplicity
 _atom_site_fract_x
 _atom_site_fract_y
 _atom_site_fract_z
 _atom_site_occupancy
  Co  Co0  1  0.226807  0.065536  0.935559  1
  Co  Co1  1  0.273193  0.565536  0.564441  1
  Co  Co2  1  0.726807  0.434464  0.435559  1
  Co  Co3  1  0.773193  0.934464  0.064441  1
  H  H4  1  0.907509  0.898822  0.681414  1
  H  H5  1  0.032267  0.186239  0.635437  1
  H  H6  1  0.180796  0.084655  0.591498  1
  H  H7  1  0.147481  0.562441  0.175709  1
  H  H8  1  0.319204  0.584655  0.908502  1
  H  H9  1  0.467733  0.686239  0.864563  1
  H  H10  1  0.592491  0.398822  0.818586  1
  H  H11  1  0.352519  0.062441  0.324290  1
  H  H12  1  0.647481  0.937559  0.675709  1
  H  H13  1  0.407509  0.601178  0.181414  1
  H  H14  1  0.532267  0.313761  0.135437  1
  H  H15  1  0.680796  0.415345  0.091498  1
  H  H16  1  0.852519  0.437559  0.824291  1
  H  H17  1  0.819204  0.915345  0.408502  1
  H  H18  1  0.967733  0.813761  0.364563  1
  H  H19  1  0.092491  0.101178  0.318586  1
  Se  Se20  1  0.173363  0.346804  0.367634  1
  Se  Se21  1  0.326637  0.846804  0.132366  1
  Se  Se22  1  0.673363  0.153196  0.867634  1
  Se  Se23  1  0.826637  0.653196  0.632366  1
  O  O24  1  0.049595  0.483963  0.326590  1
  O  O25  1  0.039326  0.700032  0.519105  1
  O  O26  1  0.085604  0.109076  0.680100  1
  O  O27  1  0.253422  0.107386  0.391849  1
  O  O28  1  0.087644  0.892656  0.968863  1
  O  O29  1  0.414396  0.609076  0.819900  1
  O  O30  1  0.412356  0.392656  0.531137  1
  O  O31  1  0.460674  0.200032  0.980895  1
  O  O32  1  0.246578  0.607386  0.108152  1
  O  O33  1  0.450405  0.983963  0.173410  1
  O  O34  1  0.549595  0.016037  0.826590  1
  O  O35  1  0.753422  0.392614  0.891849  1
  O  O36  1  0.539326  0.799968  0.019105  1
  O  O37  1  0.587644  0.607344  0.468863  1
  O  O38  1  0.585604  0.390924  0.180100  1
  O  O39  1  0.912356  0.107344  0.031137  1
  O  O40  1  0.746578  0.892614  0.608151  1
  O  O41  1  0.914396  0.890924  0.319900  1
  O  O42  1  0.960674  0.299968  0.480895  1
  O  O43  1  0.950405  0.516037  0.673410  1
