# generated using pymatgen
data_Al11InO17
_symmetry_space_group_name_H-M   'P 1'
_cell_length_a   5.65615672
_cell_length_b   5.65613660
_cell_length_c   23.06173253
_cell_angle_alpha   90.00006695
_cell_angle_beta   90.00018385
_cell_angle_gamma   119.99984756
_symmetry_Int_Tables_number   1
_chemical_formula_structural   Al11InO17
_chemical_formula_sum   'Al22 In2 O34'
_cell_volume   638.94658563
_cell_formula_units_Z   2
loop_
 _symmetry_equiv_pos_site_id
 _symmetry_equiv_pos_as_xyz
  1  'x, y, z'
loop_
 _atom_site_type_symbol
 _atom_site_label
 _atom_site_symmetry_multiplicity
 _atom_site_fract_x
 _atom_site_fract_y
 _atom_site_fract_z
 _atom_site_occupancy
  Al  Al0  1  0.167372  0.832733  0.894351  1
  Al  Al1  1  0.167369  0.832734  0.605649  1
  Al  Al2  1  0.333369  0.666678  0.175436  1
  Al  Al3  1  0.333336  0.666705  0.024636  1
  Al  Al4  1  0.000018  0.000046  0.000000  1
  Al  Al5  1  0.000001  0.000026  0.500000  1
  Al  Al6  1  0.333354  0.666651  0.324564  1
  Al  Al7  1  0.333330  0.666692  0.475364  1
  Al  Al8  1  0.167320  0.334709  0.605634  1
  Al  Al9  1  0.167321  0.334712  0.894366  1
  Al  Al10  1  0.665326  0.832710  0.894351  1
  Al  Al11  1  0.665327  0.832711  0.605649  1
  Al  Al12  1  0.334679  0.167407  0.394351  1
  Al  Al13  1  0.334696  0.167398  0.105649  1
  Al  Al14  1  0.832655  0.665352  0.394352  1
  Al  Al15  1  0.666644  0.333319  0.675436  1
  Al  Al16  1  0.666643  0.333319  0.824564  1
  Al  Al17  1  0.666676  0.333380  0.975366  1
  Al  Al18  1  0.666670  0.333379  0.524635  1
  Al  Al19  1  0.832669  0.665356  0.105648  1
  Al  Al20  1  0.832676  0.167374  0.105633  1
  Al  Al21  1  0.832655  0.167359  0.394367  1
  In  In22  1  0.332639  0.665297  0.750000  1
  In  In23  1  0.667361  0.332656  0.250000  1
  O  O24  1  0.157204  0.842877  0.049174  1
  O  O25  1  0.157205  0.842880  0.450826  1
  O  O26  1  0.003144  0.501608  0.855935  1
  O  O27  1  0.003144  0.501608  0.644065  1
  O  O28  1  0.157161  0.314402  0.450828  1
  O  O29  1  0.333264  0.666760  0.250000  1
  O  O30  1  0.000009  0.000048  0.139731  1
  O  O31  1  0.333333  0.666698  0.944916  1
  O  O32  1  0.999991  0.000040  0.360269  1
  O  O33  1  0.000012  0.000054  0.639730  1
  O  O34  1  0.000008  0.000054  0.860270  1
  O  O35  1  0.333327  0.666690  0.555084  1
  O  O36  1  0.157196  0.314409  0.049172  1
  O  O37  1  0.498421  0.996864  0.644060  1
  O  O38  1  0.498421  0.996864  0.855940  1
  O  O39  1  0.314366  0.157238  0.549172  1
  O  O40  1  0.314368  0.157237  0.950827  1
  O  O41  1  0.498402  0.501587  0.855936  1
  O  O42  1  0.498404  0.501590  0.644064  1
  O  O43  1  0.501610  0.498456  0.144061  1
  O  O44  1  0.501601  0.498456  0.355938  1
  O  O45  1  0.685633  0.842849  0.450829  1
  O  O46  1  0.685649  0.842847  0.049172  1
  O  O47  1  0.501575  0.003178  0.355938  1
  O  O48  1  0.666675  0.333379  0.444917  1
  O  O49  1  0.666736  0.333504  0.750000  1
  O  O50  1  0.666690  0.333370  0.055083  1
  O  O51  1  0.842837  0.685682  0.950825  1
  O  O52  1  0.842840  0.685681  0.549175  1
  O  O53  1  0.501600  0.003183  0.144064  1
  O  O54  1  0.996863  0.498449  0.144063  1
  O  O55  1  0.996860  0.498443  0.355935  1
  O  O56  1  0.842799  0.157204  0.549172  1
  O  O57  1  0.842805  0.157208  0.950828  1
