# generated using pymatgen
data_Li4V3CrO8
_symmetry_space_group_name_H-M   'P 1'
_cell_length_a   5.17035819
_cell_length_b   7.91484499
_cell_length_c   7.91002186
_cell_angle_alpha   81.97444144
_cell_angle_beta   70.96499892
_cell_angle_gamma   83.75237422
_symmetry_Int_Tables_number   1
_chemical_formula_structural   Li4V3CrO8
_chemical_formula_sum   'Li8 V6 Cr2 O16'
_cell_volume   302.30815002
_cell_formula_units_Z   2
loop_
 _symmetry_equiv_pos_site_id
 _symmetry_equiv_pos_as_xyz
  1  'x, y, z'
loop_
 _atom_site_type_symbol
 _atom_site_label
 _atom_site_symmetry_multiplicity
 _atom_site_fract_x
 _atom_site_fract_y
 _atom_site_fract_z
 _atom_site_occupancy
  Li  Li0  1  0.000279  0.999616  0.000915  1
  Li  Li1  1  0.997592  0.250003  0.251969  1
  Li  Li2  1  0.002285  0.624954  0.123123  1
  Li  Li3  1  0.000204  0.127537  0.624431  1
  Li  Li4  1  0.997866  0.498480  0.502226  1
  Li  Li5  1  0.999607  0.875340  0.374129  1
  Li  Li6  1  0.002179  0.376574  0.872754  1
  Li  Li7  1  0.000011  0.747422  0.750460  1
  V  V8  1  0.499831  0.062773  0.312548  1
  V  V9  1  0.499978  0.437517  0.187509  1
  V  V10  1  0.500243  0.812260  0.062388  1
  V  V11  1  0.501100  0.687650  0.436747  1
  V  V12  1  0.498915  0.187343  0.938258  1
  V  V13  1  0.500013  0.937499  0.687503  1
  Cr  Cr14  1  0.499583  0.313496  0.563531  1
  Cr  Cr15  1  0.500244  0.561472  0.811552  1
  O  O16  1  0.266779  0.029341  0.154399  1
  O  O17  1  0.729527  0.219597  0.098485  1
  O  O18  1  0.272960  0.405373  0.024316  1
  O  O19  1  0.725759  0.096482  0.475209  1
  O  O20  1  0.273225  0.281729  0.402843  1
  O  O21  1  0.270508  0.655465  0.276548  1
  O  O22  1  0.727001  0.469659  0.350743  1
  O  O23  1  0.273096  0.157272  0.776490  1
  O  O24  1  0.274250  0.528982  0.652396  1
  O  O25  1  0.733292  0.845717  0.220486  1
  O  O26  1  0.725650  0.345970  0.722677  1
  O  O27  1  0.270381  0.905473  0.526492  1
  O  O28  1  0.726892  0.717681  0.598517  1
  O  O29  1  0.274242  0.778519  0.899782  1
  O  O30  1  0.726762  0.593287  0.972133  1
  O  O31  1  0.729743  0.969515  0.848441  1
