# generated using pymatgen
data_Mn3Co2Ni(PO4)6
_symmetry_space_group_name_H-M   'P 1'
_cell_length_a   8.43250035
_cell_length_b   8.57369013
_cell_length_c   8.57369043
_cell_angle_alpha   60.00000267
_cell_angle_beta   59.44456791
_cell_angle_gamma   59.44456896
_symmetry_Int_Tables_number   1
_chemical_formula_structural   Mn3Co2Ni(PO4)6
_chemical_formula_sum   'Mn3 Co2 Ni1 P6 O24'
_cell_volume   434.58969857
_cell_formula_units_Z   1
loop_
 _symmetry_equiv_pos_site_id
 _symmetry_equiv_pos_as_xyz
  1  'x, y, z'
loop_
 _atom_site_type_symbol
 _atom_site_label
 _atom_site_symmetry_multiplicity
 _atom_site_fract_x
 _atom_site_fract_y
 _atom_site_fract_z
 _atom_site_occupancy
  Mn  Mn0  1  0.075466  0.641511  0.641511  1
  Mn  Mn1  1  0.424211  0.858596  0.858596  1
  Mn  Mn2  1  0.927405  0.357532  0.357532  1
  Co  Co3  1  0.989376  0.003541  0.003541  1
  Co  Co4  1  0.500418  0.499861  0.499861  1
  Ni  Ni5  1  0.573682  0.142106  0.142106  1
  P  P6  1  0.249902  0.249342  0.543599  1
  P  P7  1  0.249902  0.957156  0.249342  1
  P  P8  1  0.249902  0.543599  0.957156  1
  P  P9  1  0.753780  0.458086  0.039583  1
  P  P10  1  0.753780  0.039583  0.748550  1
  P  P11  1  0.753780  0.748550  0.458086  1
  O  O12  1  0.060296  0.117780  0.310339  1
  O  O13  1  0.060296  0.511585  0.117780  1
  O  O14  1  0.060296  0.310339  0.511585  1
  O  O15  1  0.219836  0.091154  0.749067  1
  O  O16  1  0.437652  0.185927  0.391571  1
  O  O17  1  0.268195  0.413747  0.562195  1
  O  O18  1  0.219836  0.939942  0.091154  1
  O  O19  1  0.268195  0.755863  0.413747  1
  O  O20  1  0.563401  0.616336  0.007891  1
  O  O21  1  0.268195  0.562195  0.755863  1
  O  O22  1  0.783247  0.257381  0.055345  1
  O  O23  1  0.563401  0.007891  0.812372  1
  O  O24  1  0.437652  0.984850  0.185927  1
  O  O25  1  0.219836  0.749067  0.939942  1
  O  O26  1  0.727761  0.447437  0.239678  1
  O  O27  1  0.437652  0.391571  0.984850  1
  O  O28  1  0.727761  0.239678  0.585125  1
  O  O29  1  0.783247  0.055345  0.904027  1
  O  O30  1  0.727761  0.585125  0.447437  1
  O  O31  1  0.563401  0.812372  0.616336  1
  O  O32  1  0.783247  0.904027  0.257381  1
  O  O33  1  0.939077  0.680004  0.499783  1
  O  O34  1  0.939077  0.499783  0.881136  1
  O  O35  1  0.939077  0.881136  0.680004  1
