# generated using pymatgen
data_Li2MnOF3
_symmetry_space_group_name_H-M   'P 1'
_cell_length_a   5.96673026
_cell_length_b   6.03464969
_cell_length_c   6.03547187
_cell_angle_alpha   120.00450700
_cell_angle_beta   90.00000000
_cell_angle_gamma   59.31485167
_symmetry_Int_Tables_number   1
_chemical_formula_structural   Li2MnOF3
_chemical_formula_sum   'Li4 Mn2 O2 F6'
_cell_volume   152.04719863
_cell_formula_units_Z   2
loop_
 _symmetry_equiv_pos_site_id
 _symmetry_equiv_pos_as_xyz
  1  'x, y, z'
loop_
 _atom_site_type_symbol
 _atom_site_label
 _atom_site_symmetry_multiplicity
 _atom_site_fract_x
 _atom_site_fract_y
 _atom_site_fract_z
 _atom_site_occupancy
  Li  Li0  1  0.341400  0.752572  0.876286  1
  Li  Li1  1  0.658600  0.247428  0.123714  1
  Li  Li2  1  0.000000  0.000000  0.500000  1
  Li  Li3  1  0.500000  0.000000  0.500000  1
  Mn  Mn4  1  0.000000  0.500000  0.500000  1
  Mn  Mn5  1  0.000000  0.500000  0.000000  1
  O  O6  1  0.803257  0.507869  0.253934  1
  O  O7  1  0.196743  0.492131  0.746066  1
  F  F8  1  0.768146  0.970881  0.247456  1
  F  F9  1  0.768146  0.970881  0.723425  1
  F  F10  1  0.256809  0.517907  0.258953  1
  F  F11  1  0.743191  0.482093  0.741047  1
  F  F12  1  0.231854  0.029119  0.276575  1
  F  F13  1  0.231854  0.029119  0.752544  1
