# generated using pymatgen
data_Tm2TeO6
_symmetry_space_group_name_H-M   'P 1'
_cell_length_a   9.10529787
_cell_length_b   9.10483043
_cell_length_c   5.11277007
_cell_angle_alpha   90.00055897
_cell_angle_beta   89.99987053
_cell_angle_gamma   120.00168301
_symmetry_Int_Tables_number   1
_chemical_formula_structural   Tm2TeO6
_chemical_formula_sum   'Tm6 Te3 O18'
_cell_volume   367.06717368
_cell_formula_units_Z   3
loop_
 _symmetry_equiv_pos_site_id
 _symmetry_equiv_pos_as_xyz
  1  'x, y, z'
loop_
 _atom_site_type_symbol
 _atom_site_label
 _atom_site_symmetry_multiplicity
 _atom_site_fract_x
 _atom_site_fract_y
 _atom_site_fract_z
 _atom_site_occupancy
  Tm  Tm0  1  0.000004  0.624281  -0.000007  1
  Tm  Tm1  1  0.000025  0.287320  0.500029  1
  Tm  Tm2  1  0.375723  0.375718  0.000003  1
  Tm  Tm3  1  0.287267  0.000000  0.499996  1
  Tm  Tm4  1  0.712704  0.712680  0.499975  1
  Tm  Tm5  1  0.624231  0.999998  0.999998  1
  Te  Te6  1  0.333268  0.666669  0.505519  1
  Te  Te7  1  0.000185  0.000000  0.000001  1
  Te  Te8  1  0.666601  0.333331  0.494480  1
  O  O9  1  0.082999  0.880182  0.787364  1
  O  O10  1  0.221987  0.759790  0.289163  1
  O  O11  1  0.131052  0.542439  0.722198  1
  O  O12  1  0.411400  0.868959  0.722221  1
  O  O13  1  0.240192  0.462186  0.289164  1
  O  O14  1  0.119798  0.202833  0.787310  1
  O  O15  1  0.202817  0.119819  0.212640  1
  O  O16  1  0.537839  0.778036  0.289136  1
  O  O17  1  0.457575  0.588625  0.722215  1
  O  O18  1  0.797101  0.916950  0.787286  1
  O  O19  1  0.462201  0.240211  0.710835  1
  O  O20  1  0.588613  0.457559  0.277805  1
  O  O21  1  0.542442  0.131044  0.277778  1
  O  O22  1  0.778007  0.537813  0.710834  1
  O  O23  1  0.916965  0.797166  0.212692  1
  O  O24  1  0.759806  0.221967  0.710863  1
  O  O25  1  0.868950  0.411375  0.277785  1
  O  O26  1  0.880150  0.083048  0.212715  1
