# generated using pymatgen
data_Li2Ti(TeO4)3
_symmetry_space_group_name_H-M   'P 1'
_cell_length_a   5.21670390
_cell_length_b   5.01660764
_cell_length_c   8.44511422
_cell_angle_alpha   90.00000000
_cell_angle_beta   90.00000000
_cell_angle_gamma   90.76273694
_symmetry_Int_Tables_number   1
_chemical_formula_structural   Li2Ti(TeO4)3
_chemical_formula_sum   'Li2 Ti1 Te3 O12'
_cell_volume   220.99037908
_cell_formula_units_Z   1
loop_
 _symmetry_equiv_pos_site_id
 _symmetry_equiv_pos_as_xyz
  1  'x, y, z'
loop_
 _atom_site_type_symbol
 _atom_site_label
 _atom_site_symmetry_multiplicity
 _atom_site_fract_x
 _atom_site_fract_y
 _atom_site_fract_z
 _atom_site_occupancy
  Li  Li0  1  0.500000  0.000000  0.303496  1
  Li  Li1  1  0.500000  0.500000  0.183270  1
  Ti  Ti2  1  0.000000  0.000000  0.093325  1
  Te  Te3  1  0.000000  0.500000  0.410974  1
  Te  Te4  1  0.500000  0.000000  0.920146  1
  Te  Te5  1  0.500000  0.500000  0.610341  1
  O  O6  1  0.138503  0.259469  0.258738  1
  O  O7  1  0.181636  0.296429  0.581132  1
  O  O8  1  0.190921  0.195564  0.933333  1
  O  O9  1  0.328275  0.707096  0.430959  1
  O  O10  1  0.327723  0.797863  0.091470  1
  O  O11  1  0.358230  0.752103  0.756981  1
  O  O12  1  0.641770  0.247897  0.756981  1
  O  O13  1  0.672277  0.202137  0.091470  1
  O  O14  1  0.671725  0.292904  0.430959  1
  O  O15  1  0.809079  0.804436  0.933333  1
  O  O16  1  0.818364  0.703571  0.581132  1
  O  O17  1  0.861497  0.740531  0.258738  1
