# generated using pymatgen
data_Li2VBO4
_symmetry_space_group_name_H-M   'P 1'
_cell_length_a   10.24393955
_cell_length_b   4.90771160
_cell_length_c   6.21841887
_cell_angle_alpha   90.00000000
_cell_angle_beta   90.00000000
_cell_angle_gamma   90.00000000
_symmetry_Int_Tables_number   1
_chemical_formula_structural   Li2VBO4
_chemical_formula_sum   'Li8 V4 B4 O16'
_cell_volume   312.62666176
_cell_formula_units_Z   4
loop_
 _symmetry_equiv_pos_site_id
 _symmetry_equiv_pos_as_xyz
  1  'x, y, z'
loop_
 _atom_site_type_symbol
 _atom_site_label
 _atom_site_symmetry_multiplicity
 _atom_site_fract_x
 _atom_site_fract_y
 _atom_site_fract_z
 _atom_site_occupancy
  Li  Li0  1  0.077174  0.695460  0.867389  1
  Li  Li1  1  0.157251  0.185830  0.116088  1
  Li  Li2  1  0.342749  0.685830  0.616088  1
  Li  Li3  1  0.422826  0.195460  0.367389  1
  Li  Li4  1  0.577174  0.804540  0.867389  1
  Li  Li5  1  0.657251  0.314170  0.116088  1
  Li  Li6  1  0.842749  0.814170  0.616088  1
  Li  Li7  1  0.922826  0.304540  0.367389  1
  V  V8  1  0.164142  0.181420  0.625858  1
  V  V9  1  0.335858  0.681420  0.125858  1
  V  V10  1  0.664142  0.318580  0.625858  1
  V  V11  1  0.835858  0.818580  0.125858  1
  B  B12  1  0.091107  0.676451  0.366215  1
  B  B13  1  0.408893  0.176451  0.866215  1
  B  B14  1  0.591107  0.823549  0.366215  1
  B  B15  1  0.908893  0.323549  0.866215  1
  O  O16  1  0.052547  0.267296  0.862822  1
  O  O17  1  0.109539  0.374270  0.371749  1
  O  O18  1  0.152109  0.793248  0.565794  1
  O  O19  1  0.154482  0.786988  0.166183  1
  O  O20  1  0.345518  0.286988  0.666183  1
  O  O21  1  0.347891  0.293248  0.065794  1
  O  O22  1  0.390461  0.874270  0.871749  1
  O  O23  1  0.447453  0.767296  0.362822  1
  O  O24  1  0.552547  0.232705  0.862822  1
  O  O25  1  0.609539  0.125730  0.371749  1
  O  O26  1  0.652109  0.706752  0.565794  1
  O  O27  1  0.654482  0.713012  0.166183  1
  O  O28  1  0.845518  0.213012  0.666183  1
  O  O29  1  0.847891  0.206752  0.065794  1
  O  O30  1  0.890461  0.625730  0.871749  1
  O  O31  1  0.947453  0.732704  0.362822  1
