# generated using pymatgen
data_Li2FePCO7
_symmetry_space_group_name_H-M   'P 1'
_cell_length_a   16.65941618
_cell_length_b   5.08790982
_cell_length_c   6.50220389
_cell_angle_alpha   90.00000000
_cell_angle_beta   90.00000000
_cell_angle_gamma   84.92581573
_symmetry_Int_Tables_number   1
_chemical_formula_structural   Li2FePCO7
_chemical_formula_sum   'Li8 Fe4 P4 C4 O28'
_cell_volume   548.97735436
_cell_formula_units_Z   4
loop_
 _symmetry_equiv_pos_site_id
 _symmetry_equiv_pos_as_xyz
  1  'x, y, z'
loop_
 _atom_site_type_symbol
 _atom_site_label
 _atom_site_symmetry_multiplicity
 _atom_site_fract_x
 _atom_site_fract_y
 _atom_site_fract_z
 _atom_site_occupancy
  Li  Li0  1  0.047856  0.761073  0.269700  1
  Li  Li1  1  0.139351  0.247056  0.032380  1
  Li  Li2  1  0.360649  0.752944  0.532380  1
  Li  Li3  1  0.452144  0.238927  0.769700  1
  Li  Li4  1  0.547856  0.761073  0.230300  1
  Li  Li5  1  0.639351  0.247056  0.467620  1
  Li  Li6  1  0.860649  0.752944  0.967620  1
  Li  Li7  1  0.952144  0.238927  0.730300  1
  Fe  Fe8  1  0.164998  0.799830  0.734679  1
  Fe  Fe9  1  0.335002  0.200170  0.234679  1
  Fe  Fe10  1  0.664998  0.799830  0.765321  1
  Fe  Fe11  1  0.835002  0.200170  0.265321  1
  P  P12  1  0.209546  0.723708  0.244254  1
  P  P13  1  0.290454  0.276292  0.744254  1
  P  P14  1  0.709545  0.723708  0.255746  1
  P  P15  1  0.790455  0.276292  0.755746  1
  C  C16  1  0.020516  0.701313  0.773051  1
  C  C17  1  0.479484  0.298687  0.273051  1
  C  C18  1  0.520516  0.701313  0.726949  1
  C  C19  1  0.979484  0.298687  0.226949  1
  O  O20  1  0.037868  0.947585  0.754226  1
  O  O21  1  0.050252  0.368865  0.212398  1
  O  O22  1  0.083600  0.526743  0.771705  1
  O  O23  1  0.158290  0.831190  0.058354  1
  O  O24  1  0.152048  0.781267  0.430693  1
  O  O25  1  0.211277  0.144207  0.770355  1
  O  O26  1  0.230282  0.420423  0.217935  1
  O  O27  1  0.269718  0.579577  0.717935  1
  O  O28  1  0.288723  0.855793  0.270355  1
  O  O29  1  0.341710  0.168810  0.558354  1
  O  O30  1  0.347952  0.218733  0.930693  1
  O  O31  1  0.416400  0.473257  0.271705  1
  O  O32  1  0.449748  0.631135  0.712398  1
  O  O33  1  0.462132  0.052415  0.254226  1
  O  O34  1  0.537868  0.947585  0.745774  1
  O  O35  1  0.550252  0.368865  0.287602  1
  O  O36  1  0.583600  0.526743  0.728295  1
  O  O37  1  0.652048  0.781267  0.069307  1
  O  O38  1  0.658290  0.831190  0.441646  1
  O  O39  1  0.711277  0.144207  0.729645  1
  O  O40  1  0.730282  0.420423  0.282065  1
  O  O41  1  0.769718  0.579577  0.782065  1
  O  O42  1  0.788723  0.855793  0.229645  1
  O  O43  1  0.847952  0.218733  0.569307  1
  O  O44  1  0.841710  0.168810  0.941646  1
  O  O45  1  0.916400  0.473257  0.228295  1
  O  O46  1  0.949748  0.631135  0.787602  1
  O  O47  1  0.962132  0.052415  0.245774  1
