# generated using pymatgen
data_Mn2O3
_symmetry_space_group_name_H-M   'P 1'
_cell_length_a   5.30426914
_cell_length_b   8.87066960
_cell_length_c   9.56715849
_cell_angle_alpha   89.99918480
_cell_angle_beta   89.98512400
_cell_angle_gamma   89.99989613
_symmetry_Int_Tables_number   1
_chemical_formula_structural   Mn2O3
_chemical_formula_sum   'Mn16 O24'
_cell_volume   450.15793524
_cell_formula_units_Z   8
loop_
 _symmetry_equiv_pos_site_id
 _symmetry_equiv_pos_as_xyz
  1  'x, y, z'
loop_
 _atom_site_type_symbol
 _atom_site_label
 _atom_site_symmetry_multiplicity
 _atom_site_fract_x
 _atom_site_fract_y
 _atom_site_fract_z
 _atom_site_occupancy
  Mn  Mn0  1  0.171181  0.161881  0.871798  1
  Mn  Mn1  1  0.185237  0.848084  0.054437  1
  Mn  Mn2  1  0.165065  0.517839  0.863262  1
  Mn  Mn3  1  0.175329  0.839703  0.643345  1
  Mn  Mn4  1  0.314445  0.348272  0.554475  1
  Mn  Mn5  1  0.334933  0.017914  0.363303  1
  Mn  Mn6  1  0.324779  0.339864  0.143434  1
  Mn  Mn7  1  0.328880  0.661886  0.371764  1
  Mn  Mn8  1  0.675350  0.660289  0.643344  1
  Mn  Mn9  1  0.665028  0.982257  0.863309  1
  Mn  Mn10  1  0.671198  0.338133  0.871800  1
  Mn  Mn11  1  0.685241  0.651914  0.054439  1
  Mn  Mn12  1  0.814426  0.151716  0.554463  1
  Mn  Mn13  1  0.824773  0.160131  0.143439  1
  Mn  Mn14  1  0.834960  0.482053  0.363295  1
  Mn  Mn15  1  0.828867  0.838110  0.371765  1
  O  O16  1  0.967794  0.019195  0.994667  1
  O  O17  1  0.027828  0.319724  0.995987  1
  O  O18  1  0.032198  0.980767  0.494677  1
  O  O19  1  0.032720  0.660057  0.992483  1
  O  O20  1  0.967114  0.339737  0.492483  1
  O  O21  1  0.972174  0.680263  0.495996  1
  O  O22  1  0.163071  0.168870  0.234467  1
  O  O23  1  0.166022  0.501133  0.272166  1
  O  O24  1  0.180837  0.836947  0.264798  1
  O  O25  1  0.334122  0.001164  0.772133  1
  O  O26  1  0.319310  0.336942  0.764830  1
  O  O27  1  0.336965  0.668807  0.734478  1
  O  O28  1  0.527827  0.180288  0.995997  1
  O  O29  1  0.467087  0.160250  0.492476  1
  O  O30  1  0.532721  0.839944  0.992479  1
  O  O31  1  0.472170  0.819728  0.496003  1
  O  O32  1  0.532213  0.519222  0.494681  1
  O  O33  1  0.467809  0.480812  0.994661  1
  O  O34  1  0.666000  0.998860  0.272167  1
  O  O35  1  0.663082  0.331124  0.234472  1
  O  O36  1  0.680849  0.663046  0.264799  1
  O  O37  1  0.819296  0.163063  0.764826  1
  O  O38  1  0.834140  0.498834  0.772119  1
  O  O39  1  0.836961  0.831178  0.734484  1
