# generated using pymatgen
data_Na2LiTi3Al(PO4)6
_symmetry_space_group_name_H-M   'P 1'
_cell_length_a   8.79902840
_cell_length_b   8.57521163
_cell_length_c   8.57654877
_cell_angle_alpha   60.08459857
_cell_angle_beta   61.10695178
_cell_angle_gamma   61.13340107
_symmetry_Int_Tables_number   1
_chemical_formula_structural   Na2LiTi3Al(PO4)6
_chemical_formula_sum   'Na2 Li1 Ti3 Al1 P6 O24'
_cell_volume   465.49216021
_cell_formula_units_Z   1
loop_
 _symmetry_equiv_pos_site_id
 _symmetry_equiv_pos_as_xyz
  1  'x, y, z'
loop_
 _atom_site_type_symbol
 _atom_site_label
 _atom_site_symmetry_multiplicity
 _atom_site_fract_x
 _atom_site_fract_y
 _atom_site_fract_z
 _atom_site_occupancy
  Na  Na0  1  0.990165  0.004943  0.012178  1
  Na  Na1  1  0.503762  0.490003  0.496846  1
  Li  Li2  1  0.249647  0.839454  0.660476  1
  Ti  Ti3  1  0.060428  0.638647  0.645229  1
  Ti  Ti4  1  0.437256  0.855222  0.861871  1
  Ti  Ti5  1  0.932499  0.355631  0.356125  1
  Al  Al6  1  0.566371  0.144179  0.144979  1
  P  P7  1  0.256343  0.246875  0.529946  1
  P  P8  1  0.255076  0.965522  0.251486  1
  P  P9  1  0.256055  0.527180  0.967655  1
  P  P10  1  0.747521  0.454797  0.040717  1
  P  P11  1  0.753121  0.037587  0.756549  1
  P  P12  1  0.742246  0.757224  0.457669  1
  O  O13  1  0.078102  0.133366  0.283669  1
  O  O14  1  0.079704  0.501965  0.134566  1
  O  O15  1  0.078755  0.282389  0.503419  1
  O  O16  1  0.263162  0.066865  0.713699  1
  O  O17  1  0.236631  0.418464  0.564227  1
  O  O18  1  0.426283  0.216456  0.362306  1
  O  O19  1  0.265487  0.934414  0.082369  1
  O  O20  1  0.238493  0.785101  0.434018  1
  O  O21  1  0.238995  0.565237  0.777505  1
  O  O22  1  0.578135  0.631210  0.004113  1
  O  O23  1  0.732183  0.275827  0.062243  1
  O  O24  1  0.582735  0.999771  0.785204  1
  O  O25  1  0.425471  0.996715  0.218435  1
  O  O26  1  0.264572  0.720682  0.932613  1
  O  O27  1  0.424971  0.360395  0.999191  1
  O  O28  1  0.762400  0.436633  0.220878  1
  O  O29  1  0.763434  0.219872  0.580186  1
  O  O30  1  0.732761  0.061959  0.930203  1
  O  O31  1  0.568887  0.785761  0.630375  1
  O  O32  1  0.762300  0.579422  0.436040  1
  O  O33  1  0.731423  0.929515  0.277208  1
  O  O34  1  0.915417  0.719987  0.497772  1
  O  O35  1  0.919969  0.493186  0.867705  1
  O  O36  1  0.929237  0.868546  0.719333  1
