# generated using pymatgen
data_La4Mn5Co(PbO9)2
_symmetry_space_group_name_H-M   'P 1'
_cell_length_a   5.52535909
_cell_length_b   16.62833245
_cell_length_c   9.60155509
_cell_angle_alpha   30.07292428
_cell_angle_beta   55.50891558
_cell_angle_gamma   60.68575141
_symmetry_Int_Tables_number   1
_chemical_formula_structural   La4Mn5Co(PbO9)2
_chemical_formula_sum   'La4 Mn5 Co1 Pb2 O18'
_cell_volume   364.34824385
_cell_formula_units_Z   1
loop_
 _symmetry_equiv_pos_site_id
 _symmetry_equiv_pos_as_xyz
  1  'x, y, z'
loop_
 _atom_site_type_symbol
 _atom_site_label
 _atom_site_symmetry_multiplicity
 _atom_site_fract_x
 _atom_site_fract_y
 _atom_site_fract_z
 _atom_site_occupancy
  La  La0  1  0.247886  0.666803  0.252219  1
  La  La1  1  0.747815  -0.000474  0.752636  1
  La  La2  1  0.747434  0.332996  0.753031  1
  La  La3  1  0.754043  0.668024  0.743305  1
  Mn  Mn4  1  0.998898  0.999843  0.000315  1
  Mn  Mn5  1  0.001536  0.333299  0.999662  1
  Mn  Mn6  1  0.000467  0.666885  0.999472  1
  Mn  Mn7  1  0.500177  0.999758  0.500234  1
  Mn  Mn8  1  0.499196  0.333454  0.499761  1
  Co  Co9  1  0.499690  0.667021  0.499695  1
  Pb  Pb10  1  0.250654  0.998689  0.250518  1
  Pb  Pb11  1  0.251294  0.334843  0.246221  1
  O  O12  1  0.194909  0.148429  0.304601  1
  O  O13  1  0.749823  0.031867  0.201745  1
  O  O14  1  0.192750  0.485257  0.309062  1
  O  O15  1  0.710912  0.180649  0.247975  1
  O  O16  1  0.303752  0.148821  0.749458  1
  O  O17  1  0.250790  0.309886  0.785217  1
  O  O18  1  0.750637  0.371678  0.192008  1
  O  O19  1  0.199198  0.814478  0.294134  1
  O  O20  1  0.694111  0.516181  0.254932  1
  O  O21  1  0.299886  0.485442  0.738235  1
  O  O22  1  0.790840  0.180870  0.709082  1
  O  O23  1  0.240733  0.643832  0.792084  1
  O  O24  1  0.758242  0.701408  0.191163  1
  O  O25  1  0.727506  0.844850  0.243724  1
  O  O26  1  0.304067  0.809597  0.768014  1
  O  O27  1  0.804794  0.513178  0.703047  1
  O  O28  1  0.249468  0.967360  0.799081  1
  O  O29  1  0.778491  0.845077  0.719371  1
