# generated using pymatgen
data_Pb2O3
_symmetry_space_group_name_H-M   'P 1'
_cell_length_a   7.42448879
_cell_length_b   5.77035774
_cell_length_c   3.57387152
_cell_angle_alpha   90.00000000
_cell_angle_beta   89.66888553
_cell_angle_gamma   90.00000000
_symmetry_Int_Tables_number   1
_chemical_formula_structural   Pb2O3
_chemical_formula_sum   'Pb4 O6'
_cell_volume   153.10909105
_cell_formula_units_Z   2
loop_
 _symmetry_equiv_pos_site_id
 _symmetry_equiv_pos_as_xyz
  1  'x, y, z'
loop_
 _atom_site_type_symbol
 _atom_site_label
 _atom_site_symmetry_multiplicity
 _atom_site_fract_x
 _atom_site_fract_y
 _atom_site_fract_z
 _atom_site_occupancy
  Pb  Pb0  1  0.101296  0.332424  0.247645  1
  Pb  Pb1  1  0.385231  0.856997  0.257900  1
  Pb  Pb2  1  0.614769  0.356997  0.742100  1
  Pb  Pb3  1  0.898704  0.832424  0.752355  1
  O  O4  1  0.139551  0.079351  0.748604  1
  O  O5  1  0.146900  0.576107  0.747203  1
  O  O6  1  0.409026  0.289122  0.246395  1
  O  O7  1  0.590974  0.789122  0.753605  1
  O  O8  1  0.853100  0.076107  0.252797  1
  O  O9  1  0.860449  0.579351  0.251396  1
