# generated using pymatgen
data_LiMn2(BO3)2
_symmetry_space_group_name_H-M   'P 1'
_cell_length_a   9.15849413
_cell_length_b   9.10563217
_cell_length_c   10.32021068
_cell_angle_alpha   89.56139644
_cell_angle_beta   91.47231530
_cell_angle_gamma   60.04296207
_symmetry_Int_Tables_number   1
_chemical_formula_structural   LiMn2(BO3)2
_chemical_formula_sum   'Li6 Mn12 B12 O36'
_cell_volume   745.20593643
_cell_formula_units_Z   6
loop_
 _symmetry_equiv_pos_site_id
 _symmetry_equiv_pos_as_xyz
  1  'x, y, z'
loop_
 _atom_site_type_symbol
 _atom_site_label
 _atom_site_symmetry_multiplicity
 _atom_site_fract_x
 _atom_site_fract_y
 _atom_site_fract_z
 _atom_site_occupancy
  Li  Li0  1  0.418533  0.301643  0.672829  1
  Li  Li1  1  0.103261  0.930719  0.109742  1
  Li  Li2  1  0.422963  0.305793  0.162302  1
  Li  Li3  1  0.905683  0.039873  0.401221  1
  Li  Li4  1  0.757385  0.602976  0.677559  1
  Li  Li5  1  0.780001  0.623728  0.152403  1
  Mn  Mn6  1  0.219159  0.046705  0.878145  1
  Mn  Mn7  1  0.096523  0.265035  0.134987  1
  Mn  Mn8  1  0.089929  0.652780  0.621634  1
  Mn  Mn9  1  0.536842  0.070798  0.382306  1
  Mn  Mn10  1  0.255524  0.682395  0.375870  1
  Mn  Mn11  1  0.577323  0.391415  0.878754  1
  Mn  Mn12  1  0.453751  0.622006  0.123280  1
  Mn  Mn13  1  0.416920  0.965550  0.632324  1
  Mn  Mn14  1  0.807462  0.242978  0.639045  1
  Mn  Mn15  1  0.889909  0.405432  0.391116  1
  Mn  Mn16  1  0.895249  0.714261  0.883082  1
  Mn  Mn17  1  0.757312  0.955933  0.126488  1
  B  B18  1  0.210553  0.050170  0.378315  1
  B  B19  1  0.103266  0.302751  0.632675  1
  B  B20  1  0.110716  0.605584  0.140645  1
  B  B21  1  0.218815  0.716209  0.880363  1
  B  B22  1  0.554359  0.053581  0.868978  1
  B  B23  1  0.456079  0.601832  0.631187  1
  B  B24  1  0.571370  0.388560  0.371340  1
  B  B25  1  0.446582  0.951505  0.129115  1
  B  B26  1  0.778718  0.275197  0.120336  1
  B  B27  1  0.893906  0.375493  0.888356  1
  B  B28  1  0.773003  0.932998  0.616052  1
  B  B29  1  0.889466  0.744395  0.361337  1
  O  O30  1  0.055547  0.286805  0.947964  1
  O  O31  1  0.178336  0.130529  0.675001  1
  O  O32  1  0.128228  0.215929  0.321613  1
  O  O33  1  0.274092  0.028840  0.098663  1
  O  O34  1  0.188936  0.387079  0.624454  1
  O  O35  1  0.042371  0.690576  0.431849  1
  O  O36  1  0.183238  0.435876  0.141141  1
  O  O37  1  0.131623  0.654733  0.805868  1
  O  O38  1  0.511580  0.056787  0.167289  1
  O  O39  1  0.199679  0.687872  0.186951  1
  O  O40  1  0.142542  0.877987  0.920476  1
  O  O41  1  0.497460  0.218642  0.846365  1
  O  O42  1  0.600134  0.023837  0.586933  1
  O  O43  1  0.145377  0.947047  0.367104  1
  O  O44  1  0.301572  0.645611  0.565815  1
  O  O45  1  0.478215  0.313145  0.347937  1
  O  O46  1  0.382337  0.604221  0.924990  1
  O  O47  1  0.541221  0.436321  0.686684  1
  O  O48  1  0.495390  0.564429  0.338062  1
  O  O49  1  0.608184  0.359332  0.074250  1
  O  O50  1  0.362445  0.004776  0.446135  1
  O  O51  1  0.874444  0.999580  0.596981  1
  O  O52  1  0.517591  0.707894  0.638016  1
  O  O53  1  0.735006  0.303497  0.422497  1
  O  O54  1  0.547147  0.782377  0.121487  1
  O  O55  1  0.868572  0.103850  0.132701  1
  O  O56  1  0.472026  0.968532  0.817961  1
  O  O57  1  0.820991  0.276977  0.849954  1
  O  O58  1  0.845248  0.379633  0.154798  1
  O  O59  1  0.814406  0.543718  0.863478  1
  O  O60  1  0.930891  0.379734  0.597062  1
  O  O61  1  0.829491  0.640736  0.335536  1
  O  O62  1  0.702671  0.950211  0.943843  1
  O  O63  1  0.846151  0.762317  0.659580  1
  O  O64  1  0.802839  0.915735  0.317412  1
  O  O65  1  0.945704  0.710801  0.091226  1
