# generated using pymatgen
data_TaGaO4
_symmetry_space_group_name_H-M   'P 1'
_cell_length_a   4.67097895
_cell_length_b   5.65089327
_cell_length_c   5.00790056
_cell_angle_alpha   90.00000000
_cell_angle_beta   90.00000000
_cell_angle_gamma   90.00000000
_symmetry_Int_Tables_number   1
_chemical_formula_structural   TaGaO4
_chemical_formula_sum   'Ta2 Ga2 O8'
_cell_volume   132.18455445
_cell_formula_units_Z   2
loop_
 _symmetry_equiv_pos_site_id
 _symmetry_equiv_pos_as_xyz
  1  'x, y, z'
loop_
 _atom_site_type_symbol
 _atom_site_label
 _atom_site_symmetry_multiplicity
 _atom_site_fract_x
 _atom_site_fract_y
 _atom_site_fract_z
 _atom_site_occupancy
  Ta  Ta0  1  0.000000  0.820066  0.750000  1
  Ta  Ta1  1  0.500000  0.320066  0.750000  1
  Ga  Ga2  1  0.000000  0.169742  0.250000  1
  Ga  Ga3  1  0.500000  0.669742  0.250000  1
  O  O4  1  0.226753  0.115393  0.581564  1
  O  O5  1  0.227217  0.889703  0.073052  1
  O  O6  1  0.272783  0.389703  0.073052  1
  O  O7  1  0.273247  0.615393  0.581564  1
  O  O8  1  0.727217  0.389703  0.426948  1
  O  O9  1  0.726754  0.615393  0.918436  1
  O  O10  1  0.773246  0.115393  0.918436  1
  O  O11  1  0.772783  0.889703  0.426948  1
