# generated using pymatgen
data_LiCuCO3
_symmetry_space_group_name_H-M   'P 1'
_cell_length_a   3.21087127
_cell_length_b   14.15843687
_cell_length_c   14.24021639
_cell_angle_alpha   119.81272202
_cell_angle_beta   84.93115045
_cell_angle_gamma   90.00336514
_symmetry_Int_Tables_number   1
_chemical_formula_structural   LiCuCO3
_chemical_formula_sum   'Li9 Cu9 C9 O27'
_cell_volume   558.77891256
_cell_formula_units_Z   9
loop_
 _symmetry_equiv_pos_site_id
 _symmetry_equiv_pos_as_xyz
  1  'x, y, z'
loop_
 _atom_site_type_symbol
 _atom_site_label
 _atom_site_symmetry_multiplicity
 _atom_site_fract_x
 _atom_site_fract_y
 _atom_site_fract_z
 _atom_site_occupancy
  Li  Li0  1  0.001267  0.894557  0.122895  1
  Li  Li1  1  0.002869  0.899114  0.422845  1
  Li  Li2  1  0.022413  0.875833  0.769862  1
  Li  Li3  1  0.991295  0.525635  0.103242  1
  Li  Li4  1  0.994911  0.577758  0.476595  1
  Li  Li5  1  0.004746  0.571167  0.755438  1
  Li  Li6  1  0.971053  0.229639  0.105008  1
  Li  Li7  1  0.072814  0.184779  0.431867  1
  Li  Li8  1  0.937669  0.247785  0.817741  1
  Cu  Cu9  1  0.506754  0.743005  0.197836  1
  Cu  Cu10  1  0.493852  0.804093  0.544963  1
  Cu  Cu11  1  0.500062  0.785079  0.905127  1
  Cu  Cu12  1  0.511898  0.452182  0.255301  1
  Cu  Cu13  1  0.460504  0.428040  0.546263  1
  Cu  Cu14  1  0.488950  0.122777  0.214766  1
  Cu  Cu15  1  0.449516  0.452178  0.875853  1
  Cu  Cu16  1  0.568727  0.118009  0.567919  1
  Cu  Cu17  1  0.501313  0.091864  0.878814  1
  C  C18  1  0.527445  0.987599  0.317733  1
  C  C19  1  0.973984  0.999380  0.999355  1
  C  C20  1  0.029870  0.666379  0.333169  1
  C  C21  1  0.510547  0.682486  0.668533  1
  C  C22  1  0.462742  0.330872  0.014619  1
  C  C23  1  0.981227  0.335360  0.343938  1
  C  C24  1  0.030694  0.656766  0.990315  1
  C  C25  1  0.002336  0.332960  0.666993  1
  C  C26  1  0.992319  0.010592  0.664666  1
  O  O27  1  0.473829  0.971644  0.221510  1
  O  O28  1  0.522283  0.906093  0.336155  1
  O  O29  1  0.879262  0.742328  0.079548  1
  O  O30  1  0.122357  0.922403  0.661892  1
  O  O31  1  0.108288  0.659437  0.238543  1
  O  O32  1  0.923695  0.760549  0.418691  1
  O  O33  1  0.903736  0.905971  0.993234  1
  O  O34  1  0.053425  0.578892  0.340803  1
  O  O35  1  0.530855  0.781209  0.749393  1
  O  O36  1  0.472021  0.665884  0.571031  1
  O  O37  1  0.493411  0.429953  0.094451  1
  O  O38  1  0.528511  0.600974  0.684941  1
  O  O39  1  0.495360  0.248783  0.031151  1
  O  O40  1  0.894499  0.339179  0.258463  1
  O  O41  1  0.171337  0.664230  0.905944  1
  O  O42  1  0.908883  0.422641  0.440514  1
  O  O43  1  0.062481  0.415853  0.653398  1
  O  O44  1  0.147305  0.247780  0.335863  1
  O  O45  1  0.039801  0.561681  0.984228  1
  O  O46  1  0.946538  0.088014  0.093643  1
  O  O47  1  0.852886  0.347582  0.761621  1
  O  O48  1  0.087837  0.234342  0.587217  1
  O  O49  1  0.586433  0.084539  0.395611  1
  O  O50  1  0.398853  0.314193  0.919468  1
  O  O51  1  0.030612  0.018358  0.576530  1
  O  O52  1  0.823380  0.092579  0.754803  1
  O  O53  1  0.076633  0.003785  0.911278  1
