# generated using pymatgen
data_KV5Co(H8O11)2
_symmetry_space_group_name_H-M   'P 1'
_cell_length_a   10.80879687
_cell_length_b   11.20751966
_cell_length_c   8.88515913
_cell_angle_alpha   104.59790222
_cell_angle_beta   108.94814971
_cell_angle_gamma   65.99263634
_symmetry_Int_Tables_number   1
_chemical_formula_structural   KV5Co(H8O11)2
_chemical_formula_sum   'K2 V10 Co2 H32 O44'
_cell_volume   920.95463709
_cell_formula_units_Z   2
loop_
 _symmetry_equiv_pos_site_id
 _symmetry_equiv_pos_as_xyz
  1  'x, y, z'
loop_
 _atom_site_type_symbol
 _atom_site_label
 _atom_site_symmetry_multiplicity
 _atom_site_fract_x
 _atom_site_fract_y
 _atom_site_fract_z
 _atom_site_occupancy
  K  K0  1  0.084136  0.220056  0.320165  1
  K  K1  1  0.915864  0.779944  0.679835  1
  V  V2  1  0.216423  0.551369  0.384243  1
  V  V3  1  0.266053  0.754483  0.696747  1
  V  V4  1  0.444180  0.274233  0.350694  1
  V  V5  1  0.496283  0.477569  0.673282  1
  V  V6  1  0.274936  0.802843  0.366020  1
  V  V7  1  0.725064  0.197157  0.633980  1
  V  V8  1  0.503717  0.522431  0.326718  1
  V  V9  1  0.555820  0.725767  0.649306  1
  V  V10  1  0.733947  0.245517  0.303253  1
  V  V11  1  0.783577  0.448631  0.615757  1
  Co  Co12  1  0.271822  0.207017  0.774658  1
  Co  Co13  1  0.728178  0.792983  0.225342  1
  H  H14  1  0.010988  0.183153  0.648224  1
  H  H15  1  0.107652  0.162270  0.952160  1
  H  H16  1  0.063423  0.344373  0.947451  1
  H  H17  1  0.128968  0.041239  0.608177  1
  H  H18  1  0.291760  0.042797  0.972479  1
  H  H19  1  0.159261  0.424267  0.961177  1
  H  H20  1  0.100714  0.441529  0.674900  1
  H  H21  1  0.237491  0.398725  0.607056  1
  H  H22  1  0.399336  0.000935  0.564378  1
  H  H23  1  0.243444  0.581364  0.915667  1
  H  H24  1  0.446213  0.122911  0.576862  1
  H  H25  1  0.015498  0.882385  0.067408  1
  H  H26  1  0.504374  0.288288  0.863939  1
  H  H27  1  0.168397  0.635320  0.053294  1
  H  H28  1  0.513249  0.751210  0.984344  1
  H  H29  1  0.402676  0.963251  0.874348  1
  H  H30  1  0.597324  0.036749  0.125652  1
  H  H31  1  0.486751  0.248790  0.015656  1
  H  H32  1  0.831603  0.364680  0.946706  1
  H  H33  1  0.495626  0.711712  0.136061  1
  H  H34  1  0.984502  0.117615  0.932592  1
  H  H35  1  0.553787  0.877089  0.423138  1
  H  H36  1  0.756556  0.418636  0.084333  1
  H  H37  1  0.600664  0.999065  0.435622  1
  H  H38  1  0.762509  0.601275  0.392944  1
  H  H39  1  0.899286  0.558471  0.325100  1
  H  H40  1  0.840739  0.575733  0.038823  1
  H  H41  1  0.708240  0.957203  0.027521  1
  H  H42  1  0.871032  0.958761  0.391823  1
  H  H43  1  0.936577  0.655627  0.052549  1
  H  H44  1  0.892348  0.837730  0.047840  1
  H  H45  1  0.989012  0.816847  0.351776  1
  O  O46  1  0.069135  0.128209  0.009232  1
  O  O47  1  0.108702  0.137636  0.641737  1
  O  O48  1  0.156207  0.334026  0.943189  1
  O  O49  1  0.353074  0.054304  0.921398  1
  O  O50  1  0.159423  0.588588  0.942632  1
  O  O51  1  0.175553  0.366441  0.635530  1
  O  O52  1  0.094271  0.487912  0.292536  1
  O  O53  1  0.374493  0.098318  0.595800  1
  O  O54  1  0.158102  0.654627  0.561336  1
  O  O55  1  0.440253  0.269360  0.904603  1
  O  O56  1  0.177235  0.837765  0.828868  1
  O  O57  1  0.324054  0.210040  0.262876  1
  O  O58  1  0.162872  0.695886  0.278689  1
  O  O59  1  0.352931  0.410292  0.521777  1
  O  O60  1  0.199704  0.869478  0.544361  1
  O  O61  1  0.387019  0.585635  0.792882  1
  O  O62  1  0.362319  0.446395  0.260766  1
  O  O63  1  0.558822  0.162318  0.505852  1
  O  O64  1  0.191714  0.921944  0.256854  1
  O  O65  1  0.404498  0.618808  0.514665  1
  O  O66  1  0.594034  0.333914  0.763106  1
  O  O67  1  0.434754  0.795707  0.781909  1
  O  O68  1  0.565246  0.204293  0.218091  1
  O  O69  1  0.405966  0.666086  0.236894  1
  O  O70  1  0.595502  0.381192  0.485335  1
  O  O71  1  0.808286  0.078056  0.743146  1
  O  O72  1  0.441178  0.837682  0.494148  1
  O  O73  1  0.637681  0.553605  0.739234  1
  O  O74  1  0.612981  0.414365  0.207118  1
  O  O75  1  0.800296  0.130522  0.455639  1
  O  O76  1  0.647069  0.589708  0.478223  1
  O  O77  1  0.837128  0.304114  0.721311  1
  O  O78  1  0.675946  0.789960  0.737124  1
  O  O79  1  0.822765  0.162235  0.171132  1
  O  O80  1  0.559747  0.730640  0.095397  1
  O  O81  1  0.841898  0.345373  0.438664  1
  O  O82  1  0.625507  0.901682  0.404200  1
  O  O83  1  0.905729  0.512088  0.707464  1
  O  O84  1  0.824447  0.633559  0.364470  1
  O  O85  1  0.840577  0.411412  0.057368  1
  O  O86  1  0.646926  0.945696  0.078602  1
  O  O87  1  0.843793  0.665974  0.056811  1
  O  O88  1  0.891298  0.862364  0.358264  1
  O  O89  1  0.930865  0.871791  0.990768  1
