# generated using pymatgen
data_LiBi(PO3)4
_symmetry_space_group_name_H-M   'P 1'
_cell_length_a   7.23936099
_cell_length_b   8.95984744
_cell_length_c   15.55498815
_cell_angle_alpha   90.00000000
_cell_angle_beta   90.33722118
_cell_angle_gamma   90.00000000
_symmetry_Int_Tables_number   1
_chemical_formula_structural   LiBi(PO3)4
_chemical_formula_sum   'Li4 Bi4 P16 O48'
_cell_volume   1008.93458703
_cell_formula_units_Z   4
loop_
 _symmetry_equiv_pos_site_id
 _symmetry_equiv_pos_as_xyz
  1  'x, y, z'
loop_
 _atom_site_type_symbol
 _atom_site_label
 _atom_site_symmetry_multiplicity
 _atom_site_fract_x
 _atom_site_fract_y
 _atom_site_fract_z
 _atom_site_occupancy
  Li  Li0  1  0.011565  0.579560  0.354560  1
  Li  Li1  1  0.511565  0.920440  0.854560  1
  Li  Li2  1  0.488435  0.079560  0.145440  1
  Li  Li3  1  0.988435  0.420440  0.645440  1
  Bi  Bi4  1  0.080306  0.677875  0.901231  1
  Bi  Bi5  1  0.419694  0.177875  0.598769  1
  Bi  Bi6  1  0.580306  0.822125  0.401231  1
  Bi  Bi7  1  0.919694  0.322125  0.098769  1
  P  P8  1  0.089690  0.248948  0.425298  1
  P  P9  1  0.128297  0.033077  0.792380  1
  P  P10  1  0.161912  0.252858  0.940698  1
  P  P11  1  0.248624  0.022624  0.294811  1
  P  P12  1  0.338088  0.752858  0.559302  1
  P  P13  1  0.371703  0.533077  0.707620  1
  P  P14  1  0.251376  0.522624  0.205189  1
  P  P15  1  0.589690  0.251052  0.925298  1
  P  P16  1  0.410310  0.748948  0.074702  1
  P  P17  1  0.748624  0.477376  0.794811  1
  P  P18  1  0.628297  0.466923  0.292380  1
  P  P19  1  0.661912  0.247142  0.440698  1
  P  P20  1  0.751376  0.977376  0.705189  1
  P  P21  1  0.838088  0.747142  0.059302  1
  P  P22  1  0.871703  0.966923  0.207620  1
  P  P23  1  0.910310  0.751052  0.574702  1
  O  O24  1  0.063228  0.402180  0.946588  1
  O  O25  1  0.094419  0.171944  0.855282  1
  O  O26  1  0.077227  0.017733  0.227241  1
  O  O27  1  0.153554  0.232123  0.518070  1
  O  O28  1  0.228375  0.085232  0.713934  1
  O  O29  1  0.128601  0.786551  0.575614  1
  O  O30  1  0.123895  0.391157  0.380089  1
  O  O31  1  0.283389  0.407062  0.655889  1
  O  O32  1  0.155090  0.103073  0.376090  1
  O  O33  1  0.104188  0.615008  0.243973  1
  O  O34  1  0.216611  0.907062  0.844111  1
  O  O35  1  0.294850  0.867235  0.327003  1
  O  O36  1  0.373007  0.658920  0.480073  1
  O  O37  1  0.371399  0.286551  0.924386  1
  O  O38  1  0.271625  0.585232  0.786066  1
  O  O39  1  0.346446  0.732123  0.981930  1
  O  O40  1  0.126993  0.158920  0.019927  1
  O  O41  1  0.205150  0.367235  0.172997  1
  O  O42  1  0.405581  0.671944  0.644718  1
  O  O43  1  0.395812  0.115008  0.256027  1
  O  O44  1  0.436772  0.902180  0.553412  1
  O  O45  1  0.344910  0.603073  0.123910  1
  O  O46  1  0.577227  0.482267  0.727241  1
  O  O47  1  0.376105  0.891157  0.119911  1
  O  O48  1  0.623895  0.108843  0.880089  1
  O  O49  1  0.422773  0.517733  0.272759  1
  O  O50  1  0.655090  0.396927  0.876090  1
  O  O51  1  0.563228  0.097820  0.446588  1
  O  O52  1  0.604188  0.884992  0.743973  1
  O  O53  1  0.594419  0.328056  0.355282  1
  O  O54  1  0.794850  0.632765  0.827003  1
  O  O55  1  0.873007  0.841080  0.980073  1
  O  O56  1  0.653554  0.267877  0.018070  1
  O  O57  1  0.728375  0.414768  0.213934  1
  O  O58  1  0.628601  0.713449  0.075614  1
  O  O59  1  0.626993  0.341080  0.519927  1
  O  O60  1  0.705150  0.132765  0.672997  1
  O  O61  1  0.783389  0.092938  0.155889  1
  O  O62  1  0.895812  0.384992  0.756027  1
  O  O63  1  0.844910  0.896927  0.623910  1
  O  O64  1  0.716611  0.592938  0.344111  1
  O  O65  1  0.876105  0.608843  0.619911  1
  O  O66  1  0.871399  0.213449  0.424386  1
  O  O67  1  0.771625  0.914768  0.286066  1
  O  O68  1  0.846446  0.767877  0.481930  1
  O  O69  1  0.922773  0.982267  0.772759  1
  O  O70  1  0.905581  0.828056  0.144718  1
  O  O71  1  0.936772  0.597820  0.053412  1
