# generated using pymatgen
data_MnFe3Ni2(PO4)6
_symmetry_space_group_name_H-M   'P 1'
_cell_length_a   8.46756320
_cell_length_b   8.46756340
_cell_length_c   8.46756300
_cell_angle_alpha   60.94572887
_cell_angle_beta   60.94573703
_cell_angle_gamma   60.94573192
_symmetry_Int_Tables_number   1
_chemical_formula_structural   MnFe3Ni2(PO4)6
_chemical_formula_sum   'Mn1 Fe3 Ni2 P6 O24'
_cell_volume   438.44796887
_cell_formula_units_Z   1
loop_
 _symmetry_equiv_pos_site_id
 _symmetry_equiv_pos_as_xyz
  1  'x, y, z'
loop_
 _atom_site_type_symbol
 _atom_site_label
 _atom_site_symmetry_multiplicity
 _atom_site_fract_x
 _atom_site_fract_y
 _atom_site_fract_z
 _atom_site_occupancy
  Mn  Mn0  1  0.857606  0.857606  0.857606  1
  Fe  Fe1  1  0.143965  0.143965  0.143965  1
  Fe  Fe2  1  0.355514  0.355514  0.355514  1
  Fe  Fe3  1  0.643214  0.643214  0.643214  1
  Ni  Ni4  1  0.001259  0.001259  0.001259  1
  Ni  Ni5  1  0.500021  0.500021  0.500021  1
  P  P6  1  0.043465  0.749148  0.459155  1
  P  P7  1  0.459155  0.043465  0.749148  1
  P  P8  1  0.749148  0.459155  0.043465  1
  P  P9  1  0.248108  0.545341  0.952645  1
  P  P10  1  0.545341  0.952645  0.248108  1
  P  P11  1  0.952645  0.248108  0.545341  1
  O  O12  1  0.110730  0.310467  0.511675  1
  O  O13  1  0.310467  0.511675  0.110730  1
  O  O14  1  0.056788  0.909770  0.260306  1
  O  O15  1  0.511675  0.110730  0.310467  1
  O  O16  1  0.004848  0.813833  0.620095  1
  O  O17  1  0.243749  0.591480  0.443451  1
  O  O18  1  0.260306  0.056788  0.909770  1
  O  O19  1  0.443451  0.243749  0.591480  1
  O  O20  1  0.181109  0.389269  0.992429  1
  O  O21  1  0.591480  0.443451  0.243749  1
  O  O22  1  0.083490  0.746587  0.940263  1
  O  O23  1  0.389269  0.992429  0.181109  1
  O  O24  1  0.620095  0.004848  0.813833  1
  O  O25  1  0.909770  0.260306  0.056788  1
  O  O26  1  0.405408  0.564218  0.753228  1
  O  O27  1  0.813833  0.620095  0.004848  1
  O  O28  1  0.564218  0.753228  0.405408  1
  O  O29  1  0.746587  0.940263  0.083490  1
  O  O30  1  0.753228  0.405408  0.564218  1
  O  O31  1  0.992429  0.181109  0.389269  1
  O  O32  1  0.497742  0.888792  0.680832  1
  O  O33  1  0.940263  0.083490  0.746587  1
  O  O34  1  0.680832  0.497742  0.888792  1
  O  O35  1  0.888792  0.680832  0.497742  1
