# generated using pymatgen
data_V2O3F
_symmetry_space_group_name_H-M   'P 1'
_cell_length_a   8.82273164
_cell_length_b   5.58429056
_cell_length_c   5.58429056
_cell_angle_alpha   75.57468605
_cell_angle_beta   87.38602909
_cell_angle_gamma   87.38602909
_symmetry_Int_Tables_number   1
_chemical_formula_structural   V2O3F
_chemical_formula_sum   'V8 O12 F4'
_cell_volume   266.01266757
_cell_formula_units_Z   4
loop_
 _symmetry_equiv_pos_site_id
 _symmetry_equiv_pos_as_xyz
  1  'x, y, z'
loop_
 _atom_site_type_symbol
 _atom_site_label
 _atom_site_symmetry_multiplicity
 _atom_site_fract_x
 _atom_site_fract_y
 _atom_site_fract_z
 _atom_site_occupancy
  V  V0  1  0.874755  0.620988  0.629165  1
  V  V1  1  0.624895  0.866674  0.883732  1
  V  V2  1  0.750774  0.287199  0.212029  1
  V  V3  1  0.500000  0.534535  0.465465  1
  V  V4  1  0.249226  0.787971  0.712801  1
  V  V5  1  0.375105  0.116268  0.133326  1
  V  V6  1  0.125245  0.370835  0.379012  1
  V  V7  1  0.000000  0.953749  0.046251  1
  O  O8  1  0.750817  0.552001  0.950138  1
  O  O9  1  0.220791  0.971377  0.971867  1
  O  O10  1  0.971692  0.217052  0.224219  1
  O  O11  1  0.471201  0.722167  0.722526  1
  O  O12  1  0.721399  0.466881  0.475055  1
  O  O13  1  0.779209  0.028133  0.028623  1
  O  O14  1  0.028308  0.775781  0.782948  1
  O  O15  1  0.528799  0.277474  0.277833  1
  O  O16  1  0.278601  0.524945  0.533119  1
  O  O17  1  0.500000  0.796870  0.203130  1
  O  O18  1  0.249183  0.049862  0.447999  1
  O  O19  1  0.000000  0.691242  0.308758  1
  F  F20  1  0.500000  0.196731  0.803269  1
  F  F21  1  0.748821  0.947802  0.551633  1
  F  F22  1  0.000000  0.295097  0.704903  1
  F  F23  1  0.251179  0.448367  0.052198  1
