# generated using pymatgen
data_Li2Zr2(PO4)3
_symmetry_space_group_name_H-M   'P 1'
_cell_length_a   8.93796168
_cell_length_b   8.90929317
_cell_length_c   8.93796118
_cell_angle_alpha   60.96585200
_cell_angle_beta   62.75402956
_cell_angle_gamma   60.96585540
_symmetry_Int_Tables_number   1
_chemical_formula_structural   Li2Zr2(PO4)3
_chemical_formula_sum   'Li4 Zr4 P6 O24'
_cell_volume   520.58571237
_cell_formula_units_Z   2
loop_
 _symmetry_equiv_pos_site_id
 _symmetry_equiv_pos_as_xyz
  1  'x, y, z'
loop_
 _atom_site_type_symbol
 _atom_site_label
 _atom_site_symmetry_multiplicity
 _atom_site_fract_x
 _atom_site_fract_y
 _atom_site_fract_z
 _atom_site_occupancy
  Li  Li0  1  0.172470  0.958019  0.808819  1
  Li  Li1  1  0.308819  0.458019  0.672470  1
  Li  Li2  1  0.691181  0.541981  0.327530  1
  Li  Li3  1  0.827530  0.041981  0.191181  1
  Zr  Zr4  1  0.142576  0.144094  0.139526  1
  Zr  Zr5  1  0.360474  0.355906  0.357424  1
  Zr  Zr6  1  0.639526  0.644094  0.642576  1
  Zr  Zr7  1  0.857424  0.855906  0.860474  1
  P  P8  1  0.037893  0.750000  0.462107  1
  P  P9  1  0.553182  0.959037  0.243606  1
  P  P10  1  0.256394  0.540963  0.946818  1
  P  P11  1  0.743606  0.459037  0.053182  1
  P  P12  1  0.446818  0.040963  0.756394  1
  P  P13  1  0.962107  0.250000  0.537893  1
  O  O14  1  0.048619  0.911324  0.281498  1
  O  O15  1  0.005113  0.800409  0.619751  1
  O  O16  1  0.107308  0.732252  0.927914  1
  O  O17  1  0.394200  0.013863  0.182672  1
  O  O18  1  0.465806  0.898657  0.689822  1
  O  O19  1  0.218502  0.588676  0.451381  1
  O  O20  1  0.572086  0.767748  0.392692  1
  O  O21  1  0.733844  0.945001  0.091493  1
  O  O22  1  0.317328  0.486137  0.105800  1
  O  O23  1  0.119751  0.300409  0.505113  1
  O  O24  1  0.189822  0.398657  0.965806  1
  O  O25  1  0.408507  0.554999  0.766156  1
  O  O26  1  0.591493  0.445001  0.233844  1
  O  O27  1  0.880249  0.699591  0.494887  1
  O  O28  1  0.810178  0.601343  0.034194  1
  O  O29  1  0.682672  0.513863  0.894200  1
  O  O30  1  0.266156  0.054999  0.908507  1
  O  O31  1  0.427914  0.232252  0.607308  1
  O  O32  1  0.781498  0.411324  0.548619  1
  O  O33  1  0.534194  0.101343  0.310178  1
  O  O34  1  0.605800  0.986137  0.817328  1
  O  O35  1  0.892692  0.267748  0.072086  1
  O  O36  1  0.994887  0.199591  0.380249  1
  O  O37  1  0.951381  0.088676  0.718502  1
