# generated using pymatgen
data_Sr8Mg3Fe(MoO6)4
_symmetry_space_group_name_H-M   'P 1'
_cell_length_a   11.25110413
_cell_length_b   7.93809653
_cell_length_c   9.85050824
_cell_angle_alpha   113.73977087
_cell_angle_beta   89.86820414
_cell_angle_gamma   45.09502732
_symmetry_Int_Tables_number   1
_chemical_formula_structural   Sr8Mg3Fe(MoO6)4
_chemical_formula_sum   'Sr8 Mg3 Fe1 Mo4 O24'
_cell_volume   511.68596215
_cell_formula_units_Z   1
loop_
 _symmetry_equiv_pos_site_id
 _symmetry_equiv_pos_as_xyz
  1  'x, y, z'
loop_
 _atom_site_type_symbol
 _atom_site_label
 _atom_site_symmetry_multiplicity
 _atom_site_fract_x
 _atom_site_fract_y
 _atom_site_fract_z
 _atom_site_occupancy
  Sr  Sr0  1  0.121434  0.248232  0.250007  1
  Sr  Sr1  1  0.122216  0.757173  0.249171  1
  Sr  Sr2  1  0.377784  0.242827  0.750829  1
  Sr  Sr3  1  0.628827  0.251399  0.249994  1
  Sr  Sr4  1  0.378566  0.751768  0.749993  1
  Sr  Sr5  1  0.628464  0.741160  0.249470  1
  Sr  Sr6  1  0.871536  0.258840  0.750530  1
  Sr  Sr7  1  0.871173  0.748601  0.750006  1
  Mg  Mg8  1  0.001280  0.997340  0.997413  1
  Mg  Mg9  1  0.498720  0.002660  0.002587  1
  Mg  Mg10  1  0.750000  0.000000  0.500000  1
  Fe  Fe11  1  0.250000  0.000000  0.500000  1
  Mo  Mo12  1  0.250000  0.500000  0.500000  1
  Mo  Mo13  1  0.501132  0.497892  0.997772  1
  Mo  Mo14  1  0.750000  0.500000  0.500000  1
  Mo  Mo15  1  0.998868  0.502108  0.002228  1
  O  O16  1  0.037783  0.218605  0.994812  1
  O  O17  1  0.122590  0.254819  0.755042  1
  O  O18  1  0.009280  0.706695  0.499938  1
  O  O19  1  0.238964  0.297935  0.002970  1
  O  O20  1  0.285956  0.218719  0.500113  1
  O  O21  1  0.369460  0.261080  0.261230  1
  O  O22  1  0.130540  0.738920  0.738770  1
  O  O23  1  0.214044  0.781281  0.499887  1
  O  O24  1  0.261036  0.702065  0.997030  1
  O  O25  1  0.490720  0.293305  0.500062  1
  O  O26  1  0.532456  0.229529  0.005415  1
  O  O27  1  0.377410  0.745181  0.244958  1
  O  O28  1  0.620635  0.259315  0.758932  1
  O  O29  1  0.462217  0.781395  0.005188  1
  O  O30  1  0.497029  0.718782  0.499968  1
  O  O31  1  0.741857  0.292322  0.997238  1
  O  O32  1  0.782157  0.225575  0.499107  1
  O  O33  1  0.874588  0.249884  0.250675  1
  O  O34  1  0.625412  0.750116  0.749325  1
  O  O35  1  0.717843  0.774425  0.500893  1
  O  O36  1  0.758143  0.707678  0.002762  1
  O  O37  1  0.002971  0.281218  0.500032  1
  O  O38  1  0.879365  0.740685  0.241068  1
  O  O39  1  0.967544  0.770471  0.994585  1
