# generated using pymatgen
data_NaMnPCO7
_symmetry_space_group_name_H-M   'P 1'
_cell_length_a   9.16097651
_cell_length_b   8.13129576
_cell_length_c   8.14556021
_cell_angle_alpha   100.66520001
_cell_angle_beta   88.63547452
_cell_angle_gamma   88.51263571
_symmetry_Int_Tables_number   1
_chemical_formula_structural   NaMnPCO7
_chemical_formula_sum   'Na4 Mn4 P4 C4 O28'
_cell_volume   595.83220357
_cell_formula_units_Z   4
loop_
 _symmetry_equiv_pos_site_id
 _symmetry_equiv_pos_as_xyz
  1  'x, y, z'
loop_
 _atom_site_type_symbol
 _atom_site_label
 _atom_site_symmetry_multiplicity
 _atom_site_fract_x
 _atom_site_fract_y
 _atom_site_fract_z
 _atom_site_occupancy
  Na  Na0  1  0.754513  0.603910  0.149149  1
  Na  Na1  1  0.754988  0.899623  0.853968  1
  Na  Na2  1  0.245012  0.600377  0.646032  1
  Na  Na3  1  0.245487  0.896090  0.350851  1
  Mn  Mn4  1  0.659595  0.476276  0.728061  1
  Mn  Mn5  1  0.655428  0.989232  0.237680  1
  Mn  Mn6  1  0.344572  0.510768  0.262320  1
  Mn  Mn7  1  0.340405  0.023724  0.771939  1
  P  P8  1  0.566785  0.265154  0.012542  1
  P  P9  1  0.565970  0.767049  0.518704  1
  P  P10  1  0.433215  0.234846  0.487458  1
  P  P11  1  0.434030  0.732951  0.981296  1
  C  C12  1  0.918427  0.012999  0.258028  1
  C  C13  1  0.920524  0.509885  0.763866  1
  C  C14  1  0.081573  0.487001  0.241972  1
  C  C15  1  0.079476  0.990115  0.736134  1
  O  O16  1  0.948780  0.473687  0.231295  1
  O  O17  1  0.948021  0.972226  0.715864  1
  O  O18  1  0.860159  0.398223  0.650489  1
  O  O19  1  0.852589  0.898307  0.147462  1
  O  O20  1  0.819017  0.108674  0.353506  1
  O  O21  1  0.815748  0.605522  0.857536  1
  O  O22  1  0.665410  0.130614  0.072864  1
  O  O23  1  0.668493  0.639497  0.582418  1
  O  O24  1  0.672402  0.333080  0.891029  1
  O  O25  1  0.663116  0.824685  0.381694  1
  O  O26  1  0.526500  0.411431  0.161221  1
  O  O27  1  0.573117  0.306940  0.565271  1
  O  O28  1  0.576912  0.808842  0.055016  1
  O  O29  1  0.525053  0.914325  0.665031  1
  O  O30  1  0.473500  0.088569  0.338779  1
  O  O31  1  0.426883  0.193060  0.934729  1
  O  O32  1  0.423088  0.691158  0.444984  1
  O  O33  1  0.474947  0.585675  0.834969  1
  O  O34  1  0.327598  0.166920  0.608971  1
  O  O35  1  0.334590  0.369386  0.427136  1
  O  O36  1  0.336884  0.675315  0.118306  1
  O  O37  1  0.331507  0.860503  0.917582  1
  O  O38  1  0.180983  0.391326  0.146494  1
  O  O39  1  0.184252  0.894478  0.642464  1
  O  O40  1  0.139841  0.101777  0.849511  1
  O  O41  1  0.147411  0.601693  0.352538  1
  O  O42  1  0.051220  0.026313  0.268705  1
  O  O43  1  0.051979  0.527774  0.784136  1
