# generated using pymatgen
data_Li32Mn13Cr3O48
_symmetry_space_group_name_H-M   'P 1'
_cell_length_a   5.00142859
_cell_length_b   8.67823186
_cell_length_c   19.47028169
_cell_angle_alpha   98.34593683
_cell_angle_beta   94.77266579
_cell_angle_gamma   89.90202813
_symmetry_Int_Tables_number   1
_chemical_formula_structural   Li32Mn13Cr3O48
_chemical_formula_sum   'Li32 Mn13 Cr3 O48'
_cell_volume   833.18466247
_cell_formula_units_Z   1
loop_
 _symmetry_equiv_pos_site_id
 _symmetry_equiv_pos_as_xyz
  1  'x, y, z'
loop_
 _atom_site_type_symbol
 _atom_site_label
 _atom_site_symmetry_multiplicity
 _atom_site_fract_x
 _atom_site_fract_y
 _atom_site_fract_z
 _atom_site_occupancy
  Li  Li0  1  0.991581  0.168305  0.249414  1
  Li  Li1  1  0.875336  0.374435  0.375134  1
  Li  Li2  1  0.749412  0.249793  0.000078  1
  Li  Li3  1  0.743663  0.919988  0.000523  1
  Li  Li4  1  0.994499  0.167615  0.749703  1
  Li  Li5  1  0.755867  0.579672  0.499922  1
  Li  Li6  1  0.875570  0.375611  0.875186  1
  Li  Li7  1  0.749856  0.251462  0.499850  1
  Li  Li8  1  0.744153  0.919210  0.500535  1
  Li  Li9  1  0.624770  0.125113  0.125005  1
  Li  Li10  1  0.755304  0.580419  0.999720  1
  Li  Li11  1  0.507159  0.331638  0.250423  1
  Li  Li12  1  0.622178  0.124687  0.625195  1
  Li  Li13  1  0.500369  0.000477  0.249946  1
  Li  Li14  1  0.494011  0.668242  0.249872  1
  Li  Li15  1  0.505698  0.332188  0.750313  1
  Li  Li16  1  0.376807  0.874231  0.374846  1
  Li  Li17  1  0.498331  0.000161  0.749847  1
  Li  Li18  1  0.249469  0.749735  0.000017  1
  Li  Li19  1  0.494218  0.667906  0.749911  1
  Li  Li20  1  0.244596  0.419148  0.000168  1
  Li  Li21  1  0.377020  0.874584  0.874872  1
  Li  Li22  1  0.257243  0.081520  0.499284  1
  Li  Li23  1  0.249505  0.749809  0.499986  1
  Li  Li24  1  0.124807  0.625030  0.124987  1
  Li  Li25  1  0.243298  0.418406  0.500032  1
  Li  Li26  1  0.006055  0.831502  0.249947  1
  Li  Li27  1  0.257006  0.081023  0.999854  1
  Li  Li28  1  0.124437  0.624412  0.624808  1
  Li  Li29  1  0.000101  0.499969  0.249912  1
  Li  Li30  1  0.006274  0.831863  0.750309  1
  Li  Li31  1  0.001118  0.500576  0.750307  1
  Mn  Mn32  1  0.873242  0.706963  0.374503  1
  Mn  Mn33  1  0.873266  0.707677  0.874375  1
  Mn  Mn34  1  0.625540  0.791345  0.125010  1
  Mn  Mn35  1  0.624723  0.458485  0.125002  1
  Mn  Mn36  1  0.626239  0.791464  0.625008  1
  Mn  Mn37  1  0.623394  0.459621  0.624390  1
  Mn  Mn38  1  0.374937  0.541733  0.375076  1
  Mn  Mn39  1  0.375644  0.210135  0.375567  1
  Mn  Mn40  1  0.374764  0.541585  0.874995  1
  Mn  Mn41  1  0.375807  0.209681  0.875577  1
  Mn  Mn42  1  0.124631  0.958434  0.124950  1
  Mn  Mn43  1  0.125632  0.291531  0.124945  1
  Mn  Mn44  1  0.126509  0.957468  0.625648  1
  Cr  Cr45  1  0.880049  0.039761  0.375001  1
  Cr  Cr46  1  0.880675  0.041631  0.874839  1
  Cr  Cr47  1  0.120321  0.289918  0.625051  1
  O  O48  1  0.963732  0.106402  0.068952  1
  O  O49  1  0.928116  0.785043  0.069020  1
  O  O50  1  0.927524  0.427385  0.068114  1
  O  O51  1  0.967823  0.106881  0.569019  1
  O  O52  1  0.822066  0.965035  0.181139  1
  O  O53  1  0.822619  0.322615  0.182022  1
  O  O54  1  0.928135  0.785032  0.568947  1
  O  O55  1  0.923074  0.429498  0.567349  1
  O  O56  1  0.786612  0.643405  0.181006  1
  O  O57  1  0.711960  0.853374  0.318564  1
  O  O58  1  0.822221  0.965350  0.680947  1
  O  O59  1  0.825475  0.324244  0.681833  1
  O  O60  1  0.677987  0.534453  0.319018  1
  O  O61  1  0.675567  0.177086  0.317900  1
  O  O62  1  0.786706  0.643712  0.680812  1
  O  O63  1  0.712297  0.853496  0.818272  1
  O  O64  1  0.463698  0.606516  0.069033  1
  O  O65  1  0.571398  0.715168  0.431071  1
  O  O66  1  0.572624  0.073862  0.432111  1
  O  O67  1  0.678043  0.534087  0.818884  1
  O  O68  1  0.676826  0.175834  0.817967  1
  O  O69  1  0.427584  0.927250  0.068066  1
  O  O70  1  0.428390  0.285218  0.069154  1
  O  O71  1  0.537000  0.394263  0.430954  1
  O  O72  1  0.462360  0.607290  0.568885  1
  O  O73  1  0.571133  0.714923  0.930980  1
  O  O74  1  0.569293  0.073442  0.932361  1
  O  O75  1  0.322421  0.822734  0.182029  1
  O  O76  1  0.321945  0.464991  0.181120  1
  O  O77  1  0.428350  0.927583  0.567935  1
  O  O78  1  0.428705  0.285912  0.569135  1
  O  O79  1  0.537626  0.394251  0.931093  1
  O  O80  1  0.286247  0.143422  0.181012  1
  O  O81  1  0.212949  0.357078  0.319060  1
  O  O82  1  0.322500  0.821667  0.681795  1
  O  O83  1  0.323299  0.464021  0.681062  1
  O  O84  1  0.177389  0.677716  0.318110  1
  O  O85  1  0.175254  0.036897  0.319059  1
  O  O86  1  0.288612  0.140090  0.681627  1
  O  O87  1  0.212869  0.356827  0.818901  1
  O  O88  1  0.072647  0.572418  0.431918  1
  O  O89  1  0.075579  0.217283  0.431661  1
  O  O90  1  0.177444  0.677491  0.817998  1
  O  O91  1  0.178794  0.036379  0.818878  1
  O  O92  1  0.033216  0.893387  0.431125  1
  O  O93  1  0.072589  0.572497  0.931932  1
  O  O94  1  0.075089  0.216516  0.931399  1
  O  O95  1  0.031129  0.893818  0.930937  1
