# generated using pymatgen
data_Li3Cu3(PO4)2
_symmetry_space_group_name_H-M   'P 1'
_cell_length_a   6.24287311
_cell_length_b   5.40563709
_cell_length_c   5.11569389
_cell_angle_alpha   90.32362800
_cell_angle_beta   89.92403413
_cell_angle_gamma   89.84958764
_symmetry_Int_Tables_number   1
_chemical_formula_structural   Li3Cu3(PO4)2
_chemical_formula_sum   'Li3 Cu3 P2 O8'
_cell_volume   172.63431592
_cell_formula_units_Z   1
loop_
 _symmetry_equiv_pos_site_id
 _symmetry_equiv_pos_as_xyz
  1  'x, y, z'
loop_
 _atom_site_type_symbol
 _atom_site_label
 _atom_site_symmetry_multiplicity
 _atom_site_fract_x
 _atom_site_fract_y
 _atom_site_fract_z
 _atom_site_occupancy
  Li  Li0  1  0.999927  0.154641  0.493700  1
  Li  Li1  1  0.248255  0.326883  0.996014  1
  Li  Li2  1  0.745967  0.674105  0.493156  1
  Cu  Cu3  1  0.260630  0.663998  0.492880  1
  Cu  Cu4  1  0.499765  0.817352  0.993906  1
  Cu  Cu5  1  0.749157  0.332044  0.005457  1
  P  P6  1  0.999540  0.830857  0.998734  1
  P  P7  1  0.499502  0.180510  0.498092  1
  O  O8  1  0.012139  0.098846  0.889260  1
  O  O9  1  0.988506  0.830882  0.301737  1
  O  O10  1  0.200447  0.679223  0.905858  1
  O  O11  1  0.291378  0.298999  0.382177  1
  O  O12  1  0.487789  0.189572  0.800929  1
  O  O13  1  0.512212  0.904710  0.404473  1
  O  O14  1  0.706397  0.318142  0.407362  1
  O  O15  1  0.798388  0.699236  0.878857  1
