# generated using pymatgen
data_Sr11LaFe6(MoO6)6
_symmetry_space_group_name_H-M   'P 1'
_cell_length_a   5.63675606
_cell_length_b   33.88033669
_cell_length_c   9.79045810
_cell_angle_alpha   30.29917660
_cell_angle_beta   106.42657555
_cell_angle_gamma   89.66290482
_symmetry_Int_Tables_number   1
_chemical_formula_structural   Sr11LaFe6(MoO6)6
_chemical_formula_sum   'Sr11 La1 Fe6 Mo6 O36'
_cell_volume   774.66580499
_cell_formula_units_Z   1
loop_
 _symmetry_equiv_pos_site_id
 _symmetry_equiv_pos_as_xyz
  1  'x, y, z'
loop_
 _atom_site_type_symbol
 _atom_site_label
 _atom_site_symmetry_multiplicity
 _atom_site_fract_x
 _atom_site_fract_y
 _atom_site_fract_z
 _atom_site_occupancy
  Sr  Sr0  1  0.249809  0.122008  0.499779  1
  Sr  Sr1  1  0.254129  0.289654  0.509969  1
  Sr  Sr2  1  0.249724  0.458661  0.500182  1
  Sr  Sr3  1  0.253552  0.624452  0.500585  1
  Sr  Sr4  1  0.237115  0.796149  0.479857  1
  Sr  Sr5  1  0.259041  0.958820  0.512145  1
  Sr  Sr6  1  0.752072  0.038919  0.509338  1
  Sr  Sr7  1  0.749245  0.209970  0.499453  1
  Sr  Sr8  1  0.755397  0.372742  0.504583  1
  Sr  Sr9  1  0.748670  0.541531  0.500807  1
  Sr  Sr10  1  0.748188  0.873318  0.496045  1
  La  La11  1  0.740868  0.719490  0.473537  1
  Fe  Fe12  1  0.997036  0.500372  0.999577  1
  Fe  Fe13  1  0.496408  0.917987  0.993552  1
  Fe  Fe14  1  0.006178  0.164069  0.008743  1
  Fe  Fe15  1  0.997578  0.334063  0.996626  1
  Fe  Fe16  1  0.000618  0.668010  0.994656  1
  Fe  Fe17  1  0.998243  0.834698  0.998558  1
  Mo  Mo18  1  0.000910  0.999202  0.001487  1
  Mo  Mo19  1  0.500480  0.084250  0.998948  1
  Mo  Mo20  1  0.498563  0.251588  0.994013  1
  Mo  Mo21  1  0.498975  0.416269  0.001771  1
  Mo  Mo22  1  0.503518  0.748349  0.007694  1
  Mo  Mo23  1  0.501089  0.582864  -0.000182  1
  O  O24  1  0.244956  0.042330  0.497025  1
  O  O25  1  0.256008  0.204971  0.513516  1
  O  O26  1  0.250707  0.376930  0.494465  1
  O  O27  1  0.243653  0.541710  0.497147  1
  O  O28  1  0.252623  0.707136  0.501529  1
  O  O29  1  0.259805  0.871943  0.513683  1
  O  O30  1  0.215679  0.120254  0.995938  1
  O  O31  1  0.227153  0.286230  0.000086  1
  O  O32  1  0.224648  0.452860  0.997583  1
  O  O33  1  0.198887  0.620826  0.986555  1
  O  O34  1  0.227901  0.783824  0.005251  1
  O  O35  1  0.219241  0.952077  0.003239  1
  O  O36  1  0.285218  0.036552  0.997648  1
  O  O37  1  0.279981  0.204670  0.995738  1
  O  O38  1  0.277901  0.368903  0.004210  1
  O  O39  1  0.297229  0.536660  0.001249  1
  O  O40  1  0.282308  0.701964  0.003110  1
  O  O41  1  0.296235  0.863118  0.016887  1
  O  O42  1  0.745106  0.127671  0.488615  1
  O  O43  1  0.747069  0.292198  0.499369  1
  O  O44  1  0.750316  0.458099  0.501566  1
  O  O45  1  0.758096  0.624738  0.504921  1
  O  O46  1  0.746666  0.787073  0.506646  1
  O  O47  1  0.743139  0.961945  0.483290  1
  O  O48  1  0.712511  0.131068  0.998492  1
  O  O49  1  0.718762  0.297837  0.001280  1
  O  O50  1  0.718965  0.464326  0.997102  1
  O  O51  1  0.704081  0.629453  0.997633  1
  O  O52  1  0.721848  0.793821  0.017443  1
  O  O53  1  0.719569  0.962384  0.006388  1
  O  O54  1  0.784431  0.048250  0.997713  1
  O  O55  1  0.768200  0.217266  0.990579  1
  O  O56  1  0.776360  0.380679  0.003901  1
  O  O57  1  0.788849  0.552174  0.986086  1
  O  O58  1  0.776538  0.712919  0.006411  1
  O  O59  1  0.781955  0.877705  0.005982  1
