# generated using pymatgen
data_Fe3Co2Sn(PO4)6
_symmetry_space_group_name_H-M   'P 1'
_cell_length_a   8.51424476
_cell_length_b   8.68829235
_cell_length_c   8.68829187
_cell_angle_alpha   59.99999545
_cell_angle_beta   59.32145238
_cell_angle_gamma   59.32144912
_symmetry_Int_Tables_number   1
_chemical_formula_structural   Fe3Co2Sn(PO4)6
_chemical_formula_sum   'Fe3 Co2 Sn1 P6 O24'
_cell_volume   449.74745791
_cell_formula_units_Z   1
loop_
 _symmetry_equiv_pos_site_id
 _symmetry_equiv_pos_as_xyz
  1  'x, y, z'
loop_
 _atom_site_type_symbol
 _atom_site_label
 _atom_site_symmetry_multiplicity
 _atom_site_fract_x
 _atom_site_fract_y
 _atom_site_fract_z
 _atom_site_occupancy
  Fe  Fe0  1  0.062235  0.645922  0.645922  1
  Fe  Fe1  1  0.438643  0.853786  0.853786  1
  Fe  Fe2  1  0.933019  0.355660  0.355660  1
  Co  Co3  1  0.016997  0.994334  0.994334  1
  Co  Co4  1  0.497433  0.500855  0.500855  1
  Sn  Sn5  1  0.569586  0.143471  0.143471  1
  P  P6  1  0.246229  0.253039  0.549710  1
  P  P7  1  0.246229  0.951022  0.253039  1
  P  P8  1  0.246229  0.549710  0.951022  1
  P  P9  1  0.748949  0.457643  0.047475  1
  P  P10  1  0.748949  0.047475  0.745934  1
  P  P11  1  0.748949  0.745934  0.457643  1
  O  O12  1  0.068773  0.109967  0.319417  1
  O  O13  1  0.068773  0.501845  0.109967  1
  O  O14  1  0.068773  0.319417  0.501845  1
  O  O15  1  0.221301  0.093524  0.747291  1
  O  O16  1  0.435801  0.181583  0.396729  1
  O  O17  1  0.275510  0.408203  0.564332  1
  O  O18  1  0.221301  0.937883  0.093524  1
  O  O19  1  0.275510  0.751954  0.408203  1
  O  O20  1  0.565238  0.609449  0.005100  1
  O  O21  1  0.275510  0.564332  0.751954  1
  O  O22  1  0.780506  0.254974  0.059700  1
  O  O23  1  0.565238  0.005100  0.820212  1
  O  O24  1  0.435801  0.985887  0.181583  1
  O  O25  1  0.221301  0.747291  0.937883  1
  O  O26  1  0.719660  0.440981  0.247575  1
  O  O27  1  0.435801  0.396729  0.985887  1
  O  O28  1  0.719660  0.247575  0.591784  1
  O  O29  1  0.780506  0.059700  0.904820  1
  O  O30  1  0.719660  0.591784  0.440981  1
  O  O31  1  0.565238  0.820212  0.609449  1
  O  O32  1  0.780506  0.904820  0.254974  1
  O  O33  1  0.932060  0.677661  0.497597  1
  O  O34  1  0.932060  0.497597  0.892681  1
  O  O35  1  0.932060  0.892681  0.677661  1
