# generated using pymatgen
data_Li4Ti2Si4O13
_symmetry_space_group_name_H-M   'P 1'
_cell_length_a   13.81293832
_cell_length_b   5.07568332
_cell_length_c   14.20419889
_cell_angle_alpha   90.00000000
_cell_angle_beta   90.00000000
_cell_angle_gamma   90.00000000
_symmetry_Int_Tables_number   1
_chemical_formula_structural   Li4Ti2Si4O13
_chemical_formula_sum   'Li16 Ti8 Si16 O52'
_cell_volume   995.85781356
_cell_formula_units_Z   4
loop_
 _symmetry_equiv_pos_site_id
 _symmetry_equiv_pos_as_xyz
  1  'x, y, z'
loop_
 _atom_site_type_symbol
 _atom_site_label
 _atom_site_symmetry_multiplicity
 _atom_site_fract_x
 _atom_site_fract_y
 _atom_site_fract_z
 _atom_site_occupancy
  Li  Li0  1  0.040377  0.178592  0.222200  1
  Li  Li1  1  0.108303  0.668137  0.921780  1
  Li  Li2  1  0.134016  0.655348  0.108748  1
  Li  Li3  1  0.211725  0.250028  0.837205  1
  Li  Li4  1  0.288275  0.750028  0.337205  1
  Li  Li5  1  0.365984  0.155348  0.608748  1
  Li  Li6  1  0.391697  0.168137  0.421780  1
  Li  Li7  1  0.459623  0.678592  0.722200  1
  Li  Li8  1  0.540377  0.321408  0.222200  1
  Li  Li9  1  0.608303  0.831863  0.921780  1
  Li  Li10  1  0.634016  0.844652  0.108748  1
  Li  Li11  1  0.711725  0.249972  0.837205  1
  Li  Li12  1  0.788275  0.749972  0.337205  1
  Li  Li13  1  0.865984  0.344652  0.608748  1
  Li  Li14  1  0.891697  0.331863  0.421780  1
  Li  Li15  1  0.959623  0.821408  0.722200  1
  Ti  Ti16  1  0.082474  0.350493  0.624184  1
  Ti  Ti17  1  0.168986  0.186564  0.424239  1
  Ti  Ti18  1  0.331014  0.686564  0.924239  1
  Ti  Ti19  1  0.417526  0.850493  0.124184  1
  Ti  Ti20  1  0.582474  0.149507  0.624184  1
  Ti  Ti21  1  0.668986  0.313436  0.424239  1
  Ti  Ti22  1  0.831014  0.813436  0.924239  1
  Ti  Ti23  1  0.917526  0.649507  0.124184  1
  Si  Si24  1  0.021764  0.161557  0.999449  1
  Si  Si25  1  0.061536  0.689610  0.316499  1
  Si  Si26  1  0.189476  0.845566  0.729275  1
  Si  Si27  1  0.225056  0.181539  0.047842  1
  Si  Si28  1  0.274944  0.681539  0.547842  1
  Si  Si29  1  0.310524  0.345566  0.229275  1
  Si  Si30  1  0.438464  0.189610  0.816499  1
  Si  Si31  1  0.478236  0.661557  0.499449  1
  Si  Si32  1  0.521764  0.338443  0.999449  1
  Si  Si33  1  0.561536  0.810390  0.316499  1
  Si  Si34  1  0.689476  0.654434  0.729275  1
  Si  Si35  1  0.725056  0.318461  0.047842  1
  Si  Si36  1  0.774944  0.818461  0.547842  1
  Si  Si37  1  0.810524  0.154434  0.229275  1
  Si  Si38  1  0.938464  0.310390  0.816499  1
  Si  Si39  1  0.978236  0.838443  0.499449  1
  O  O40  1  0.023766  0.439950  0.054173  1
  O  O41  1  0.035650  0.768854  0.207501  1
  O  O42  1  0.033215  0.216118  0.884722  1
  O  O43  1  0.064668  0.047667  0.521003  1
  O  O44  1  0.074301  0.375033  0.337590  1
  O  O45  1  0.093518  0.674235  0.705935  1
  O  O46  1  0.124897  -0.000070  0.026169  1
  O  O47  1  0.155893  0.860656  0.346851  1
  O  O48  1  0.176938  0.158831  0.703600  1
  O  O49  1  0.184771  0.485329  0.525910  1
  O  O50  1  0.216422  0.246262  0.161871  1
  O  O51  1  0.215514  0.822966  0.841529  1
  O  O52  1  0.217710  0.455246  0.988587  1
  O  O53  1  0.282290  0.955246  0.488587  1
  O  O54  1  0.284486  0.322966  0.341529  1
  O  O55  1  0.283578  0.746262  0.661871  1
  O  O56  1  0.315229  0.985329  0.025910  1
  O  O57  1  0.323062  0.658831  0.203600  1
  O  O58  1  0.344107  0.360656  0.846851  1
  O  O59  1  0.375103  0.499930  0.526169  1
  O  O60  1  0.406483  0.174235  0.205935  1
  O  O61  1  0.425699  0.875033  0.837590  1
  O  O62  1  0.435332  0.547667  0.021003  1
  O  O63  1  0.466785  0.716118  0.384722  1
  O  O64  1  0.464350  0.268854  0.707501  1
  O  O65  1  0.476234  0.939950  0.554173  1
  O  O66  1  0.523766  0.060050  0.054173  1
  O  O67  1  0.535650  0.731146  0.207501  1
  O  O68  1  0.533215  0.283882  0.884722  1
  O  O69  1  0.564668  0.452333  0.521003  1
  O  O70  1  0.574301  0.124967  0.337590  1
  O  O71  1  0.593518  0.825765  0.705935  1
  O  O72  1  0.624897  0.500070  0.026169  1
  O  O73  1  0.655893  0.639344  0.346851  1
  O  O74  1  0.676938  0.341169  0.703600  1
  O  O75  1  0.684771  0.014671  0.525910  1
  O  O76  1  0.716422  0.253738  0.161871  1
  O  O77  1  0.715514  0.677034  0.841529  1
  O  O78  1  0.717710  0.044754  0.988587  1
  O  O79  1  0.782290  0.544754  0.488587  1
  O  O80  1  0.784486  0.177034  0.341529  1
  O  O81  1  0.783578  0.753738  0.661871  1
  O  O82  1  0.815229  0.514671  0.025910  1
  O  O83  1  0.823062  0.841169  0.203600  1
  O  O84  1  0.844107  0.139344  0.846851  1
  O  O85  1  0.875103  0.000070  0.526169  1
  O  O86  1  0.906482  0.325765  0.205935  1
  O  O87  1  0.925699  0.624967  0.837590  1
  O  O88  1  0.935332  0.952333  0.021003  1
  O  O89  1  0.966785  0.783882  0.384722  1
  O  O90  1  0.964350  0.231146  0.707501  1
  O  O91  1  0.976234  0.560050  0.554173  1
