# generated using pymatgen
data_LiCrSiO4
_symmetry_space_group_name_H-M   'P 1'
_cell_length_a   5.87649508
_cell_length_b   5.54738936
_cell_length_c   5.66691463
_cell_angle_alpha   60.69529158
_cell_angle_beta   58.76888170
_cell_angle_gamma   90.00000000
_symmetry_Int_Tables_number   1
_chemical_formula_structural   LiCrSiO4
_chemical_formula_sum   'Li2 Cr2 Si2 O8'
_cell_volume   129.52696225
_cell_formula_units_Z   2
loop_
 _symmetry_equiv_pos_site_id
 _symmetry_equiv_pos_as_xyz
  1  'x, y, z'
loop_
 _atom_site_type_symbol
 _atom_site_label
 _atom_site_symmetry_multiplicity
 _atom_site_fract_x
 _atom_site_fract_y
 _atom_site_fract_z
 _atom_site_occupancy
  Li  Li0  1  0.000000  0.000000  0.500000  1
  Li  Li1  1  0.000000  0.500000  0.500000  1
  Cr  Cr2  1  0.000000  0.000000  0.000000  1
  Cr  Cr3  1  0.500000  0.000000  0.000000  1
  Si  Si4  1  0.614801  0.364801  0.270397  1
  Si  Si5  1  0.385199  0.635199  0.729603  1
  O  O6  1  0.256891  0.261665  0.986219  1
  O  O7  1  0.743109  0.247884  0.013781  1
  O  O8  1  0.735674  0.251752  0.496497  1
  O  O9  1  0.267830  0.251752  0.496497  1
  O  O10  1  0.256891  0.752116  0.986219  1
  O  O11  1  0.743109  0.738335  0.013781  1
  O  O12  1  0.264326  0.748248  0.503503  1
  O  O13  1  0.732170  0.748248  0.503503  1
