# generated using pymatgen
data_Mn6O5F7
_symmetry_space_group_name_H-M   'P 1'
_cell_length_a   7.38399600
_cell_length_b   5.67969918
_cell_length_c   5.67999544
_cell_angle_alpha   72.76355576
_cell_angle_beta   73.15539142
_cell_angle_gamma   73.34516103
_symmetry_Int_Tables_number   1
_chemical_formula_structural   Mn6O5F7
_chemical_formula_sum   'Mn6 O5 F7'
_cell_volume   212.43740536
_cell_formula_units_Z   1
loop_
 _symmetry_equiv_pos_site_id
 _symmetry_equiv_pos_as_xyz
  1  'x, y, z'
loop_
 _atom_site_type_symbol
 _atom_site_label
 _atom_site_symmetry_multiplicity
 _atom_site_fract_x
 _atom_site_fract_y
 _atom_site_fract_z
 _atom_site_occupancy
  Mn  Mn0  1  0.838611  0.668118  0.708818  1
  Mn  Mn1  1  0.670293  0.355670  0.322444  1
  Mn  Mn2  1  0.316654  0.669570  0.624337  1
  Mn  Mn3  1  0.171329  0.312298  0.332610  1
  Mn  Mn4  1  0.495321  0.986213  0.004997  1
  Mn  Mn5  1  0.996736  0.992523  0.018246  1
  O  O6  1  0.957837  0.227554  0.231004  1
  O  O7  1  0.026404  0.770826  0.793944  1
  O  O8  1  0.382325  0.435659  0.413872  1
  O  O9  1  0.332680  0.961453  0.338228  1
  O  O10  1  0.666065  0.654810  0.035634  1
  F  F11  1  0.656524  0.055023  0.642744  1
  F  F12  1  0.341262  0.354510  0.937278  1
  F  F13  1  0.297724  0.887847  0.872233  1
  F  F14  1  0.643066  0.582416  0.581692  1
  F  F15  1  0.702552  0.105300  0.097949  1
  F  F16  1  0.003652  0.294472  0.708573  1
  F  F17  1  0.000967  0.685740  0.335397  1
