# generated using pymatgen
data_LiMnP2O7
_symmetry_space_group_name_H-M   'P 1'
_cell_length_a   7.12461749
_cell_length_b   8.18946268
_cell_length_c   9.67559764
_cell_angle_alpha   90.00302422
_cell_angle_beta   111.22860516
_cell_angle_gamma   89.99367795
_symmetry_Int_Tables_number   1
_chemical_formula_structural   LiMnP2O7
_chemical_formula_sum   'Li4 Mn4 P8 O28'
_cell_volume   526.23213684
_cell_formula_units_Z   4
loop_
 _symmetry_equiv_pos_site_id
 _symmetry_equiv_pos_as_xyz
  1  'x, y, z'
loop_
 _atom_site_type_symbol
 _atom_site_label
 _atom_site_symmetry_multiplicity
 _atom_site_fract_x
 _atom_site_fract_y
 _atom_site_fract_z
 _atom_site_occupancy
  Li  Li0  1  0.914497  0.378191  0.132562  1
  Li  Li1  1  0.898234  0.577766  0.492747  1
  Li  Li2  1  0.414460  0.121873  0.632497  1
  Li  Li3  1  0.398254  0.922287  0.992771  1
  Mn  Mn4  1  0.495830  0.501520  0.999248  1
  Mn  Mn5  1  0.486925  0.502070  0.499228  1
  Mn  Mn6  1  0.986705  0.997899  0.999206  1
  Mn  Mn7  1  0.995840  0.998466  0.499262  1
  P  P8  1  0.859998  0.742641  0.204984  1
  P  P9  1  0.646097  0.249844  0.300146  1
  P  P10  1  0.758996  0.827038  0.682987  1
  P  P11  1  0.742119  0.320615  0.814828  1
  P  P12  1  0.258978  0.673051  0.182974  1
  P  P13  1  0.242041  0.179317  0.314812  1
  P  P14  1  0.360059  0.757378  0.705006  1
  P  P15  1  0.146174  0.250101  0.800174  1
  O  O16  1  0.825089  0.894244  0.107234  1
  O  O17  1  0.923820  0.772612  0.370965  1
  O  O18  1  0.825361  0.133082  0.347343  1
  O  O19  1  0.679083  0.627452  0.159335  1
  O  O20  1  0.959678  0.358566  0.805678  1
  O  O21  1  0.612465  0.295560  0.141258  1
  O  O22  1  0.786539  0.964794  0.585750  1
  O  O23  1  0.902067  0.831122  0.846056  1
  O  O24  1  0.675828  0.396497  0.407032  1
  O  O25  1  0.753439  0.655236  0.620203  1
  O  O26  1  0.740000  0.146617  0.868204  1
  O  O27  1  0.459645  0.141416  0.305684  1
  O  O28  1  0.580846  0.332314  0.656628  1
  O  O29  1  0.726463  0.450529  0.924602  1
  O  O30  1  0.286567  0.535247  0.085730  1
  O  O31  1  0.402082  0.668909  0.346047  1
  O  O32  1  0.532454  0.870483  0.678901  1
  O  O33  1  0.253379  0.844786  0.120214  1
  O  O34  1  0.239896  0.353395  0.368185  1
  O  O35  1  0.325315  0.605704  0.607213  1
  O  O36  1  0.080777  0.167644  0.156635  1
  O  O37  1  0.226444  0.049441  0.424570  1
  O  O38  1  0.423873  0.727411  0.870942  1
  O  O39  1  0.032468  0.629574  0.178913  1
  O  O40  1  0.325364  0.366976  0.847278  1
  O  O41  1  0.179030  0.872424  0.659283  1
  O  O42  1  0.112533  0.204399  0.641241  1
  O  O43  1  0.175913  0.103524  0.907023  1
