# generated using pymatgen
data_CdFeSn(PO4)3
_symmetry_space_group_name_H-M   'P 1'
_cell_length_a   8.90330771
_cell_length_b   8.90330772
_cell_length_c   8.90330739
_cell_angle_alpha   58.72860504
_cell_angle_beta   58.72860502
_cell_angle_gamma   58.72860759
_symmetry_Int_Tables_number   1
_chemical_formula_structural   CdFeSn(PO4)3
_chemical_formula_sum   'Cd2 Fe2 Sn2 P6 O24'
_cell_volume   484.54880202
_cell_formula_units_Z   2
loop_
 _symmetry_equiv_pos_site_id
 _symmetry_equiv_pos_as_xyz
  1  'x, y, z'
loop_
 _atom_site_type_symbol
 _atom_site_label
 _atom_site_symmetry_multiplicity
 _atom_site_fract_x
 _atom_site_fract_y
 _atom_site_fract_z
 _atom_site_occupancy
  Cd  Cd0  1  0.997046  0.997046  0.997046  1
  Cd  Cd1  1  0.497046  0.497046  0.497046  1
  Fe  Fe2  1  0.352526  0.352526  0.352526  1
  Fe  Fe3  1  0.852526  0.852526  0.852526  1
  Sn  Sn4  1  0.146410  0.146410  0.146410  1
  Sn  Sn5  1  0.646410  0.646410  0.646410  1
  P  P6  1  0.045016  0.748779  0.459993  1
  P  P7  1  0.459993  0.045016  0.748779  1
  P  P8  1  0.748779  0.459993  0.045016  1
  P  P9  1  0.248779  0.545016  0.959993  1
  P  P10  1  0.545016  0.959993  0.248779  1
  P  P11  1  0.959993  0.248779  0.545016  1
  O  O12  1  0.118509  0.300822  0.505522  1
  O  O13  1  0.300822  0.505522  0.118509  1
  O  O14  1  0.060800  0.917329  0.269046  1
  O  O15  1  0.505522  0.118509  0.300822  1
  O  O16  1  0.005522  0.800822  0.618509  1
  O  O17  1  0.231569  0.582964  0.438770  1
  O  O18  1  0.269046  0.060800  0.917329  1
  O  O19  1  0.438770  0.231569  0.582964  1
  O  O20  1  0.203500  0.386354  0.985043  1
  O  O21  1  0.582964  0.438770  0.231569  1
  O  O22  1  0.082964  0.731569  0.938770  1
  O  O23  1  0.386354  0.985043  0.203500  1
  O  O24  1  0.618509  0.005522  0.800822  1
  O  O25  1  0.917329  0.269046  0.060800  1
  O  O26  1  0.417329  0.560800  0.769046  1
  O  O27  1  0.800822  0.618509  0.005522  1
  O  O28  1  0.560800  0.769046  0.417329  1
  O  O29  1  0.731569  0.938770  0.082964  1
  O  O30  1  0.769046  0.417329  0.560800  1
  O  O31  1  0.985043  0.203500  0.386354  1
  O  O32  1  0.485043  0.886354  0.703500  1
  O  O33  1  0.938770  0.082964  0.731569  1
  O  O34  1  0.703500  0.485043  0.886354  1
  O  O35  1  0.886354  0.703500  0.485043  1
