# generated using pymatgen
data_NaVPO5
_symmetry_space_group_name_H-M   'P 1'
_cell_length_a   6.35533401
_cell_length_b   6.35528147
_cell_length_c   10.53669239
_cell_angle_alpha   90.00000000
_cell_angle_beta   90.00000000
_cell_angle_gamma   90.00000000
_symmetry_Int_Tables_number   1
_chemical_formula_structural   NaVPO5
_chemical_formula_sum   'Na4 V4 P4 O20'
_cell_volume   425.57633623
_cell_formula_units_Z   4
loop_
 _symmetry_equiv_pos_site_id
 _symmetry_equiv_pos_as_xyz
  1  'x, y, z'
loop_
 _atom_site_type_symbol
 _atom_site_label
 _atom_site_symmetry_multiplicity
 _atom_site_fract_x
 _atom_site_fract_y
 _atom_site_fract_z
 _atom_site_occupancy
  Na  Na0  1  0.491982  0.491685  0.996340  1
  Na  Na1  1  0.491982  0.008315  0.496340  1
  Na  Na2  1  0.991982  0.991685  0.003660  1
  Na  Na3  1  0.991982  0.508315  0.503660  1
  V  V4  1  0.247408  0.251044  0.221664  1
  V  V5  1  0.247408  0.248956  0.721664  1
  V  V6  1  0.747408  0.751044  0.778336  1
  V  V7  1  0.747408  0.748956  0.278336  1
  P  P8  1  0.248192  0.750203  0.750023  1
  P  P9  1  0.248192  0.749797  0.250023  1
  P  P10  1  0.748192  0.249797  0.749977  1
  P  P11  1  0.748192  0.250203  0.249977  1
  O  O12  1  0.050425  0.755337  0.836579  1
  O  O13  1  0.050425  0.744663  0.336579  1
  O  O14  1  0.246239  0.247044  0.877842  1
  O  O15  1  0.246239  0.252956  0.377842  1
  O  O16  1  0.252869  0.553370  0.162353  1
  O  O17  1  0.243732  0.551925  0.663868  1
  O  O18  1  0.243732  0.948075  0.163868  1
  O  O19  1  0.252869  0.946630  0.662353  1
  O  O20  1  0.445152  0.753841  0.337278  1
  O  O21  1  0.445152  0.746159  0.837278  1
  O  O22  1  0.550425  0.255337  0.163421  1
  O  O23  1  0.550425  0.244663  0.663421  1
  O  O24  1  0.743732  0.051925  0.336132  1
  O  O25  1  0.752869  0.446630  0.337647  1
  O  O26  1  0.746239  0.747044  0.122158  1
  O  O27  1  0.746239  0.752956  0.622158  1
  O  O28  1  0.752869  0.053370  0.837647  1
  O  O29  1  0.743732  0.448075  0.836132  1
  O  O30  1  0.945152  0.253841  0.662722  1
  O  O31  1  0.945152  0.246159  0.162722  1
