# generated using pymatgen
data_Li5Fe8(BO3)8
_symmetry_space_group_name_H-M   'P 1'
_cell_length_a   5.26450041
_cell_length_b   9.03936029
_cell_length_c   11.44185376
_cell_angle_alpha   67.02233282
_cell_angle_beta   77.50461916
_cell_angle_gamma   89.62036488
_symmetry_Int_Tables_number   1
_chemical_formula_structural   Li5Fe8(BO3)8
_chemical_formula_sum   'Li5 Fe8 B8 O24'
_cell_volume   487.57787174
_cell_formula_units_Z   1
loop_
 _symmetry_equiv_pos_site_id
 _symmetry_equiv_pos_as_xyz
  1  'x, y, z'
loop_
 _atom_site_type_symbol
 _atom_site_label
 _atom_site_symmetry_multiplicity
 _atom_site_fract_x
 _atom_site_fract_y
 _atom_site_fract_z
 _atom_site_occupancy
  Li  Li0  1  0.727885  0.733297  0.874920  1
  Li  Li1  1  0.513117  0.490075  0.665314  1
  Li  Li2  1  0.740191  0.761487  0.153151  1
  Li  Li3  1  0.474144  0.457611  0.408315  1
  Li  Li4  1  0.228172  0.250128  0.168460  1
  Fe  Fe5  1  0.986105  0.652117  0.379828  1
  Fe  Fe6  1  0.733389  0.068930  0.882320  1
  Fe  Fe7  1  0.504881  0.848346  0.631143  1
  Fe  Fe8  1  0.749733  0.436497  0.129258  1
  Fe  Fe9  1  0.226148  0.546840  0.887608  1
  Fe  Fe10  1  0.483225  0.142550  0.381372  1
  Fe  Fe11  1  0.033462  0.338539  0.635388  1
  Fe  Fe12  1  0.254055  0.943704  0.124550  1
  B  B13  1  0.985204  0.325435  0.370178  1
  B  B14  1  0.734873  0.398955  0.874354  1
  B  B15  1  0.536325  0.187221  0.628411  1
  B  B16  1  0.764910  0.106958  0.126708  1
  B  B17  1  0.477400  0.803751  0.383579  1
  B  B18  1  0.231834  0.895086  0.876955  1
  B  B19  1  0.004094  0.681695  0.632237  1
  B  B20  1  0.260647  0.603417  0.130104  1
  O  O21  1  0.965933  0.899045  0.886097  1
  O  O22  1  0.889293  0.282606  0.847924  1
  O  O23  1  0.835003  0.504141  0.919163  1
  O  O24  1  0.842374  0.787177  0.661778  1
  O  O25  1  0.915069  0.578606  0.580358  1
  O  O26  1  0.746337  0.160058  0.687767  1
  O  O27  1  0.740699  0.344536  0.341368  1
  O  O28  1  0.492511  0.410490  0.850085  1
  O  O29  1  0.372110  0.789794  0.829647  1
  O  O30  1  0.558791  0.901596  0.437310  1
  O  O31  1  0.629531  0.684986  0.362602  1
  O  O32  1  0.364610  0.987041  0.921257  1
  O  O33  1  0.660342  0.995871  0.085099  1
  O  O34  1  0.419686  0.331143  0.603934  1
  O  O35  1  0.449550  0.074136  0.588842  1
  O  O36  1  0.599150  0.207097  0.165816  1
  O  O37  1  0.525197  0.621258  0.118911  1
  O  O38  1  0.253322  0.664763  0.658003  1
  O  O39  1  0.244841  0.822725  0.342589  1
  O  O40  1  0.080928  0.432929  0.418508  1
  O  O41  1  0.138204  0.212269  0.353150  1
  O  O42  1  0.154747  0.491557  0.094670  1
  O  O43  1  0.094186  0.702699  0.176905  1
  O  O44  1  0.021297  0.110645  0.130023  1
