# generated using pymatgen
data_LiCrSi3O8
_symmetry_space_group_name_H-M   'P 1'
_cell_length_a   7.80690165
_cell_length_b   7.09561409
_cell_length_c   7.13716583
_cell_angle_alpha   79.61131360
_cell_angle_beta   107.87125951
_cell_angle_gamma   61.40919469
_symmetry_Int_Tables_number   1
_chemical_formula_structural   LiCrSi3O8
_chemical_formula_sum   'Li2 Cr2 Si6 O16'
_cell_volume   304.02585831
_cell_formula_units_Z   2
loop_
 _symmetry_equiv_pos_site_id
 _symmetry_equiv_pos_as_xyz
  1  'x, y, z'
loop_
 _atom_site_type_symbol
 _atom_site_label
 _atom_site_symmetry_multiplicity
 _atom_site_fract_x
 _atom_site_fract_y
 _atom_site_fract_z
 _atom_site_occupancy
  Li  Li0  1  0.809205  0.826298  0.803627  1
  Li  Li1  1  0.190795  0.173702  0.196373  1
  Cr  Cr2  1  0.211701  0.737966  0.132650  1
  Cr  Cr3  1  0.788299  0.262034  0.867350  1
  Si  Si4  1  0.212599  0.550505  0.735373  1
  Si  Si5  1  0.457284  0.730137  0.621561  1
  Si  Si6  1  0.177802  0.142315  0.744451  1
  Si  Si7  1  0.822198  0.857685  0.255549  1
  Si  Si8  1  0.542716  0.269863  0.378439  1
  Si  Si9  1  0.787401  0.449495  0.264627  1
  O  O10  1  0.113965  0.694200  0.867237  1
  O  O11  1  0.369859  0.930561  0.719109  1
  O  O12  1  0.039048  0.696461  0.484016  1
  O  O13  1  0.312896  0.837600  0.366800  1
  O  O14  1  0.113115  0.066482  0.930805  1
  O  O15  1  0.445295  0.517335  0.757257  1
  O  O16  1  0.276804  0.287097  0.819608  1
  O  O17  1  0.721901  0.580813  0.716831  1
  O  O18  1  0.278099  0.419187  0.283169  1
  O  O19  1  0.723196  0.712903  0.180392  1
  O  O20  1  0.554705  0.482665  0.242743  1
  O  O21  1  0.886885  0.933518  0.069195  1
  O  O22  1  0.687104  0.162400  0.633200  1
  O  O23  1  0.960952  0.303539  0.515984  1
  O  O24  1  0.630141  0.069439  0.280891  1
  O  O25  1  0.886035  0.305800  0.132763  1
