# generated using pymatgen
data_LiCu2PO4
_symmetry_space_group_name_H-M   'P 1'
_cell_length_a   6.13902712
_cell_length_b   5.53194466
_cell_length_c   5.17897656
_cell_angle_alpha   90.00000000
_cell_angle_beta   90.00000000
_cell_angle_gamma   90.00000000
_symmetry_Int_Tables_number   1
_chemical_formula_structural   LiCu2PO4
_chemical_formula_sum   'Li2 Cu4 P2 O8'
_cell_volume   175.88197116
_cell_formula_units_Z   2
loop_
 _symmetry_equiv_pos_site_id
 _symmetry_equiv_pos_as_xyz
  1  'x, y, z'
loop_
 _atom_site_type_symbol
 _atom_site_label
 _atom_site_symmetry_multiplicity
 _atom_site_fract_x
 _atom_site_fract_y
 _atom_site_fract_z
 _atom_site_occupancy
  Li  Li0  1  0.000000  0.338396  0.876309  1
  Li  Li1  1  0.500000  0.661604  0.376309  1
  Cu  Cu2  1  0.247821  0.845767  0.870102  1
  Cu  Cu3  1  0.252179  0.154233  0.370102  1
  Cu  Cu4  1  0.747821  0.154233  0.370102  1
  Cu  Cu5  1  0.752179  0.845767  0.870102  1
  P  P6  1  0.000000  0.661986  0.374998  1
  P  P7  1  0.500000  0.338014  0.874998  1
  O  O8  1  0.000000  0.645887  0.074918  1
  O  O9  1  0.000000  0.404280  0.497165  1
  O  O10  1  0.209665  0.798794  0.468202  1
  O  O11  1  0.290335  0.201206  0.968202  1
  O  O12  1  0.500000  0.354113  0.574918  1
  O  O13  1  0.500000  0.595720  0.997165  1
  O  O14  1  0.709665  0.201206  0.968202  1
  O  O15  1  0.790335  0.798794  0.468202  1
