# generated using pymatgen
data_Sn2P2O7
_symmetry_space_group_name_H-M   'P 1'
_cell_length_a   9.65681579
_cell_length_b   9.79428560
_cell_length_c   11.91942892
_cell_angle_alpha   65.84402796
_cell_angle_beta   103.08267499
_cell_angle_gamma   90.06027685
_symmetry_Int_Tables_number   1
_chemical_formula_structural   Sn2P2O7
_chemical_formula_sum   'Sn12 P12 O42'
_cell_volume   996.60924512
_cell_formula_units_Z   6
loop_
 _symmetry_equiv_pos_site_id
 _symmetry_equiv_pos_as_xyz
  1  'x, y, z'
loop_
 _atom_site_type_symbol
 _atom_site_label
 _atom_site_symmetry_multiplicity
 _atom_site_fract_x
 _atom_site_fract_y
 _atom_site_fract_z
 _atom_site_occupancy
  Sn  Sn0  1  0.991074  0.811632  0.998608  1
  Sn  Sn1  1  0.835881  0.844478  0.674777  1
  Sn  Sn2  1  0.824342  0.476358  0.656692  1
  Sn  Sn3  1  0.677902  0.132106  0.348813  1
  Sn  Sn4  1  0.663114  0.520133  0.330092  1
  Sn  Sn5  1  0.509667  0.804000  0.003195  1
  Sn  Sn6  1  0.492964  0.187782  0.999853  1
  Sn  Sn7  1  0.332756  0.478443  0.674848  1
  Sn  Sn8  1  0.318937  0.870919  0.651801  1
  Sn  Sn9  1  0.176530  0.523987  0.342946  1
  Sn  Sn10  1  0.161486  0.153616  0.326641  1
  Sn  Sn11  1  0.004610  0.191481  0.002846  1
  P  P12  1  0.972337  0.253963  0.525032  1
  P  P13  1  0.850112  0.417975  0.130633  1
  P  P14  1  0.819158  0.886746  0.201948  1
  P  P15  1  0.676893  0.088322  0.797521  1
  P  P16  1  0.645522  0.546174  0.868390  1
  P  P17  1  0.528666  0.777471  0.474941  1
  P  P18  1  0.471506  0.220622  0.524804  1
  P  P19  1  0.351247  0.450902  0.132965  1
  P  P20  1  0.321861  0.911948  0.203309  1
  P  P21  1  0.177070  0.114242  0.798582  1
  P  P22  1  0.146130  0.581524  0.870638  1
  P  P23  1  0.026912  0.749454  0.474002  1
  O  O24  1  0.958600  0.282415  0.165656  1
  O  O25  1  0.912768  0.566383  0.106087  1
  O  O26  1  0.904700  0.948924  0.098655  1
  O  O27  1  0.940228  0.780227  0.330060  1
  O  O28  1  0.917660  0.716332  0.556215  1
  O  O29  1  0.889865  0.122000  0.518770  1
  O  O30  1  0.875269  0.398063  0.490084  1
  O  O31  1  0.747084  0.422246  0.000172  1
  O  O32  1  0.758993  0.379205  0.229698  1
  O  O33  1  0.752703  0.009361  0.226014  1
  O  O34  1  0.715009  0.779001  0.171499  1
  O  O35  1  0.782741  0.951288  0.828943  1
  O  O36  1  0.742982  0.235248  0.772969  1
  O  O37  1  0.738875  0.602331  0.770452  1
  O  O38  1  0.624603  0.886900  0.510730  1
  O  O39  1  0.613470  0.641229  0.480365  1
  O  O40  1  0.584572  0.268463  0.445813  1
  O  O41  1  0.460801  0.551661  0.166227  1
  O  O42  1  0.556700  0.108370  0.669283  1
  O  O43  1  0.591279  0.046585  0.900685  1
  O  O44  1  0.410841  0.324775  0.109120  1
  O  O45  1  0.584950  0.674251  0.890038  1
  O  O46  1  0.404800  0.954444  0.098093  1
  O  O47  1  0.445931  0.890366  0.329760  1
  O  O48  1  0.535857  0.446444  0.835023  1
  O  O49  1  0.415967  0.727830  0.553723  1
  O  O50  1  0.389593  0.358878  0.517882  1
  O  O51  1  0.374816  0.110553  0.490732  1
  O  O52  1  0.247115  0.574240  0.002486  1
  O  O53  1  0.259356  0.393735  0.232010  1
  O  O54  1  0.254959  0.765311  0.228407  1
  O  O55  1  0.216904  0.048513  0.174365  1
  O  O56  1  0.281338  0.220835  0.830926  1
  O  O57  1  0.244441  0.993443  0.772593  1
  O  O58  1  0.239416  0.619877  0.773459  1
  O  O59  1  0.126586  0.608532  0.507779  1
  O  O60  1  0.106971  0.884039  0.478660  1
  O  O61  1  0.084820  0.283927  0.446189  1
  O  O62  1  0.056112  0.221178  0.670154  1
  O  O63  1  0.090773  0.051515  0.900976  1
  O  O64  1  0.081532  0.434086  0.891976  1
  O  O65  1  0.037302  0.716941  0.835643  1
