# generated using pymatgen
data_LiMnVP2(HO5)2
_symmetry_space_group_name_H-M   'P 1'
_cell_length_a   10.11205758
_cell_length_b   8.11841113
_cell_length_c   7.35190962
_cell_angle_alpha   94.72498295
_cell_angle_beta   76.59941638
_cell_angle_gamma   68.76589137
_symmetry_Int_Tables_number   1
_chemical_formula_structural   LiMnVP2(HO5)2
_chemical_formula_sum   'Li3 Mn3 V3 P6 H6 O30'
_cell_volume   537.96971933
_cell_formula_units_Z   3
loop_
 _symmetry_equiv_pos_site_id
 _symmetry_equiv_pos_as_xyz
  1  'x, y, z'
loop_
 _atom_site_type_symbol
 _atom_site_label
 _atom_site_symmetry_multiplicity
 _atom_site_fract_x
 _atom_site_fract_y
 _atom_site_fract_z
 _atom_site_occupancy
  Li  Li0  1  0.837404  0.765952  0.010707  1
  Li  Li1  1  0.495557  0.569134  0.656276  1
  Li  Li2  1  0.162954  0.233802  0.988332  1
  Mn  Mn3  1  0.666412  0.668149  0.334832  1
  Mn  Mn4  1  0.334306  0.332567  0.660077  1
  Mn  Mn5  1  0.999149  0.001688  0.001914  1
  V  V6  1  0.334295  0.833856  0.172569  1
  V  V7  1  0.667093  0.165633  0.831719  1
  V  V8  1  0.000271  0.499387  0.498843  1
  P  P9  1  0.474913  0.923576  0.757990  1
  P  P10  1  0.859193  0.410307  0.912745  1
  P  P11  1  0.807126  0.257596  0.421634  1
  P  P12  1  0.192408  0.744425  0.582783  1
  P  P13  1  0.140663  0.590487  0.085912  1
  P  P14  1  0.526250  0.076665  0.243268  1
  H  H15  1  0.910256  0.897589  0.744527  1
  H  H16  1  0.762504  0.777168  0.573206  1
  H  H17  1  0.571268  0.555542  0.094830  1
  H  H18  1  0.422235  0.435913  0.918738  1
  H  H19  1  0.237463  0.222898  0.423675  1
  H  H20  1  0.090466  0.102345  0.256450  1
  O  O21  1  0.658492  0.900110  0.208816  1
  O  O22  1  0.850348  0.976009  0.869857  1
  O  O23  1  0.823661  0.536753  0.103536  1
  O  O24  1  0.816380  0.675059  0.463939  1
  O  O25  1  0.619712  0.951998  0.762313  1
  O  O26  1  0.890969  0.528838  0.762195  1
  O  O27  1  0.950443  0.289451  0.433303  1
  O  O28  1  0.517447  0.657635  0.203719  1
  O  O29  1  0.506602  0.802731  0.565055  1
  O  O30  1  0.841357  0.143746  0.226298  1
  O  O31  1  0.674577  0.433760  0.456164  1
  O  O32  1  0.993971  0.238812  0.889559  1
  O  O33  1  0.224791  0.854707  0.423581  1
  O  O34  1  0.442113  0.803980  0.906333  1
  O  O35  1  0.281314  0.625362  0.095659  1
  O  O36  1  0.718024  0.376586  0.903698  1
  O  O37  1  0.559414  0.188249  0.085767  1
  O  O38  1  0.773768  0.145671  0.578708  1
  O  O39  1  0.005616  0.761692  0.109331  1
  O  O40  1  0.328087  0.573728  0.559442  1
  O  O41  1  0.154672  0.863747  0.776188  1
  O  O42  1  0.493122  0.189122  0.438843  1
  O  O43  1  0.482988  0.357245  0.793446  1
  O  O44  1  0.052562  0.707130  0.567492  1
  O  O45  1  0.109026  0.471763  0.236346  1
  O  O46  1  0.382738  0.045136  0.232418  1
  O  O47  1  0.184360  0.324497  0.532945  1
  O  O48  1  0.177723  0.462795  0.895166  1
  O  O49  1  0.149957  0.023850  0.130896  1
  O  O50  1  0.344153  0.101311  0.792851  1
