# generated using pymatgen
data_NdBiO4
_symmetry_space_group_name_H-M   'P 1'
_cell_length_a   7.08581879
_cell_length_b   7.08581879
_cell_length_c   6.86255440
_cell_angle_alpha   131.63224250
_cell_angle_beta   134.60909080
_cell_angle_gamma   71.12207726
_symmetry_Int_Tables_number   1
_chemical_formula_structural   NdBiO4
_chemical_formula_sum   'Nd2 Bi2 O8'
_cell_volume   176.59714926
_cell_formula_units_Z   2
loop_
 _symmetry_equiv_pos_site_id
 _symmetry_equiv_pos_as_xyz
  1  'x, y, z'
loop_
 _atom_site_type_symbol
 _atom_site_label
 _atom_site_symmetry_multiplicity
 _atom_site_fract_x
 _atom_site_fract_y
 _atom_site_fract_z
 _atom_site_occupancy
  Nd  Nd0  1  0.386555  0.136555  0.250000  1
  Nd  Nd1  1  0.613445  0.863445  0.750000  1
  Bi  Bi2  1  0.849609  0.599609  0.250000  1
  Bi  Bi3  1  0.150391  0.400391  0.750000  1
  O  O4  1  0.714489  0.548132  0.830828  1
  O  O5  1  0.782695  0.116338  0.330828  1
  O  O6  1  0.461155  0.232303  0.747842  1
  O  O7  1  0.015539  0.286686  0.247842  1
  O  O8  1  0.984461  0.713314  0.752158  1
  O  O9  1  0.538845  0.767697  0.252158  1
  O  O10  1  0.217305  0.883662  0.669172  1
  O  O11  1  0.285511  0.451868  0.169172  1
