# generated using pymatgen
data_V6O5F19
_symmetry_space_group_name_H-M   'P 1'
_cell_length_a   5.55107096
_cell_length_b   5.32856355
_cell_length_c   14.72219420
_cell_angle_alpha   89.70356051
_cell_angle_beta   100.39211020
_cell_angle_gamma   92.18668368
_symmetry_Int_Tables_number   1
_chemical_formula_structural   V6O5F19
_chemical_formula_sum   'V6 O5 F19'
_cell_volume   428.01535065
_cell_formula_units_Z   1
loop_
 _symmetry_equiv_pos_site_id
 _symmetry_equiv_pos_as_xyz
  1  'x, y, z'
loop_
 _atom_site_type_symbol
 _atom_site_label
 _atom_site_symmetry_multiplicity
 _atom_site_fract_x
 _atom_site_fract_y
 _atom_site_fract_z
 _atom_site_occupancy
  V  V0  1  0.044622  0.965965  0.004028  1
  V  V1  1  0.111853  0.482592  0.331600  1
  V  V2  1  0.281647  0.033886  0.662566  1
  V  V3  1  0.533428  0.457298  0.996138  1
  V  V4  1  0.602773  0.029039  0.329763  1
  V  V5  1  0.819027  0.513193  0.668227  1
  O  O6  1  0.037157  0.202379  0.642427  1
  O  O7  1  0.363776  0.207648  0.308258  1
  O  O8  1  0.697881  0.226361  0.978220  1
  O  O9  1  0.281282  0.794494  0.022173  1
  O  O10  1  0.865619  0.291967  0.309741  1
  F  F11  1  0.214055  0.275290  0.973167  1
  F  F12  1  0.133990  0.717106  0.690837  1
  F  F13  1  0.041702  0.097062  0.114564  1
  F  F14  1  0.236277  0.411249  0.447808  1
  F  F15  1  0.391117  0.073278  0.782116  1
  F  F16  1  0.144887  0.583060  0.219382  1
  F  F17  1  0.307911  0.909532  0.553679  1
  F  F18  1  0.451735  0.593796  0.885231  1
  F  F19  1  0.518230  0.297963  0.642950  1
  F  F20  1  0.472866  0.725172  0.357314  1
  F  F21  1  0.649354  0.786914  0.691920  1
  F  F22  1  0.524507  0.435463  0.115860  1
  F  F23  1  0.731538  0.083031  0.447322  1
  F  F24  1  0.886756  0.404338  0.783279  1
  F  F25  1  0.644611  0.922391  0.220093  1
  F  F26  1  0.801699  0.569870  0.548930  1
  F  F27  1  0.928899  0.927561  0.884480  1
  F  F28  1  0.797342  0.712998  0.027405  1
  F  F29  1  0.983461  0.769105  0.360521  1
