# generated using pymatgen
data_LiVF5
_symmetry_space_group_name_H-M   'P 1'
_cell_length_a   9.31848851
_cell_length_b   5.31607266
_cell_length_c   8.29655998
_cell_angle_alpha   90.00000000
_cell_angle_beta   90.00000000
_cell_angle_gamma   90.00000000
_symmetry_Int_Tables_number   1
_chemical_formula_structural   LiVF5
_chemical_formula_sum   'Li4 V4 F20'
_cell_volume   410.99301371
_cell_formula_units_Z   4
loop_
 _symmetry_equiv_pos_site_id
 _symmetry_equiv_pos_as_xyz
  1  'x, y, z'
loop_
 _atom_site_type_symbol
 _atom_site_label
 _atom_site_symmetry_multiplicity
 _atom_site_fract_x
 _atom_site_fract_y
 _atom_site_fract_z
 _atom_site_occupancy
  Li  Li0  1  0.018041  0.750000  0.692202  1
  Li  Li1  1  0.481959  0.250000  0.192202  1
  Li  Li2  1  0.518041  0.750000  0.807798  1
  Li  Li3  1  0.981959  0.250000  0.307798  1
  V  V4  1  0.215107  0.750000  0.087552  1
  V  V5  1  0.284893  0.250000  0.587552  1
  V  V6  1  0.715107  0.750000  0.412448  1
  V  V7  1  0.784893  0.250000  0.912448  1
  F  F8  1  0.107565  0.988090  0.195087  1
  F  F9  1  0.107565  0.511910  0.195087  1
  F  F10  1  0.137139  0.017605  0.589454  1
  F  F11  1  0.137139  0.482395  0.589454  1
  F  F12  1  0.151913  0.750000  0.888323  1
  F  F13  1  0.348087  0.250000  0.388323  1
  F  F14  1  0.362861  0.517605  0.089454  1
  F  F15  1  0.362861  0.982395  0.089454  1
  F  F16  1  0.392435  0.011910  0.695087  1
  F  F17  1  0.392435  0.488090  0.695087  1
  F  F18  1  0.607565  0.511910  0.304913  1
  F  F19  1  0.607565  0.988090  0.304913  1
  F  F20  1  0.637139  0.017605  0.910546  1
  F  F21  1  0.637139  0.482395  0.910546  1
  F  F22  1  0.651913  0.750000  0.611677  1
  F  F23  1  0.848087  0.250000  0.111677  1
  F  F24  1  0.862861  0.517605  0.410546  1
  F  F25  1  0.862861  0.982395  0.410546  1
  F  F26  1  0.892435  0.011910  0.804913  1
  F  F27  1  0.892435  0.488090  0.804913  1
