# generated using pymatgen
data_Mn3O5F
_symmetry_space_group_name_H-M   'P 1'
_cell_length_a   4.55038584
_cell_length_b   7.52234051
_cell_length_c   5.45888659
_cell_angle_alpha   93.61009578
_cell_angle_beta   90.00000000
_cell_angle_gamma   90.00000000
_symmetry_Int_Tables_number   1
_chemical_formula_structural   Mn3O5F
_chemical_formula_sum   'Mn6 O10 F2'
_cell_volume   186.48445441
_cell_formula_units_Z   2
loop_
 _symmetry_equiv_pos_site_id
 _symmetry_equiv_pos_as_xyz
  1  'x, y, z'
loop_
 _atom_site_type_symbol
 _atom_site_label
 _atom_site_symmetry_multiplicity
 _atom_site_fract_x
 _atom_site_fract_y
 _atom_site_fract_z
 _atom_site_occupancy
  Mn  Mn0  1  0.521016  0.669181  0.157623  1
  Mn  Mn1  1  0.487764  0.997034  0.493372  1
  Mn  Mn2  1  0.487438  0.343864  0.833325  1
  Mn  Mn3  1  0.987764  0.669633  0.673295  1
  Mn  Mn4  1  0.987438  0.322802  0.333341  1
  Mn  Mn5  1  0.021016  0.997485  0.009044  1
  O  O6  1  0.805189  0.433945  0.629701  1
  O  O7  1  0.807102  0.774276  0.963983  1
  O  O8  1  0.806190  0.098080  0.296010  1
  O  O9  1  0.692340  0.768498  0.459924  1
  O  O10  1  0.695995  0.435272  0.127927  1
  O  O11  1  0.306190  0.568587  0.870656  1
  O  O12  1  0.305189  0.232722  0.536966  1
  O  O13  1  0.307102  0.892391  0.202684  1
  O  O14  1  0.195995  0.231394  0.038739  1
  O  O15  1  0.192340  0.898169  0.706743  1
  F  F16  1  0.696966  0.103314  0.802392  1
  F  F17  1  0.196966  0.563353  0.364275  1
