# generated using pymatgen
data_Li2V(CO3)2
_symmetry_space_group_name_H-M   'P 1'
_cell_length_a   7.87448820
_cell_length_b   7.87817956
_cell_length_c   8.48053423
_cell_angle_alpha   68.81162533
_cell_angle_beta   111.17950641
_cell_angle_gamma   103.10269854
_symmetry_Int_Tables_number   1
_chemical_formula_structural   Li2V(CO3)2
_chemical_formula_sum   'Li8 V4 C8 O24'
_cell_volume   454.59975194
_cell_formula_units_Z   4
loop_
 _symmetry_equiv_pos_site_id
 _symmetry_equiv_pos_as_xyz
  1  'x, y, z'
loop_
 _atom_site_type_symbol
 _atom_site_label
 _atom_site_symmetry_multiplicity
 _atom_site_fract_x
 _atom_site_fract_y
 _atom_site_fract_z
 _atom_site_occupancy
  Li  Li0  1  0.907657  0.485416  0.228738  1
  Li  Li1  1  0.702069  0.131889  0.201624  1
  Li  Li2  1  0.323149  0.675536  0.215370  1
  Li  Li3  1  0.430797  0.006611  0.399602  1
  Li  Li4  1  0.797935  0.368119  0.798370  1
  Li  Li5  1  0.592342  0.014579  0.771257  1
  Li  Li6  1  0.069198  0.493392  0.600394  1
  Li  Li7  1  0.176834  0.824472  0.784615  1
  V  V8  1  0.494207  0.495873  0.995769  1
  V  V9  1  0.749992  0.749999  0.499993  1
  V  V10  1  0.005816  0.004137  0.004229  1
  V  V11  1  0.249998  0.250013  0.499989  1
  C  C12  1  0.630703  0.859212  0.089566  1
  C  C13  1  0.879875  0.120728  0.586596  1
  C  C14  1  0.620129  0.379274  0.413399  1
  C  C15  1  0.130583  0.371122  0.088894  1
  C  C16  1  0.869289  0.640776  0.910428  1
  C  C17  1  0.385870  0.620618  0.585102  1
  C  C18  1  0.114131  0.879388  0.414905  1
  C  C19  1  0.369426  0.128879  0.911114  1
  O  O20  1  0.946503  0.713355  0.037511  1
  O  O21  1  0.758496  0.996379  0.072301  1
  O  O22  1  0.447791  0.201131  0.039205  1
  O  O23  1  0.987789  0.742478  0.431592  1
  O  O24  1  0.670928  0.430196  0.271795  1
  O  O25  1  0.574070  0.807388  0.227561  1
  O  O26  1  0.266335  0.499889  0.079115  1
  O  O27  1  0.797754  0.042065  0.463517  1
  O  O28  1  0.702245  0.457939  0.536476  1
  O  O29  1  0.490325  0.246428  0.434020  1
  O  O30  1  0.925907  0.692606  0.772425  1
  O  O31  1  0.172742  0.938690  0.277798  1
  O  O32  1  0.829075  0.069801  0.728198  1
  O  O33  1  0.069699  0.320233  0.224758  1
  O  O34  1  0.512211  0.757526  0.568424  1
  O  O35  1  0.306929  0.545073  0.458552  1
  O  O36  1  0.193072  0.954943  0.541448  1
  O  O37  1  0.741494  0.503612  0.927700  1
  O  O38  1  0.430307  0.179772  0.775250  1
  O  O39  1  0.327264  0.561298  0.722216  1
  O  O40  1  0.009677  0.253577  0.565974  1
  O  O41  1  0.553506  0.786620  0.962490  1
  O  O42  1  0.233676  0.000108  0.920887  1
  O  O43  1  0.052214  0.298872  0.960806  1
