# generated using pymatgen
data_Sb2O5
_symmetry_space_group_name_H-M   'P 1'
_cell_length_a   8.57722466
_cell_length_b   5.10920900
_cell_length_c   10.12310103
_cell_angle_alpha   90.00000000
_cell_angle_beta   113.88938941
_cell_angle_gamma   90.00000000
_symmetry_Int_Tables_number   1
_chemical_formula_structural   Sb2O5
_chemical_formula_sum   'Sb8 O20'
_cell_volume   405.61733233
_cell_formula_units_Z   4
loop_
 _symmetry_equiv_pos_site_id
 _symmetry_equiv_pos_as_xyz
  1  'x, y, z'
loop_
 _atom_site_type_symbol
 _atom_site_label
 _atom_site_symmetry_multiplicity
 _atom_site_fract_x
 _atom_site_fract_y
 _atom_site_fract_z
 _atom_site_occupancy
  Sb  Sb0  1  0.133682  0.472873  0.942796  1
  Sb  Sb1  1  0.978621  0.998803  0.329349  1
  Sb  Sb2  1  0.366318  0.972873  0.557204  1
  Sb  Sb3  1  0.478621  0.501197  0.829349  1
  Sb  Sb4  1  0.521379  0.498803  0.170651  1
  Sb  Sb5  1  0.633682  0.027127  0.442796  1
  Sb  Sb6  1  0.021379  0.001197  0.670651  1
  Sb  Sb7  1  0.866318  0.527127  0.057204  1
  O  O8  1  0.062536  0.730461  0.054757  1
  O  O9  1  0.191568  0.197456  0.829548  1
  O  O10  1  0.983063  0.336292  0.247921  1
  O  O11  1  0.131424  0.148598  0.541636  1
  O  O12  1  0.368576  0.648598  0.958364  1
  O  O13  1  0.190097  0.816580  0.373423  1
  O  O14  1  0.308432  0.697456  0.670452  1
  O  O15  1  0.437464  0.230461  0.445243  1
  O  O16  1  0.309903  0.316580  0.126577  1
  O  O17  1  0.483063  0.163708  0.747921  1
  O  O18  1  0.516937  0.836292  0.252079  1
  O  O19  1  0.690097  0.683420  0.873423  1
  O  O20  1  0.562536  0.769539  0.554757  1
  O  O21  1  0.691568  0.302544  0.329548  1
  O  O22  1  0.809903  0.183420  0.626577  1
  O  O23  1  0.631424  0.351402  0.041636  1
  O  O24  1  0.868576  0.851402  0.458364  1
  O  O25  1  0.016937  0.663708  0.752079  1
  O  O26  1  0.808432  0.802544  0.170452  1
  O  O27  1  0.937464  0.269539  0.945243  1
