# generated using pymatgen
data_Y3Ge13Ru4
_symmetry_space_group_name_H-M   'P 1'
_cell_length_a   9.00681028
_cell_length_b   9.01064486
_cell_length_c   9.00593826
_cell_angle_alpha   90.02728202
_cell_angle_beta   90.03274728
_cell_angle_gamma   89.95826815
_symmetry_Int_Tables_number   1
_chemical_formula_structural   Y3Ge13Ru4
_chemical_formula_sum   'Y6 Ge26 Ru8'
_cell_volume   730.89605523
_cell_formula_units_Z   2
loop_
 _symmetry_equiv_pos_site_id
 _symmetry_equiv_pos_as_xyz
  1  'x, y, z'
loop_
 _atom_site_type_symbol
 _atom_site_label
 _atom_site_symmetry_multiplicity
 _atom_site_fract_x
 _atom_site_fract_y
 _atom_site_fract_z
 _atom_site_occupancy
  Y  Y0  1  0.499983  0.000255  0.248712  1
  Y  Y1  1  0.749638  0.500067  0.000592  1
  Y  Y2  1  0.000187  0.749743  0.500122  1
  Y  Y3  1  0.250500  0.500966  0.000203  1
  Y  Y4  1  0.499846  0.000074  0.749387  1
  Y  Y5  1  0.999591  0.250416  0.499943  1
  Ge  Ge6  1  0.000337  0.693459  0.848529  1
  Ge  Ge7  1  0.500026  0.650632  0.194321  1
  Ge  Ge8  1  0.305483  0.151203  0.999645  1
  Ge  Ge9  1  0.499270  0.498947  0.500296  1
  Ge  Ge10  1  0.650783  0.193189  0.499857  1
  Ge  Ge11  1  0.195096  0.500025  0.650992  1
  Ge  Ge12  1  0.150412  0.000006  0.305535  1
  Ge  Ge13  1  0.694013  0.150692  0.999819  1
  Ge  Ge14  1  0.805948  0.500144  0.349038  1
  Ge  Ge15  1  0.500206  0.348463  0.806608  1
  Ge  Ge16  1  0.348876  0.193626  0.499590  1
  Ge  Ge17  1  0.307002  0.849226  -0.000005  1
  Ge  Ge18  1  0.999978  0.693199  0.150952  1
  Ge  Ge19  1  0.693013  0.848827  0.000002  1
  Ge  Ge20  1  0.349057  0.806184  0.499637  1
  Ge  Ge21  1  0.849019  0.000050  0.305973  1
  Ge  Ge22  1  0.999939  0.306882  0.150888  1
  Ge  Ge23  1  0.150663  0.000021  0.695211  1
  Ge  Ge24  1  0.651444  0.806394  0.499996  1
  Ge  Ge25  1  0.500183  0.650699  0.805693  1
  Ge  Ge26  1  0.499815  0.349754  0.194616  1
  Ge  Ge27  1  0.000248  0.000245  0.001417  1
  Ge  Ge28  1  0.805057  0.499994  0.650815  1
  Ge  Ge29  1  0.000294  0.306866  0.848913  1
  Ge  Ge30  1  0.194244  0.499849  0.348446  1
  Ge  Ge31  1  0.849210  0.999808  0.694963  1
  Ru  Ru32  1  0.250031  0.249886  0.249664  1
  Ru  Ru33  1  0.249964  0.749949  0.249854  1
  Ru  Ru34  1  0.749859  0.250182  0.249950  1
  Ru  Ru35  1  0.250286  0.750215  0.749849  1
  Ru  Ru36  1  0.750035  0.749984  0.250028  1
  Ru  Ru37  1  0.250117  0.249931  0.749728  1
  Ru  Ru38  1  0.750265  0.249967  0.750005  1
  Ru  Ru39  1  0.750082  0.749980  0.750217  1
