# generated using pymatgen
data_Li4Mn3Cu2Sn3O16
_symmetry_space_group_name_H-M   'P 1'
_cell_length_a   6.08433286
_cell_length_b   6.10424730
_cell_length_c   9.81937422
_cell_angle_alpha   89.99063676
_cell_angle_beta   87.51752231
_cell_angle_gamma   120.10967409
_symmetry_Int_Tables_number   1
_chemical_formula_structural   Li4Mn3Cu2Sn3O16
_chemical_formula_sum   'Li4 Mn3 Cu2 Sn3 O16'
_cell_volume   315.08763514
_cell_formula_units_Z   1
loop_
 _symmetry_equiv_pos_site_id
 _symmetry_equiv_pos_as_xyz
  1  'x, y, z'
loop_
 _atom_site_type_symbol
 _atom_site_label
 _atom_site_symmetry_multiplicity
 _atom_site_fract_x
 _atom_site_fract_y
 _atom_site_fract_z
 _atom_site_occupancy
  Li  Li0  1  0.340843  0.670435  0.884467  1
  Li  Li1  1  0.981205  0.990611  0.994463  1
  Li  Li2  1  0.991461  0.995765  0.501343  1
  Li  Li3  1  0.665651  0.332836  0.393129  1
  Mn  Mn4  1  0.665898  0.832935  0.216700  1
  Mn  Mn5  1  0.832371  0.663752  0.715333  1
  Mn  Mn6  1  0.832296  0.168574  0.715328  1
  Cu  Cu7  1  0.331864  0.665964  0.493168  1
  Cu  Cu8  1  0.672267  0.336144  0.985343  1
  Sn  Sn9  1  0.169899  0.830610  0.214386  1
  Sn  Sn10  1  0.169871  0.339281  0.214384  1
  Sn  Sn11  1  0.341878  0.170986  0.713268  1
  O  O12  1  0.154509  0.835187  0.601594  1
  O  O13  1  0.017061  0.508498  0.334141  1
  O  O14  1  0.366270  0.683162  0.100523  1
  O  O15  1  0.976189  0.988060  0.318722  1
  O  O16  1  0.976857  0.988411  0.811461  1
  O  O17  1  0.154488  0.319388  0.601588  1
  O  O18  1  0.485705  0.959449  0.338604  1
  O  O19  1  0.485683  0.526263  0.338614  1
  O  O20  1  0.326914  0.163499  0.092745  1
  O  O21  1  0.691211  0.845637  0.614823  1
  O  O22  1  0.524255  0.493531  0.829695  1
  O  O23  1  0.524175  0.030674  0.829650  1
  O  O24  1  0.699011  0.349559  0.606736  1
  O  O25  1  0.835153  0.688234  0.106235  1
  O  O26  1  0.951862  0.475916  0.835211  1
  O  O27  1  0.835152  0.146940  0.106188  1
