# generated using pymatgen
data_LaMgI5
_symmetry_space_group_name_H-M   'P 1'
_cell_length_a   17.52555953
_cell_length_b   4.35709071
_cell_length_c   15.22545205
_cell_angle_alpha   90.00000000
_cell_angle_beta   90.00000000
_cell_angle_gamma   90.00000000
_symmetry_Int_Tables_number   1
_chemical_formula_structural   LaMgI5
_chemical_formula_sum   'La4 Mg4 I20'
_cell_volume   1162.62240982
_cell_formula_units_Z   4
loop_
 _symmetry_equiv_pos_site_id
 _symmetry_equiv_pos_as_xyz
  1  'x, y, z'
loop_
 _atom_site_type_symbol
 _atom_site_label
 _atom_site_symmetry_multiplicity
 _atom_site_fract_x
 _atom_site_fract_y
 _atom_site_fract_z
 _atom_site_occupancy
  La  La0  1  0.155999  0.750000  0.744307  1
  La  La1  1  0.344001  0.250000  0.244307  1
  La  La2  1  0.655999  0.750000  0.755693  1
  La  La3  1  0.844001  0.250000  0.255693  1
  Mg  Mg4  1  0.092172  0.750000  0.238133  1
  Mg  Mg5  1  0.407828  0.250000  0.738133  1
  Mg  Mg6  1  0.592172  0.750000  0.261867  1
  Mg  Mg7  1  0.907828  0.250000  0.761867  1
  I  I8  1  0.025593  0.250000  0.344683  1
  I  I9  1  0.052428  0.250000  0.863115  1
  I  I10  1  0.153790  0.250000  0.593926  1
  I  I11  1  0.161537  0.250000  0.135937  1
  I  I12  1  0.232911  0.750000  0.349442  1
  I  I13  1  0.267089  0.250000  0.849442  1
  I  I14  1  0.338463  0.750000  0.635937  1
  I  I15  1  0.346210  0.750000  0.093926  1
  I  I16  1  0.447572  0.750000  0.363115  1
  I  I17  1  0.474407  0.750000  0.844683  1
  I  I18  1  0.525593  0.250000  0.155317  1
  I  I19  1  0.552428  0.250000  0.636885  1
  I  I20  1  0.653790  0.250000  0.906074  1
  I  I21  1  0.661537  0.250000  0.364063  1
  I  I22  1  0.732911  0.750000  0.150558  1
  I  I23  1  0.767089  0.250000  0.650558  1
  I  I24  1  0.838463  0.750000  0.864063  1
  I  I25  1  0.846210  0.750000  0.406074  1
  I  I26  1  0.947572  0.750000  0.136885  1
  I  I27  1  0.974407  0.750000  0.655317  1
