# generated using pymatgen
data_LiV6O7F5
_symmetry_space_group_name_H-M   'P 1'
_cell_length_a   5.69728652
_cell_length_b   5.71771299
_cell_length_c   7.50424681
_cell_angle_alpha   108.86172265
_cell_angle_beta   71.66211581
_cell_angle_gamma   107.59200848
_symmetry_Int_Tables_number   1
_chemical_formula_structural   LiV6O7F5
_chemical_formula_sum   'Li1 V6 O7 F5'
_cell_volume   214.03859815
_cell_formula_units_Z   1
loop_
 _symmetry_equiv_pos_site_id
 _symmetry_equiv_pos_as_xyz
  1  'x, y, z'
loop_
 _atom_site_type_symbol
 _atom_site_label
 _atom_site_symmetry_multiplicity
 _atom_site_fract_x
 _atom_site_fract_y
 _atom_site_fract_z
 _atom_site_occupancy
  Li  Li0  1  0.059431  0.439701  0.433538  1
  V  V1  1  0.357380  0.691067  0.152823  1
  V  V2  1  0.607142  0.316902  0.310806  1
  V  V3  1  0.357741  0.679759  0.676712  1
  V  V4  1  0.997303  0.014781  0.518281  1
  V  V5  1  0.697234  0.323278  0.842644  1
  V  V6  1  0.985603  0.975688  0.002742  1
  O  O7  1  0.774101  0.218790  0.033990  1
  O  O8  1  0.408817  0.571581  0.366933  1
  O  O9  1  0.339349  0.032191  0.333986  1
  O  O10  1  0.645407  0.971896  0.666946  1
  O  O11  1  0.055165  0.369002  0.661023  1
  O  O12  1  0.235270  0.771867  0.964481  1
  O  O13  1  0.701982  0.685206  0.994399  1
  F  F14  1  0.950296  0.633677  0.336659  1
  F  F15  1  0.889754  0.115553  0.309970  1
  F  F16  1  0.102869  0.893083  0.703174  1
  F  F17  1  0.591508  0.433797  0.621300  1
  F  F18  1  0.303733  0.295270  0.996938  1
