# generated using pymatgen
data_Na3V2(PO4)3
_symmetry_space_group_name_H-M   'P 1'
_cell_length_a   8.87166411
_cell_length_b   12.69855749
_cell_length_c   9.01309073
_cell_angle_alpha   90.00000000
_cell_angle_beta   90.00000000
_cell_angle_gamma   90.39460743
_symmetry_Int_Tables_number   1
_chemical_formula_structural   Na3V2(PO4)3
_chemical_formula_sum   'Na12 V8 P12 O48'
_cell_volume   1015.36671588
_cell_formula_units_Z   4
loop_
 _symmetry_equiv_pos_site_id
 _symmetry_equiv_pos_as_xyz
  1  'x, y, z'
loop_
 _atom_site_type_symbol
 _atom_site_label
 _atom_site_symmetry_multiplicity
 _atom_site_fract_x
 _atom_site_fract_y
 _atom_site_fract_z
 _atom_site_occupancy
  Na  Na0  1  0.077234  0.690151  0.065074  1
  Na  Na1  1  0.092325  0.764753  0.699296  1
  Na  Na2  1  0.209065  0.163349  0.795148  1
  Na  Na3  1  0.290935  0.336651  0.295148  1
  Na  Na4  1  0.407675  0.735247  0.199296  1
  Na  Na5  1  0.422766  0.809849  0.565074  1
  Na  Na6  1  0.577234  0.190151  0.434926  1
  Na  Na7  1  0.592325  0.264753  0.800704  1
  Na  Na8  1  0.709065  0.663349  0.704852  1
  Na  Na9  1  0.790935  0.836651  0.204852  1
  Na  Na10  1  0.907675  0.235247  0.300704  1
  Na  Na11  1  0.922766  0.309849  0.934926  1
  V  V12  1  0.247121  0.601537  0.521484  1
  V  V13  1  0.252879  0.898463  0.021484  1
  V  V14  1  0.242230  0.105480  0.462721  1
  V  V15  1  0.257770  0.394520  0.962721  1
  V  V16  1  0.742230  0.605480  0.037279  1
  V  V17  1  0.757770  0.894520  0.537279  1
  V  V18  1  0.747121  0.101537  0.978516  1
  V  V19  1  0.752879  0.398463  0.478516  1
  P  P20  1  0.027456  0.496581  0.250321  1
  P  P21  1  0.107904  0.854518  0.380152  1
  P  P22  1  0.115175  0.147075  0.103537  1
  P  P23  1  0.384825  0.352925  0.603537  1
  P  P24  1  0.392096  0.645482  0.880152  1
  P  P25  1  0.472544  0.003419  0.750321  1
  P  P26  1  0.527456  0.996581  0.249679  1
  P  P27  1  0.607904  0.354518  0.119848  1
  P  P28  1  0.615175  0.647075  0.396463  1
  P  P29  1  0.884825  0.852925  0.896463  1
  P  P30  1  0.892096  0.145482  0.619848  1
  P  P31  1  0.972544  0.503419  0.749679  1
  O  O32  1  0.073370  0.434195  0.848533  1
  O  O33  1  0.060514  0.863872  0.905157  1
  O  O34  1  0.066169  0.586452  0.661972  1
  O  O35  1  0.063672  0.157822  0.588371  1
  O  O36  1  0.116946  0.574052  0.351070  1
  O  O37  1  0.138815  0.835593  0.211011  1
  O  O38  1  0.158419  0.964404  0.428472  1
  O  O39  1  0.157464  0.245442  0.008098  1
  O  O40  1  0.153538  0.171041  0.268663  1
  O  O41  1  0.143561  0.437679  0.154503  1
  O  O42  1  0.194523  0.051942  0.037256  1
  O  O43  1  0.196097  0.771110  0.472791  1
  O  O44  1  0.303903  0.728890  0.972791  1
  O  O45  1  0.305477  0.448058  0.537256  1
  O  O46  1  0.356439  0.062321  0.654503  1
  O  O47  1  0.346462  0.328959  0.768663  1
  O  O48  1  0.341581  0.535596  0.928472  1
  O  O49  1  0.361185  0.664407  0.711011  1
  O  O50  1  0.342536  0.254558  0.508098  1
  O  O51  1  0.383054  0.925948  0.851070  1
  O  O52  1  0.433831  0.913548  0.161972  1
  O  O53  1  0.439486  0.636128  0.405157  1
  O  O54  1  0.436328  0.342178  0.088371  1
  O  O55  1  0.426630  0.065805  0.348533  1
  O  O56  1  0.573370  0.934195  0.651467  1
  O  O57  1  0.563672  0.657822  0.911629  1
  O  O58  1  0.560514  0.363872  0.594843  1
  O  O59  1  0.566169  0.086452  0.838028  1
  O  O60  1  0.616946  0.074052  0.148930  1
  O  O61  1  0.657464  0.745442  0.491902  1
  O  O62  1  0.638815  0.335593  0.288989  1
  O  O63  1  0.658419  0.464404  0.071528  1
  O  O64  1  0.653538  0.671041  0.231337  1
  O  O65  1  0.643561  0.937679  0.345497  1
  O  O66  1  0.694523  0.551942  0.462744  1
  O  O67  1  0.696097  0.271110  0.027209  1
  O  O68  1  0.803903  0.228890  0.527209  1
  O  O69  1  0.805477  0.948058  0.962744  1
  O  O70  1  0.856439  0.562321  0.845497  1
  O  O71  1  0.846462  0.828959  0.731337  1
  O  O72  1  0.842536  0.754558  0.991902  1
  O  O73  1  0.841581  0.035596  0.571528  1
  O  O74  1  0.861185  0.164407  0.788989  1
  O  O75  1  0.883054  0.425948  0.648930  1
  O  O76  1  0.936328  0.842178  0.411629  1
  O  O77  1  0.933831  0.413548  0.338028  1
  O  O78  1  0.939486  0.136128  0.094843  1
  O  O79  1  0.926630  0.565805  0.151467  1
