# generated using pymatgen
data_Cr3Sb3(TeO8)2
_symmetry_space_group_name_H-M   'P 1'
_cell_length_a   6.15411400
_cell_length_b   6.19042684
_cell_length_c   9.96441414
_cell_angle_alpha   90.00291913
_cell_angle_beta   89.98198162
_cell_angle_gamma   120.19884845
_symmetry_Int_Tables_number   1
_chemical_formula_structural   Cr3Sb3(TeO8)2
_chemical_formula_sum   'Cr3 Sb3 Te2 O16'
_cell_volume   328.09137097
_cell_formula_units_Z   1
loop_
 _symmetry_equiv_pos_site_id
 _symmetry_equiv_pos_as_xyz
  1  'x, y, z'
loop_
 _atom_site_type_symbol
 _atom_site_label
 _atom_site_symmetry_multiplicity
 _atom_site_fract_x
 _atom_site_fract_y
 _atom_site_fract_z
 _atom_site_occupancy
  Cr  Cr0  1  0.168818  0.832064  0.211488  1
  Cr  Cr1  1  0.168816  0.336721  0.211456  1
  Cr  Cr2  1  0.338436  0.169234  0.710911  1
  Sb  Sb3  1  0.669749  0.834881  0.212764  1
  Sb  Sb4  1  0.838468  0.169567  0.714014  1
  Sb  Sb5  1  0.838464  0.668929  0.714013  1
  Te  Te6  1  0.309632  0.654828  0.472621  1
  Te  Te7  1  0.642603  0.321304  0.000909  1
  O  O8  1  0.151351  0.842044  0.606067  1
  O  O9  1  0.042241  0.521122  0.331277  1
  O  O10  1  0.339509  0.669759  0.113521  1
  O  O11  1  0.002295  0.001162  0.305807  1
  O  O12  1  0.005601  0.002832  0.816931  1
  O  O13  1  0.151371  0.309349  0.606075  1
  O  O14  1  0.478382  0.956071  0.333924  1
  O  O15  1  0.478375  0.522337  0.333930  1
  O  O16  1  0.326253  0.163127  0.104977  1
  O  O17  1  0.686917  0.843452  0.611407  1
  O  O18  1  0.524893  0.482262  0.826941  1
  O  O19  1  0.524869  0.042641  0.826923  1
  O  O20  1  0.671894  0.335939  0.607136  1
  O  O21  1  0.831912  0.673584  0.109001  1
  O  O22  1  0.977236  0.488655  0.824634  1
  O  O23  1  0.831915  0.158336  0.108995  1
