# generated using pymatgen
data_Li4NbFe(TeO6)2
_symmetry_space_group_name_H-M   'P 1'
_cell_length_a   5.44410979
_cell_length_b   10.88422235
_cell_length_c   9.59017525
_cell_angle_alpha   28.39761596
_cell_angle_beta   51.57503019
_cell_angle_gamma   56.82444048
_symmetry_Int_Tables_number   1
_chemical_formula_structural   Li4NbFe(TeO6)2
_chemical_formula_sum   'Li4 Nb1 Fe1 Te2 O12'
_cell_volume   211.72741758
_cell_formula_units_Z   1
loop_
 _symmetry_equiv_pos_site_id
 _symmetry_equiv_pos_as_xyz
  1  'x, y, z'
loop_
 _atom_site_type_symbol
 _atom_site_label
 _atom_site_symmetry_multiplicity
 _atom_site_fract_x
 _atom_site_fract_y
 _atom_site_fract_z
 _atom_site_occupancy
  Li  Li0  1  0.308487  0.998501  0.264081  1
  Li  Li1  1  0.253053  0.499126  0.301319  1
  Li  Li2  1  0.781461  0.995806  0.810254  1
  Li  Li3  1  0.770231  0.503501  0.745305  1
  Nb  Nb4  1  0.994138  0.501214  0.004667  1
  Fe  Fe5  1  0.012559  0.999129  0.002542  1
  Te  Te6  1  0.503304  0.001488  0.498912  1
  Te  Te7  1  0.497980  0.500503  0.502345  1
  O  O8  1  0.379539  0.306313  0.123705  1
  O  O9  1  0.250378  0.125502  0.613396  1
  O  O10  1  0.138147  0.325819  0.723352  1
  O  O11  1  0.878920  0.181926  0.247194  1
  O  O12  1  0.380835  0.793025  0.135906  1
  O  O13  1  0.743171  0.372648  0.376931  1
  O  O14  1  0.239325  0.624105  0.624665  1
  O  O15  1  0.628097  0.193058  0.857567  1
  O  O16  1  0.124465  0.821364  0.737818  1
  O  O17  1  0.857830  0.693550  0.242772  1
  O  O18  1  0.714297  0.878420  0.382382  1
  O  O19  1  0.614985  0.685002  0.876085  1
