# generated using pymatgen
data_Mn6O5F7
_symmetry_space_group_name_H-M   'P 1'
_cell_length_a   4.78559892
_cell_length_b   7.87064678
_cell_length_c   5.71061246
_cell_angle_alpha   93.88911825
_cell_angle_beta   93.91882036
_cell_angle_gamma   87.51372851
_symmetry_Int_Tables_number   1
_chemical_formula_structural   Mn6O5F7
_chemical_formula_sum   'Mn6 O5 F7'
_cell_volume   213.93521139
_cell_formula_units_Z   1
loop_
 _symmetry_equiv_pos_site_id
 _symmetry_equiv_pos_as_xyz
  1  'x, y, z'
loop_
 _atom_site_type_symbol
 _atom_site_label
 _atom_site_symmetry_multiplicity
 _atom_site_fract_x
 _atom_site_fract_y
 _atom_site_fract_z
 _atom_site_occupancy
  Mn  Mn0  1  0.510577  0.998666  0.515066  1
  Mn  Mn1  1  0.522927  0.676655  0.149244  1
  Mn  Mn2  1  0.488886  0.331187  0.824972  1
  Mn  Mn3  1  0.994648  0.670405  0.673422  1
  Mn  Mn4  1  0.024926  0.327502  0.344039  1
  Mn  Mn5  1  0.962816  0.995892  0.994126  1
  O  O6  1  0.807892  0.773660  0.956898  1
  O  O7  1  0.691050  0.105343  0.800099  1
  O  O8  1  0.697656  0.771229  0.457500  1
  O  O9  1  0.304912  0.563910  0.872536  1
  O  O10  1  0.317137  0.225575  0.539780  1
  F  F11  1  0.811649  0.434127  0.627381  1
  F  F12  1  0.798797  0.103149  0.302324  1
  F  F13  1  0.700596  0.420192  0.127751  1
  F  F14  1  0.286728  0.912914  0.205730  1
  F  F15  1  0.200326  0.573335  0.371335  1
  F  F16  1  0.179046  0.216274  0.033928  1
  F  F17  1  0.199432  0.899987  0.703869  1
