# generated using pymatgen
data_Li12V3CrP4(CO7)4
_symmetry_space_group_name_H-M   'P 1'
_cell_length_a   8.54037420
_cell_length_b   10.00941826
_cell_length_c   6.58877538
_cell_angle_alpha   90.00000000
_cell_angle_beta   90.00000000
_cell_angle_gamma   85.01593650
_symmetry_Int_Tables_number   1
_chemical_formula_structural   Li12V3CrP4(CO7)4
_chemical_formula_sum   'Li12 V3 Cr1 P4 C4 O28'
_cell_volume   561.10639305
_cell_formula_units_Z   1
loop_
 _symmetry_equiv_pos_site_id
 _symmetry_equiv_pos_as_xyz
  1  'x, y, z'
loop_
 _atom_site_type_symbol
 _atom_site_label
 _atom_site_symmetry_multiplicity
 _atom_site_fract_x
 _atom_site_fract_y
 _atom_site_fract_z
 _atom_site_occupancy
  Li  Li0  1  0.101641  0.381153  0.250000  1
  Li  Li1  1  0.095634  0.884156  0.250000  1
  Li  Li2  1  0.278984  0.124610  0.026527  1
  Li  Li3  1  0.278984  0.124610  0.473473  1
  Li  Li4  1  0.277167  0.624659  0.028334  1
  Li  Li5  1  0.277167  0.624659  0.471666  1
  Li  Li6  1  0.721993  0.374405  0.522850  1
  Li  Li7  1  0.721993  0.374405  0.977150  1
  Li  Li8  1  0.721723  0.876009  0.525709  1
  Li  Li9  1  0.721723  0.876009  0.974291  1
  Li  Li10  1  0.903410  0.116156  0.750000  1
  Li  Li11  1  0.906186  0.616764  0.750000  1
  V  V12  1  0.329247  0.395511  0.750000  1
  V  V13  1  0.328370  0.896811  0.750000  1
  V  V14  1  0.670264  0.103063  0.250000  1
  Cr  Cr15  1  0.665963  0.607614  0.250000  1
  P  P16  1  0.412600  0.359319  0.250000  1
  P  P17  1  0.408177  0.861757  0.250000  1
  P  P18  1  0.588805  0.139946  0.750000  1
  P  P19  1  0.586997  0.640924  0.750000  1
  C  C20  1  0.035433  0.348558  0.750000  1
  C  C21  1  0.035196  0.848586  0.750000  1
  C  C22  1  0.963591  0.151070  0.250000  1
  C  C23  1  0.969356  0.647970  0.250000  1
  O  O24  1  0.075085  0.471244  0.750000  1
  O  O25  1  0.109307  0.178586  0.250000  1
  O  O26  1  0.074039  0.971615  0.750000  1
  O  O27  1  0.148454  0.251781  0.750000  1
  O  O28  1  0.112749  0.683011  0.250000  1
  O  O29  1  0.148459  0.752261  0.750000  1
  O  O30  1  0.309803  0.412183  0.067303  1
  O  O31  1  0.309803  0.412183  0.432697  1
  O  O32  1  0.307341  0.916979  0.066854  1
  O  O33  1  0.307341  0.916979  0.433146  1
  O  O34  1  0.422664  0.089308  0.750000  1
  O  O35  1  0.431070  0.202404  0.250000  1
  O  O36  1  0.421839  0.589103  0.750000  1
  O  O37  1  0.421587  0.705794  0.250000  1
  O  O38  1  0.568875  0.296700  0.750000  1
  O  O39  1  0.578507  0.410147  0.250000  1
  O  O40  1  0.567971  0.797397  0.750000  1
  O  O41  1  0.576650  0.908709  0.250000  1
  O  O42  1  0.691576  0.087019  0.932636  1
  O  O43  1  0.691576  0.087019  0.567364  1
  O  O44  1  0.688803  0.588766  0.564616  1
  O  O45  1  0.688803  0.588766  0.935384  1
  O  O46  1  0.850407  0.247081  0.250000  1
  O  O47  1  0.889984  0.321512  0.750000  1
  O  O48  1  0.852177  0.741581  0.250000  1
  O  O49  1  0.924884  0.028004  0.250000  1
  O  O50  1  0.889887  0.821036  0.750000  1
  O  O51  1  0.939749  0.524106  0.250000  1
