# generated using pymatgen
data_LiV(PO3)4
_symmetry_space_group_name_H-M   'P 1'
_cell_length_a   14.34867718
_cell_length_b   8.87910274
_cell_length_c   7.14700726
_cell_angle_alpha   90.00000000
_cell_angle_beta   91.48023272
_cell_angle_gamma   90.00000000
_symmetry_Int_Tables_number   1
_chemical_formula_structural   LiV(PO3)4
_chemical_formula_sum   'Li4 V4 P16 O48'
_cell_volume   910.24901914
_cell_formula_units_Z   4
loop_
 _symmetry_equiv_pos_site_id
 _symmetry_equiv_pos_as_xyz
  1  'x, y, z'
loop_
 _atom_site_type_symbol
 _atom_site_label
 _atom_site_symmetry_multiplicity
 _atom_site_fract_x
 _atom_site_fract_y
 _atom_site_fract_z
 _atom_site_occupancy
  Li  Li0  1  0.119881  0.533436  0.526862  1
  Li  Li1  1  0.380119  0.033436  0.973138  1
  Li  Li2  1  0.619881  0.966564  0.026862  1
  Li  Li3  1  0.880119  0.466564  0.473138  1
  V  V4  1  0.157637  0.749375  0.003913  1
  V  V5  1  0.342363  0.249375  0.496087  1
  V  V6  1  0.657637  0.750625  0.503913  1
  V  V7  1  0.842363  0.250625  0.996087  1
  P  P8  1  0.041338  0.255929  0.255641  1
  P  P9  1  0.058875  0.330799  0.863482  1
  P  P10  1  0.180745  0.075988  0.756154  1
  P  P11  1  0.176541  0.004086  0.358193  1
  P  P12  1  0.319255  0.575988  0.743846  1
  P  P13  1  0.323459  0.504086  0.141807  1
  P  P14  1  0.441125  0.830799  0.636518  1
  P  P15  1  0.458662  0.755929  0.244359  1
  P  P16  1  0.541338  0.244071  0.755641  1
  P  P17  1  0.558875  0.169201  0.363482  1
  P  P18  1  0.676541  0.495914  0.858193  1
  P  P19  1  0.680745  0.424012  0.256154  1
  P  P20  1  0.823459  0.995914  0.641807  1
  P  P21  1  0.819255  0.924012  0.243846  1
  P  P22  1  0.941125  0.669201  0.136518  1
  P  P23  1  0.958662  0.744071  0.744359  1
  O  O24  1  0.046625  0.662268  0.143815  1
  O  O25  1  0.058921  0.776741  0.799804  1
  O  O26  1  0.060428  0.356395  0.417774  1
  O  O27  1  0.084271  0.165794  0.779902  1
  O  O28  1  0.084885  0.090292  0.285240  1
  O  O29  1  0.096871  0.316380  0.077838  1
  O  O30  1  0.110862  0.456840  0.779757  1
  O  O31  1  0.155811  0.974660  0.575650  1
  O  O32  1  0.175736  0.853851  0.264937  1
  O  O33  1  0.197663  0.973126  0.921859  1
  O  O34  1  0.242890  0.687722  0.783095  1
  O  O35  1  0.237316  0.599685  0.155370  1
  O  O36  1  0.257110  0.187722  0.716905  1
  O  O37  1  0.262684  0.099685  0.344630  1
  O  O38  1  0.302337  0.473126  0.578141  1
  O  O39  1  0.344189  0.474660  0.924350  1
  O  O40  1  0.324264  0.353851  0.235063  1
  O  O41  1  0.389138  0.956840  0.720243  1
  O  O42  1  0.403129  0.816380  0.422162  1
  O  O43  1  0.415729  0.665794  0.720098  1
  O  O44  1  0.415115  0.590292  0.214760  1
  O  O45  1  0.439572  0.856395  0.082226  1
  O  O46  1  0.441079  0.276741  0.700196  1
  O  O47  1  0.453375  0.162268  0.356185  1
  O  O48  1  0.546625  0.837732  0.643815  1
  O  O49  1  0.558921  0.723259  0.299804  1
  O  O50  1  0.560428  0.143605  0.917774  1
  O  O51  1  0.584885  0.409708  0.785240  1
  O  O52  1  0.584271  0.334206  0.279902  1
  O  O53  1  0.596871  0.183620  0.577838  1
  O  O54  1  0.610862  0.043160  0.279757  1
  O  O55  1  0.675736  0.646149  0.764937  1
  O  O56  1  0.655811  0.525340  0.075650  1
  O  O57  1  0.697663  0.526874  0.421859  1
  O  O58  1  0.737316  0.900315  0.655370  1
  O  O59  1  0.742890  0.812278  0.283095  1
  O  O60  1  0.762684  0.400315  0.844630  1
  O  O61  1  0.757110  0.312278  0.216905  1
  O  O62  1  0.802337  0.026874  0.078141  1
  O  O63  1  0.824264  0.146149  0.735063  1
  O  O64  1  0.844189  0.025340  0.424350  1
  O  O65  1  0.889138  0.543160  0.220243  1
  O  O66  1  0.903129  0.683620  0.922162  1
  O  O67  1  0.915115  0.909708  0.714760  1
  O  O68  1  0.915729  0.834206  0.220098  1
  O  O69  1  0.939572  0.643605  0.582226  1
  O  O70  1  0.941079  0.223259  0.200196  1
  O  O71  1  0.953375  0.337732  0.856185  1
