# generated using pymatgen
data_ErCrHO5
_symmetry_space_group_name_H-M   'P 1'
_cell_length_a   8.20244362
_cell_length_b   11.59018777
_cell_length_c   8.23929834
_cell_angle_alpha   90.00000000
_cell_angle_beta   93.45601834
_cell_angle_gamma   90.00000000
_symmetry_Int_Tables_number   1
_chemical_formula_structural   ErCrHO5
_chemical_formula_sum   'Er8 Cr8 H8 O40'
_cell_volume   781.86795262
_cell_formula_units_Z   8
loop_
 _symmetry_equiv_pos_site_id
 _symmetry_equiv_pos_as_xyz
  1  'x, y, z'
loop_
 _atom_site_type_symbol
 _atom_site_label
 _atom_site_symmetry_multiplicity
 _atom_site_fract_x
 _atom_site_fract_y
 _atom_site_fract_z
 _atom_site_occupancy
  Er  Er0  1  0.084433  0.922625  0.323269  1
  Er  Er1  1  0.584433  0.577375  0.823269  1
  Er  Er2  1  0.915567  0.077375  0.676731  1
  Er  Er3  1  0.415567  0.422625  0.176731  1
  Er  Er4  1  0.634709  0.938089  0.348455  1
  Er  Er5  1  0.134709  0.561911  0.848455  1
  Er  Er6  1  0.365291  0.061911  0.651545  1
  Er  Er7  1  0.865291  0.438089  0.151545  1
  Cr  Cr8  1  0.867553  0.670797  0.500757  1
  Cr  Cr9  1  0.367553  0.829203  0.000757  1
  Cr  Cr10  1  0.132447  0.329203  0.499243  1
  Cr  Cr11  1  0.632447  0.170797  0.999243  1
  Cr  Cr12  1  0.865811  0.812554  0.959408  1
  Cr  Cr13  1  0.365811  0.687446  0.459408  1
  Cr  Cr14  1  0.134189  0.187446  0.040592  1
  Cr  Cr15  1  0.634189  0.312554  0.540592  1
  H  H16  1  0.890980  0.103799  0.323571  1
  H  H17  1  0.390980  0.396201  0.823571  1
  H  H18  1  0.109020  0.896201  0.676429  1
  H  H19  1  0.609020  0.603799  0.176429  1
  H  H20  1  0.637024  0.927371  0.695576  1
  H  H21  1  0.137024  0.572629  0.195576  1
  H  H22  1  0.362976  0.072629  0.304424  1
  H  H23  1  0.862976  0.427371  0.804424  1
  O  O24  1  0.845190  0.809965  0.438392  1
  O  O25  1  0.345190  0.690035  0.938392  1
  O  O26  1  0.154810  0.190035  0.561608  1
  O  O27  1  0.654810  0.309965  0.061608  1
  O  O28  1  0.016413  0.666005  0.644896  1
  O  O29  1  0.516413  0.833995  0.144896  1
  O  O30  1  0.983587  0.333995  0.355104  1
  O  O31  1  0.483587  0.166005  0.855104  1
  O  O32  1  0.701536  0.627085  0.585351  1
  O  O33  1  0.201536  0.872915  0.085351  1
  O  O34  1  0.298464  0.372915  0.414649  1
  O  O35  1  0.798464  0.127085  0.914649  1
  O  O36  1  0.899869  0.584742  0.343397  1
  O  O37  1  0.399869  0.915258  0.843397  1
  O  O38  1  0.100131  0.415258  0.656603  1
  O  O39  1  0.600131  0.084742  0.156603  1
  O  O40  1  0.851586  0.881362  0.138789  1
  O  O41  1  0.351586  0.618638  0.638789  1
  O  O42  1  0.148414  0.118638  0.861211  1
  O  O43  1  0.648414  0.381362  0.361211  1
  O  O44  1  0.993630  0.702997  0.983647  1
  O  O45  1  0.493630  0.797003  0.483647  1
  O  O46  1  0.006370  0.297003  0.016353  1
  O  O47  1  0.506370  0.202997  0.516353  1
  O  O48  1  0.687222  0.757707  0.889213  1
  O  O49  1  0.187222  0.742293  0.389213  1
  O  O50  1  0.312778  0.242293  0.110787  1
  O  O51  1  0.812778  0.257707  0.610787  1
  O  O52  1  0.925559  0.905481  0.820726  1
  O  O53  1  0.425559  0.594519  0.320726  1
  O  O54  1  0.074441  0.094519  0.179274  1
  O  O55  1  0.574441  0.405481  0.679274  1
  O  O56  1  0.871682  0.042746  0.401654  1
  O  O57  1  0.371682  0.457254  0.901654  1
  O  O58  1  0.128318  0.957254  0.598346  1
  O  O59  1  0.628318  0.542746  0.098346  1
  O  O60  1  0.641945  0.994628  0.624125  1
  O  O61  1  0.141945  0.505372  0.124125  1
  O  O62  1  0.358055  0.005372  0.375875  1
  O  O63  1  0.858055  0.494628  0.875875  1
