# generated using pymatgen
data_NaLi5Fe2P2(CO7)2
_symmetry_space_group_name_H-M   'P 1'
_cell_length_a   8.62378891
_cell_length_b   13.09003797
_cell_length_c   5.01866708
_cell_angle_alpha   89.99911029
_cell_angle_beta   87.45933964
_cell_angle_gamma   90.49617363
_symmetry_Int_Tables_number   1
_chemical_formula_structural   NaLi5Fe2P2(CO7)2
_chemical_formula_sum   'Na2 Li10 Fe4 P4 C4 O28'
_cell_volume   565.95770454
_cell_formula_units_Z   2
loop_
 _symmetry_equiv_pos_site_id
 _symmetry_equiv_pos_as_xyz
  1  'x, y, z'
loop_
 _atom_site_type_symbol
 _atom_site_label
 _atom_site_symmetry_multiplicity
 _atom_site_fract_x
 _atom_site_fract_y
 _atom_site_fract_z
 _atom_site_occupancy
  Na  Na0  1  0.086230  0.622589  0.754376  1
  Na  Na1  1  0.254253  0.000868  0.247618  1
  Li  Li2  1  0.084278  0.131608  0.751690  1
  Li  Li3  1  0.270097  0.244602  0.239821  1
  Li  Li4  1  0.266242  0.502045  0.237503  1
  Li  Li5  1  0.271997  0.738817  0.226538  1
  Li  Li6  1  0.731080  0.258838  0.761895  1
  Li  Li7  1  0.730348  0.489568  0.771021  1
  Li  Li8  1  0.734510  0.755955  0.770762  1
  Li  Li9  1  0.734199  0.995549  0.756708  1
  Li  Li10  1  0.907840  0.870395  0.251267  1
  Li  Li11  1  0.914826  0.374763  0.249394  1
  Fe  Fe12  1  0.348457  0.373798  0.787468  1
  Fe  Fe13  1  0.352681  0.873955  0.774145  1
  Fe  Fe14  1  0.653155  0.125729  0.211975  1
  Fe  Fe15  1  0.650112  0.624613  0.223901  1
  P  P16  1  0.417456  0.624179  0.708330  1
  P  P17  1  0.409895  0.128104  0.701937  1
  P  P18  1  0.590849  0.373607  0.294362  1
  P  P19  1  0.592076  0.874137  0.290352  1
  C  C20  1  0.042544  0.376684  0.720198  1
  C  C21  1  0.042077  0.872405  0.732573  1
  C  C22  1  0.950643  0.624695  0.269879  1
  C  C23  1  0.954243  0.130259  0.283509  1
  O  O24  1  0.098613  0.140624  0.339042  1
  O  O25  1  0.100913  0.623489  0.280542  1
  O  O26  1  0.084416  0.873437  0.977336  1
  O  O27  1  0.087985  0.377297  0.963445  1
  O  O28  1  0.147801  0.867416  0.539597  1
  O  O29  1  0.144791  0.378803  0.521818  1
  O  O30  1  0.309647  0.032323  0.777746  1
  O  O31  1  0.310749  0.218864  0.816936  1
  O  O32  1  0.324372  0.528744  0.810271  1
  O  O33  1  0.321929  0.716244  0.814623  1
  O  O34  1  0.427453  0.137815  0.392735  1
  O  O35  1  0.424461  0.624963  0.395010  1
  O  O36  1  0.424448  0.373827  0.191104  1
  O  O37  1  0.427569  0.866537  0.181633  1
  O  O38  1  0.574153  0.124924  0.814210  1
  O  O39  1  0.585109  0.625407  0.806372  1
  O  O40  1  0.578642  0.373246  0.606140  1
  O  O41  1  0.578019  0.876499  0.602292  1
  O  O42  1  0.689357  0.280996  0.190715  1
  O  O43  1  0.689197  0.466665  0.190655  1
  O  O44  1  0.696832  0.783885  0.195741  1
  O  O45  1  0.684053  0.970022  0.185889  1
  O  O46  1  0.849422  0.123692  0.478808  1
  O  O47  1  0.861246  0.624551  0.484897  1
  O  O48  1  0.912018  0.126121  0.038056  1
  O  O49  1  0.885047  0.625871  0.041401  1
  O  O50  1  0.896444  0.875618  0.674524  1
  O  O51  1  0.895226  0.374355  0.671240  1
