# generated using pymatgen
data_Cs5YO4
_symmetry_space_group_name_H-M   'P 1'
_cell_length_a   9.94427180
_cell_length_b   8.61926099
_cell_length_c   7.00746815
_cell_angle_alpha   90.00000000
_cell_angle_beta   90.00000000
_cell_angle_gamma   90.00000000
_symmetry_Int_Tables_number   1
_chemical_formula_structural   Cs5YO4
_chemical_formula_sum   'Cs10 Y2 O8'
_cell_volume   600.62603012
_cell_formula_units_Z   2
loop_
 _symmetry_equiv_pos_site_id
 _symmetry_equiv_pos_as_xyz
  1  'x, y, z'
loop_
 _atom_site_type_symbol
 _atom_site_label
 _atom_site_symmetry_multiplicity
 _atom_site_fract_x
 _atom_site_fract_y
 _atom_site_fract_z
 _atom_site_occupancy
  Cs  Cs0  1  0.062855  0.013008  0.744962  1
  Cs  Cs1  1  0.062855  0.486992  0.744962  1
  Cs  Cs2  1  0.250000  0.750000  0.183177  1
  Cs  Cs3  1  0.437145  0.013008  0.744962  1
  Cs  Cs4  1  0.437145  0.486992  0.744962  1
  Cs  Cs5  1  0.562855  0.986992  0.255038  1
  Cs  Cs6  1  0.562855  0.513008  0.255038  1
  Cs  Cs7  1  0.750000  0.250000  0.816823  1
  Cs  Cs8  1  0.937145  0.986992  0.255038  1
  Cs  Cs9  1  0.937145  0.513008  0.255038  1
  Y  Y10  1  0.250000  0.250000  0.222422  1
  Y  Y11  1  0.750000  0.750000  0.777578  1
  O  O12  1  0.063426  0.250000  0.053609  1
  O  O13  1  0.250000  0.035047  0.386969  1
  O  O14  1  0.250000  0.464953  0.386969  1
  O  O15  1  0.436574  0.250000  0.053609  1
  O  O16  1  0.563426  0.750000  0.946391  1
  O  O17  1  0.750000  0.964953  0.613031  1
  O  O18  1  0.750000  0.535047  0.613031  1
  O  O19  1  0.936574  0.750000  0.946391  1
