# generated using pymatgen
data_Na4GeH28(Se2O7)2
_symmetry_space_group_name_H-M   'P 1'
_cell_length_a   8.58518909
_cell_length_b   8.58518909
_cell_length_c   8.21802523
_cell_angle_alpha   76.09692795
_cell_angle_beta   103.90307205
_cell_angle_gamma   97.46020574
_symmetry_Int_Tables_number   1
_chemical_formula_structural   Na4GeH28(Se2O7)2
_chemical_formula_sum   'Na4 Ge1 H28 Se4 O14'
_cell_volume   569.06941891
_cell_formula_units_Z   1
loop_
 _symmetry_equiv_pos_site_id
 _symmetry_equiv_pos_as_xyz
  1  'x, y, z'
loop_
 _atom_site_type_symbol
 _atom_site_label
 _atom_site_symmetry_multiplicity
 _atom_site_fract_x
 _atom_site_fract_y
 _atom_site_fract_z
 _atom_site_occupancy
  Na  Na0  1  0.135668  0.427932  0.408203  1
  Na  Na1  1  0.427932  0.135668  0.591797  1
  Na  Na2  1  0.413483  0.744732  0.684539  1
  Na  Na3  1  0.744732  0.413483  0.315461  1
  Ge  Ge4  1  0.004042  0.004042  0.000000  1
  H  H5  1  0.624055  0.452843  0.910117  1
  H  H6  1  0.452843  0.624055  0.089883  1
  H  H7  1  0.710034  0.613406  0.817420  1
  H  H8  1  0.613406  0.710034  0.182580  1
  H  H9  1  0.199854  0.496838  0.915192  1
  H  H10  1  0.496838  0.199854  0.084808  1
  H  H11  1  0.180939  0.679168  0.889236  1
  H  H12  1  0.679168  0.180939  0.110764  1
  H  H13  1  0.614041  0.943847  0.941917  1
  H  H14  1  0.943847  0.614041  0.058083  1
  H  H15  1  0.431995  0.955786  0.933926  1
  H  H16  1  0.955786  0.431995  0.066074  1
  H  H17  1  0.156196  0.942322  0.430781  1
  H  H18  1  0.942322  0.156196  0.569219  1
  H  H19  1  0.116049  0.910926  0.614822  1
  H  H20  1  0.910926  0.116049  0.385178  1
  H  H21  1  0.359863  0.394863  0.743227  1
  H  H22  1  0.394863  0.359863  0.256773  1
  H  H23  1  0.203554  0.282253  0.758395  1
  H  H24  1  0.282253  0.203554  0.241605  1
  H  H25  1  0.742074  0.300533  0.657459  1
  H  H26  1  0.300533  0.742074  0.342541  1
  H  H27  1  0.621368  0.424574  0.637148  1
  H  H28  1  0.424574  0.621368  0.362852  1
  H  H29  1  0.682423  0.927507  0.558289  1
  H  H30  1  0.927507  0.682423  0.441711  1
  H  H31  1  0.544016  0.942281  0.389186  1
  H  H32  1  0.942281  0.544016  0.610814  1
  Se  Se33  1  0.981151  0.280425  0.864255  1
  Se  Se34  1  0.280425  0.981151  0.135745  1
  Se  Se35  1  0.930465  0.836280  0.793876  1
  Se  Se36  1  0.836280  0.930465  0.206124  1
  O  O37  1  0.611216  0.539666  0.804746  1
  O  O38  1  0.539666  0.611216  0.195254  1
  O  O39  1  0.263481  0.602371  0.907058  1
  O  O40  1  0.602371  0.263481  0.092942  1
  O  O41  1  0.506620  0.941606  0.863942  1
  O  O42  1  0.941606  0.506620  0.136058  1
  O  O43  1  0.205960  0.927503  0.553841  1
  O  O44  1  0.927503  0.205960  0.446159  1
  O  O45  1  0.291767  0.310644  0.693414  1
  O  O46  1  0.310644  0.291767  0.306586  1
  O  O47  1  0.641377  0.342761  0.579391  1
  O  O48  1  0.342761  0.641377  0.420609  1
  O  O49  1  0.567877  0.945565  0.511152  1
  O  O50  1  0.945565  0.567877  0.488848  1
