# generated using pymatgen
data_Ba2Ti6N2O11
_symmetry_space_group_name_H-M   'P 1'
_cell_length_a   3.94776916
_cell_length_b   7.95256473
_cell_length_c   9.24568187
_cell_angle_alpha   81.55546217
_cell_angle_beta   89.95815392
_cell_angle_gamma   75.63739224
_symmetry_Int_Tables_number   1
_chemical_formula_structural   Ba2Ti6N2O11
_chemical_formula_sum   'Ba2 Ti6 N2 O11'
_cell_volume   277.95328515
_cell_formula_units_Z   1
loop_
 _symmetry_equiv_pos_site_id
 _symmetry_equiv_pos_as_xyz
  1  'x, y, z'
loop_
 _atom_site_type_symbol
 _atom_site_label
 _atom_site_symmetry_multiplicity
 _atom_site_fract_x
 _atom_site_fract_y
 _atom_site_fract_z
 _atom_site_occupancy
  Ba  Ba0  1  0.552149  0.893561  0.765456  1
  Ba  Ba1  1  0.447302  0.096897  0.226613  1
  Ti  Ti2  1  0.114738  0.761436  0.088832  1
  Ti  Ti3  1  0.167535  0.663605  0.440315  1
  Ti  Ti4  1  0.248373  0.501472  0.779065  1
  Ti  Ti5  1  0.762406  0.472867  0.233538  1
  Ti  Ti6  1  0.829616  0.345199  0.573164  1
  Ti  Ti7  1  0.872848  0.249327  0.898887  1
  N  N8  1  0.761389  0.475106  0.754914  1
  N  N9  1  0.359664  0.277832  0.898675  1
  O  O10  1  0.072097  0.852765  0.294275  1
  O  O11  1  0.124899  0.750033  0.608875  1
  O  O12  1  0.162574  0.671465  0.911548  1
  O  O13  1  0.637665  0.722522  0.114140  1
  O  O14  1  0.698930  0.600310  0.428183  1
  O  O15  1  0.239531  0.519002  0.239081  1
  O  O16  1  0.298434  0.402068  0.569618  1
  O  O17  1  0.832876  0.331770  0.095405  1
  O  O18  1  0.867225  0.269053  0.383472  1
  O  O19  1  0.927792  0.141844  0.703180  1
  O  O20  1  0.002266  0.993147  0.003553  1
