# generated using pymatgen
data_Co3(O2F)2
_symmetry_space_group_name_H-M   'P 1'
_cell_length_a   7.03701366
_cell_length_b   5.34358369
_cell_length_c   5.34358369
_cell_angle_alpha   68.94053298
_cell_angle_beta   71.26150384
_cell_angle_gamma   71.26150384
_symmetry_Int_Tables_number   1
_chemical_formula_structural   Co3(O2F)2
_chemical_formula_sum   'Co6 O8 F4'
_cell_volume   172.69145603
_cell_formula_units_Z   2
loop_
 _symmetry_equiv_pos_site_id
 _symmetry_equiv_pos_as_xyz
  1  'x, y, z'
loop_
 _atom_site_type_symbol
 _atom_site_label
 _atom_site_symmetry_multiplicity
 _atom_site_fract_x
 _atom_site_fract_y
 _atom_site_fract_z
 _atom_site_occupancy
  Co  Co0  1  0.835053  0.670962  0.670962  1
  Co  Co1  1  0.331437  0.648952  0.648952  1
  Co  Co2  1  0.666667  0.333333  0.333333  1
  Co  Co3  1  0.166667  0.333333  0.333333  1
  Co  Co4  1  0.498280  0.995705  0.995705  1
  Co  Co5  1  0.001896  0.017715  0.017715  1
  O  O6  1  0.329435  0.356504  0.966764  1
  O  O7  1  0.666667  0.028993  0.637674  1
  O  O8  1  0.960092  0.243589  0.243589  1
  O  O9  1  0.373241  0.423078  0.423078  1
  O  O10  1  0.329435  0.966764  0.356504  1
  O  O11  1  0.666667  0.637674  0.028993  1
  O  O12  1  0.003898  0.310163  0.699902  1
  O  O13  1  0.003898  0.699902  0.310163  1
  F  F14  1  0.642431  0.573493  0.573493  1
  F  F15  1  0.309273  0.893538  0.893538  1
  F  F16  1  0.024061  0.773128  0.773128  1
  F  F17  1  0.690902  0.093174  0.093174  1
