# generated using pymatgen
data_Na2TiCr(PO4)3
_symmetry_space_group_name_H-M   'P 1'
_cell_length_a   8.87236190
_cell_length_b   8.87974218
_cell_length_c   8.87974232
_cell_angle_alpha   58.73911387
_cell_angle_beta   58.64410554
_cell_angle_gamma   58.64410341
_symmetry_Int_Tables_number   1
_chemical_formula_structural   Na2TiCr(PO4)3
_chemical_formula_sum   'Na4 Ti2 Cr2 P6 O24'
_cell_volume   479.70940298
_cell_formula_units_Z   2
loop_
 _symmetry_equiv_pos_site_id
 _symmetry_equiv_pos_as_xyz
  1  'x, y, z'
loop_
 _atom_site_type_symbol
 _atom_site_label
 _atom_site_symmetry_multiplicity
 _atom_site_fract_x
 _atom_site_fract_y
 _atom_site_fract_z
 _atom_site_occupancy
  Na  Na0  1  0.007547  -0.000018  0.994994  1
  Na  Na1  1  0.492453  0.505006  0.500018  1
  Na  Na2  1  0.616670  0.248831  0.884198  1
  Na  Na3  1  0.883330  0.615802  0.251169  1
  Ti  Ti4  1  0.144162  0.141277  0.143324  1
  Ti  Ti5  1  0.355838  0.356676  0.358723  1
  Cr  Cr6  1  0.643890  0.650374  0.647711  1
  Cr  Cr7  1  0.856110  0.852289  0.849626  1
  P  P8  1  0.036373  0.750114  0.462840  1
  P  P9  1  0.463627  0.037160  0.749886  1
  P  P10  1  0.750000  0.462618  0.037382  1
  P  P11  1  0.250000  0.541003  0.958997  1
  P  P12  1  0.535695  0.960133  0.254342  1
  P  P13  1  0.964305  0.245658  0.539867  1
  O  O14  1  0.133537  0.283128  0.504321  1
  O  O15  1  0.279295  0.506397  0.133766  1
  O  O16  1  0.065695  0.922348  0.279844  1
  O  O17  1  0.504918  0.135038  0.279475  1
  O  O18  1  0.013075  0.777945  0.629631  1
  O  O19  1  0.219991  0.577884  0.433540  1
  O  O20  1  0.280009  0.066460  0.922116  1
  O  O21  1  0.434305  0.220156  0.577652  1
  O  O22  1  0.577461  0.434313  0.220180  1
  O  O23  1  0.220705  0.366234  0.993603  1
  O  O24  1  0.075631  0.719471  0.942230  1
  O  O25  1  0.366463  0.995679  0.216872  1
  O  O26  1  0.628266  0.019130  0.780471  1
  O  O27  1  0.922539  0.279820  0.065687  1
  O  O28  1  0.780125  0.628499  0.016596  1
  O  O29  1  0.424369  0.557770  0.780529  1
  O  O30  1  0.565294  0.776507  0.420237  1
  O  O31  1  0.719351  0.937851  0.080640  1
  O  O32  1  0.780649  0.419360  0.562149  1
  O  O33  1  0.995082  0.220525  0.364962  1
  O  O34  1  0.486925  0.870369  0.722055  1
  O  O35  1  0.934706  0.079763  0.723493  1
  O  O36  1  0.719875  0.483404  0.871501  1
  O  O37  1  0.871734  0.719529  0.480870  1
