# generated using pymatgen
data_Mn3SbO8
_symmetry_space_group_name_H-M   'P 1'
_cell_length_a   10.32057831
_cell_length_b   10.32059541
_cell_length_c   14.55634837
_cell_angle_alpha   19.89235036
_cell_angle_beta   19.89387942
_cell_angle_gamma   34.31490096
_symmetry_Int_Tables_number   1
_chemical_formula_structural   Mn3SbO8
_chemical_formula_sum   'Mn3 Sb1 O8'
_cell_volume   155.12588803
_cell_formula_units_Z   1
loop_
 _symmetry_equiv_pos_site_id
 _symmetry_equiv_pos_as_xyz
  1  'x, y, z'
loop_
 _atom_site_type_symbol
 _atom_site_label
 _atom_site_symmetry_multiplicity
 _atom_site_fract_x
 _atom_site_fract_y
 _atom_site_fract_z
 _atom_site_occupancy
  Mn  Mn0  1  0.000138  0.500047  -0.000129  1
  Mn  Mn1  1  0.500081  -0.000026  -0.000068  1
  Mn  Mn2  1  0.499878  0.500038  0.000086  1
  Sb  Sb3  1  0.000023  0.000118  -0.000085  1
  O  O4  1  0.000245  0.000265  0.272825  1
  O  O5  1  0.996038  0.499133  0.268248  1
  O  O6  1  0.499148  0.996094  0.268216  1
  O  O7  1  0.999696  0.999677  0.727266  1
  O  O8  1  0.500274  0.500300  0.264389  1
  O  O9  1  0.003941  0.500854  0.731752  1
  O  O10  1  0.500806  0.003869  0.731842  1
  O  O11  1  0.499730  0.499630  0.735656  1
