# generated using pymatgen
data_Li2CrFeO4
_symmetry_space_group_name_H-M   'P 1'
_cell_length_a   5.15944727
_cell_length_b   9.90749179
_cell_length_c   2.97296702
_cell_angle_alpha   98.51906554
_cell_angle_beta   90.03585638
_cell_angle_gamma   84.61759309
_symmetry_Int_Tables_number   1
_chemical_formula_structural   Li2CrFeO4
_chemical_formula_sum   'Li4 Cr2 Fe2 O8'
_cell_volume   149.61669618
_cell_formula_units_Z   2
loop_
 _symmetry_equiv_pos_site_id
 _symmetry_equiv_pos_as_xyz
  1  'x, y, z'
loop_
 _atom_site_type_symbol
 _atom_site_label
 _atom_site_symmetry_multiplicity
 _atom_site_fract_x
 _atom_site_fract_y
 _atom_site_fract_z
 _atom_site_occupancy
  Li  Li0  1  0.005289  0.998398  0.005306  1
  Li  Li1  1  0.244385  0.501153  0.254966  1
  Li  Li2  1  0.506414  0.000457  0.508583  1
  Li  Li3  1  0.747539  0.500560  0.748086  1
  Cr  Cr4  1  0.625953  0.250569  0.125828  1
  Cr  Cr5  1  0.373654  0.750574  0.883706  1
  Fe  Fe6  1  0.126144  0.250328  0.625039  1
  Fe  Fe7  1  0.873500  0.750235  0.386541  1
  O  O8  1  0.315246  0.135894  0.071683  1
  O  O9  1  0.062034  0.636164  0.829123  1
  O  O10  1  0.187361  0.863168  0.439513  1
  O  O11  1  0.558319  0.638583  0.327256  1
  O  O12  1  0.439177  0.363176  0.679999  1
  O  O13  1  0.936288  0.364979  0.183412  1
  O  O14  1  0.686012  0.864346  0.942687  1
  O  O15  1  0.812681  0.137795  0.571142  1
