# generated using pymatgen
data_LiV(PO3)3
_symmetry_space_group_name_H-M   'P 1'
_cell_length_a   6.49146057
_cell_length_b   6.49165886
_cell_length_c   9.70472783
_cell_angle_alpha   89.99995995
_cell_angle_beta   90.00056025
_cell_angle_gamma   120.00112150
_symmetry_Int_Tables_number   1
_chemical_formula_structural   LiV(PO3)3
_chemical_formula_sum   'Li2 V2 P6 O18'
_cell_volume   354.16626926
_cell_formula_units_Z   2
loop_
 _symmetry_equiv_pos_site_id
 _symmetry_equiv_pos_as_xyz
  1  'x, y, z'
loop_
 _atom_site_type_symbol
 _atom_site_label
 _atom_site_symmetry_multiplicity
 _atom_site_fract_x
 _atom_site_fract_y
 _atom_site_fract_z
 _atom_site_occupancy
  Li  Li0  1  0.666749  0.333502  0.500000  1
  Li  Li1  1  0.666749  0.333247  0.000001  1
  V  V2  1  0.333312  0.666676  0.999992  1
  V  V3  1  0.333308  0.666632  0.500001  1
  P  P4  1  0.021632  0.746899  0.749999  1
  P  P5  1  0.253100  0.978380  0.250015  1
  P  P6  1  0.021634  0.274735  0.250000  1
  P  P7  1  0.253100  0.274719  0.750013  1
  P  P8  1  0.725261  0.978340  0.749984  1
  P  P9  1  0.725261  0.746920  0.249987  1
  O  O10  1  0.027002  0.633122  0.883722  1
  O  O11  1  0.026992  0.633128  0.616265  1
  O  O12  1  0.366831  0.972958  0.383717  1
  O  O13  1  0.366890  0.973026  0.116258  1
  O  O14  1  0.026994  0.393868  0.116264  1
  O  O15  1  0.027001  0.393881  0.383721  1
  O  O16  1  0.366835  0.393874  0.883719  1
  O  O17  1  0.366890  0.393863  0.616259  1
  O  O18  1  0.606076  0.972911  0.616297  1
  O  O19  1  0.606147  0.972996  0.883756  1
  O  O20  1  0.232816  0.214035  0.250009  1
  O  O21  1  0.232816  0.018780  0.750009  1
  O  O22  1  0.606149  0.633154  0.383754  1
  O  O23  1  0.606076  0.633163  0.116295  1
  O  O24  1  0.785979  0.767184  0.750006  1
  O  O25  1  0.981209  0.767213  0.249977  1
  O  O26  1  0.785981  0.018795  0.250005  1
  O  O27  1  0.981209  0.213995  0.749977  1
