# generated using pymatgen
data_NdZrO3
_symmetry_space_group_name_H-M   'P 1'
_cell_length_a   6.16664527
_cell_length_b   5.85889651
_cell_length_c   8.23480673
_cell_angle_alpha   134.44354426
_cell_angle_beta   90.00833427
_cell_angle_gamma   58.15093040
_symmetry_Int_Tables_number   1
_chemical_formula_structural   NdZrO3
_chemical_formula_sum   'Nd2 Zr2 O6'
_cell_volume   143.11026524
_cell_formula_units_Z   2
loop_
 _symmetry_equiv_pos_site_id
 _symmetry_equiv_pos_as_xyz
  1  'x, y, z'
loop_
 _atom_site_type_symbol
 _atom_site_label
 _atom_site_symmetry_multiplicity
 _atom_site_fract_x
 _atom_site_fract_y
 _atom_site_fract_z
 _atom_site_occupancy
  Nd  Nd0  1  0.544105  0.432064  0.218706  1
  Nd  Nd1  1  0.463385  0.574998  0.787588  1
  Zr  Zr2  1  0.000417  0.506131  0.504452  1
  Zr  Zr3  1  0.004311  0.500201  0.001498  1
  O  O4  1  0.009014  0.997512  0.182978  1
  O  O5  1  0.998432  0.004541  0.821284  1
  O  O6  1  0.503110  0.008767  0.830634  1
  O  O7  1  0.499454  0.003424  0.183988  1
  O  O8  1  0.124379  0.272045  0.638251  1
  O  O9  1  0.872268  0.735830  0.369366  1
