# generated using pymatgen
data_Na3CuBPO7
_symmetry_space_group_name_H-M   'P 1'
_cell_length_a   9.00769509
_cell_length_b   6.48497215
_cell_length_c   5.22212173
_cell_angle_alpha   90.00000000
_cell_angle_beta   88.85557433
_cell_angle_gamma   90.00000000
_symmetry_Int_Tables_number   1
_chemical_formula_structural   Na3CuBPO7
_chemical_formula_sum   'Na6 Cu2 B2 P2 O14'
_cell_volume   304.98757369
_cell_formula_units_Z   2
loop_
 _symmetry_equiv_pos_site_id
 _symmetry_equiv_pos_as_xyz
  1  'x, y, z'
loop_
 _atom_site_type_symbol
 _atom_site_label
 _atom_site_symmetry_multiplicity
 _atom_site_fract_x
 _atom_site_fract_y
 _atom_site_fract_z
 _atom_site_occupancy
  Na  Na0  1  0.081150  0.250000  0.759301  1
  Na  Na1  1  0.258874  0.001066  0.246110  1
  Na  Na2  1  0.258874  0.498934  0.246110  1
  Na  Na3  1  0.741126  0.501066  0.753890  1
  Na  Na4  1  0.741126  0.998934  0.753890  1
  Na  Na5  1  0.918850  0.750000  0.240699  1
  Cu  Cu6  1  0.342305  0.750000  0.774390  1
  Cu  Cu7  1  0.657695  0.250000  0.225610  1
  B  B8  1  0.064875  0.750000  0.736149  1
  B  B9  1  0.935125  0.250000  0.263851  1
  P  P10  1  0.422027  0.250000  0.703195  1
  P  P11  1  0.577973  0.750000  0.296805  1
  O  O12  1  0.084089  0.250000  0.285712  1
  O  O13  1  0.137296  0.750000  0.967827  1
  O  O14  1  0.162855  0.750000  0.527475  1
  O  O15  1  0.320707  0.062678  0.779360  1
  O  O16  1  0.320707  0.437322  0.779360  1
  O  O17  1  0.451947  0.250000  0.407183  1
  O  O18  1  0.430708  0.750000  0.154335  1
  O  O19  1  0.569292  0.250000  0.845665  1
  O  O20  1  0.548053  0.750000  0.592817  1
  O  O21  1  0.679293  0.562678  0.220640  1
  O  O22  1  0.679293  0.937322  0.220640  1
  O  O23  1  0.837145  0.250000  0.472525  1
  O  O24  1  0.862704  0.250000  0.032173  1
  O  O25  1  0.915911  0.750000  0.714288  1
