# generated using pymatgen
data_Na3Li2Fe5(SiO3)10
_symmetry_space_group_name_H-M   'P 1'
_cell_length_a   6.60789149
_cell_length_b   7.45725990
_cell_length_c   22.56542555
_cell_angle_alpha   85.50274747
_cell_angle_beta   86.47107902
_cell_angle_gamma   85.59155716
_symmetry_Int_Tables_number   1
_chemical_formula_structural   Na3Li2Fe5(SiO3)10
_chemical_formula_sum   'Na6 Li4 Fe10 Si20 O60'
_cell_volume   1103.52206961
_cell_formula_units_Z   2
loop_
 _symmetry_equiv_pos_site_id
 _symmetry_equiv_pos_as_xyz
  1  'x, y, z'
loop_
 _atom_site_type_symbol
 _atom_site_label
 _atom_site_symmetry_multiplicity
 _atom_site_fract_x
 _atom_site_fract_y
 _atom_site_fract_z
 _atom_site_occupancy
  Na  Na0  1  0.814767  0.923465  0.891162  1
  Na  Na1  1  0.014775  0.323678  0.691183  1
  Na  Na2  1  0.214879  0.723448  0.491251  1
  Na  Na3  1  0.414891  0.123352  0.291173  1
  Na  Na4  1  0.185514  0.076493  0.108786  1
  Na  Na5  1  0.614565  0.523780  0.091143  1
  Li  Li6  1  0.370122  0.465268  0.904963  1
  Li  Li7  1  0.570040  0.865047  0.705041  1
  Li  Li8  1  0.770115  0.264896  0.505072  1
  Li  Li9  1  0.970037  0.665065  0.305056  1
  Fe  Fe10  1  0.131133  0.162179  0.970067  1
  Fe  Fe11  1  0.069520  0.239954  0.829776  1
  Fe  Fe12  1  0.332356  0.561782  0.770539  1
  Fe  Fe13  1  0.269491  0.639835  0.629895  1
  Fe  Fe14  1  0.532399  0.961809  0.570626  1
  Fe  Fe15  1  0.469625  0.039817  0.430023  1
  Fe  Fe16  1  0.732610  0.361722  0.370737  1
  Fe  Fe17  1  0.670371  0.438408  0.230053  1
  Fe  Fe18  1  0.932050  0.760283  0.170661  1
  Fe  Fe19  1  0.868333  0.840156  0.029594  1
  Si  Si20  1  0.070959  0.927519  0.726963  1
  Si  Si21  1  0.330443  0.871077  0.872936  1
  Si  Si22  1  0.625845  0.221700  0.991169  1
  Si  Si23  1  0.870422  0.527280  0.926982  1
  Si  Si24  1  0.826738  0.621585  0.790902  1
  Si  Si25  1  0.026742  0.021662  0.590971  1
  Si  Si26  1  0.572721  0.180365  0.808791  1
  Si  Si27  1  0.271071  0.327403  0.527057  1
  Si  Si28  1  0.530263  0.271352  0.673187  1
  Si  Si29  1  0.226883  0.421332  0.391082  1
  Si  Si30  1  0.772623  0.580371  0.608847  1
  Si  Si31  1  0.471468  0.727155  0.327588  1
  Si  Si32  1  0.730313  0.671393  0.473268  1
  Si  Si33  1  0.428205  0.817947  0.192024  1
  Si  Si34  1  0.972872  0.980100  0.408866  1
  Si  Si35  1  0.172753  0.381953  0.208966  1
  Si  Si36  1  0.129237  0.474745  0.072648  1
  Si  Si37  1  0.372772  0.779912  0.007905  1
  Si  Si38  1  0.669743  0.125813  0.127419  1
  Si  Si39  1  0.930841  0.071511  0.273179  1
  O  O40  1  0.060322  0.378384  0.910884  1
  O  O41  1  0.422205  0.775272  0.935465  1
  O  O42  1  0.268713  0.700744  0.839708  1
  O  O43  1  0.025150  0.478551  0.778504  1
  O  O44  1  0.514304  0.974742  0.834530  1
  O  O45  1  0.260823  0.778400  0.711394  1
  O  O46  1  0.146763  0.025179  0.889086  1
  O  O47  1  0.421380  0.193303  0.958201  1
  O  O48  1  0.683682  0.426449  0.964805  1
  O  O49  1  0.225127  0.878602  0.578594  1
  O  O50  1  0.378108  0.325922  0.823279  1
  O  O51  1  0.133400  0.092886  0.762748  1
  O  O52  1  0.932115  0.692371  0.962646  1
  O  O53  1  0.780050  0.620999  0.863855  1
  O  O54  1  0.346401  0.425339  0.689262  1
  O  O55  1  0.622339  0.593394  0.757992  1
  O  O56  1  0.020121  0.977225  0.336172  1
  O  O57  1  0.824300  0.079374  0.978619  1
  O  O58  1  0.084639  0.226519  0.564809  1
  O  O59  1  0.884495  0.826399  0.764762  1
  O  O60  1  0.577865  0.725876  0.623249  1
  O  O61  1  0.333520  0.492804  0.562790  1
  O  O62  1  0.778218  0.215693  0.840106  1
  O  O63  1  0.180149  0.420847  0.463973  1
  O  O64  1  0.619690  0.176910  0.736341  1
  O  O65  1  0.546611  0.825292  0.489328  1
  O  O66  1  0.822290  0.993614  0.558038  1
  O  O67  1  0.022556  0.393171  0.358036  1
  O  O68  1  0.469560  0.100744  0.639900  1
  O  O69  1  0.284636  0.626343  0.365058  1
  O  O70  1  0.714223  0.374800  0.634710  1
  O  O71  1  0.533683  0.892902  0.362972  1
  O  O72  1  0.178307  0.015438  0.440091  1
  O  O73  1  0.978151  0.616087  0.640085  1
  O  O74  1  0.460922  0.178315  0.511424  1
  O  O75  1  0.380769  0.820716  0.264504  1
  O  O76  1  0.819847  0.576937  0.536340  1
  O  O77  1  0.224280  0.783402  0.159894  1
  O  O78  1  0.669369  0.500546  0.439959  1
  O  O79  1  0.425412  0.278527  0.378640  1
  O  O80  1  0.114215  0.175261  0.234031  1
  O  O81  1  0.914237  0.774563  0.434621  1
  O  O82  1  0.175150  0.923210  0.020493  1
  O  O83  1  0.980220  0.021218  0.663968  1
  O  O84  1  0.378436  0.415482  0.240173  1
  O  O85  1  0.661123  0.578126  0.311685  1
  O  O86  1  0.218841  0.381238  0.135956  1
  O  O87  1  0.870417  0.900642  0.239685  1
  O  O88  1  0.065509  0.308417  0.037727  1
  O  O89  1  0.626851  0.676595  0.179071  1
  O  O90  1  0.778227  0.125750  0.423271  1
  O  O91  1  0.315564  0.575150  0.034463  1
  O  O92  1  0.575968  0.817195  0.039802  1
  O  O93  1  0.854049  0.973242  0.111319  1
  O  O94  1  0.746904  0.224962  0.289284  1
  O  O95  1  0.485233  0.024316  0.166252  1
  O  O96  1  0.976624  0.525039  0.223836  1
  O  O97  1  0.734236  0.291040  0.162544  1
  O  O98  1  0.577604  0.219885  0.064205  1
  O  O99  1  0.945588  0.627039  0.089311  1
