# generated using pymatgen
data_Li4Ti4Mn4FeO18
_symmetry_space_group_name_H-M   'P 1'
_cell_length_a   9.18931954
_cell_length_b   25.17436247
_cell_length_c   2.96324277
_cell_angle_alpha   90.00004352
_cell_angle_beta   89.99985106
_cell_angle_gamma   89.91595839
_symmetry_Int_Tables_number   1
_chemical_formula_structural   Li4Ti4Mn4FeO18
_chemical_formula_sum   'Li8 Ti8 Mn8 Fe2 O36'
_cell_volume   685.50180162
_cell_formula_units_Z   2
loop_
 _symmetry_equiv_pos_site_id
 _symmetry_equiv_pos_as_xyz
  1  'x, y, z'
loop_
 _atom_site_type_symbol
 _atom_site_label
 _atom_site_symmetry_multiplicity
 _atom_site_fract_x
 _atom_site_fract_y
 _atom_site_fract_z
 _atom_site_occupancy
  Li  Li0  1  0.189214  0.998189  0.000002  1
  Li  Li1  1  0.206341  0.194573  0.000000  1
  Li  Li2  1  0.293781  0.694628  1.000000  1
  Li  Li3  1  0.310867  0.498192  1.000000  1
  Li  Li4  1  0.689102  0.501845  0.999998  1
  Li  Li5  1  0.706341  0.305426  0.000001  1
  Li  Li6  1  0.793562  0.805452  1.000000  1
  Li  Li7  1  0.810702  0.001677  0.999999  1
  Ti  Ti8  1  0.004752  0.103703  0.000002  1
  Ti  Ti9  1  0.145231  0.805052  0.500002  1
  Ti  Ti10  1  0.354625  0.305113  0.500000  1
  Ti  Ti11  1  0.495067  0.603600  0.999999  1
  Ti  Ti12  1  0.505022  0.396372  0.000000  1
  Ti  Ti13  1  0.645295  0.694862  0.500000  1
  Ti  Ti14  1  0.854599  0.194942  0.500000  1
  Ti  Ti15  1  0.995241  0.896303  0.000003  1
  Mn  Mn16  1  0.017779  0.314705  -0.000006  1
  Mn  Mn17  1  0.142827  0.587060  0.499993  1
  Mn  Mn18  1  0.356895  0.087090  0.500002  1
  Mn  Mn19  1  0.482009  0.814457  -0.000002  1
  Mn  Mn20  1  0.517840  0.185496  0.000003  1
  Mn  Mn21  1  0.642939  0.912902  0.499997  1
  Mn  Mn22  1  0.857180  0.412987  0.500001  1
  Mn  Mn23  1  0.982346  0.685301  0.000003  1
  Fe  Fe24  1  0.999942  0.500054  0.999998  1
  Fe  Fe25  1  0.499973  -0.000019  0.000002  1
  O  O26  1  0.996675  0.419806  0.000007  1
  O  O27  1  0.003209  0.580306  0.999992  1
  O  O28  1  0.038640  0.941318  0.500000  1
  O  O29  1  0.051029  0.161731  0.500003  1
  O  O30  1  0.115684  0.662891  0.500001  1
  O  O31  1  0.113096  0.757092  0.000004  1
  O  O32  1  0.153575  0.508785  0.499998  1
  O  O33  1  0.143206  0.291604  0.499998  1
  O  O34  1  0.177196  0.857497  0.000001  1
  O  O35  1  0.212402  0.088699  0.999997  1
  O  O36  1  0.287860  0.588527  0.000003  1
  O  O37  1  0.322870  0.357775  0.999997  1
  O  O38  1  0.356969  0.791293  0.500001  1
  O  O39  1  0.346595  0.008850  0.499999  1
  O  O40  1  0.386911  0.257348  0.999998  1
  O  O41  1  0.384108  0.162924  0.500000  1
  O  O42  1  0.449005  0.661633  0.500000  1
  O  O43  1  0.461110  0.441440  0.499999  1
  O  O44  1  0.496569  0.080207  0.000004  1
  O  O45  1  0.503155  0.919834  0.999993  1
  O  O46  1  0.538988  0.558534  0.499999  1
  O  O47  1  0.551110  0.338387  0.499996  1
  O  O48  1  0.615575  0.837040  0.500002  1
  O  O49  1  0.613227  0.742650  1.000000  1
  O  O50  1  0.653420  0.991163  0.500003  1
  O  O51  1  0.643156  0.208592  0.500002  1
  O  O52  1  0.677181  0.642234  -0.000000  1
  O  O53  1  0.712267  0.411537  0.999991  1
  O  O54  1  0.787649  0.911291  0.000006  1
  O  O55  1  0.822843  0.142423  0.000003  1
  O  O56  1  0.857007  0.708352  0.500001  1
  O  O57  1  0.846513  0.491289  0.499999  1
  O  O58  1  0.886870  0.242869  0.000000  1
  O  O59  1  0.884315  0.337196  0.500002  1
  O  O60  1  0.948994  0.838237  0.500002  1
  O  O61  1  0.961550  0.058681  0.500001  1
