# generated using pymatgen
data_Li4Ti3Mn4(CoO9)2
_symmetry_space_group_name_H-M   'P 1'
_cell_length_a   8.91335976
_cell_length_b   25.07124394
_cell_length_c   2.90734432
_cell_angle_alpha   89.99999179
_cell_angle_beta   90.00003666
_cell_angle_gamma   90.00702871
_symmetry_Int_Tables_number   1
_chemical_formula_structural   Li4Ti3Mn4(CoO9)2
_chemical_formula_sum   'Li8 Ti6 Mn8 Co4 O36'
_cell_volume   649.70137169
_cell_formula_units_Z   2
loop_
 _symmetry_equiv_pos_site_id
 _symmetry_equiv_pos_as_xyz
  1  'x, y, z'
loop_
 _atom_site_type_symbol
 _atom_site_label
 _atom_site_symmetry_multiplicity
 _atom_site_fract_x
 _atom_site_fract_y
 _atom_site_fract_z
 _atom_site_occupancy
  Li  Li0  1  0.187992  0.990510  0.999999  1
  Li  Li1  1  0.200722  0.212729  0.999999  1
  Li  Li2  1  0.299338  0.712633  0.999999  1
  Li  Li3  1  0.311937  0.490535  0.000000  1
  Li  Li4  1  0.681345  0.500703  0.999999  1
  Li  Li5  1  0.686142  0.298729  0.999999  1
  Li  Li6  1  0.813601  0.798737  0.999999  1
  Li  Li7  1  0.818715  0.000714  -0.000000  1
  Ti  Ti8  1  0.005477  0.103614  0.999998  1
  Ti  Ti9  1  0.494539  0.603609  0.999999  1
  Ti  Ti10  1  0.493182  0.391605  0.999999  1
  Ti  Ti11  1  0.640496  0.695906  0.499999  1
  Ti  Ti12  1  0.859575  0.195890  0.499998  1
  Ti  Ti13  1  0.006810  0.891591  0.999999  1
  Mn  Mn14  1  0.040042  0.314762  0.999997  1
  Mn  Mn15  1  0.133734  0.585098  0.499997  1
  Mn  Mn16  1  0.366244  0.085059  0.500001  1
  Mn  Mn17  1  0.459936  0.814737  -0.000000  1
  Mn  Mn18  1  0.516136  0.190886  -0.000002  1
  Mn  Mn19  1  0.635392  0.915005  0.500006  1
  Mn  Mn20  1  0.864648  0.415007  0.500004  1
  Mn  Mn21  1  0.983898  0.690896  -0.000005  1
  Co  Co22  1  0.997182  0.500526  0.000000  1
  Co  Co23  1  0.144596  0.806150  0.500001  1
  Co  Co24  1  0.355341  0.306159  0.500000  1
  Co  Co25  1  0.502815  0.000497  0.999999  1
  O  O26  1  0.005114  0.424509  0.000008  1
  O  O27  1  0.993260  0.577273  0.999998  1
  O  O28  1  0.048036  0.940276  0.499999  1
  O  O29  1  0.056518  0.159446  0.500000  1
  O  O30  1  0.106965  0.661817  0.500001  1
  O  O31  1  0.105449  0.759375  0.000001  1
  O  O32  1  0.141466  0.507694  0.499999  1
  O  O33  1  0.153042  0.280961  0.499998  1
  O  O34  1  0.192033  0.855739  0.000001  1
  O  O35  1  0.222716  0.084527  0.000001  1
  O  O36  1  0.277246  0.584590  0.999998  1
  O  O37  1  0.307917  0.355737  0.000001  1
  O  O38  1  0.346881  0.780956  0.500002  1
  O  O39  1  0.358523  0.007647  0.499999  1
  O  O40  1  0.394570  0.259392  0.999999  1
  O  O41  1  0.393102  0.161786  0.499997  1
  O  O42  1  0.443557  0.659437  0.500000  1
  O  O43  1  0.452096  0.440303  0.500001  1
  O  O44  1  0.506704  0.077245  0.000001  1
  O  O45  1  0.494932  0.924471  0.000001  1
  O  O46  1  0.539851  0.557011  0.499999  1
  O  O47  1  0.556289  0.338703  0.500002  1
  O  O48  1  0.591910  0.840023  0.500004  1
  O  O49  1  0.604508  0.743472  0.000000  1
  O  O50  1  0.647301  0.992513  0.499999  1
  O  O51  1  0.646150  0.214683  0.499995  1
  O  O52  1  0.680427  0.642472  0.000001  1
  O  O53  1  0.721293  0.413414  0.000008  1
  O  O54  1  0.778767  0.913431  0.000001  1
  O  O55  1  0.819592  0.142447  0.999998  1
  O  O56  1  0.853888  0.714658  0.500001  1
  O  O57  1  0.852705  0.492517  0.500002  1
  O  O58  1  0.895583  0.243443  0.999998  1
  O  O59  1  0.908100  0.340041  0.500001  1
  O  O60  1  0.943641  0.838673  0.500000  1
  O  O61  1  0.960031  0.057031  0.499999  1
