# generated using pymatgen
data_CaSm2O4
_symmetry_space_group_name_H-M   'P 1'
_cell_length_a   6.96478288
_cell_length_b   6.96478288
_cell_length_c   7.02002328
_cell_angle_alpha   60.25995936
_cell_angle_beta   60.25996876
_cell_angle_gamma   90.00000000
_symmetry_Int_Tables_number   1
_chemical_formula_structural   CaSm2O4
_chemical_formula_sum   'Ca2 Sm4 O8'
_cell_volume   242.67012923
_cell_formula_units_Z   2
loop_
 _symmetry_equiv_pos_site_id
 _symmetry_equiv_pos_as_xyz
  1  'x, y, z'
loop_
 _atom_site_type_symbol
 _atom_site_label
 _atom_site_symmetry_multiplicity
 _atom_site_fract_x
 _atom_site_fract_y
 _atom_site_fract_z
 _atom_site_occupancy
  Ca  Ca0  1  0.375000  0.125000  0.750000  1
  Ca  Ca1  1  0.625000  0.875000  0.250000  1
  Sm  Sm2  1  0.000000  0.000000  0.500000  1
  Sm  Sm3  1  0.500000  0.500000  0.000000  1
  Sm  Sm4  1  0.000000  0.500000  0.000000  1
  Sm  Sm5  1  0.000000  0.500000  0.500000  1
  O  O6  1  0.236055  0.255995  0.028078  1
  O  O7  1  0.784073  0.263946  0.471922  1
  O  O8  1  0.244005  0.264133  0.471922  1
  O  O9  1  0.764133  0.284073  0.971922  1
  O  O10  1  0.235867  0.715927  0.028078  1
  O  O11  1  0.755995  0.735867  0.528078  1
  O  O12  1  0.215927  0.736054  0.528078  1
  O  O13  1  0.763946  0.744005  0.971922  1
