# generated using pymatgen
data_Ba(NaSi2)2
_symmetry_space_group_name_H-M   'P 1'
_cell_length_a   11.09020960
_cell_length_b   11.09020960
_cell_length_c   11.09020960
_cell_angle_alpha   128.85616433
_cell_angle_beta   70.89368482
_cell_angle_gamma   134.42336101
_symmetry_Int_Tables_number   1
_chemical_formula_structural   Ba(NaSi2)2
_chemical_formula_sum   'Ba4 Na8 Si16'
_cell_volume   743.11546035
_cell_formula_units_Z   4
loop_
 _symmetry_equiv_pos_site_id
 _symmetry_equiv_pos_as_xyz
  1  'x, y, z'
loop_
 _atom_site_type_symbol
 _atom_site_label
 _atom_site_symmetry_multiplicity
 _atom_site_fract_x
 _atom_site_fract_y
 _atom_site_fract_z
 _atom_site_occupancy
  Ba  Ba0  1  0.999793  0.999793  0.000000  1
  Ba  Ba1  1  0.163969  0.580531  0.083438  1
  Ba  Ba2  1  0.497094  0.080531  0.916562  1
  Ba  Ba3  1  0.999793  0.499793  0.500000  1
  Na  Na4  1  0.503214  0.003214  0.500000  1
  Na  Na5  1  0.503214  0.503214  0.000000  1
  Na  Na6  1  0.228289  0.034642  0.258785  1
  Na  Na7  1  0.775857  0.534642  0.306353  1
  Na  Na8  1  0.803454  0.924214  0.379240  1
  Na  Na9  1  0.544974  0.424214  0.620760  1
  Na  Na10  1  0.775857  0.969504  0.741215  1
  Na  Na11  1  0.228289  0.469504  0.693647  1
  Si  Si12  1  0.803183  0.188364  0.114818  1
  Si  Si13  1  0.544135  0.082036  0.219956  1
  Si  Si14  1  0.862081  0.582036  0.037901  1
  Si  Si15  1  0.862081  0.324181  0.780044  1
  Si  Si16  1  0.451774  0.432723  0.263286  1
  Si  Si17  1  0.679251  0.974648  0.204604  1
  Si  Si18  1  0.305163  0.527988  0.277175  1
  Si  Si19  1  0.192925  0.323804  0.369121  1
  Si  Si20  1  0.770045  0.474648  0.795396  1
  Si  Si21  1  0.250812  0.027988  0.722825  1
  Si  Si22  1  0.954682  0.823804  0.630879  1
  Si  Si23  1  0.451774  0.688488  0.519051  1
  Si  Si24  1  0.169438  0.188488  0.736714  1
  Si  Si25  1  0.544135  0.824181  0.962099  1
  Si  Si26  1  0.169438  0.932723  0.480949  1
  Si  Si27  1  0.073546  0.688364  0.885182  1
