# generated using pymatgen
data_Li4Mn3Fe(BO3)4
_symmetry_space_group_name_H-M   'P 1'
_cell_length_a   6.05437656
_cell_length_b   9.15977678
_cell_length_c   5.17870276
_cell_angle_alpha   89.44365047
_cell_angle_beta   113.08401956
_cell_angle_gamma   103.61036135
_symmetry_Int_Tables_number   1
_chemical_formula_structural   Li4Mn3Fe(BO3)4
_chemical_formula_sum   'Li4 Mn3 Fe1 B4 O12'
_cell_volume   255.68260908
_cell_formula_units_Z   1
loop_
 _symmetry_equiv_pos_site_id
 _symmetry_equiv_pos_as_xyz
  1  'x, y, z'
loop_
 _atom_site_type_symbol
 _atom_site_label
 _atom_site_symmetry_multiplicity
 _atom_site_fract_x
 _atom_site_fract_y
 _atom_site_fract_z
 _atom_site_occupancy
  Li  Li0  1  0.672540  0.184363  0.252601  1
  Li  Li1  1  0.669193  0.683288  0.749511  1
  Li  Li2  1  0.329709  0.316320  0.249472  1
  Li  Li3  1  0.327287  0.814042  0.746747  1
  Mn  Mn4  1  0.768070  0.375290  0.788567  1
  Mn  Mn5  1  0.766324  0.872390  0.287952  1
  Mn  Mn6  1  0.234234  0.126652  0.713332  1
  Fe  Fe7  1  0.234171  0.628673  0.207338  1
  B  B8  1  0.737008  0.036533  0.771364  1
  B  B9  1  0.739604  0.536909  0.271932  1
  B  B10  1  0.262899  0.465406  0.728271  1
  B  B11  1  0.260508  0.961833  0.229963  1
  O  O12  1  0.825472  0.064949  0.557669  1
  O  O13  1  0.829721  0.566680  0.059825  1
  O  O14  1  0.703704  0.393294  0.360047  1
  O  O15  1  0.676146  0.151824  0.881996  1
  O  O16  1  0.675172  0.650602  0.381911  1
  O  O17  1  0.298257  0.104536  0.140378  1
  O  O18  1  0.701523  0.893319  0.860600  1
  O  O19  1  0.323462  0.348970  0.619997  1
  O  O20  1  0.318770  0.844889  0.118325  1
  O  O21  1  0.294140  0.606252  0.631259  1
  O  O22  1  0.178738  0.438791  0.946802  1
  O  O23  1  0.173348  0.934194  0.444142  1
