# generated using pymatgen
data_Na2NiPCO7
_symmetry_space_group_name_H-M   'P 1'
_cell_length_a   11.17065184
_cell_length_b   5.14857368
_cell_length_c   11.07423487
_cell_angle_alpha   88.75992761
_cell_angle_beta   73.19497250
_cell_angle_gamma   88.64773130
_symmetry_Int_Tables_number   1
_chemical_formula_structural   Na2NiPCO7
_chemical_formula_sum   'Na8 Ni4 P4 C4 O28'
_cell_volume   609.46888304
_cell_formula_units_Z   4
loop_
 _symmetry_equiv_pos_site_id
 _symmetry_equiv_pos_as_xyz
  1  'x, y, z'
loop_
 _atom_site_type_symbol
 _atom_site_label
 _atom_site_symmetry_multiplicity
 _atom_site_fract_x
 _atom_site_fract_y
 _atom_site_fract_z
 _atom_site_occupancy
  Na  Na0  1  0.119452  0.243278  0.132031  1
  Na  Na1  1  0.379373  0.749349  0.352195  1
  Na  Na2  1  0.115775  0.756907  0.631110  1
  Na  Na3  1  0.595444  0.212527  0.314669  1
  Na  Na4  1  0.623377  0.249033  0.638269  1
  Na  Na5  1  0.888649  0.247982  0.372951  1
  Na  Na6  1  0.384909  0.244423  0.868751  1
  Na  Na7  1  0.877403  0.758723  0.873558  1
  Ni  Ni8  1  0.298491  0.780589  0.048298  1
  Ni  Ni9  1  0.199853  0.219501  0.450293  1
  Ni  Ni10  1  0.801161  0.780138  0.551536  1
  Ni  Ni11  1  0.698071  0.216799  0.956684  1
  P  P12  1  0.085472  0.717023  0.335496  1
  P  P13  1  0.412512  0.284358  0.162940  1
  P  P14  1  0.587108  0.719294  0.838260  1
  P  P15  1  0.915628  0.285013  0.667265  1
  C  C16  1  0.839176  0.285137  0.088256  1
  C  C17  1  0.338318  0.286715  0.587582  1
  C  C18  1  0.162826  0.717465  0.911949  1
  C  C19  1  0.658258  0.712147  0.413389  1
  O  O20  1  0.129406  0.789933  0.193429  1
  O  O21  1  0.337286  0.139452  0.088825  1
  O  O22  1  0.102841  0.414469  0.350994  1
  O  O23  1  0.386590  0.581294  0.148184  1
  O  O24  1  0.163079  0.853755  0.410390  1
  O  O25  1  0.056482  0.208801  0.619005  1
  O  O26  1  0.553854  0.222851  0.118838  1
  O  O27  1  0.371497  0.215215  0.306715  1
  O  O28  1  0.289047  0.481524  0.539771  1
  O  O29  1  0.788030  0.472916  0.038672  1
  O  O30  1  0.806723  0.056846  0.062169  1
  O  O31  1  0.307107  0.060632  0.556141  1
  O  O32  1  0.583509  0.684161  0.348046  1
  O  O33  1  0.091387  0.688320  0.844405  1
  O  O34  1  0.908439  0.320170  0.157970  1
  O  O35  1  0.410283  0.312192  0.655139  1
  O  O36  1  0.195173  0.943686  0.941790  1
  O  O37  1  0.690538  0.940959  0.441244  1
  O  O38  1  0.708982  0.514319  0.457562  1
  O  O39  1  0.212714  0.523999  0.960368  1
  O  O40  1  0.944812  0.788621  0.384667  1
  O  O41  1  0.445836  0.791383  0.881764  1
  O  O42  1  0.633158  0.787459  0.694940  1
  O  O43  1  0.838970  0.150419  0.590782  1
  O  O44  1  0.604245  0.418633  0.855230  1
  O  O45  1  0.900583  0.586468  0.652574  1
  O  O46  1  0.663165  0.862950  0.911087  1
  O  O47  1  0.869769  0.206244  0.808730  1
