# generated using pymatgen
data_Y2HgO4
_symmetry_space_group_name_H-M   'P 1'
_cell_length_a   3.64939484
_cell_length_b   7.11515398
_cell_length_c   8.88614751
_cell_angle_alpha   102.10869820
_cell_angle_beta   101.80455707
_cell_angle_gamma   75.07322216
_symmetry_Int_Tables_number   1
_chemical_formula_structural   Y2HgO4
_chemical_formula_sum   'Y4 Hg2 O8'
_cell_volume   215.20610071
_cell_formula_units_Z   2
loop_
 _symmetry_equiv_pos_site_id
 _symmetry_equiv_pos_as_xyz
  1  'x, y, z'
loop_
 _atom_site_type_symbol
 _atom_site_label
 _atom_site_symmetry_multiplicity
 _atom_site_fract_x
 _atom_site_fract_y
 _atom_site_fract_z
 _atom_site_occupancy
  Y  Y0  1  0.379262  0.776545  0.536995  1
  Y  Y1  1  0.843100  0.517267  0.199010  1
  Y  Y2  1  0.160890  0.481590  0.798654  1
  Y  Y3  1  0.620510  0.224848  0.461509  1
  Hg  Hg4  1  0.115376  0.932095  0.161894  1
  Hg  Hg5  1  0.883315  0.066192  0.837804  1
  O  O6  1  0.767011  0.851994  0.387983  1
  O  O7  1  0.207161  0.646695  0.055038  1
  O  O8  1  0.962350  0.788199  0.717032  1
  O  O9  1  0.419363  0.510861  0.346510  1
  O  O10  1  0.583359  0.489973  0.652175  1
  O  O11  1  0.037378  0.211683  0.281201  1
  O  O12  1  0.801020  0.352060  0.943366  1
  O  O13  1  0.231474  0.150022  0.610698  1
