# generated using pymatgen
data_Li2Fe(Si2O5)2
_symmetry_space_group_name_H-M   'P 1'
_cell_length_a   7.22924173
_cell_length_b   9.94752476
_cell_length_c   13.19814205
_cell_angle_alpha   90.00000000
_cell_angle_beta   82.11602275
_cell_angle_gamma   90.00000000
_symmetry_Int_Tables_number   1
_chemical_formula_structural   Li2Fe(Si2O5)2
_chemical_formula_sum   'Li8 Fe4 Si16 O40'
_cell_volume   940.14759299
_cell_formula_units_Z   4
loop_
 _symmetry_equiv_pos_site_id
 _symmetry_equiv_pos_as_xyz
  1  'x, y, z'
loop_
 _atom_site_type_symbol
 _atom_site_label
 _atom_site_symmetry_multiplicity
 _atom_site_fract_x
 _atom_site_fract_y
 _atom_site_fract_z
 _atom_site_occupancy
  Li  Li0  1  0.118475  0.643251  0.892753  1
  Li  Li1  1  0.173705  0.403705  0.262878  1
  Li  Li2  1  0.326295  0.903705  0.237122  1
  Li  Li3  1  0.381525  0.143251  0.607247  1
  Li  Li4  1  0.618475  0.856749  0.392753  1
  Li  Li5  1  0.673705  0.096295  0.762878  1
  Li  Li6  1  0.826295  0.596295  0.737122  1
  Li  Li7  1  0.881525  0.356749  0.107247  1
  Fe  Fe8  1  0.062473  0.638037  0.143338  1
  Fe  Fe9  1  0.437527  0.138037  0.356662  1
  Fe  Fe10  1  0.562473  0.861963  0.643338  1
  Fe  Fe11  1  0.937527  0.361963  0.856662  1
  Si  Si12  1  0.001019  0.771947  0.357951  1
  Si  Si13  1  0.995933  0.052610  0.331336  1
  Si  Si14  1  0.240301  0.475478  0.673524  1
  Si  Si15  1  0.254541  0.233402  0.964479  1
  Si  Si16  1  0.245459  0.733402  0.535521  1
  Si  Si17  1  0.259699  0.975478  0.826476  1
  Si  Si18  1  0.501019  0.728053  0.857951  1
  Si  Si19  1  0.495934  0.447390  0.831336  1
  Si  Si20  1  0.504067  0.552610  0.168664  1
  Si  Si21  1  0.498981  0.271947  0.142049  1
  Si  Si22  1  0.740301  0.024522  0.173524  1
  Si  Si23  1  0.754541  0.266598  0.464479  1
  Si  Si24  1  0.745459  0.766598  0.035521  1
  Si  Si25  1  0.759699  0.524522  0.326476  1
  Si  Si26  1  0.004066  0.947390  0.668664  1
  Si  Si27  1  0.998981  0.228053  0.642049  1
  O  O28  1  0.058891  0.946805  0.785714  1
  O  O29  1  0.085757  0.805849  0.618433  1
  O  O30  1  0.059734  0.317791  0.979618  1
  O  O31  1  0.080772  0.524983  0.765721  1
  O  O32  1  0.105127  0.081733  0.605943  1
  O  O33  1  0.103609  0.784633  0.242227  1
  O  O34  1  0.184045  0.327935  0.626470  1
  O  O35  1  0.228324  0.080627  0.922228  1
  O  O36  1  0.154808  0.721647  0.429251  1
  O  O37  1  0.271676  0.580627  0.577772  1
  O  O38  1  0.315955  0.827935  0.873530  1
  O  O39  1  0.285361  0.534924  0.166950  1
  O  O40  1  0.214639  0.034924  0.333050  1
  O  O41  1  0.345192  0.221647  0.070749  1
  O  O42  1  0.394873  0.581733  0.894057  1
  O  O43  1  0.419228  0.024983  0.734279  1
  O  O44  1  0.440266  0.817791  0.520382  1
  O  O45  1  0.414243  0.305849  0.881567  1
  O  O46  1  0.441109  0.446806  0.714286  1
  O  O47  1  0.396391  0.284633  0.257773  1
  O  O48  1  0.603609  0.715367  0.742227  1
  O  O49  1  0.558891  0.553195  0.285714  1
  O  O50  1  0.585757  0.694151  0.118433  1
  O  O51  1  0.559734  0.182209  0.479618  1
  O  O52  1  0.580772  0.975017  0.265721  1
  O  O53  1  0.605127  0.418267  0.105943  1
  O  O54  1  0.654808  0.778353  0.929251  1
  O  O55  1  0.785361  0.965076  0.666950  1
  O  O56  1  0.714639  0.465076  0.833050  1
  O  O57  1  0.684045  0.172065  0.126470  1
  O  O58  1  0.728324  0.419373  0.422228  1
  O  O59  1  0.845192  0.278353  0.570749  1
  O  O60  1  0.771676  0.919373  0.077772  1
  O  O61  1  0.815955  0.672065  0.373530  1
  O  O62  1  0.896391  0.215367  0.757773  1
  O  O63  1  0.894873  0.918267  0.394057  1
  O  O64  1  0.919228  0.475017  0.234279  1
  O  O65  1  0.940266  0.682209  0.020382  1
  O  O66  1  0.914243  0.194151  0.381567  1
  O  O67  1  0.941109  0.053195  0.214286  1
