# generated using pymatgen
data_Mn2NbV3(PO4)6
_symmetry_space_group_name_H-M   'P 1'
_cell_length_a   8.73006886
_cell_length_b   8.72633674
_cell_length_c   8.72633691
_cell_angle_alpha   60.00000227
_cell_angle_beta   60.01413975
_cell_angle_gamma   60.01414326
_symmetry_Int_Tables_number   1
_chemical_formula_structural   Mn2NbV3(PO4)6
_chemical_formula_sum   'Mn2 Nb1 V3 P6 O24'
_cell_volume   470.17487743
_cell_formula_units_Z   1
loop_
 _symmetry_equiv_pos_site_id
 _symmetry_equiv_pos_as_xyz
  1  'x, y, z'
loop_
 _atom_site_type_symbol
 _atom_site_label
 _atom_site_symmetry_multiplicity
 _atom_site_fract_x
 _atom_site_fract_y
 _atom_site_fract_z
 _atom_site_occupancy
  Mn  Mn0  1  0.012822  0.995726  0.995726  1
  Mn  Mn1  1  0.501648  0.499450  0.499450  1
  Nb  Nb2  1  0.568736  0.143755  0.143755  1
  V  V3  1  0.070350  0.643217  0.643217  1
  V  V4  1  0.435766  0.854744  0.854744  1
  V  V5  1  0.929356  0.356881  0.356881  1
  P  P6  1  0.242918  0.252599  0.548179  1
  P  P7  1  0.242918  0.956304  0.252599  1
  P  P8  1  0.242918  0.548179  0.956304  1
  P  P9  1  0.751694  0.462041  0.041566  1
  P  P10  1  0.751694  0.041566  0.744699  1
  P  P11  1  0.751694  0.744699  0.462041  1
  O  O12  1  0.071305  0.114890  0.307559  1
  O  O13  1  0.071305  0.506246  0.114890  1
  O  O14  1  0.071305  0.307559  0.506246  1
  O  O15  1  0.237502  0.086545  0.736016  1
  O  O16  1  0.424766  0.191372  0.382801  1
  O  O17  1  0.267058  0.411934  0.556543  1
  O  O18  1  0.237502  0.939936  0.086545  1
  O  O19  1  0.267058  0.764466  0.411934  1
  O  O20  1  0.570943  0.614883  0.005803  1
  O  O21  1  0.267058  0.556543  0.764466  1
  O  O22  1  0.760764  0.265020  0.061417  1
  O  O23  1  0.570943  0.005803  0.808372  1
  O  O24  1  0.424766  0.001060  0.191372  1
  O  O25  1  0.237502  0.736016  0.939936  1
  O  O26  1  0.736650  0.440035  0.235757  1
  O  O27  1  0.424766  0.382801  0.001060  1
  O  O28  1  0.736650  0.235757  0.587559  1
  O  O29  1  0.760764  0.061417  0.912799  1
  O  O30  1  0.736650  0.587559  0.440035  1
  O  O31  1  0.570943  0.808372  0.614883  1
  O  O32  1  0.760764  0.912799  0.265020  1
  O  O33  1  0.930173  0.694570  0.492057  1
  O  O34  1  0.930173  0.492057  0.883200  1
  O  O35  1  0.930173  0.883200  0.694570  1
