# generated using pymatgen
data_Na8FeO6
_symmetry_space_group_name_H-M   'P 1'
_cell_length_a   6.31013864
_cell_length_b   6.37822899
_cell_length_c   12.74320308
_cell_angle_alpha   89.99752630
_cell_angle_beta   88.74715419
_cell_angle_gamma   120.35678465
_symmetry_Int_Tables_number   1
_chemical_formula_structural   Na8FeO6
_chemical_formula_sum   'Na16 Fe2 O12'
_cell_volume   442.42114284
_cell_formula_units_Z   2
loop_
 _symmetry_equiv_pos_site_id
 _symmetry_equiv_pos_as_xyz
  1  'x, y, z'
loop_
 _atom_site_type_symbol
 _atom_site_label
 _atom_site_symmetry_multiplicity
 _atom_site_fract_x
 _atom_site_fract_y
 _atom_site_fract_z
 _atom_site_occupancy
  Na  Na0  1  0.996127  0.706655  0.771647  1
  Na  Na1  1  0.004663  0.611091  0.123416  1
  Na  Na2  1  0.004663  0.393924  0.623756  1
  Na  Na3  1  0.996010  0.288754  0.271723  1
  Na  Na4  1  0.332142  0.663922  0.412401  1
  Na  Na5  1  0.332157  0.668218  0.912220  1
  Na  Na6  1  0.290619  0.298212  0.772028  1
  Na  Na7  1  0.391623  0.388212  0.123325  1
  Na  Na8  1  0.615753  0.614136  0.622716  1
  Na  Na9  1  0.289850  0.992285  0.272114  1
  Na  Na10  1  0.706655  0.703017  0.267379  1
  Na  Na11  1  0.391975  0.003456  0.623658  1
  Na  Na12  1  0.663115  0.329484  0.912337  1
  Na  Na13  1  0.663147  0.333670  0.412520  1
  Na  Na14  1  0.616039  0.001623  0.122373  1
  Na  Na15  1  0.706196  0.003683  0.767320  1
  Fe  Fe16  1  0.002309  0.999404  0.995658  1
  Fe  Fe17  1  0.002258  0.002923  0.495737  1
  O  O18  1  0.987037  0.714009  0.952925  1
  O  O19  1  0.986949  0.272978  0.452958  1
  O  O20  1  0.334113  0.664453  0.221416  1
  O  O21  1  0.007903  0.997329  0.147703  1
  O  O22  1  0.008022  0.010670  0.647633  1
  O  O23  1  0.334246  0.669846  0.721421  1
  O  O24  1  0.275554  0.289008  0.953199  1
  O  O25  1  0.275358  0.986409  0.453241  1
  O  O26  1  0.727571  0.726887  0.447545  1
  O  O27  1  0.665157  0.336673  0.721647  1
  O  O28  1  0.665128  0.328368  0.221652  1
  O  O29  1  0.727463  0.000703  0.947591  1
