# generated using pymatgen
data_Li5Fe2P2(CO7)2
_symmetry_space_group_name_H-M   'P 1'
_cell_length_a   8.42847058
_cell_length_b   8.25897515
_cell_length_c   8.27116801
_cell_angle_alpha   75.37825123
_cell_angle_beta   86.74520724
_cell_angle_gamma   92.92446882
_symmetry_Int_Tables_number   1
_chemical_formula_structural   Li5Fe2P2(CO7)2
_chemical_formula_sum   'Li10 Fe4 P4 C4 O28'
_cell_volume   554.94064236
_cell_formula_units_Z   2
loop_
 _symmetry_equiv_pos_site_id
 _symmetry_equiv_pos_as_xyz
  1  'x, y, z'
loop_
 _atom_site_type_symbol
 _atom_site_label
 _atom_site_symmetry_multiplicity
 _atom_site_fract_x
 _atom_site_fract_y
 _atom_site_fract_z
 _atom_site_occupancy
  Li  Li0  1  0.902305  0.260293  0.495049  1
  Li  Li1  1  0.901169  0.763902  0.987335  1
  Li  Li2  1  0.726917  0.401025  0.123837  1
  Li  Li3  1  0.723367  0.617115  0.364995  1
  Li  Li4  1  0.725933  0.889646  0.644466  1
  Li  Li5  1  0.270721  0.597083  0.890624  1
  Li  Li6  1  0.276988  0.386179  0.637613  1
  Li  Li7  1  0.276363  0.892560  0.149096  1
  Li  Li8  1  0.104419  0.734653  0.508694  1
  Li  Li9  1  0.085572  0.253480  0.016242  1
  Fe  Fe10  1  0.673786  0.513466  0.733930  1
  Fe  Fe11  1  0.662285  0.029465  0.217391  1
  Fe  Fe12  1  0.340744  0.980083  0.768487  1
  Fe  Fe13  1  0.326551  0.464918  0.276439  1
  P  P14  1  0.586452  0.237197  0.510718  1
  P  P15  1  0.583686  0.737878  0.012160  1
  P  P16  1  0.412213  0.262159  0.985990  1
  P  P17  1  0.418590  0.760738  0.485649  1
  C  C18  1  0.971344  0.485094  0.781788  1
  C  C19  1  0.950108  0.962280  0.273532  1
  C  C20  1  0.048497  0.023403  0.719975  1
  C  C21  1  0.030270  0.531300  0.224448  1
  O  O22  1  0.934348  0.596456  0.651137  1
  O  O23  1  0.918454  0.091199  0.153532  1
  O  O24  1  0.911639  0.042919  0.664742  1
  O  O25  1  0.858372  0.405646  0.891361  1
  O  O26  1  0.883898  0.567633  0.195056  1
  O  O27  1  0.822887  0.884343  0.367030  1
  O  O28  1  0.703357  0.364155  0.561400  1
  O  O29  1  0.684458  0.195025  0.361730  1
  O  O30  1  0.691037  0.706435  0.865548  1
  O  O31  1  0.683137  0.875410  0.067940  1
  O  O32  1  0.552134  0.070511  0.653623  1
  O  O33  1  0.575948  0.220842  0.057902  1
  O  O34  1  0.578851  0.695623  0.545139  1
  O  O35  1  0.555969  0.577688  0.158396  1
  O  O36  1  0.440974  0.405071  0.822212  1
  O  O37  1  0.427562  0.310669  0.466432  1
  O  O38  1  0.416204  0.791695  0.955200  1
  O  O39  1  0.453514  0.908733  0.323641  1
  O  O40  1  0.325652  0.103365  0.951032  1
  O  O41  1  0.317997  0.816168  0.625337  1
  O  O42  1  0.292907  0.317164  0.106691  1
  O  O43  1  0.303908  0.625927  0.444905  1
  O  O44  1  0.170800  0.130442  0.656018  1
  O  O45  1  0.117844  0.449259  0.804322  1
  O  O46  1  0.147838  0.617857  0.126128  1
  O  O47  1  0.088136  0.911875  0.298067  1
  O  O48  1  0.061139  0.410920  0.349473  1
  O  O49  1  0.082753  0.895042  0.839536  1
