# generated using pymatgen
data_Li2SnP2O7
_symmetry_space_group_name_H-M   'P 1'
_cell_length_a   7.95116118
_cell_length_b   14.44792417
_cell_length_c   5.53638677
_cell_angle_alpha   90.00000000
_cell_angle_beta   91.51308482
_cell_angle_gamma   90.00000000
_symmetry_Int_Tables_number   1
_chemical_formula_structural   Li2SnP2O7
_chemical_formula_sum   'Li8 Sn4 P8 O28'
_cell_volume   635.78602424
_cell_formula_units_Z   4
loop_
 _symmetry_equiv_pos_site_id
 _symmetry_equiv_pos_as_xyz
  1  'x, y, z'
loop_
 _atom_site_type_symbol
 _atom_site_label
 _atom_site_symmetry_multiplicity
 _atom_site_fract_x
 _atom_site_fract_y
 _atom_site_fract_z
 _atom_site_occupancy
  Li  Li0  1  0.149922  0.907899  0.204235  1
  Li  Li1  1  0.183486  0.316172  0.701171  1
  Li  Li2  1  0.316514  0.816172  0.798829  1
  Li  Li3  1  0.350078  0.407899  0.295765  1
  Li  Li4  1  0.649922  0.592101  0.704235  1
  Li  Li5  1  0.683486  0.183828  0.201171  1
  Li  Li6  1  0.816514  0.683828  0.298829  1
  Li  Li7  1  0.850078  0.092101  0.795765  1
  Sn  Sn8  1  0.270595  0.657105  0.302384  1
  Sn  Sn9  1  0.229405  0.157105  0.197616  1
  Sn  Sn10  1  0.770595  0.842895  0.802384  1
  Sn  Sn11  1  0.729405  0.342895  0.697616  1
  P  P12  1  0.027880  0.673817  0.773016  1
  P  P13  1  0.220125  0.022597  0.709321  1
  P  P14  1  0.279875  0.522597  0.790679  1
  P  P15  1  0.472120  0.173817  0.726984  1
  P  P16  1  0.527880  0.826183  0.273016  1
  P  P17  1  0.720125  0.477403  0.209321  1
  P  P18  1  0.779875  0.977403  0.290679  1
  P  P19  1  0.972120  0.326183  0.226984  1
  O  O20  1  0.084138  0.567108  0.775360  1
  O  O21  1  0.029946  0.705525  0.504180  1
  O  O22  1  0.150461  0.731341  0.931461  1
  O  O23  1  0.152065  0.320409  0.128920  1
  O  O24  1  0.107320  0.099334  0.813186  1
  O  O25  1  0.188310  0.005364  0.440279  1
  O  O26  1  0.231191  0.937123  0.868771  1
  O  O27  1  0.268809  0.437123  0.631229  1
  O  O28  1  0.311690  0.505364  0.059721  1
  O  O29  1  0.392680  0.599334  0.686814  1
  O  O30  1  0.349539  0.231342  0.568539  1
  O  O31  1  0.347935  0.820409  0.371080  1
  O  O32  1  0.470054  0.205525  0.995820  1
  O  O33  1  0.415862  0.067108  0.724640  1
  O  O34  1  0.584138  0.932892  0.275360  1
  O  O35  1  0.529946  0.794475  0.004180  1
  O  O36  1  0.652065  0.179591  0.628920  1
  O  O37  1  0.650461  0.768659  0.431461  1
  O  O38  1  0.607320  0.400666  0.313186  1
  O  O39  1  0.688310  0.494636  0.940279  1
  O  O40  1  0.731191  0.562877  0.368771  1
  O  O41  1  0.768809  0.062877  0.131229  1
  O  O42  1  0.811690  0.994636  0.559721  1
  O  O43  1  0.892680  0.900666  0.186814  1
  O  O44  1  0.847935  0.679591  0.871080  1
  O  O45  1  0.849539  0.268659  0.068539  1
  O  O46  1  0.970054  0.294475  0.495820  1
  O  O47  1  0.915862  0.432892  0.224640  1
