# generated using pymatgen
data_RbHoHS2O9
_symmetry_space_group_name_H-M   'P 1'
_cell_length_a   10.26530633
_cell_length_b   8.38557812
_cell_length_c   10.54482555
_cell_angle_alpha   90.00000000
_cell_angle_beta   60.65724080
_cell_angle_gamma   90.00000000
_symmetry_Int_Tables_number   1
_chemical_formula_structural   RbHoHS2O9
_chemical_formula_sum   'Rb4 Ho4 H4 S8 O36'
_cell_volume   791.24916664
_cell_formula_units_Z   4
loop_
 _symmetry_equiv_pos_site_id
 _symmetry_equiv_pos_as_xyz
  1  'x, y, z'
loop_
 _atom_site_type_symbol
 _atom_site_label
 _atom_site_symmetry_multiplicity
 _atom_site_fract_x
 _atom_site_fract_y
 _atom_site_fract_z
 _atom_site_occupancy
  Rb  Rb0  1  0.033732  0.656742  0.180072  1
  Rb  Rb1  1  0.466268  0.156742  0.319928  1
  Rb  Rb2  1  0.533732  0.843258  0.680072  1
  Rb  Rb3  1  0.966268  0.343258  0.819928  1
  Ho  Ho4  1  0.220135  0.142944  0.037331  1
  Ho  Ho5  1  0.279865  0.642944  0.462669  1
  Ho  Ho6  1  0.720135  0.357056  0.537331  1
  Ho  Ho7  1  0.779865  0.857056  0.962669  1
  H  H8  1  0.139603  0.967299  0.538327  1
  H  H9  1  0.639603  0.532701  0.038327  1
  H  H10  1  0.360397  0.467299  0.961673  1
  H  H11  1  0.860397  0.032701  0.461673  1
  S  S12  1  0.102936  0.298625  0.397036  1
  S  S13  1  0.397064  0.798625  0.102964  1
  S  S14  1  0.123710  0.864128  0.819039  1
  S  S15  1  0.376290  0.364128  0.680961  1
  S  S16  1  0.623710  0.635872  0.319039  1
  S  S17  1  0.876290  0.135872  0.180961  1
  S  S18  1  0.602936  0.201375  0.897036  1
  S  S19  1  0.897064  0.701375  0.602964  1
  O  O20  1  0.276448  0.405808  0.036613  1
  O  O21  1  0.173073  0.187409  0.270683  1
  O  O22  1  0.049223  0.210350  0.534244  1
  O  O23  1  0.023573  0.616462  0.606241  1
  O  O24  1  0.279402  0.914030  0.120283  1
  O  O25  1  0.220598  0.414030  0.379717  1
  O  O26  1  0.035246  0.985348  0.791111  1
  O  O27  1  0.326927  0.687409  0.229317  1
  O  O28  1  0.223552  0.905808  0.463387  1
  O  O29  1  0.012367  0.742534  0.917556  1
  O  O30  1  0.549223  0.289650  0.034244  1
  O  O31  1  0.523573  0.883538  0.106241  1
  O  O32  1  0.237831  0.785533  0.682613  1
  O  O33  1  0.296555  0.436071  0.609126  1
  O  O34  1  0.203445  0.936071  0.890874  1
  O  O35  1  0.262169  0.285533  0.817387  1
  O  O36  1  0.535246  0.514652  0.291111  1
  O  O37  1  0.512367  0.757466  0.417556  1
  O  O38  1  0.487633  0.242534  0.582444  1
  O  O39  1  0.464754  0.485348  0.708889  1
  O  O40  1  0.737831  0.714467  0.182613  1
  O  O41  1  0.796555  0.063929  0.109126  1
  O  O42  1  0.703445  0.563929  0.390874  1
  O  O43  1  0.762169  0.214467  0.317387  1
  O  O44  1  0.476427  0.116462  0.893759  1
  O  O45  1  0.450777  0.710350  0.965756  1
  O  O46  1  0.987633  0.257466  0.082444  1
  O  O47  1  0.776448  0.094192  0.536613  1
  O  O48  1  0.673073  0.312591  0.770683  1
  O  O49  1  0.964754  0.014652  0.208889  1
  O  O50  1  0.779402  0.585970  0.620283  1
  O  O51  1  0.720598  0.085970  0.879717  1
  O  O52  1  0.976427  0.383538  0.393759  1
  O  O53  1  0.950777  0.789650  0.465756  1
  O  O54  1  0.826927  0.812591  0.729317  1
  O  O55  1  0.723552  0.594192  0.963387  1
