# generated using pymatgen
data_Na5Bi2As(CO4)4
_symmetry_space_group_name_H-M   'P 1'
_cell_length_a   10.46996593
_cell_length_b   10.46862639
_cell_length_c   18.25082401
_cell_angle_alpha   89.89784602
_cell_angle_beta   72.55212934
_cell_angle_gamma   119.77466337
_symmetry_Int_Tables_number   1
_chemical_formula_structural   Na5Bi2As(CO4)4
_chemical_formula_sum   'Na20 Bi8 As4 C16 O64'
_cell_volume   1628.77661782
_cell_formula_units_Z   4
loop_
 _symmetry_equiv_pos_site_id
 _symmetry_equiv_pos_as_xyz
  1  'x, y, z'
loop_
 _atom_site_type_symbol
 _atom_site_label
 _atom_site_symmetry_multiplicity
 _atom_site_fract_x
 _atom_site_fract_y
 _atom_site_fract_z
 _atom_site_occupancy
  Na  Na0  1  0.929362  0.410744  0.160539  1
  Na  Na1  1  0.681451  0.397987  0.033874  1
  Na  Na2  1  0.680832  0.283869  0.534363  1
  Na  Na3  1  0.678758  0.782296  0.034482  1
  Na  Na4  1  0.928130  0.714226  0.464144  1
  Na  Na5  1  0.321342  0.410823  0.161134  1
  Na  Na6  1  0.931539  0.209301  0.962786  1
  Na  Na7  1  0.320647  0.105675  0.464827  1
  Na  Na8  1  0.929585  0.019203  0.160318  1
  Na  Na9  1  0.930694  0.513128  0.658113  1
  Na  Na10  1  0.068397  0.090409  0.340601  1
  Na  Na11  1  0.934686  0.916274  0.660147  1
  Na  Na12  1  0.068163  0.477284  0.340786  1
  Na  Na13  1  0.682212  0.590244  0.842086  1
  Na  Na14  1  0.681520  0.897723  0.533815  1
  Na  Na15  1  0.308201  0.201637  0.964375  1
  Na  Na16  1  0.321289  0.714952  0.464617  1
  Na  Na17  1  0.314202  0.909717  0.662831  1
  Na  Na18  1  0.314784  0.608133  0.965967  1
  Na  Na19  1  0.067225  0.589478  0.840562  1
  Bi  Bi20  1  0.490403  0.995474  0.999481  1
  Bi  Bi21  1  0.504466  0.247926  0.253028  1
  Bi  Bi22  1  0.491387  0.496311  0.499362  1
  Bi  Bi23  1  0.505442  0.756906  0.252115  1
  Bi  Bi24  1  0.493364  0.244849  0.752023  1
  Bi  Bi25  1  0.503026  0.753202  0.750594  1
  Bi  Bi26  1  0.999417  0.750276  0.245236  1
  Bi  Bi27  1  0.001381  0.245303  0.748222  1
  As  As28  1  0.875229  0.187638  0.437522  1
  As  As29  1  0.125546  0.313264  0.062469  1
  As  As30  1  0.876650  0.688753  0.937162  1
  As  As31  1  0.123241  0.810754  0.562545  1
  C  C32  1  0.665180  0.083290  0.135924  1
  C  C33  1  0.281816  0.087991  0.140566  1
  C  C34  1  0.720654  0.421065  0.361132  1
  C  C35  1  0.717689  0.609634  0.169556  1
  C  C36  1  0.719345  0.110280  0.669723  1
  C  C37  1  0.339378  0.418765  0.358993  1
  C  C38  1  0.722731  0.800833  0.360215  1
  C  C39  1  0.720225  0.301802  0.860355  1
  C  C40  1  0.283499  0.195108  0.637617  1
  C  C41  1  0.281018  0.693785  0.140813  1
  C  C42  1  0.664254  0.582309  0.638808  1
  C  C43  1  0.281363  0.587416  0.640754  1
  C  C44  1  0.272036  0.885460  0.332594  1
  C  C45  1  0.279049  0.394248  0.832580  1
  C  C46  1  0.717428  0.916648  0.860343  1
  C  C47  1  0.339847  0.917128  0.860034  1
  O  O48  1  0.664570  0.132464  0.070534  1
  O  O49  1  0.934267  0.073584  0.466447  1
  O  O50  1  0.961290  0.230751  0.336471  1
  O  O51  1  0.668582  0.157672  0.192687  1
  O  O52  1  0.295800  0.039724  0.074896  1
  O  O53  1  0.933518  0.359969  0.466707  1
  O  O54  1  0.672361  0.086762  0.480401  1
  O  O55  1  0.842346  0.989726  0.798702  1
  O  O56  1  0.708504  0.480636  0.167995  1
  O  O57  1  0.851780  0.489980  0.301742  1
  O  O58  1  0.397633  0.210721  0.148107  1
  O  O59  1  0.599224  0.301658  0.356163  1
  O  O60  1  0.842726  0.226617  0.675195  1
  O  O61  1  0.841571  0.726705  0.173811  1
  O  O62  1  0.286822  0.017112  0.333172  1
  O  O63  1  0.328085  0.413680  0.027209  1
  O  O64  1  0.055603  0.144281  0.030707  1
  O  O65  1  0.710247  0.472287  0.426613  1
  O  O66  1  0.600362  0.621489  0.167139  1
  O  O67  1  0.601337  0.121874  0.667510  1
  O  O68  1  0.335500  0.346461  0.300797  1
  O  O69  1  0.853698  0.809500  0.355334  1
  O  O70  1  0.851092  0.308669  0.852854  1
  O  O71  1  0.056198  0.411852  0.028917  1
  O  O72  1  0.060325  0.281355  0.163241  1
  O  O73  1  0.666117  0.959405  0.143629  1
  O  O74  1  0.665747  0.458839  0.645824  1
  O  O75  1  0.400826  0.261376  0.571177  1
  O  O76  1  0.398152  0.758984  0.074480  1
  O  O77  1  0.712324  0.854061  0.299521  1
  O  O78  1  0.346712  0.367239  0.421410  1
  O  O79  1  0.706003  0.360492  0.802352  1
  O  O80  1  0.663330  0.633419  0.574129  1
  O  O81  1  0.296572  0.636466  0.198675  1
  O  O82  1  0.300021  0.136083  0.694284  1
  O  O83  1  0.346002  0.044544  0.856722  1
  O  O84  1  0.603284  0.738645  0.425694  1
  O  O85  1  0.602745  0.237719  0.926419  1
  O  O86  1  0.336457  0.541710  0.354249  1
  O  O87  1  0.933859  0.573749  0.966952  1
  O  O88  1  0.933731  0.705274  0.836274  1
  O  O89  1  0.151998  0.185458  0.645607  1
  O  O90  1  0.149237  0.683440  0.147985  1
  O  O91  1  0.666481  0.655160  0.696834  1
  O  O92  1  0.386980  0.870105  0.333991  1
  O  O93  1  0.296384  0.540589  0.574629  1
  O  O94  1  0.395661  0.379030  0.833024  1
  O  O95  1  0.669157  0.584128  0.972082  1
  O  O96  1  0.928986  0.850207  0.973648  1
  O  O97  1  0.710463  0.982076  0.666721  1
  O  O98  1  0.397337  0.711231  0.647894  1
  O  O99  1  0.149108  0.280030  0.832299  1
  O  O100  1  0.141230  0.770510  0.332501  1
  O  O101  1  0.601198  0.788918  0.856610  1
  O  O102  1  0.294076  0.525543  0.834270  1
  O  O103  1  0.149536  0.513121  0.699240  1
  O  O104  1  0.149033  0.014400  0.199043  1
  O  O105  1  0.325594  0.912480  0.530073  1
  O  O106  1  0.057756  0.644669  0.527735  1
  O  O107  1  0.706097  0.968764  0.925309  1
  O  O108  1  0.331639  0.846427  0.801279  1
  O  O109  1  0.056735  0.912166  0.528885  1
  O  O110  1  0.053077  0.773996  0.663323  1
  O  O111  1  0.345288  0.860947  0.921745  1
