# generated using pymatgen
data_Ti3Mn2Ni(PO4)6
_symmetry_space_group_name_H-M   'P 1'
_cell_length_a   8.63726147
_cell_length_b   8.63726088
_cell_length_c   8.63726117
_cell_angle_alpha   59.94435093
_cell_angle_beta   59.94435307
_cell_angle_gamma   59.94434976
_symmetry_Int_Tables_number   1
_chemical_formula_structural   Ti3Mn2Ni(PO4)6
_chemical_formula_sum   'Ti3 Mn2 Ni1 P6 O24'
_cell_volume   455.05581986
_cell_formula_units_Z   1
loop_
 _symmetry_equiv_pos_site_id
 _symmetry_equiv_pos_as_xyz
  1  'x, y, z'
loop_
 _atom_site_type_symbol
 _atom_site_label
 _atom_site_symmetry_multiplicity
 _atom_site_fract_x
 _atom_site_fract_y
 _atom_site_fract_z
 _atom_site_occupancy
  Ti  Ti0  1  0.143824  0.143824  0.143824  1
  Ti  Ti1  1  0.354070  0.354070  0.354070  1
  Ti  Ti2  1  0.647179  0.647179  0.647179  1
  Mn  Mn3  1  0.995928  0.995928  0.995928  1
  Mn  Mn4  1  0.499361  0.499361  0.499361  1
  Ni  Ni5  1  0.856340  0.856340  0.856340  1
  P  P6  1  0.250629  0.542892  0.955977  1
  P  P7  1  0.542892  0.955977  0.250629  1
  P  P8  1  0.955977  0.250629  0.542892  1
  P  P9  1  0.044499  0.751986  0.458753  1
  P  P10  1  0.458753  0.044499  0.751986  1
  P  P11  1  0.751986  0.458753  0.044499  1
  O  O12  1  0.117525  0.317131  0.491068  1
  O  O13  1  0.317131  0.491068  0.117525  1
  O  O14  1  0.058850  0.913916  0.261621  1
  O  O15  1  0.491068  0.117525  0.317131  1
  O  O16  1  0.014257  0.805946  0.613343  1
  O  O17  1  0.236856  0.584488  0.433055  1
  O  O18  1  0.261621  0.058850  0.913916  1
  O  O19  1  0.433055  0.236856  0.584488  1
  O  O20  1  0.192359  0.377443  0.001099  1
  O  O21  1  0.584488  0.433055  0.236856  1
  O  O22  1  0.091525  0.733054  0.946430  1
  O  O23  1  0.377443  0.001099  0.192359  1
  O  O24  1  0.613343  0.014257  0.805946  1
  O  O25  1  0.913916  0.261621  0.058850  1
  O  O26  1  0.418068  0.552936  0.764646  1
  O  O27  1  0.805946  0.613343  0.014257  1
  O  O28  1  0.552936  0.764646  0.418068  1
  O  O29  1  0.733054  0.946430  0.091525  1
  O  O30  1  0.764646  0.418068  0.552936  1
  O  O31  1  0.001099  0.192359  0.377443  1
  O  O32  1  0.501193  0.878669  0.693082  1
  O  O33  1  0.946430  0.091525  0.733054  1
  O  O34  1  0.693082  0.501193  0.878669  1
  O  O35  1  0.878669  0.693082  0.501193  1
