# generated using pymatgen
data_ZnH8(O2F)2
_symmetry_space_group_name_H-M   'P 1'
_cell_length_a   12.65773551
_cell_length_b   5.35626291
_cell_length_c   7.58563347
_cell_angle_alpha   90.00000000
_cell_angle_beta   90.00000000
_cell_angle_gamma   90.00000000
_symmetry_Int_Tables_number   1
_chemical_formula_structural   ZnH8(O2F)2
_chemical_formula_sum   'Zn4 H32 O16 F8'
_cell_volume   514.29198591
_cell_formula_units_Z   4
loop_
 _symmetry_equiv_pos_site_id
 _symmetry_equiv_pos_as_xyz
  1  'x, y, z'
loop_
 _atom_site_type_symbol
 _atom_site_label
 _atom_site_symmetry_multiplicity
 _atom_site_fract_x
 _atom_site_fract_y
 _atom_site_fract_z
 _atom_site_occupancy
  Zn  Zn0  1  0.622906  0.804176  0.249530  1
  Zn  Zn1  1  0.377094  0.195824  0.749530  1
  Zn  Zn2  1  0.877094  0.804176  0.749530  1
  Zn  Zn3  1  0.122906  0.195824  0.249530  1
  H  H4  1  0.729746  0.080021  0.013338  1
  H  H5  1  0.270254  0.919979  0.513338  1
  H  H6  1  0.770254  0.080021  0.513338  1
  H  H7  1  0.229746  0.919979  0.013338  1
  H  H8  1  0.621592  0.351168  0.428095  1
  H  H9  1  0.378408  0.648832  0.928095  1
  H  H10  1  0.878408  0.351168  0.928095  1
  H  H11  1  0.121592  0.648832  0.428095  1
  H  H12  1  0.919971  0.074745  0.143362  1
  H  H13  1  0.080029  0.925255  0.643362  1
  H  H14  1  0.580029  0.074745  0.643362  1
  H  H15  1  0.419971  0.925255  0.143362  1
  H  H16  1  0.517634  0.493466  0.478834  1
  H  H17  1  0.482366  0.506534  0.978834  1
  H  H18  1  0.982366  0.493466  0.978834  1
  H  H19  1  0.017634  0.506534  0.478834  1
  H  H20  1  0.825017  0.641293  0.357505  1
  H  H21  1  0.174983  0.358707  0.857505  1
  H  H22  1  0.674983  0.641293  0.857505  1
  H  H23  1  0.325017  0.358707  0.357505  1
  H  H24  1  0.638143  0.269149  0.074296  1
  H  H25  1  0.361857  0.730851  0.574296  1
  H  H26  1  0.861857  0.269149  0.574296  1
  H  H27  1  0.138143  0.730851  0.074296  1
  H  H28  1  0.920943  0.082708  0.356025  1
  H  H29  1  0.079057  0.917292  0.856025  1
  H  H30  1  0.579057  0.082708  0.856025  1
  H  H31  1  0.420943  0.917292  0.356025  1
  H  H32  1  0.824140  0.642560  0.147320  1
  H  H33  1  0.175860  0.357440  0.647320  1
  H  H34  1  0.675860  0.642560  0.647320  1
  H  H35  1  0.324140  0.357440  0.147320  1
  O  O36  1  0.653731  0.089606  0.053095  1
  O  O37  1  0.346269  0.910394  0.553095  1
  O  O38  1  0.846269  0.089606  0.553095  1
  O  O39  1  0.153731  0.910394  0.053095  1
  O  O40  1  0.782057  0.685080  0.252337  1
  O  O41  1  0.217943  0.314920  0.752337  1
  O  O42  1  0.717943  0.685080  0.752337  1
  O  O43  1  0.282057  0.314920  0.252337  1
  O  O44  1  0.965517  0.093523  0.248728  1
  O  O45  1  0.034483  0.906477  0.748728  1
  O  O46  1  0.534483  0.093523  0.748728  1
  O  O47  1  0.465517  0.906477  0.248728  1
  O  O48  1  0.593694  0.523335  0.447483  1
  O  O49  1  0.406306  0.476665  0.947483  1
  O  O50  1  0.906306  0.523335  0.947483  1
  O  O51  1  0.093694  0.476665  0.447483  1
  F  F52  1  0.603109  0.567822  0.036504  1
  F  F53  1  0.396891  0.432178  0.536504  1
  F  F54  1  0.896891  0.567822  0.536504  1
  F  F55  1  0.103109  0.432178  0.036504  1
  F  F56  1  0.652446  0.054448  0.452349  1
  F  F57  1  0.347554  0.945552  0.952349  1
  F  F58  1  0.847554  0.054448  0.952349  1
  F  F59  1  0.152446  0.945552  0.452349  1
