# generated using pymatgen
data_Li10Si2NiO10
_symmetry_space_group_name_H-M   'P 1'
_cell_length_a   6.10348968
_cell_length_b   15.35239180
_cell_length_c   5.18954894
_cell_angle_alpha   79.81268821
_cell_angle_beta   89.95829607
_cell_angle_gamma   78.47971544
_symmetry_Int_Tables_number   1
_chemical_formula_structural   Li10Si2NiO10
_chemical_formula_sum   'Li20 Si4 Ni2 O20'
_cell_volume   468.66700728
_cell_formula_units_Z   2
loop_
 _symmetry_equiv_pos_site_id
 _symmetry_equiv_pos_as_xyz
  1  'x, y, z'
loop_
 _atom_site_type_symbol
 _atom_site_label
 _atom_site_symmetry_multiplicity
 _atom_site_fract_x
 _atom_site_fract_y
 _atom_site_fract_z
 _atom_site_occupancy
  Li  Li0  1  0.506701  0.981401  0.757096  1
  Li  Li1  1  0.359713  0.866402  0.235911  1
  Li  Li2  1  0.772977  0.865948  0.236433  1
  Li  Li3  1  0.132923  0.735916  0.484710  1
  Li  Li4  1  0.347611  0.737693  0.021064  1
  Li  Li5  1  0.914938  0.737339  0.022515  1
  Li  Li6  1  0.673539  0.649066  0.420111  1
  Li  Li7  1  0.437267  0.610265  0.788175  1
  Li  Li8  1  0.951392  0.610317  0.787764  1
  Li  Li9  1  0.729160  0.539325  0.136066  1
  Li  Li10  1  0.271716  0.460358  0.864556  1
  Li  Li11  1  0.562605  0.388983  0.215506  1
  Li  Li12  1  0.048291  0.390144  0.212458  1
  Li  Li13  1  0.320676  0.349545  0.581861  1
  Li  Li14  1  0.084192  0.262526  0.980145  1
  Li  Li15  1  0.652225  0.262011  0.979062  1
  Li  Li16  1  0.868874  0.263238  0.516654  1
  Li  Li17  1  0.639555  0.133719  0.761347  1
  Li  Li18  1  0.226731  0.133315  0.766793  1
  Li  Li19  1  0.489898  0.018048  0.242499  1
  Si  Si20  1  0.600515  0.799978  0.689997  1
  Si  Si21  1  0.218150  0.562538  0.308202  1
  Si  Si22  1  0.781731  0.437209  0.693604  1
  Si  Si23  1  0.399698  0.199684  0.310445  1
  Ni  Ni24  1  0.036378  0.924329  0.919273  1
  Ni  Ni25  1  0.960423  0.075270  0.080733  1
  O  O26  1  0.549928  0.899352  0.495713  1
  O  O27  1  0.093274  0.813167  0.138923  1
  O  O28  1  0.594415  0.810598  0.002804  1
  O  O29  1  0.413585  0.741471  0.634178  1
  O  O30  1  0.847403  0.742156  0.635239  1
  O  O31  1  0.417818  0.613395  0.169099  1
  O  O32  1  0.966997  0.612913  0.169825  1
  O  O33  1  0.213215  0.573194  0.617346  1
  O  O34  1  0.727807  0.543329  0.737759  1
  O  O35  1  0.272310  0.456409  0.264558  1
  O  O36  1  0.786700  0.426822  0.384358  1
  O  O37  1  0.582490  0.386389  0.833534  1
  O  O38  1  0.033169  0.386851  0.831476  1
  O  O39  1  0.154473  0.258712  0.366273  1
  O  O40  1  0.589315  0.256844  0.367315  1
  O  O41  1  0.404845  0.189548  0.997255  1
  O  O42  1  0.906969  0.186606  0.862408  1
  O  O43  1  0.447389  0.100189  0.504010  1
  O  O44  1  0.238515  0.999683  0.000961  1
  O  O45  1  0.758498  0.000073  0.998825  1
