# generated using pymatgen
data_Li3MnV(PO4)3
_symmetry_space_group_name_H-M   'P 1'
_cell_length_a   8.50557423
_cell_length_b   8.50557395
_cell_length_c   8.61602241
_cell_angle_alpha   61.68041158
_cell_angle_beta   61.68041410
_cell_angle_gamma   63.15910858
_symmetry_Int_Tables_number   1
_chemical_formula_structural   Li3MnV(PO4)3
_chemical_formula_sum   'Li6 Mn2 V2 P6 O24'
_cell_volume   461.96144594
_cell_formula_units_Z   2
loop_
 _symmetry_equiv_pos_site_id
 _symmetry_equiv_pos_as_xyz
  1  'x, y, z'
loop_
 _atom_site_type_symbol
 _atom_site_label
 _atom_site_symmetry_multiplicity
 _atom_site_fract_x
 _atom_site_fract_y
 _atom_site_fract_z
 _atom_site_occupancy
  Li  Li0  1  0.871490  0.747832  0.156678  1
  Li  Li1  1  0.499513  0.003136  0.001230  1
  Li  Li2  1  0.747832  0.871490  0.656678  1
  Li  Li3  1  0.258784  0.127657  0.341425  1
  Li  Li4  1  0.003136  0.499513  0.501230  1
  Li  Li5  1  0.127657  0.258784  0.841425  1
  Mn  Mn6  1  0.637887  0.143003  0.149731  1
  Mn  Mn7  1  0.143003  0.637887  0.649731  1
  V  V8  1  0.855582  0.363480  0.355327  1
  V  V9  1  0.363480  0.855582  0.855327  1
  P  P10  1  0.248332  0.450246  0.034608  1
  P  P11  1  0.947725  0.053458  0.751630  1
  P  P12  1  0.548614  0.749243  0.464477  1
  P  P13  1  0.450246  0.248332  0.534608  1
  P  P14  1  0.053458  0.947725  0.251630  1
  P  P15  1  0.749243  0.548614  0.964477  1
  O  O16  1  0.812863  0.535644  0.111359  1
  O  O17  1  0.892501  0.966488  0.202912  1
  O  O18  1  0.682206  0.383951  0.024094  1
  O  O19  1  0.937119  0.239973  0.583229  1
  O  O20  1  0.388672  0.254560  0.075120  1
  O  O21  1  0.743408  0.603899  0.424141  1
  O  O22  1  0.547119  0.913832  0.272304  1
  O  O23  1  0.966488  0.892501  0.702912  1
  O  O24  1  0.239973  0.937119  0.083229  1
  O  O25  1  0.614122  0.317888  0.472077  1
  O  O26  1  0.913832  0.547119  0.772304  1
  O  O27  1  0.465466  0.185187  0.384782  1
  O  O28  1  0.535644  0.812863  0.611359  1
  O  O29  1  0.084252  0.458580  0.224083  1
  O  O30  1  0.383951  0.682206  0.524094  1
  O  O31  1  0.762753  0.064481  0.922894  1
  O  O32  1  0.022779  0.116274  0.297899  1
  O  O33  1  0.458580  0.084252  0.724083  1
  O  O34  1  0.254560  0.388672  0.575120  1
  O  O35  1  0.603899  0.743408  0.924141  1
  O  O36  1  0.064481  0.762753  0.422894  1
  O  O37  1  0.317888  0.614122  0.972077  1
  O  O38  1  0.116274  0.022779  0.797899  1
  O  O39  1  0.185187  0.465466  0.884782  1
