# generated using pymatgen
data_FeH2Cl5O3
_symmetry_space_group_name_H-M   'P 1'
_cell_length_a   7.12307544
_cell_length_b   8.50862528
_cell_length_c   14.45319975
_cell_angle_alpha   90.00000000
_cell_angle_beta   90.00000000
_cell_angle_gamma   90.00000000
_symmetry_Int_Tables_number   1
_chemical_formula_structural   FeH2Cl5O3
_chemical_formula_sum   'Fe4 H8 Cl20 O12'
_cell_volume   875.97345664
_cell_formula_units_Z   4
loop_
 _symmetry_equiv_pos_site_id
 _symmetry_equiv_pos_as_xyz
  1  'x, y, z'
loop_
 _atom_site_type_symbol
 _atom_site_label
 _atom_site_symmetry_multiplicity
 _atom_site_fract_x
 _atom_site_fract_y
 _atom_site_fract_z
 _atom_site_occupancy
  Fe  Fe0  1  0.819281  0.250000  0.892052  1
  Fe  Fe1  1  0.680719  0.250000  0.392052  1
  Fe  Fe2  1  0.180719  0.750000  0.107948  1
  Fe  Fe3  1  0.319281  0.750000  0.607948  1
  H  H4  1  0.578877  0.054365  0.609969  1
  H  H5  1  0.921123  0.445635  0.109969  1
  H  H6  1  0.421123  0.554365  0.390031  1
  H  H7  1  0.078877  0.945635  0.890031  1
  H  H8  1  0.421123  0.945635  0.390031  1
  H  H9  1  0.078877  0.554365  0.890031  1
  H  H10  1  0.578877  0.445635  0.609969  1
  H  H11  1  0.921123  0.054365  0.109969  1
  Cl  Cl12  1  0.133278  0.250000  0.832446  1
  Cl  Cl13  1  0.366722  0.250000  0.332446  1
  Cl  Cl14  1  0.866722  0.750000  0.167554  1
  Cl  Cl15  1  0.633278  0.750000  0.667554  1
  Cl  Cl16  1  0.644066  0.250000  0.735720  1
  Cl  Cl17  1  0.855934  0.250000  0.235720  1
  Cl  Cl18  1  0.355934  0.750000  0.264280  1
  Cl  Cl19  1  0.144066  0.750000  0.764280  1
  Cl  Cl20  1  0.766461  0.985028  0.881415  1
  Cl  Cl21  1  0.733539  0.514972  0.381415  1
  Cl  Cl22  1  0.233539  0.485028  0.118585  1
  Cl  Cl23  1  0.266461  0.014972  0.618585  1
  Cl  Cl24  1  0.233539  0.014972  0.118585  1
  Cl  Cl25  1  0.266461  0.485028  0.618585  1
  Cl  Cl26  1  0.766461  0.514972  0.881415  1
  Cl  Cl27  1  0.733539  0.985028  0.381415  1
  Cl  Cl28  1  0.593812  0.250000  0.021697  1
  Cl  Cl29  1  0.906188  0.250000  0.521697  1
  Cl  Cl30  1  0.406188  0.750000  0.978303  1
  Cl  Cl31  1  0.093812  0.750000  0.478303  1
  O  O32  1  0.957653  0.250000  0.006340  1
  O  O33  1  0.542347  0.250000  0.506340  1
  O  O34  1  0.042347  0.750000  0.993660  1
  O  O35  1  0.457653  0.750000  0.493660  1
  O  O36  1  0.210416  0.549270  0.865773  1
  O  O37  1  0.289584  0.950730  0.365773  1
  O  O38  1  0.789584  0.049270  0.134227  1
  O  O39  1  0.710416  0.450730  0.634227  1
  O  O40  1  0.789584  0.450730  0.134227  1
  O  O41  1  0.710416  0.049270  0.634227  1
  O  O42  1  0.210416  0.950730  0.865773  1
  O  O43  1  0.289584  0.549270  0.365773  1
