# generated using pymatgen
data_Li2NiP2O7
_symmetry_space_group_name_H-M   'P 1'
_cell_length_a   8.19207969
_cell_length_b   17.90800954
_cell_length_c   7.69773978
_cell_angle_alpha   90.00000000
_cell_angle_beta   92.22660306
_cell_angle_gamma   90.00000000
_symmetry_Int_Tables_number   1
_chemical_formula_structural   Li2NiP2O7
_chemical_formula_sum   'Li16 Ni8 P16 O56'
_cell_volume   1128.43536564
_cell_formula_units_Z   8
loop_
 _symmetry_equiv_pos_site_id
 _symmetry_equiv_pos_as_xyz
  1  'x, y, z'
loop_
 _atom_site_type_symbol
 _atom_site_label
 _atom_site_symmetry_multiplicity
 _atom_site_fract_x
 _atom_site_fract_y
 _atom_site_fract_z
 _atom_site_occupancy
  Li  Li0  1  0.001588  0.541547  0.695438  1
  Li  Li1  1  0.015552  0.292677  0.163934  1
  Li  Li2  1  0.071608  0.788627  0.344323  1
  Li  Li3  1  0.118440  0.098648  0.683519  1
  Li  Li4  1  0.168659  0.557316  0.159580  1
  Li  Li5  1  0.247557  0.364058  0.419024  1
  Li  Li6  1  0.274470  0.945002  0.098699  1
  Li  Li7  1  0.495919  0.186265  0.760919  1
  Li  Li8  1  0.504081  0.686265  0.239081  1
  Li  Li9  1  0.725530  0.445002  0.901301  1
  Li  Li10  1  0.752443  0.864058  0.580976  1
  Li  Li11  1  0.831341  0.057316  0.840420  1
  Li  Li12  1  0.881560  0.598648  0.316481  1
  Li  Li13  1  0.928392  0.288627  0.655677  1
  Li  Li14  1  0.984448  0.792677  0.836066  1
  Li  Li15  1  0.998412  0.041547  0.304562  1
  Ni  Ni16  1  0.410282  0.539411  0.889274  1
  Ni  Ni17  1  0.409292  0.790237  0.588839  1
  Ni  Ni18  1  0.404454  0.290472  0.095242  1
  Ni  Ni19  1  0.402276  0.043513  0.412861  1
  Ni  Ni20  1  0.597724  0.543513  0.587139  1
  Ni  Ni21  1  0.595546  0.790472  0.904758  1
  Ni  Ni22  1  0.590708  0.290237  0.411161  1
  Ni  Ni23  1  0.589718  0.039411  0.110726  1
  P  P24  1  0.133496  0.407709  0.928681  1
  P  P25  1  0.135008  0.925533  0.553685  1
  P  P26  1  0.241730  0.632908  0.554153  1
  P  P27  1  0.222860  0.201737  0.407440  1
  P  P28  1  0.243759  0.696448  0.910008  1
  P  P29  1  0.240006  0.131107  0.061176  1
  P  P30  1  0.436343  0.373891  0.745827  1
  P  P31  1  0.436918  0.954993  0.758305  1
  P  P32  1  0.563082  0.454993  0.241695  1
  P  P33  1  0.563657  0.873891  0.254173  1
  P  P34  1  0.759994  0.631107  0.938824  1
  P  P35  1  0.756241  0.196448  0.089992  1
  P  P36  1  0.777140  0.701737  0.592560  1
  P  P37  1  0.758270  0.132908  0.445847  1
  P  P38  1  0.864992  0.425533  0.446315  1
  P  P39  1  0.866504  0.907709  0.071319  1
  O  O40  1  0.955925  0.401840  0.868755  1
  O  O41  1  0.958257  0.921699  0.600433  1
  O  O42  1  0.103877  0.595310  0.446439  1
  O  O43  1  0.090501  0.249011  0.484041  1
  O  O44  1  0.115056  0.090260  0.945506  1
  O  O45  1  0.155435  0.661685  0.730382  1
  O  O46  1  0.114003  0.739131  0.001192  1
  O  O47  1  0.141668  0.163480  0.228945  1
  O  O48  1  0.187992  0.489535  0.961932  1
  O  O49  1  0.206028  0.849964  0.498429  1
  O  O50  1  0.173357  0.990942  0.428969  1
  O  O51  1  0.184331  0.352279  0.074381  1
  O  O52  1  0.239360  0.382576  0.762740  1
  O  O53  1  0.238217  0.948475  0.732435  1
  O  O54  1  0.323603  0.194627  0.964316  1
  O  O55  1  0.290499  0.139995  0.530514  1
  O  O56  1  0.315643  0.631590  0.023395  1
  O  O57  1  0.319865  0.697400  0.454122  1
  O  O58  1  0.365177  0.577979  0.637350  1
  O  O59  1  0.356689  0.249281  0.330596  1
  O  O60  1  0.374941  0.744894  0.830661  1
  O  O61  1  0.361394  0.079697  0.162227  1
  O  O62  1  0.438130  0.329792  0.580013  1
  O  O63  1  0.452259  0.982198  0.942538  1
  O  O64  1  0.495537  0.510935  0.367148  1
  O  O65  1  0.510783  0.452149  0.733981  1
  O  O66  1  0.491668  0.376700  0.264137  1
  O  O67  1  0.514761  0.330842  0.896133  1
  O  O68  1  0.485239  0.830842  0.103867  1
  O  O69  1  0.508332  0.876700  0.735863  1
  O  O70  1  0.489217  0.952149  0.266019  1
  O  O71  1  0.504463  0.010935  0.632852  1
  O  O72  1  0.547741  0.482198  0.057462  1
  O  O73  1  0.561870  0.829792  0.419987  1
  O  O74  1  0.638606  0.579697  0.837773  1
  O  O75  1  0.625059  0.244894  0.169339  1
  O  O76  1  0.643311  0.749281  0.669404  1
  O  O77  1  0.634823  0.077979  0.362650  1
  O  O78  1  0.680135  0.197400  0.545878  1
  O  O79  1  0.684357  0.131590  0.976605  1
  O  O80  1  0.709501  0.639995  0.469486  1
  O  O81  1  0.676397  0.694627  0.035684  1
  O  O82  1  0.761783  0.448475  0.267565  1
  O  O83  1  0.760640  0.882576  0.237260  1
  O  O84  1  0.815669  0.852279  0.925619  1
  O  O85  1  0.826643  0.490942  0.571031  1
  O  O86  1  0.793972  0.349963  0.501571  1
  O  O87  1  0.812008  0.989535  0.038068  1
  O  O88  1  0.858332  0.663480  0.771055  1
  O  O89  1  0.885997  0.239131  0.998808  1
  O  O90  1  0.844565  0.161685  0.269618  1
  O  O91  1  0.884944  0.590260  0.054494  1
  O  O92  1  0.909499  0.749011  0.515959  1
  O  O93  1  0.896123  0.095310  0.553561  1
  O  O94  1  0.041743  0.421699  0.399567  1
  O  O95  1  0.044075  0.901840  0.131245  1
