# generated using pymatgen
data_Fe3Pb8F24
_symmetry_space_group_name_H-M   'P 1'
_cell_length_a   10.68623137
_cell_length_b   10.61499229
_cell_length_c   9.57956813
_cell_angle_alpha   75.09429623
_cell_angle_beta   104.50328218
_cell_angle_gamma   149.12507345
_symmetry_Int_Tables_number   1
_chemical_formula_structural   Fe3Pb8F24
_chemical_formula_sum   'Fe3 Pb8 F24'
_cell_volume   537.90348019
_cell_formula_units_Z   1
loop_
 _symmetry_equiv_pos_site_id
 _symmetry_equiv_pos_as_xyz
  1  'x, y, z'
loop_
 _atom_site_type_symbol
 _atom_site_label
 _atom_site_symmetry_multiplicity
 _atom_site_fract_x
 _atom_site_fract_y
 _atom_site_fract_z
 _atom_site_occupancy
  Fe  Fe0  1  0.000000  0.000000  0.000000  1
  Fe  Fe1  1  0.450519  0.545487  0.248814  1
  Fe  Fe2  1  0.549481  0.454513  0.751186  1
  Pb  Pb3  1  0.265330  0.715113  0.359860  1
  Pb  Pb4  1  0.734670  0.284887  0.640140  1
  Pb  Pb5  1  0.357155  0.620016  0.826729  1
  Pb  Pb6  1  0.642845  0.379984  0.173271  1
  Pb  Pb7  1  0.176327  0.818592  0.897612  1
  Pb  Pb8  1  0.823673  0.181408  0.102388  1
  Pb  Pb9  1  0.912871  0.086183  0.562481  1
  Pb  Pb10  1  0.087129  0.913817  0.437519  1
  F  F11  1  0.021986  0.469901  0.875389  1
  F  F12  1  0.978014  0.530099  0.124611  1
  F  F13  1  0.572872  0.929036  0.608833  1
  F  F14  1  0.427128  0.070964  0.391167  1
  F  F15  1  0.078584  0.446383  0.613831  1
  F  F16  1  0.921416  0.553617  0.386169  1
  F  F17  1  0.293467  0.576775  0.139707  1
  F  F18  1  0.706533  0.423225  0.860293  1
  F  F19  1  0.831417  0.748210  0.632917  1
  F  F20  1  0.168583  0.251790  0.367083  1
  F  F21  1  0.109289  0.750857  0.643429  1
  F  F22  1  0.890711  0.249143  0.356571  1
  F  F23  1  0.271237  0.165852  0.877959  1
  F  F24  1  0.728763  0.834148  0.122041  1
  F  F25  1  0.706610  0.668978  0.897181  1
  F  F26  1  0.293390  0.331022  0.102819  1
  F  F27  1  0.403592  0.228926  0.623853  1
  F  F28  1  0.596408  0.771074  0.376147  1
  F  F29  1  0.388420  0.484369  0.664385  1
  F  F30  1  0.611580  0.515631  0.335615  1
  F  F31  1  0.044078  0.864499  0.147386  1
  F  F32  1  0.955922  0.135501  0.852614  1
  F  F33  1  0.517224  0.972489  0.867349  1
  F  F34  1  0.482776  0.027511  0.132651  1
