# generated using pymatgen
data_LiFeF4
_symmetry_space_group_name_H-M   'P 1'
_cell_length_a   6.05374512
_cell_length_b   7.78122057
_cell_length_c   8.88510564
_cell_angle_alpha   90.00000000
_cell_angle_beta   93.10547806
_cell_angle_gamma   90.00000000
_symmetry_Int_Tables_number   1
_chemical_formula_structural   LiFeF4
_chemical_formula_sum   'Li4 Fe4 F16'
_cell_volume   417.92295085
_cell_formula_units_Z   4
loop_
 _symmetry_equiv_pos_site_id
 _symmetry_equiv_pos_as_xyz
  1  'x, y, z'
loop_
 _atom_site_type_symbol
 _atom_site_label
 _atom_site_symmetry_multiplicity
 _atom_site_fract_x
 _atom_site_fract_y
 _atom_site_fract_z
 _atom_site_occupancy
  Li  Li0  1  0.088945  0.031438  0.767077  1
  Li  Li1  1  0.411055  0.531438  0.732923  1
  Li  Li2  1  0.588945  0.468562  0.267077  1
  Li  Li3  1  0.911055  0.968562  0.232923  1
  Fe  Fe4  1  0.110117  0.320253  0.440338  1
  Fe  Fe5  1  0.389883  0.820253  0.059662  1
  Fe  Fe6  1  0.610117  0.179747  0.940338  1
  Fe  Fe7  1  0.889883  0.679747  0.559662  1
  F  F8  1  0.013587  0.192663  0.271366  1
  F  F9  1  0.094799  0.153660  0.586995  1
  F  F10  1  0.099150  0.854485  0.105273  1
  F  F11  1  0.132439  0.510578  0.606380  1
  F  F12  1  0.367561  0.010578  0.893620  1
  F  F13  1  0.405201  0.653660  0.913005  1
  F  F14  1  0.400850  0.354485  0.394727  1
  F  F15  1  0.513587  0.307337  0.771366  1
  F  F16  1  0.486413  0.692663  0.228634  1
  F  F17  1  0.599150  0.645515  0.605273  1
  F  F18  1  0.594799  0.346340  0.086995  1
  F  F19  1  0.632439  0.989422  0.106380  1
  F  F20  1  0.867561  0.489422  0.393620  1
  F  F21  1  0.900850  0.145515  0.894727  1
  F  F22  1  0.905201  0.846340  0.413005  1
  F  F23  1  0.986413  0.807337  0.728634  1
