# generated using pymatgen
data_CoTe2O5
_symmetry_space_group_name_H-M   'P 1'
_cell_length_a   8.72700215
_cell_length_b   8.72700215
_cell_length_c   12.98589063
_cell_angle_alpha   90.00000000
_cell_angle_beta   90.00000000
_cell_angle_gamma   90.00000000
_symmetry_Int_Tables_number   1
_chemical_formula_structural   CoTe2O5
_chemical_formula_sum   'Co8 Te16 O40'
_cell_volume   989.01278723
_cell_formula_units_Z   8
loop_
 _symmetry_equiv_pos_site_id
 _symmetry_equiv_pos_as_xyz
  1  'x, y, z'
loop_
 _atom_site_type_symbol
 _atom_site_label
 _atom_site_symmetry_multiplicity
 _atom_site_fract_x
 _atom_site_fract_y
 _atom_site_fract_z
 _atom_site_occupancy
  Co  Co0  1  0.250000  0.250000  0.250000  1
  Co  Co1  1  0.250000  0.250000  0.000000  1
  Co  Co2  1  0.250000  0.250000  0.500000  1
  Co  Co3  1  0.250000  0.250000  0.750000  1
  Co  Co4  1  0.750000  0.750000  0.000000  1
  Co  Co5  1  0.750000  0.750000  0.250000  1
  Co  Co6  1  0.750000  0.750000  0.500000  1
  Co  Co7  1  0.750000  0.750000  0.750000  1
  Te  Te8  1  0.039436  0.567657  0.383027  1
  Te  Te9  1  0.039436  0.932343  0.616973  1
  Te  Te10  1  0.067657  0.960564  0.116973  1
  Te  Te11  1  0.067657  0.539436  0.883027  1
  Te  Te12  1  0.432343  0.539436  0.116973  1
  Te  Te13  1  0.432343  0.960564  0.883027  1
  Te  Te14  1  0.460564  0.567657  0.616973  1
  Te  Te15  1  0.460564  0.932343  0.383027  1
  Te  Te16  1  0.539436  0.432343  0.383027  1
  Te  Te17  1  0.539436  0.067657  0.616973  1
  Te  Te18  1  0.567657  0.039436  0.116973  1
  Te  Te19  1  0.567657  0.460564  0.883027  1
  Te  Te20  1  0.932343  0.039436  0.883027  1
  Te  Te21  1  0.932343  0.460564  0.116973  1
  Te  Te22  1  0.960564  0.432343  0.616973  1
  Te  Te23  1  0.960564  0.067657  0.383027  1
  O  O24  1  0.023701  0.126340  0.546880  1
  O  O25  1  0.023701  0.373660  0.453120  1
  O  O26  1  0.055033  0.444967  0.250000  1
  O  O27  1  0.055033  0.055033  0.750000  1
  O  O28  1  0.105853  0.174713  0.135824  1
  O  O29  1  0.105853  0.325287  0.864176  1
  O  O30  1  0.126340  0.476299  0.046880  1
  O  O31  1  0.126340  0.023701  0.953120  1
  O  O32  1  0.174713  0.105853  0.364176  1
  O  O33  1  0.174713  0.394147  0.635824  1
  O  O34  1  0.325287  0.105853  0.635824  1
  O  O35  1  0.325287  0.394147  0.364176  1
  O  O36  1  0.373660  0.023701  0.046880  1
  O  O37  1  0.373660  0.476299  0.953120  1
  O  O38  1  0.394147  0.325287  0.135824  1
  O  O39  1  0.394147  0.174713  0.864176  1
  O  O40  1  0.444967  0.055033  0.250000  1
  O  O41  1  0.444967  0.444967  0.750000  1
  O  O42  1  0.476299  0.126340  0.453120  1
  O  O43  1  0.476299  0.373660  0.546880  1
  O  O44  1  0.523701  0.626340  0.453120  1
  O  O45  1  0.523701  0.873660  0.546880  1
  O  O46  1  0.555033  0.555033  0.250000  1
  O  O47  1  0.555033  0.944967  0.750000  1
  O  O48  1  0.605853  0.674713  0.864176  1
  O  O49  1  0.605853  0.825287  0.135824  1
  O  O50  1  0.626340  0.523701  0.046880  1
  O  O51  1  0.626340  0.976299  0.953120  1
  O  O52  1  0.674713  0.605853  0.635824  1
  O  O53  1  0.674713  0.894147  0.364176  1
  O  O54  1  0.825287  0.605853  0.364176  1
  O  O55  1  0.825287  0.894147  0.635824  1
  O  O56  1  0.873660  0.523701  0.953120  1
  O  O57  1  0.873660  0.976299  0.046880  1
  O  O58  1  0.894147  0.674713  0.135824  1
  O  O59  1  0.894147  0.825287  0.864176  1
  O  O60  1  0.944967  0.555033  0.750000  1
  O  O61  1  0.944967  0.944967  0.250000  1
  O  O62  1  0.976299  0.626340  0.546880  1
  O  O63  1  0.976299  0.873660  0.453120  1
