# generated using pymatgen
data_CsK2Sc(PO4)2
_symmetry_space_group_name_H-M   'P 1'
_cell_length_a   5.55838441
_cell_length_b   5.55838441
_cell_length_c   8.03265829
_cell_angle_alpha   90.00000000
_cell_angle_beta   90.00000000
_cell_angle_gamma   119.99999996
_symmetry_Int_Tables_number   1
_chemical_formula_structural   CsK2Sc(PO4)2
_chemical_formula_sum   'Cs1 K2 Sc1 P2 O8'
_cell_volume   214.92507237
_cell_formula_units_Z   1
loop_
 _symmetry_equiv_pos_site_id
 _symmetry_equiv_pos_as_xyz
  1  'x, y, z'
loop_
 _atom_site_type_symbol
 _atom_site_label
 _atom_site_symmetry_multiplicity
 _atom_site_fract_x
 _atom_site_fract_y
 _atom_site_fract_z
 _atom_site_occupancy
  O  O0  1  0.361085  0.180604  0.150812  1
  O  O1  1  0.819519  0.638915  0.150812  1
  O  O2  1  0.819396  0.180481  0.150812  1
  O  O3  1  0.638915  0.819396  0.849188  1
  O  O4  1  0.180481  0.361085  0.849188  1
  O  O5  1  0.180604  0.819519  0.849188  1
  O  O6  1  0.666667  0.333333  0.407610  1
  O  O7  1  0.333333  0.666667  0.592390  1
  P  P8  1  0.333333  0.666667  0.782622  1
  P  P9  1  0.666667  0.333333  0.217378  1
  K  K10  1  0.333333  0.666667  0.248498  1
  K  K11  1  0.666667  0.333333  0.751502  1
  Sc  Sc12  1  0.000000  0.000000  0.000000  1
  Cs  Cs13  1  0.000000  0.000000  0.500000  1
