# generated using pymatgen
data_BaTbF6
_symmetry_space_group_name_H-M   'P 1'
_cell_length_a   5.50927574
_cell_length_b   7.28030617
_cell_length_c   7.28030617
_cell_angle_alpha   113.54104536
_cell_angle_beta   90.00000000
_cell_angle_gamma   90.00000000
_symmetry_Int_Tables_number   1
_chemical_formula_structural   BaTbF6
_chemical_formula_sum   'Ba2 Tb2 F12'
_cell_volume   267.70480877
_cell_formula_units_Z   2
loop_
 _symmetry_equiv_pos_site_id
 _symmetry_equiv_pos_as_xyz
  1  'x, y, z'
loop_
 _atom_site_type_symbol
 _atom_site_label
 _atom_site_symmetry_multiplicity
 _atom_site_fract_x
 _atom_site_fract_y
 _atom_site_fract_z
 _atom_site_occupancy
  F  F0  1  0.744493  0.444325  0.160485  1
  F  F1  1  0.744493  0.055675  0.339515  1
  F  F2  1  0.255507  0.160485  0.444325  1
  F  F3  1  0.255507  0.339515  0.055675  1
  F  F4  1  0.815383  0.443639  0.556361  1
  F  F5  1  0.815383  0.056361  0.943639  1
  F  F6  1  0.184617  0.556361  0.443639  1
  F  F7  1  0.184617  0.943639  0.056361  1
  F  F8  1  0.744493  0.660485  0.944325  1
  F  F9  1  0.744493  0.839515  0.555675  1
  F  F10  1  0.255507  0.944325  0.660485  1
  F  F11  1  0.255507  0.555675  0.839515  1
  Ba  Ba12  1  0.580227  0.250000  0.750000  1
  Ba  Ba13  1  0.419773  0.750000  0.250000  1
  Tb  Tb14  1  0.000000  0.250000  0.250000  1
  Tb  Tb15  1  0.000000  0.750000  0.750000  1
