# generated using pymatgen
data_Li4VF6
_symmetry_space_group_name_H-M   'P 1'
_cell_length_a   5.36689665
_cell_length_b   8.81611497
_cell_length_c   5.16058466
_cell_angle_alpha   90.00000000
_cell_angle_beta   109.74037489
_cell_angle_gamma   90.00000000
_symmetry_Int_Tables_number   1
_chemical_formula_structural   Li4VF6
_chemical_formula_sum   'Li8 V2 F12'
_cell_volume   229.82455275
_cell_formula_units_Z   2
loop_
 _symmetry_equiv_pos_site_id
 _symmetry_equiv_pos_as_xyz
  1  'x, y, z'
loop_
 _atom_site_type_symbol
 _atom_site_label
 _atom_site_symmetry_multiplicity
 _atom_site_fract_x
 _atom_site_fract_y
 _atom_site_fract_z
 _atom_site_occupancy
  Li  Li0  1  0.039471  0.167030  0.848883  1
  Li  Li1  1  0.039471  0.332970  0.348883  1
  Li  Li2  1  0.449003  0.837137  0.961080  1
  Li  Li3  1  0.449003  0.662863  0.461080  1
  Li  Li4  1  0.550997  0.337137  0.538920  1
  Li  Li5  1  0.550997  0.162863  0.038920  1
  Li  Li6  1  0.960529  0.667030  0.651117  1
  Li  Li7  1  0.960529  0.832970  0.151117  1
  V  V8  1  0.500000  0.000000  0.500000  1
  V  V9  1  0.500000  0.500000  0.000000  1
  F  F10  1  0.235237  0.825508  0.534888  1
  F  F11  1  0.273269  0.492774  0.577285  1
  F  F12  1  0.303293  0.181950  0.626000  1
  F  F13  1  0.235237  0.674492  0.034888  1
  F  F14  1  0.273269  0.007226  0.077285  1
  F  F15  1  0.303293  0.318050  0.126000  1
  F  F16  1  0.696707  0.681950  0.874000  1
  F  F17  1  0.726731  0.992774  0.922715  1
  F  F18  1  0.764763  0.325508  0.965112  1
  F  F19  1  0.696707  0.818050  0.374000  1
  F  F20  1  0.726731  0.507226  0.422715  1
  F  F21  1  0.764763  0.174492  0.465112  1
