# generated using pymatgen
data_Yb3GeO
_symmetry_space_group_name_H-M   'P 1'
_cell_length_a   6.59337101
_cell_length_b   6.57013875
_cell_length_c   6.58837721
_cell_angle_alpha   120.14203231
_cell_angle_beta   120.02506353
_cell_angle_gamma   90.00003601
_symmetry_Int_Tables_number   1
_chemical_formula_structural   Yb3GeO
_chemical_formula_sum   'Yb6 Ge2 O2'
_cell_volume   201.30026224
_cell_formula_units_Z   2
loop_
 _symmetry_equiv_pos_site_id
 _symmetry_equiv_pos_as_xyz
  1  'x, y, z'
loop_
 _atom_site_type_symbol
 _atom_site_label
 _atom_site_symmetry_multiplicity
 _atom_site_fract_x
 _atom_site_fract_y
 _atom_site_fract_z
 _atom_site_occupancy
  Yb  Yb0  1  0.285612  0.743777  0.499998  1
  Yb  Yb1  1  0.714386  0.243777  0.499998  1
  Yb  Yb2  1  0.778564  0.249303  0.035882  1
  Yb  Yb3  1  0.240472  0.233453  0.964029  1
  Yb  Yb4  1  0.223556  0.733453  0.964028  1
  Yb  Yb5  1  0.757316  0.749302  0.035881  1
  Ge  Ge6  1  0.249624  0.240655  0.500099  1
  Ge  Ge7  1  0.750475  0.740655  0.500100  1
  O  O8  1  0.500187  0.991169  0.999997  1
  O  O9  1  0.999810  0.491168  0.999996  1
