# generated using pymatgen
data_CaP3H16(NO4)3
_symmetry_space_group_name_H-M   'P 1'
_cell_length_a   7.00428746
_cell_length_b   18.87068697
_cell_length_c   10.90876094
_cell_angle_alpha   90.00000000
_cell_angle_beta   101.74257961
_cell_angle_gamma   90.00000000
_symmetry_Int_Tables_number   1
_chemical_formula_structural   CaP3H16(NO4)3
_chemical_formula_sum   'Ca4 P12 H64 N12 O48'
_cell_volume   1411.69753135
_cell_formula_units_Z   4
loop_
 _symmetry_equiv_pos_site_id
 _symmetry_equiv_pos_as_xyz
  1  'x, y, z'
loop_
 _atom_site_type_symbol
 _atom_site_label
 _atom_site_symmetry_multiplicity
 _atom_site_fract_x
 _atom_site_fract_y
 _atom_site_fract_z
 _atom_site_occupancy
  Ca  Ca0  1  0.099862  0.317817  0.508505  1
  Ca  Ca1  1  0.400138  0.817817  0.991495  1
  Ca  Ca2  1  0.599862  0.182183  0.008505  1
  Ca  Ca3  1  0.900138  0.682183  0.491495  1
  P  P4  1  0.083019  0.822775  0.703499  1
  P  P5  1  0.227693  0.965950  0.783841  1
  P  P6  1  0.272307  0.465950  0.716159  1
  P  P7  1  0.113577  0.209360  0.084349  1
  P  P8  1  0.416981  0.322775  0.796501  1
  P  P9  1  0.386423  0.709360  0.415651  1
  P  P10  1  0.613577  0.290640  0.584349  1
  P  P11  1  0.583019  0.677225  0.203499  1
  P  P12  1  0.886423  0.790640  0.915651  1
  P  P13  1  0.727693  0.534050  0.283841  1
  P  P14  1  0.772307  0.034050  0.216159  1
  P  P15  1  0.916981  0.177225  0.296501  1
  H  H16  1  0.002609  0.366751  0.850443  1
  H  H17  1  0.038789  0.588982  0.735485  1
  H  H18  1  0.040324  0.102993  0.747028  1
  H  H19  1  0.137566  0.186824  0.736301  1
  H  H20  1  0.009025  0.829069  0.162833  1
  H  H21  1  0.050940  0.336674  0.229847  1
  H  H22  1  0.105080  0.824893  0.316290  1
  H  H23  1  0.118247  0.514432  0.323789  1
  H  H24  1  0.036472  0.340401  0.002777  1
  H  H25  1  0.197177  0.975974  0.431557  1
  H  H26  1  0.113868  0.586194  0.054805  1
  H  H27  1  0.235428  0.488043  0.467247  1
  H  H28  1  0.131111  0.009922  0.143827  1
  H  H29  1  0.246675  0.574486  0.421246  1
  H  H30  1  0.362434  0.686824  0.763699  1
  H  H31  1  0.180163  0.670460  0.093782  1
  H  H32  1  0.190751  0.503631  0.934645  1
  H  H33  1  0.309249  0.003631  0.565355  1
  H  H34  1  0.319837  0.170460  0.406218  1
  H  H35  1  0.459676  0.602993  0.752972  1
  H  H36  1  0.461211  0.088982  0.764515  1
  H  H37  1  0.253325  0.074486  0.078754  1
  H  H38  1  0.368889  0.509922  0.356173  1
  H  H39  1  0.264572  0.988043  0.032753  1
  H  H40  1  0.386132  0.086194  0.445195  1
  H  H41  1  0.497391  0.866751  0.649557  1
  H  H42  1  0.302823  0.475974  0.068443  1
  H  H43  1  0.509025  0.670931  0.662833  1
  H  H44  1  0.463528  0.840401  0.497223  1
  H  H45  1  0.550940  0.163326  0.729847  1
  H  H46  1  0.605080  0.675107  0.816290  1
  H  H47  1  0.381753  0.014432  0.176211  1
  H  H48  1  0.618247  0.985568  0.823789  1
  H  H49  1  0.394920  0.324893  0.183710  1
  H  H50  1  0.449060  0.836674  0.270153  1
  H  H51  1  0.536472  0.159599  0.502777  1
  H  H52  1  0.490975  0.329069  0.337167  1
  H  H53  1  0.697177  0.524026  0.931557  1
  H  H54  1  0.502609  0.133249  0.350443  1
  H  H55  1  0.613868  0.913806  0.554805  1
  H  H56  1  0.735428  0.011957  0.967247  1
  H  H57  1  0.631111  0.490078  0.643827  1
  H  H58  1  0.746675  0.925514  0.921246  1
  H  H59  1  0.538789  0.911018  0.235485  1
  H  H60  1  0.540324  0.397007  0.247028  1
  H  H61  1  0.680163  0.829540  0.593782  1
  H  H62  1  0.690751  0.996369  0.434645  1
  H  H63  1  0.809249  0.496369  0.065355  1
  H  H64  1  0.819837  0.329540  0.906218  1
  H  H65  1  0.637566  0.313176  0.236301  1
  H  H66  1  0.753325  0.425514  0.578754  1
  H  H67  1  0.868889  0.990078  0.856173  1
  H  H68  1  0.764572  0.511957  0.532753  1
  H  H69  1  0.886132  0.413806  0.945195  1
  H  H70  1  0.802823  0.024026  0.568443  1
  H  H71  1  0.963528  0.659599  0.997223  1
  H  H72  1  0.881753  0.485568  0.676211  1
  H  H73  1  0.894920  0.175107  0.683710  1
  H  H74  1  0.949060  0.663326  0.770153  1
  H  H75  1  0.990975  0.170931  0.837167  1
  H  H76  1  0.862434  0.813176  0.263699  1
  H  H77  1  0.959676  0.897007  0.252972  1
  H  H78  1  0.961211  0.411018  0.264515  1
  H  H79  1  0.997391  0.633249  0.149557  1
  N  N80  1  0.017245  0.158238  0.748589  1
  N  N81  1  0.061387  0.636861  0.073779  1
  N  N82  1  0.244550  0.521748  0.392693  1
  N  N83  1  0.255450  0.021748  0.107307  1
  N  N84  1  0.482755  0.658238  0.751411  1
  N  N85  1  0.438613  0.136861  0.426221  1
  N  N86  1  0.561387  0.863139  0.573779  1
  N  N87  1  0.517245  0.341763  0.248589  1
  N  N88  1  0.744550  0.978252  0.892693  1
  N  N89  1  0.755450  0.478252  0.607307  1
  N  N90  1  0.938613  0.363139  0.926221  1
  N  N91  1  0.982755  0.841762  0.251411  1
  O  O92  1  0.055883  0.015258  0.783876  1
  O  O93  1  0.109363  0.500103  0.772444  1
  O  O94  1  0.020406  0.205027  0.422226  1
  O  O95  1  0.010821  0.364190  0.298345  1
  O  O96  1  0.147033  0.902606  0.679998  1
  O  O97  1  0.197487  0.429382  0.590561  1
  O  O98  1  0.256855  0.783329  0.777392  1
  O  O99  1  0.243145  0.283329  0.722608  1
  O  O100  1  0.080864  0.167207  0.212512  1
  O  O101  1  0.302513  0.929382  0.909439  1
  O  O102  1  0.209875  0.670045  0.443985  1
  O  O103  1  0.071938  0.800312  0.015473  1
  O  O104  1  0.352967  0.402606  0.820002  1
  O  O105  1  0.153722  0.287826  0.120821  1
  O  O106  1  0.390637  0.000103  0.727556  1
  O  O107  1  0.226349  0.514746  0.025361  1
  O  O108  1  0.273651  0.014746  0.474639  1
  O  O109  1  0.444117  0.515258  0.716124  1
  O  O110  1  0.520406  0.294973  0.922226  1
  O  O111  1  0.346278  0.787826  0.379179  1
  O  O112  1  0.510821  0.135810  0.798345  1
  O  O113  1  0.428062  0.300312  0.484527  1
  O  O114  1  0.290125  0.170045  0.056015  1
  O  O115  1  0.419136  0.667207  0.287488  1
  O  O116  1  0.580864  0.332793  0.712512  1
  O  O117  1  0.709875  0.829955  0.943985  1
  O  O118  1  0.571938  0.699688  0.515473  1
  O  O119  1  0.489178  0.864190  0.201655  1
  O  O120  1  0.653722  0.212174  0.620821  1
  O  O121  1  0.479594  0.705027  0.077774  1
  O  O122  1  0.555883  0.484742  0.283876  1
  O  O123  1  0.726349  0.985254  0.525361  1
  O  O124  1  0.773651  0.485254  0.974639  1
  O  O125  1  0.609363  0.999897  0.272444  1
  O  O126  1  0.846278  0.712174  0.879179  1
  O  O127  1  0.647033  0.597394  0.179998  1
  O  O128  1  0.928062  0.199688  0.984527  1
  O  O129  1  0.790125  0.329955  0.556015  1
  O  O130  1  0.697487  0.070618  0.090561  1
  O  O131  1  0.919136  0.832793  0.787488  1
  O  O132  1  0.756855  0.716671  0.277392  1
  O  O133  1  0.743145  0.216671  0.222608  1
  O  O134  1  0.802513  0.570618  0.409439  1
  O  O135  1  0.852967  0.097394  0.320002  1
  O  O136  1  0.989179  0.635810  0.701655  1
  O  O137  1  0.979594  0.794973  0.577774  1
  O  O138  1  0.890637  0.499897  0.227556  1
  O  O139  1  0.944117  0.984742  0.216124  1
