# generated using pymatgen
data_Li3P7W5O29
_symmetry_space_group_name_H-M   'P 1'
_cell_length_a   6.55311819
_cell_length_b   10.79559113
_cell_length_c   19.75883125
_cell_angle_alpha   90.94511374
_cell_angle_beta   85.33183215
_cell_angle_gamma   72.24830508
_symmetry_Int_Tables_number   1
_chemical_formula_structural   Li3P7W5O29
_chemical_formula_sum   'Li6 P14 W10 O58'
_cell_volume   1325.60569809
_cell_formula_units_Z   2
loop_
 _symmetry_equiv_pos_site_id
 _symmetry_equiv_pos_as_xyz
  1  'x, y, z'
loop_
 _atom_site_type_symbol
 _atom_site_label
 _atom_site_symmetry_multiplicity
 _atom_site_fract_x
 _atom_site_fract_y
 _atom_site_fract_z
 _atom_site_occupancy
  Li  Li0  1  0.465391  0.980344  0.536351  1
  Li  Li1  1  0.323260  0.374950  0.752587  1
  Li  Li2  1  0.184734  0.669803  0.819909  1
  Li  Li3  1  0.912904  0.893010  0.065653  1
  Li  Li4  1  0.829955  0.335015  0.172670  1
  Li  Li5  1  0.679515  0.625627  0.248756  1
  P  P6  1  0.155615  0.441095  0.224917  1
  P  P7  1  0.031625  0.682770  0.453941  1
  P  P8  1  0.175065  0.650995  0.020364  1
  P  P9  1  0.388310  0.049009  0.340496  1
  P  P10  1  0.248597  0.712529  0.573907  1
  P  P11  1  0.414397  0.207502  0.848369  1
  P  P12  1  0.085698  0.918141  0.801772  1
  P  P13  1  0.912389  0.084621  0.195034  1
  P  P14  1  0.589553  0.794054  0.150733  1
  P  P15  1  0.754064  0.289672  0.423237  1
  P  P16  1  0.612575  0.952685  0.657573  1
  P  P17  1  0.821461  0.355878  0.978391  1
  P  P18  1  0.970809  0.317585  0.544913  1
  P  P19  1  0.850186  0.560130  0.773067  1
  W  W20  1  0.070791  0.041823  0.647112  1
  W  W21  1  0.319614  0.322072  0.018028  1
  W  W22  1  0.399297  0.140049  0.164096  1
  W  W23  1  0.103606  0.755062  0.193447  1
  W  W24  1  0.208897  0.368551  0.393891  1
  W  W25  1  0.788529  0.632367  0.604880  1
  W  W26  1  0.899151  0.245822  0.807559  1
  W  W27  1  0.601378  0.863000  0.834234  1
  W  W28  1  0.672360  0.682401  0.981041  1
  W  W29  1  0.925679  0.962935  0.352785  1
  O  O30  1  0.011978  0.296794  0.020931  1
  O  O31  1  0.072255  0.158643  0.170525  1
  O  O32  1  0.010894  0.053681  0.835954  1
  O  O33  1  0.047754  0.178443  0.568533  1
  O  O34  1  0.167817  0.513923  0.038970  1
  O  O35  1  0.144427  0.348585  0.497922  1
  O  O36  1  0.394437  0.082048  0.265043  1
  O  O37  1  0.272977  0.345677  0.163537  1
  O  O38  1  0.416851  0.164080  0.066686  1
  O  O39  1  0.159483  0.733675  0.086756  1
  O  O40  1  0.023380  0.818981  0.286101  1
  O  O41  1  0.322288  0.172122  0.388440  1
  O  O42  1  0.113538  0.571995  0.398798  1
  O  O43  1  0.222279  0.566843  0.211969  1
  O  O44  1  0.256762  0.383817  0.289117  1
  O  O45  1  0.212512  0.256392  0.809380  1
  O  O46  1  0.090155  0.655494  0.613795  1
  O  O47  1  0.093599  0.538452  0.772333  1
  O  O48  1  0.391073  0.039264  0.634825  1
  O  O49  1  0.239825  0.674321  0.495041  1
  O  O50  1  0.488208  0.062681  0.859544  1
  O  O51  1  0.374377  0.281260  0.919055  1
  O  O52  1  0.114425  0.910188  0.724230  1
  O  O53  1  0.195752  0.861841  0.579631  1
  O  O54  1  0.615122  0.361332  0.022531  1
  O  O55  1  0.695163  0.171623  0.171368  1
  O  O56  1  0.232484  0.970424  0.359619  1
  O  O57  1  0.524797  0.360364  0.407046  1
  O  O58  1  0.421448  0.759044  0.199191  1
  O  O59  1  0.574526  0.255100  0.801823  1
  O  O60  1  0.479187  0.637996  0.588713  1
  O  O61  1  0.766841  0.032862  0.640499  1
  O  O62  1  0.304445  0.833002  0.826140  1
  O  O63  1  0.374826  0.646416  0.973636  1
  O  O64  1  0.817016  0.141090  0.415271  1
  O  O65  1  0.890008  0.086459  0.271698  1
  O  O66  1  0.621071  0.716924  0.081322  1
  O  O67  1  0.542162  0.937369  0.134339  1
  O  O68  1  0.763814  0.325126  0.502267  1
  O  O69  1  0.611387  0.964050  0.359530  1
  O  O70  1  0.910620  0.466060  0.226745  1
  O  O71  1  0.910652  0.349304  0.382603  1
  O  O72  1  0.792533  0.740698  0.188848  1
  O  O73  1  0.760208  0.620072  0.706483  1
  O  O74  1  0.786620  0.434267  0.782655  1
  O  O75  1  0.882807  0.424591  0.601200  1
  O  O76  1  0.673464  0.836301  0.604965  1
  O  O77  1  0.977703  0.184281  0.712815  1
  O  O78  1  0.839611  0.280684  0.910806  1
  O  O79  1  0.584756  0.839091  0.931758  1
  O  O80  1  0.721468  0.656585  0.832169  1
  O  O81  1  0.600007  0.915246  0.731168  1
  O  O82  1  0.858715  0.654666  0.503061  1
  O  O83  1  0.826944  0.495653  0.959430  1
  O  O84  1  0.957780  0.819445  0.428543  1
  O  O85  1  0.979241  0.948532  0.157770  1
  O  O86  1  0.929845  0.839519  0.825137  1
  O  O87  1  0.970441  0.724654  0.985542  1
