# generated using pymatgen
data_YNiGe3
_symmetry_space_group_name_H-M   'P 1'
_cell_length_a   4.11233621
_cell_length_b   4.09576524
_cell_length_c   11.04454711
_cell_angle_alpha   90.00000000
_cell_angle_beta   100.72937876
_cell_angle_gamma   90.00000000
_symmetry_Int_Tables_number   1
_chemical_formula_structural   YNiGe3
_chemical_formula_sum   'Y2 Ni2 Ge6'
_cell_volume   182.77292448
_cell_formula_units_Z   2
loop_
 _symmetry_equiv_pos_site_id
 _symmetry_equiv_pos_as_xyz
  1  'x, y, z'
loop_
 _atom_site_type_symbol
 _atom_site_label
 _atom_site_symmetry_multiplicity
 _atom_site_fract_x
 _atom_site_fract_y
 _atom_site_fract_z
 _atom_site_occupancy
  Ni  Ni0  1  0.389516  0.000000  0.779031  1
  Ni  Ni1  1  0.610484  0.000000  0.220969  1
  Ge  Ge2  1  0.942572  0.000000  0.885144  1
  Ge  Ge3  1  0.057428  0.000000  0.114856  1
  Ge  Ge4  1  0.716611  0.000000  0.433223  1
  Ge  Ge5  1  0.283389  0.000000  0.566777  1
  Ge  Ge6  1  0.557256  0.500000  0.114513  1
  Ge  Ge7  1  0.442744  0.500000  0.885487  1
  Y  Y8  1  0.169248  0.500000  0.338496  1
  Y  Y9  1  0.830752  0.500000  0.661504  1
