# generated using pymatgen
data_RbVGa(PO5)2
_symmetry_space_group_name_H-M   'P 1'
_cell_length_a   7.96449787
_cell_length_b   8.17232335
_cell_length_c   14.21139930
_cell_angle_alpha   90.00000000
_cell_angle_beta   105.29565514
_cell_angle_gamma   90.00000000
_symmetry_Int_Tables_number   1
_chemical_formula_structural   RbVGa(PO5)2
_chemical_formula_sum   'Rb4 V4 Ga4 P8 O40'
_cell_volume   892.23217024
_cell_formula_units_Z   4
loop_
 _symmetry_equiv_pos_site_id
 _symmetry_equiv_pos_as_xyz
  1  'x, y, z'
loop_
 _atom_site_type_symbol
 _atom_site_label
 _atom_site_symmetry_multiplicity
 _atom_site_fract_x
 _atom_site_fract_y
 _atom_site_fract_z
 _atom_site_occupancy
  Rb  Rb0  1  0.319847  0.963134  0.206751  1
  Rb  Rb1  1  0.680153  0.463134  0.293249  1
  Rb  Rb2  1  0.680153  0.036866  0.793249  1
  Rb  Rb3  1  0.319847  0.536866  0.706751  1
  V  V4  1  0.801587  0.949752  0.132327  1
  V  V5  1  0.198413  0.449752  0.367673  1
  V  V6  1  0.198413  0.050248  0.867673  1
  V  V7  1  0.801587  0.550248  0.632327  1
  Ga  Ga8  1  0.720131  0.038556  0.473966  1
  Ga  Ga9  1  0.279869  0.538556  0.026034  1
  Ga  Ga10  1  0.279869  0.961444  0.526034  1
  Ga  Ga11  1  0.720131  0.461444  0.973966  1
  P  P12  1  0.004113  0.099804  0.350668  1
  P  P13  1  0.995887  0.599804  0.149333  1
  P  P14  1  0.995887  0.900196  0.649332  1
  P  P15  1  0.004113  0.400196  0.850668  1
  P  P16  1  0.495820  0.779302  0.959195  1
  P  P17  1  0.504180  0.279302  0.540805  1
  P  P18  1  0.504180  0.220698  0.040805  1
  P  P19  1  0.495820  0.720698  0.459195  1
  O  O20  1  0.961982  0.067434  0.240225  1
  O  O21  1  0.038018  0.567434  0.259775  1
  O  O22  1  0.038018  0.932566  0.759775  1
  O  O23  1  0.961982  0.432566  0.740225  1
  O  O24  1  0.659885  0.883179  0.005313  1
  O  O25  1  0.340115  0.383179  0.494688  1
  O  O26  1  0.340115  0.116821  0.994687  1
  O  O27  1  0.659885  0.616821  0.505313  1
  O  O28  1  0.931147  0.094897  0.069533  1
  O  O29  1  0.068853  0.594897  0.430467  1
  O  O30  1  0.068853  0.905103  0.930467  1
  O  O31  1  0.931147  0.405103  0.569533  1
  O  O32  1  0.982482  0.785251  0.127715  1
  O  O33  1  0.017518  0.285251  0.372285  1
  O  O34  1  0.017518  0.214749  0.872285  1
  O  O35  1  0.982482  0.714749  0.627715  1
  O  O36  1  0.618582  0.128877  0.128887  1
  O  O37  1  0.381418  0.628877  0.371113  1
  O  O38  1  0.381418  0.871123  0.871113  1
  O  O39  1  0.618582  0.371123  0.628887  1
  O  O40  1  0.861546  0.025938  0.392731  1
  O  O41  1  0.138454  0.525938  0.107269  1
  O  O42  1  0.138454  0.974062  0.607269  1
  O  O43  1  0.861546  0.474062  0.892731  1
  O  O44  1  0.180272  0.011903  0.397037  1
  O  O45  1  0.819728  0.511903  0.102963  1
  O  O46  1  0.819728  0.988097  0.602963  1
  O  O47  1  0.180272  0.488097  0.897037  1
  O  O48  1  0.550245  0.616097  0.918603  1
  O  O49  1  0.449755  0.116097  0.581397  1
  O  O50  1  0.449755  0.383903  0.081397  1
  O  O51  1  0.550245  0.883903  0.418603  1
  O  O52  1  0.714790  0.833978  0.203179  1
  O  O53  1  0.285210  0.333978  0.296821  1
  O  O54  1  0.285210  0.166022  0.796821  1
  O  O55  1  0.714790  0.666022  0.703179  1
  O  O56  1  0.398088  0.736367  0.038199  1
  O  O57  1  0.601912  0.236367  0.461801  1
  O  O58  1  0.601912  0.263633  0.961801  1
  O  O59  1  0.398088  0.763633  0.538199  1
