# generated using pymatgen
data_DyAgH2C2SO9
_symmetry_space_group_name_H-M   'P 1'
_cell_length_a   7.73725518
_cell_length_b   7.73725518
_cell_length_c   9.08685372
_cell_angle_alpha   65.99483703
_cell_angle_beta   114.00516297
_cell_angle_gamma   126.56489691
_symmetry_Int_Tables_number   1
_chemical_formula_structural   DyAgH2C2SO9
_chemical_formula_sum   'Dy2 Ag2 H4 C4 S2 O18'
_cell_volume   388.97385495
_cell_formula_units_Z   2
loop_
 _symmetry_equiv_pos_site_id
 _symmetry_equiv_pos_as_xyz
  1  'x, y, z'
loop_
 _atom_site_type_symbol
 _atom_site_label
 _atom_site_symmetry_multiplicity
 _atom_site_fract_x
 _atom_site_fract_y
 _atom_site_fract_z
 _atom_site_occupancy
  Dy  Dy0  1  0.242788  0.757211  0.268235  1
  Dy  Dy1  1  0.757211  0.242788  0.731765  1
  Ag  Ag2  1  0.086682  0.913318  0.668664  1
  Ag  Ag3  1  0.913318  0.086682  0.331336  1
  H  H4  1  0.414777  0.585223  0.146371  1
  H  H5  1  0.585223  0.414776  0.853629  1
  H  H6  1  0.301179  0.698821  0.988618  1
  H  H7  1  0.698821  0.301179  0.011382  1
  C  C8  1  0.016937  0.983063  0.930451  1
  C  C9  1  0.983062  0.016938  0.069549  1
  C  C10  1  0.609112  0.609111  0.500001  1
  C  C11  1  0.390889  0.390887  0.500001  1
  S  S12  1  0.333784  0.666215  0.716045  1
  S  S13  1  0.666215  0.333785  0.283955  1
  O  O14  1  0.335377  0.664622  0.108996  1
  O  O15  1  0.664622  0.335377  0.891004  1
  O  O16  1  0.448049  0.551951  0.752438  1
  O  O17  1  0.551951  0.448049  0.247562  1
  O  O18  1  0.479757  0.865706  0.790054  1
  O  O19  1  0.865706  0.479758  0.209946  1
  O  O20  1  0.520243  0.134295  0.209946  1
  O  O21  1  0.134295  0.520244  0.790054  1
  O  O22  1  0.260647  0.739353  0.533233  1
  O  O23  1  0.739353  0.260646  0.466767  1
  O  O24  1  0.600166  0.782218  0.417863  1
  O  O25  1  0.782219  0.600164  0.582139  1
  O  O26  1  0.399835  0.217780  0.582139  1
  O  O27  1  0.217781  0.399834  0.417863  1
  O  O28  1  0.942571  0.057428  0.782634  1
  O  O29  1  0.057429  0.942571  0.217366  1
  O  O30  1  0.118161  0.881839  0.973235  1
  O  O31  1  0.881839  0.118161  0.026765  1
