# generated using pymatgen
data_Ti3Mn2Co(PO4)6
_symmetry_space_group_name_H-M   'P 1'
_cell_length_a   8.65672608
_cell_length_b   8.65672652
_cell_length_c   8.65672625
_cell_angle_alpha   60.04098734
_cell_angle_beta   60.04098372
_cell_angle_gamma   60.04098860
_symmetry_Int_Tables_number   1
_chemical_formula_structural   Ti3Mn2Co(PO4)6
_chemical_formula_sum   'Ti3 Mn2 Co1 P6 O24'
_cell_volume   459.14445480
_cell_formula_units_Z   1
loop_
 _symmetry_equiv_pos_site_id
 _symmetry_equiv_pos_as_xyz
  1  'x, y, z'
loop_
 _atom_site_type_symbol
 _atom_site_label
 _atom_site_symmetry_multiplicity
 _atom_site_fract_x
 _atom_site_fract_y
 _atom_site_fract_z
 _atom_site_occupancy
  Ti  Ti0  1  0.143914  0.143914  0.143914  1
  Ti  Ti1  1  0.354225  0.354225  0.354225  1
  Ti  Ti2  1  0.646802  0.646802  0.646802  1
  Mn  Mn3  1  0.996110  0.996110  0.996110  1
  Mn  Mn4  1  0.499471  0.499471  0.499471  1
  Co  Co5  1  0.855699  0.855699  0.855699  1
  P  P6  1  0.250359  0.542343  0.957164  1
  P  P7  1  0.542343  0.957164  0.250359  1
  P  P8  1  0.957164  0.250359  0.542343  1
  P  P9  1  0.043904  0.751540  0.458585  1
  P  P10  1  0.458585  0.043904  0.751540  1
  P  P11  1  0.751540  0.458585  0.043904  1
  O  O12  1  0.119199  0.313507  0.493774  1
  O  O13  1  0.313507  0.493774  0.119199  1
  O  O14  1  0.058468  0.913920  0.262786  1
  O  O15  1  0.493774  0.119199  0.313507  1
  O  O16  1  0.012624  0.805914  0.614223  1
  O  O17  1  0.235817  0.583962  0.435697  1
  O  O18  1  0.262786  0.058468  0.913920  1
  O  O19  1  0.435697  0.235817  0.583962  1
  O  O20  1  0.193893  0.377486  0.999905  1
  O  O21  1  0.583962  0.435697  0.235817  1
  O  O22  1  0.090525  0.733115  0.946169  1
  O  O23  1  0.377486  0.999905  0.193893  1
  O  O24  1  0.614223  0.012624  0.805914  1
  O  O25  1  0.913920  0.262786  0.058468  1
  O  O26  1  0.417407  0.554238  0.765254  1
  O  O27  1  0.805914  0.614223  0.012624  1
  O  O28  1  0.554238  0.765254  0.417407  1
  O  O29  1  0.733115  0.946169  0.090525  1
  O  O30  1  0.765254  0.417407  0.554238  1
  O  O31  1  0.999905  0.193893  0.377486  1
  O  O32  1  0.500161  0.878457  0.693385  1
  O  O33  1  0.946169  0.090525  0.733115  1
  O  O34  1  0.693385  0.500161  0.878457  1
  O  O35  1  0.878457  0.693385  0.500161  1
