# generated using pymatgen
data_CaSnS3
_symmetry_space_group_name_H-M   'P 1'
_cell_length_a   7.18351293
_cell_length_b   16.57166939
_cell_length_c   27.93711153
_cell_angle_alpha   86.41423672
_cell_angle_beta   82.61327543
_cell_angle_gamma   77.48231940
_symmetry_Int_Tables_number   1
_chemical_formula_structural   CaSnS3
_chemical_formula_sum   'Ca24 Sn24 S72'
_cell_volume   3217.64693179
_cell_formula_units_Z   24
loop_
 _symmetry_equiv_pos_site_id
 _symmetry_equiv_pos_as_xyz
  1  'x, y, z'
loop_
 _atom_site_type_symbol
 _atom_site_label
 _atom_site_symmetry_multiplicity
 _atom_site_fract_x
 _atom_site_fract_y
 _atom_site_fract_z
 _atom_site_occupancy
  Ca  Ca0  1  0.500000  0.500000  0.000000  1
  Ca  Ca1  1  0.000000  0.000000  0.500000  1
  Ca  Ca2  1  0.938100  0.750000  0.250000  1
  Ca  Ca3  1  0.061900  0.250000  0.750000  1
  Ca  Ca4  1  0.241513  0.475036  0.457751  1
  Ca  Ca5  1  0.174299  0.024964  0.042249  1
  Ca  Ca6  1  0.758487  0.524964  0.542249  1
  Ca  Ca7  1  0.825701  0.975036  0.957751  1
  Ca  Ca8  1  0.469896  0.149975  0.424746  1
  Ca  Ca9  1  0.044617  0.350025  0.075254  1
  Ca  Ca10  1  0.530104  0.850025  0.575254  1
  Ca  Ca11  1  0.955383  0.649975  0.924746  1
  Ca  Ca12  1  0.376182  0.564472  0.315907  1
  Ca  Ca13  1  0.256561  0.935528  0.184093  1
  Ca  Ca14  1  0.623818  0.435528  0.684093  1
  Ca  Ca15  1  0.743439  0.064472  0.815907  1
  Ca  Ca16  1  0.503357  0.853799  0.876118  1
  Ca  Ca17  1  0.233275  0.646201  0.623882  1
  Ca  Ca18  1  0.496643  0.146201  0.123882  1
  Ca  Ca19  1  0.766725  0.353799  0.376118  1
  Ca  Ca20  1  0.397454  0.950576  0.725156  1
  Ca  Ca21  1  0.073186  0.549424  0.774844  1
  Ca  Ca22  1  0.602546  0.049424  0.274844  1
  Ca  Ca23  1  0.926814  0.450576  0.225156  1
  Sn  Sn24  1  0.439727  0.294169  0.282035  1
  Sn  Sn25  1  0.015931  0.205831  0.217965  1
  Sn  Sn26  1  0.560273  0.705831  0.717965  1
  Sn  Sn27  1  0.984069  0.794169  0.782035  1
  Sn  Sn28  1  0.586014  0.561120  0.860417  1
  Sn  Sn29  1  0.007551  0.938880  0.639583  1
  Sn  Sn30  1  0.413986  0.438880  0.139583  1
  Sn  Sn31  1  0.992449  0.061120  0.360417  1
  Sn  Sn32  1  0.231582  0.122092  0.887395  1
  Sn  Sn33  1  0.241068  0.377908  0.612605  1
  Sn  Sn34  1  0.768418  0.877908  0.112605  1
  Sn  Sn35  1  0.758932  0.622092  0.387395  1
  Sn  Sn36  1  0.635963  0.863719  0.401606  1
  Sn  Sn37  1  0.901289  0.636281  0.098394  1
  Sn  Sn38  1  0.364037  0.136281  0.598394  1
  Sn  Sn39  1  0.098711  0.363719  0.901606  1
  Sn  Sn40  1  0.277388  0.743489  0.015819  1
  Sn  Sn41  1  0.036695  0.756511  0.484181  1
  Sn  Sn42  1  0.722612  0.256511  0.984181  1
  Sn  Sn43  1  0.963305  0.243489  0.515819  1
  Sn  Sn44  1  0.611508  0.348810  0.827226  1
  Sn  Sn45  1  0.787543  0.151190  0.672774  1
  Sn  Sn46  1  0.388492  0.651190  0.172774  1
  Sn  Sn47  1  0.212457  0.848810  0.327226  1
  S  S48  1  0.308925  0.334191  0.406743  1
  S  S49  1  0.049858  0.165809  0.093257  1
  S  S50  1  0.691075  0.665810  0.593257  1
  S  S51  1  0.950142  0.834190  0.906743  1
  S  S52  1  0.595719  0.406933  0.292050  1
  S  S53  1  0.294701  0.093067  0.207950  1
  S  S54  1  0.404281  0.593067  0.707950  1
  S  S55  1  0.705299  0.906933  0.792050  1
  S  S56  1  0.068722  0.410521  0.318226  1
  S  S57  1  0.797470  0.089479  0.181774  1
  S  S58  1  0.931278  0.589479  0.681774  1
  S  S59  1  0.202530  0.910521  0.818226  1
  S  S60  1  0.565761  0.631762  0.940354  1
  S  S61  1  0.137877  0.868238  0.559646  1
  S  S62  1  0.434239  0.368238  0.059646  1
  S  S63  1  0.862123  0.131762  0.440354  1
  S  S64  1  0.156188  0.677573  0.825790  1
  S  S65  1  0.659551  0.822427  0.674210  1
  S  S66  1  0.843812  0.322427  0.174210  1
  S  S67  1  0.340449  0.177573  0.325790  1
  S  S68  1  0.728086  0.690759  0.790740  1
  S  S69  1  0.209585  0.809241  0.709260  1
  S  S70  1  0.271914  0.309241  0.209260  1
  S  S71  1  0.790415  0.190759  0.290740  1
  S  S72  1  0.397811  0.148092  0.783078  1
  S  S73  1  0.328982  0.351908  0.716922  1
  S  S74  1  0.602189  0.851908  0.216922  1
  S  S75  1  0.671018  0.648092  0.283078  1
  S  S76  1  0.060794  0.004080  0.865615  1
  S  S77  1  0.930490  0.495920  0.634385  1
  S  S78  1  0.939206  0.995920  0.134385  1
  S  S79  1  0.069510  0.504080  0.365615  1
  S  S80  1  0.660595  0.010708  0.372217  1
  S  S81  1  0.043521  0.489292  0.127783  1
  S  S82  1  0.339405  0.989292  0.627783  1
  S  S83  1  0.956479  0.510708  0.872217  1
  S  S84  1  0.739401  0.886380  0.485587  1
  S  S85  1  0.111368  0.613620  0.014413  1
  S  S86  1  0.260599  0.113620  0.514413  1
  S  S87  1  0.888632  0.386380  0.985587  1
  S  S88  1  0.228937  0.910496  0.405380  1
  S  S89  1  0.544813  0.589504  0.094620  1
  S  S90  1  0.771063  0.089504  0.594620  1
  S  S91  1  0.455187  0.410496  0.905380  1
  S  S92  1  0.008976  0.888291  0.034266  1
  S  S93  1  0.931532  0.611709  0.465734  1
  S  S94  1  0.991024  0.111709  0.965734  1
  S  S95  1  0.068468  0.388291  0.534266  1
  S  S96  1  0.221775  0.761061  0.923621  1
  S  S97  1  0.906457  0.738939  0.576379  1
  S  S98  1  0.778225  0.238939  0.076379  1
  S  S99  1  0.093543  0.261061  0.423621  1
  S  S100  1  0.727921  0.805951  0.956649  1
  S  S101  1  0.490521  0.694049  0.543351  1
  S  S102  1  0.272079  0.194049  0.043351  1
  S  S103  1  0.509479  0.305951  0.456649  1
  S  S104  1  0.825434  0.219199  0.840051  1
  S  S105  1  0.884684  0.280801  0.659949  1
  S  S106  1  0.174566  0.780801  0.159949  1
  S  S107  1  0.115316  0.719199  0.340051  1
  S  S108  1  0.298275  0.380406  0.790841  1
  S  S109  1  0.469521  0.119594  0.709159  1
  S  S110  1  0.701725  0.619594  0.209159  1
  S  S111  1  0.530479  0.880406  0.290841  1
  S  S112  1  0.812493  0.417352  0.770025  1
  S  S113  1  -0.000130  0.082648  0.729975  1
  S  S114  1  0.187507  0.582648  0.229975  1
  S  S115  1  0.000130  0.917352  0.270025  1
  S  S116  1  0.521986  0.011628  0.905764  1
  S  S117  1  0.439379  0.488372  0.594236  1
  S  S118  1  0.478014  0.988372  0.094236  1
  S  S119  1  0.560621  0.511628  0.405764  1
