# generated using pymatgen
data_SmB4
_symmetry_space_group_name_H-M   'P 1'
_cell_length_a   4.08152117
_cell_length_b   7.18655747
_cell_length_c   7.18655747
_cell_angle_alpha   90.00000000
_cell_angle_beta   90.00000000
_cell_angle_gamma   90.00000000
_symmetry_Int_Tables_number   1
_chemical_formula_structural   SmB4
_chemical_formula_sum   'Sm4 B16'
_cell_volume   210.79672501
_cell_formula_units_Z   4
loop_
 _symmetry_equiv_pos_site_id
 _symmetry_equiv_pos_as_xyz
  1  'x, y, z'
loop_
 _atom_site_type_symbol
 _atom_site_label
 _atom_site_symmetry_multiplicity
 _atom_site_fract_x
 _atom_site_fract_y
 _atom_site_fract_z
 _atom_site_occupancy
  B  B0  1  0.500000  0.461184  0.325061  1
  B  B1  1  0.500000  0.538816  0.674939  1
  B  B2  1  0.500000  0.325061  0.538816  1
  B  B3  1  0.500000  0.674939  0.461184  1
  B  B4  1  0.204089  0.000000  0.000000  1
  B  B5  1  0.795911  0.500000  0.500000  1
  B  B6  1  0.795911  0.000000  0.000000  1
  B  B7  1  0.204089  0.500000  0.500000  1
  B  B8  1  0.500000  0.087639  0.587639  1
  B  B9  1  0.500000  0.412361  0.087639  1
  B  B10  1  0.500000  0.587639  0.912361  1
  B  B11  1  0.500000  0.912361  0.412361  1
  B  B12  1  0.500000  0.174939  0.038816  1
  B  B13  1  0.500000  0.961184  0.174939  1
  B  B14  1  0.500000  0.038816  0.825061  1
  B  B15  1  0.500000  0.825061  0.961184  1
  Sm  Sm16  1  0.000000  0.682797  0.182797  1
  Sm  Sm17  1  0.000000  0.817203  0.682797  1
  Sm  Sm18  1  0.000000  0.182797  0.317203  1
  Sm  Sm19  1  0.000000  0.317203  0.817203  1
