# generated using pymatgen
data_Fe7S8
_symmetry_space_group_name_H-M   'P 1'
_cell_length_a   6.24971213
_cell_length_b   12.07402649
_cell_length_c   5.71834014
_cell_angle_alpha   89.93924165
_cell_angle_beta   89.92158973
_cell_angle_gamma   113.39735479
_symmetry_Int_Tables_number   1
_chemical_formula_structural   Fe7S8
_chemical_formula_sum   'Fe14 S16'
_cell_volume   396.01926233
_cell_formula_units_Z   2
loop_
 _symmetry_equiv_pos_site_id
 _symmetry_equiv_pos_as_xyz
  1  'x, y, z'
loop_
 _atom_site_type_symbol
 _atom_site_label
 _atom_site_symmetry_multiplicity
 _atom_site_fract_x
 _atom_site_fract_y
 _atom_site_fract_z
 _atom_site_occupancy
  Fe  Fe0  1  0.045335  0.010907  0.985813  1
  Fe  Fe1  1  0.283491  0.145479  0.539608  1
  Fe  Fe2  1  0.450987  0.982017  0.476766  1
  Fe  Fe3  1  0.544830  0.267482  0.980122  1
  Fe  Fe4  1  0.715362  0.103165  0.037699  1
  Fe  Fe5  1  0.960576  0.240808  0.490381  1
  Fe  Fe6  1  0.951355  0.479204  0.017096  1
  Fe  Fe7  1  0.251172  0.374649  0.001603  1
  Fe  Fe8  1  0.538696  0.508528  0.511187  1
  Fe  Fe9  1  0.212961  0.603490  0.462982  1
  Fe  Fe10  1  0.465502  0.742995  0.008337  1
  Fe  Fe11  1  0.787578  0.645616  0.964027  1
  Fe  Fe12  1  0.749100  0.875714  0.500061  1
  Fe  Fe13  1  0.046102  0.769611  0.517525  1
  S  S14  1  0.615168  0.192794  0.337610  1
  S  S15  1  0.868578  0.063141  0.677781  1
  S  S16  1  0.890152  0.297483  0.838457  1
  S  S17  1  0.133468  0.187244  0.176776  1
  S  S18  1  0.110772  0.421886  0.326125  1
  S  S19  1  0.386508  0.327463  0.674478  1
  S  S20  1  0.365696  0.563236  0.823476  1
  S  S21  1  0.610079  0.452123  0.161905  1
  S  S22  1  0.633570  0.687263  0.325141  1
  S  S23  1  0.883526  0.556217  0.663883  1
  S  S24  1  0.884843  0.828041  0.828008  1
  S  S25  1  0.118741  0.693992  0.163923  1
  S  S26  1  0.108887  0.952511  0.337556  1
  S  S27  1  0.389089  0.798888  0.661052  1
  S  S28  1  0.609803  0.922067  0.175424  1
  S  S29  1  0.388074  0.055987  0.835199  1
