# generated using pymatgen
data_NaCaFe3(PO4)4
_symmetry_space_group_name_H-M   'P 1'
_cell_length_a   8.81680286
_cell_length_b   9.53494948
_cell_length_c   29.60666731
_cell_angle_alpha   90.00000000
_cell_angle_beta   90.00000000
_cell_angle_gamma   90.00000000
_symmetry_Int_Tables_number   1
_chemical_formula_structural   NaCaFe3(PO4)4
_chemical_formula_sum   'Na8 Ca8 Fe24 P32 O128'
_cell_volume   2488.96649330
_cell_formula_units_Z   8
loop_
 _symmetry_equiv_pos_site_id
 _symmetry_equiv_pos_as_xyz
  1  'x, y, z'
loop_
 _atom_site_type_symbol
 _atom_site_label
 _atom_site_symmetry_multiplicity
 _atom_site_fract_x
 _atom_site_fract_y
 _atom_site_fract_z
 _atom_site_occupancy
  Na  Na0  1  0.086295  0.093633  0.056224  1
  Na  Na1  1  0.086295  0.593633  0.443776  1
  Na  Na2  1  0.413705  0.093633  0.556224  1
  Na  Na3  1  0.413705  0.593633  0.943776  1
  Na  Na4  1  0.586295  0.406367  0.056224  1
  Na  Na5  1  0.586295  0.906367  0.443776  1
  Na  Na6  1  0.913705  0.406367  0.556224  1
  Na  Na7  1  0.913705  0.906367  0.943776  1
  Ca  Ca8  1  0.162528  0.029169  0.190783  1
  Ca  Ca9  1  0.162528  0.529169  0.309217  1
  Ca  Ca10  1  0.337472  0.029169  0.690783  1
  Ca  Ca11  1  0.337472  0.529169  0.809217  1
  Ca  Ca12  1  0.662528  0.470831  0.190783  1
  Ca  Ca13  1  0.662528  0.970831  0.309217  1
  Ca  Ca14  1  0.837472  0.470831  0.690783  1
  Ca  Ca15  1  0.837472  0.970831  0.809217  1
  Fe  Fe16  1  0.049575  0.698676  0.041993  1
  Fe  Fe17  1  0.049575  0.198676  0.458007  1
  Fe  Fe18  1  0.106222  0.650397  0.196388  1
  Fe  Fe19  1  0.106222  0.150397  0.303612  1
  Fe  Fe20  1  0.222422  0.318896  0.625071  1
  Fe  Fe21  1  0.222422  0.818896  0.874929  1
  Fe  Fe22  1  0.277578  0.318896  0.125071  1
  Fe  Fe23  1  0.277578  0.818896  0.374929  1
  Fe  Fe24  1  0.393778  0.150397  0.803612  1
  Fe  Fe25  1  0.393778  0.650397  0.696388  1
  Fe  Fe26  1  0.450425  0.698676  0.541993  1
  Fe  Fe27  1  0.450425  0.198676  0.958007  1
  Fe  Fe28  1  0.549575  0.301324  0.458007  1
  Fe  Fe29  1  0.549575  0.801324  0.041993  1
  Fe  Fe30  1  0.606222  0.349603  0.303612  1
  Fe  Fe31  1  0.606222  0.849603  0.196388  1
  Fe  Fe32  1  0.722422  0.181104  0.625071  1
  Fe  Fe33  1  0.722422  0.681104  0.874929  1
  Fe  Fe34  1  0.777578  0.181104  0.125071  1
  Fe  Fe35  1  0.777578  0.681104  0.374929  1
  Fe  Fe36  1  0.893778  0.849603  0.696388  1
  Fe  Fe37  1  0.893778  0.349603  0.803612  1
  Fe  Fe38  1  0.950425  0.301324  0.958007  1
  Fe  Fe39  1  0.950425  0.801324  0.541993  1
  P  P40  1  0.056087  0.044329  0.620338  1
  P  P41  1  0.056087  0.544329  0.879662  1
  P  P42  1  0.093683  0.617016  0.632577  1
  P  P43  1  0.093683  0.117016  0.867423  1
  P  P44  1  0.189363  0.359437  0.733482  1
  P  P45  1  0.189363  0.859437  0.766518  1
  P  P46  1  0.230873  0.404151  0.016358  1
  P  P47  1  0.230873  0.904151  0.483642  1
  P  P48  1  0.269127  0.404151  0.516358  1
  P  P49  1  0.269127  0.904151  0.983642  1
  P  P50  1  0.310637  0.359437  0.233482  1
  P  P51  1  0.310637  0.859437  0.266518  1
  P  P52  1  0.406317  0.117016  0.367423  1
  P  P53  1  0.406317  0.617016  0.132577  1
  P  P54  1  0.443913  0.044329  0.120338  1
  P  P55  1  0.443913  0.544329  0.379662  1
  P  P56  1  0.556087  0.455671  0.620338  1
  P  P57  1  0.556087  0.955671  0.879662  1
  P  P58  1  0.593683  0.382984  0.867423  1
  P  P59  1  0.593683  0.882984  0.632577  1
  P  P60  1  0.689363  0.140563  0.733482  1
  P  P61  1  0.689363  0.640563  0.766518  1
  P  P62  1  0.730873  0.095849  0.016358  1
  P  P63  1  0.730873  0.595849  0.483642  1
  P  P64  1  0.769127  0.095849  0.516358  1
  P  P65  1  0.769127  0.595849  0.983642  1
  P  P66  1  0.810637  0.140563  0.233482  1
  P  P67  1  0.810637  0.640563  0.266518  1
  P  P68  1  0.906317  0.382984  0.367423  1
  P  P69  1  0.906317  0.882984  0.132577  1
  P  P70  1  0.943913  0.955671  0.379662  1
  P  P71  1  0.943913  0.455671  0.120338  1
  O  O72  1  0.005160  0.822209  0.171041  1
  O  O73  1  0.005160  0.322209  0.328959  1
  O  O74  1  0.015447  0.367328  0.741502  1
  O  O75  1  0.015447  0.867328  0.758498  1
  O  O76  1  0.030914  0.949895  0.579850  1
  O  O77  1  0.030914  0.449895  0.920150  1
  O  O78  1  0.044659  0.666070  0.585658  1
  O  O79  1  0.044659  0.166070  0.914342  1
  O  O80  1  0.056261  0.969614  0.666859  1
  O  O81  1  0.056261  0.469614  0.833141  1
  O  O82  1  0.057279  0.454090  0.637017  1
  O  O83  1  0.057279  0.954090  0.862983  1
  O  O84  1  0.058339  0.331375  0.121126  1
  O  O85  1  0.058339  0.831375  0.378874  1
  O  O86  1  0.086390  0.312699  0.009609  1
  O  O87  1  0.086390  0.812699  0.490391  1
  O  O88  1  0.154881  0.873616  0.022440  1
  O  O89  1  0.154881  0.373616  0.477560  1
  O  O90  1  0.191411  0.357930  0.560967  1
  O  O91  1  0.191411  0.857930  0.939033  1
  O  O92  1  0.199867  0.563586  0.016200  1
  O  O93  1  0.199867  0.063586  0.483800  1
  O  O94  1  0.219163  0.111242  0.616295  1
  O  O95  1  0.219163  0.611242  0.883705  1
  O  O96  1  0.226026  0.265994  0.691893  1
  O  O97  1  0.226026  0.765994  0.808107  1
  O  O98  1  0.233925  0.301410  0.276431  1
  O  O99  1  0.233925  0.801410  0.223569  1
  O  O100  1  0.234297  0.137019  0.360248  1
  O  O101  1  0.234297  0.637019  0.139752  1
  O  O102  1  0.244560  0.009466  0.272043  1
  O  O103  1  0.244560  0.509466  0.227957  1
  O  O104  1  0.255440  0.009466  0.772043  1
  O  O105  1  0.255440  0.509466  0.727957  1
  O  O106  1  0.265703  0.137019  0.860248  1
  O  O107  1  0.265703  0.637019  0.639752  1
  O  O108  1  0.266075  0.301410  0.776431  1
  O  O109  1  0.266075  0.801410  0.723569  1
  O  O110  1  0.273974  0.265994  0.191894  1
  O  O111  1  0.273974  0.765994  0.308107  1
  O  O112  1  0.280837  0.111242  0.116295  1
  O  O113  1  0.280837  0.611242  0.383705  1
  O  O114  1  0.300133  0.563586  0.516200  1
  O  O115  1  0.300133  0.063586  0.983800  1
  O  O116  1  0.308589  0.357930  0.060967  1
  O  O117  1  0.308589  0.857930  0.439033  1
  O  O118  1  0.345119  0.873616  0.522440  1
  O  O119  1  0.345119  0.373616  0.977560  1
  O  O120  1  0.413610  0.312699  0.509609  1
  O  O121  1  0.413610  0.812699  0.990391  1
  O  O122  1  0.441661  0.331375  0.621126  1
  O  O123  1  0.441661  0.831375  0.878874  1
  O  O124  1  0.442721  0.454090  0.137017  1
  O  O125  1  0.442721  0.954090  0.362983  1
  O  O126  1  0.443739  0.469614  0.333141  1
  O  O127  1  0.443739  0.969614  0.166859  1
  O  O128  1  0.455341  0.666070  0.085658  1
  O  O129  1  0.455341  0.166070  0.414342  1
  O  O130  1  0.469086  0.449895  0.420150  1
  O  O131  1  0.469086  0.949895  0.079850  1
  O  O132  1  0.484553  0.367328  0.241502  1
  O  O133  1  0.484553  0.867328  0.258498  1
  O  O134  1  0.494840  0.322209  0.828959  1
  O  O135  1  0.494840  0.822209  0.671041  1
  O  O136  1  0.505160  0.677791  0.171041  1
  O  O137  1  0.505160  0.177791  0.328959  1
  O  O138  1  0.515447  0.132672  0.741502  1
  O  O139  1  0.515447  0.632672  0.758498  1
  O  O140  1  0.530914  0.550105  0.579850  1
  O  O141  1  0.530914  0.050105  0.920150  1
  O  O142  1  0.544659  0.333930  0.914342  1
  O  O143  1  0.544659  0.833930  0.585658  1
  O  O144  1  0.556261  0.530386  0.666859  1
  O  O145  1  0.556261  0.030386  0.833141  1
  O  O146  1  0.557279  0.045910  0.637017  1
  O  O147  1  0.557279  0.545910  0.862983  1
  O  O148  1  0.558339  0.168625  0.121126  1
  O  O149  1  0.558339  0.668625  0.378874  1
  O  O150  1  0.586390  0.187301  0.009609  1
  O  O151  1  0.586390  0.687301  0.490391  1
  O  O152  1  0.654881  0.626384  0.022440  1
  O  O153  1  0.654881  0.126384  0.477560  1
  O  O154  1  0.691411  0.142070  0.560967  1
  O  O155  1  0.691411  0.642070  0.939033  1
  O  O156  1  0.699867  0.436414  0.483800  1
  O  O157  1  0.699867  0.936414  0.016200  1
  O  O158  1  0.719163  0.388758  0.616295  1
  O  O159  1  0.719163  0.888758  0.883705  1
  O  O160  1  0.726026  0.234006  0.691893  1
  O  O161  1  0.726026  0.734006  0.808107  1
  O  O162  1  0.733925  0.698590  0.223569  1
  O  O163  1  0.733925  0.198590  0.276431  1
  O  O164  1  0.734297  0.362981  0.360248  1
  O  O165  1  0.734297  0.862981  0.139752  1
  O  O166  1  0.744560  0.490534  0.272043  1
  O  O167  1  0.744560  0.990534  0.227957  1
  O  O168  1  0.755440  0.990534  0.727957  1
  O  O169  1  0.755440  0.490534  0.772043  1
  O  O170  1  0.765703  0.362981  0.860248  1
  O  O171  1  0.765703  0.862981  0.639752  1
  O  O172  1  0.766075  0.698590  0.723569  1
  O  O173  1  0.766075  0.198590  0.776431  1
  O  O174  1  0.773974  0.234006  0.191894  1
  O  O175  1  0.773974  0.734006  0.308107  1
  O  O176  1  0.780837  0.388758  0.116295  1
  O  O177  1  0.780837  0.888758  0.383705  1
  O  O178  1  0.800133  0.436414  0.983800  1
  O  O179  1  0.800133  0.936414  0.516200  1
  O  O180  1  0.808589  0.142070  0.060967  1
  O  O181  1  0.808589  0.642070  0.439033  1
  O  O182  1  0.845119  0.626384  0.522440  1
  O  O183  1  0.845119  0.126384  0.977560  1
  O  O184  1  0.913610  0.187301  0.509609  1
  O  O185  1  0.913610  0.687301  0.990391  1
  O  O186  1  0.941661  0.168625  0.621126  1
  O  O187  1  0.941661  0.668625  0.878874  1
  O  O188  1  0.942721  0.545910  0.362983  1
  O  O189  1  0.942721  0.045910  0.137017  1
  O  O190  1  0.943739  0.030386  0.333141  1
  O  O191  1  0.943739  0.530386  0.166859  1
  O  O192  1  0.955341  0.333930  0.414342  1
  O  O193  1  0.955341  0.833930  0.085658  1
  O  O194  1  0.969086  0.050105  0.420150  1
  O  O195  1  0.969086  0.550105  0.079850  1
  O  O196  1  0.984553  0.132672  0.241502  1
  O  O197  1  0.984553  0.632672  0.258498  1
  O  O198  1  0.994840  0.177791  0.828959  1
  O  O199  1  0.994840  0.677791  0.671041  1
