# generated using pymatgen
data_Li2V2P2(H4O5)3
_symmetry_space_group_name_H-M   'P 1'
_cell_length_a   5.06168852
_cell_length_b   11.48264329
_cell_length_c   10.51878892
_cell_angle_alpha   78.88875147
_cell_angle_beta   89.97744156
_cell_angle_gamma   77.21014001
_symmetry_Int_Tables_number   1
_chemical_formula_structural   Li2V2P2(H4O5)3
_chemical_formula_sum   'Li4 V4 P4 H24 O30'
_cell_volume   584.45265061
_cell_formula_units_Z   2
loop_
 _symmetry_equiv_pos_site_id
 _symmetry_equiv_pos_as_xyz
  1  'x, y, z'
loop_
 _atom_site_type_symbol
 _atom_site_label
 _atom_site_symmetry_multiplicity
 _atom_site_fract_x
 _atom_site_fract_y
 _atom_site_fract_z
 _atom_site_occupancy
  Li  Li0  1  0.077001  0.523409  0.864120  1
  Li  Li1  1  0.599432  0.477697  0.635568  1
  Li  Li2  1  0.398999  0.522896  0.364375  1
  Li  Li3  1  0.925424  0.476701  0.136305  1
  V  V4  1  0.980873  0.751176  0.971304  1
  V  V5  1  0.268276  0.751423  0.471612  1
  V  V6  1  0.732534  0.248294  0.529006  1
  V  V7  1  0.021246  0.248861  0.028645  1
  P  P8  1  0.490893  0.685423  0.773923  1
  P  P9  1  0.822884  0.686699  0.273580  1
  P  P10  1  0.176667  0.314883  0.726390  1
  P  P11  1  0.510880  0.314002  0.226357  1
  H  H12  1  0.584729  0.956364  0.852644  1
  H  H13  1  0.254925  0.924246  0.767730  1
  H  H14  1  0.461058  0.956207  0.355865  1
  H  H15  1  0.036675  0.815261  0.674895  1
  H  H16  1  0.816287  0.925187  0.265699  1
  H  H17  1  0.148445  0.815835  0.173464  1
  H  H18  1  0.786518  0.795166  0.594659  1
  H  H19  1  0.420812  0.794394  0.094204  1
  H  H20  1  0.677207  0.444204  0.915905  1
  H  H21  1  0.120307  0.555494  0.585399  1
  H  H22  1  0.877240  0.444082  0.414218  1
  H  H23  1  0.321882  0.554491  0.086362  1
  H  H24  1  0.580194  0.208160  0.906021  1
  H  H25  1  0.215292  0.205634  0.404396  1
  H  H26  1  0.850120  0.186045  0.825962  1
  H  H27  1  0.184720  0.076782  0.734568  1
  H  H28  1  0.964951  0.183303  0.326104  1
  H  H29  1  0.539354  0.042348  0.643930  1
  H  H30  1  0.789988  0.003430  0.934076  1
  H  H31  1  0.737386  0.078031  0.231935  1
  H  H32  1  0.796065  0.995968  0.564800  1
  H  H33  1  0.415851  0.042743  0.146784  1
  H  H34  1  0.207691  0.003519  0.436488  1
  H  H35  1  0.210468  0.996562  0.064379  1
  O  O36  1  0.758844  0.929443  0.907636  1
  O  O37  1  0.315377  0.929074  0.411327  1
  O  O38  1  0.952721  0.832539  0.584397  1
  O  O39  1  0.234391  0.777573  0.813832  1
  O  O40  1  0.216699  0.831920  0.083283  1
  O  O41  1  0.528547  0.738227  0.626177  1
  O  O42  1  0.985840  0.778961  0.313847  1
  O  O43  1  0.748796  0.687402  0.849315  1
  O  O44  1  0.733648  0.740179  0.125688  1
  O  O45  1  0.562178  0.688039  0.348399  1
  O  O46  1  0.437906  0.557546  0.789189  1
  O  O47  1  0.248627  0.586660  0.524331  1
  O  O48  1  0.003329  0.558580  0.288855  1
  O  O49  1  0.836961  0.413747  0.976781  1
  O  O50  1  0.163585  0.586038  0.024650  1
  O  O51  1  0.994636  0.442635  0.710923  1
  O  O52  1  0.750145  0.413167  0.476008  1
  O  O53  1  0.563663  0.441843  0.211220  1
  O  O54  1  0.436686  0.312783  0.651094  1
  O  O55  1  0.267523  0.262836  0.874262  1
  O  O56  1  0.252527  0.312027  0.151496  1
  O  O57  1  0.013415  0.222181  0.687058  1
  O  O58  1  0.473659  0.261087  0.374170  1
  O  O59  1  0.783672  0.169250  0.916371  1
  O  O60  1  0.766524  0.221576  0.186146  1
  O  O61  1  0.050068  0.167396  0.416124  1
  O  O62  1  0.684855  0.070220  0.589054  1
  O  O63  1  0.328743  0.999553  0.750720  1
  O  O64  1  0.244302  0.070613  0.090010  1
  O  O65  1  0.668760  0.001109  0.250177  1
