# generated using pymatgen
data_Li2Si4(NiO4)3
_symmetry_space_group_name_H-M   'P 1'
_cell_length_a   7.50074343
_cell_length_b   9.92020121
_cell_length_c   13.32999950
_cell_angle_alpha   90.00000000
_cell_angle_beta   90.00000000
_cell_angle_gamma   90.00000000
_symmetry_Int_Tables_number   1
_chemical_formula_structural   Li2Si4(NiO4)3
_chemical_formula_sum   'Li8 Si16 Ni12 O48'
_cell_volume   991.87038718
_cell_formula_units_Z   4
loop_
 _symmetry_equiv_pos_site_id
 _symmetry_equiv_pos_as_xyz
  1  'x, y, z'
loop_
 _atom_site_type_symbol
 _atom_site_label
 _atom_site_symmetry_multiplicity
 _atom_site_fract_x
 _atom_site_fract_y
 _atom_site_fract_z
 _atom_site_occupancy
  Li  Li0  1  0.042477  0.750000  0.138810  1
  Li  Li1  1  0.243538  0.750000  0.502681  1
  Li  Li2  1  0.256462  0.250000  0.002681  1
  Li  Li3  1  0.457523  0.250000  0.638810  1
  Li  Li4  1  0.542477  0.750000  0.361190  1
  Li  Li5  1  0.743538  0.750000  0.997319  1
  Li  Li6  1  0.756462  0.250000  0.497319  1
  Li  Li7  1  0.957523  0.250000  0.861190  1
  Si  Si8  1  0.183236  0.036988  0.619203  1
  Si  Si9  1  0.183236  0.463012  0.619203  1
  Si  Si10  1  0.219632  0.537963  0.337097  1
  Si  Si11  1  0.219632  0.962037  0.337097  1
  Si  Si12  1  0.280368  0.462037  0.837097  1
  Si  Si13  1  0.280368  0.037963  0.837097  1
  Si  Si14  1  0.316764  0.536988  0.119203  1
  Si  Si15  1  0.316764  0.963012  0.119203  1
  Si  Si16  1  0.683236  0.036988  0.880797  1
  Si  Si17  1  0.683236  0.463012  0.880797  1
  Si  Si18  1  0.719632  0.537963  0.162903  1
  Si  Si19  1  0.719632  0.962037  0.162903  1
  Si  Si20  1  0.780368  0.037963  0.662903  1
  Si  Si21  1  0.780368  0.462037  0.662903  1
  Si  Si22  1  0.816764  0.536988  0.380797  1
  Si  Si23  1  0.816764  0.963012  0.380797  1
  Ni  Ni24  1  0.000000  0.000000  0.000000  1
  Ni  Ni25  1  0.000000  0.500000  0.000000  1
  Ni  Ni26  1  0.235973  0.750000  0.716759  1
  Ni  Ni27  1  0.243193  0.750000  0.931121  1
  Ni  Ni28  1  0.256807  0.250000  0.431121  1
  Ni  Ni29  1  0.264027  0.250000  0.216759  1
  Ni  Ni30  1  0.500000  0.000000  0.500000  1
  Ni  Ni31  1  0.500000  0.500000  0.500000  1
  Ni  Ni32  1  0.735973  0.750000  0.783241  1
  Ni  Ni33  1  0.743193  0.750000  0.568879  1
  Ni  Ni34  1  0.756807  0.250000  0.068879  1
  Ni  Ni35  1  0.764027  0.250000  0.283241  1
  O  O36  1  0.026750  0.582672  0.385929  1
  O  O37  1  0.026750  0.917328  0.385929  1
  O  O38  1  0.126758  0.106557  0.906027  1
  O  O39  1  0.126758  0.393443  0.906027  1
  O  O40  1  0.214015  0.876981  0.613618  1
  O  O41  1  0.214015  0.623019  0.613618  1
  O  O42  1  0.206438  0.611303  0.027260  1
  O  O43  1  0.206438  0.888697  0.027260  1
  O  O44  1  0.238728  0.125948  0.325203  1
  O  O45  1  0.238728  0.374052  0.325203  1
  O  O46  1  0.226842  0.601777  0.222492  1
  O  O47  1  0.226842  0.898223  0.222492  1
  O  O48  1  0.273158  0.101777  0.722492  1
  O  O49  1  0.273158  0.398223  0.722492  1
  O  O50  1  0.261272  0.625948  0.825203  1
  O  O51  1  0.261272  0.874052  0.825203  1
  O  O52  1  0.293562  0.111303  0.527260  1
  O  O53  1  0.293562  0.388697  0.527260  1
  O  O54  1  0.285985  0.376981  0.113618  1
  O  O55  1  0.285985  0.123019  0.113618  1
  O  O56  1  0.373242  0.606557  0.406027  1
  O  O57  1  0.373242  0.893443  0.406027  1
  O  O58  1  0.473250  0.082672  0.885929  1
  O  O59  1  0.473250  0.417328  0.885929  1
  O  O60  1  0.526750  0.917328  0.114071  1
  O  O61  1  0.526750  0.582672  0.114071  1
  O  O62  1  0.626758  0.106557  0.593973  1
  O  O63  1  0.626758  0.393443  0.593973  1
  O  O64  1  0.714015  0.623019  0.886382  1
  O  O65  1  0.714015  0.876981  0.886382  1
  O  O66  1  0.706438  0.611303  0.472740  1
  O  O67  1  0.706438  0.888697  0.472740  1
  O  O68  1  0.738728  0.125948  0.174797  1
  O  O69  1  0.738728  0.374052  0.174797  1
  O  O70  1  0.726842  0.601777  0.277508  1
  O  O71  1  0.726842  0.898223  0.277508  1
  O  O72  1  0.773158  0.101777  0.777508  1
  O  O73  1  0.773158  0.398223  0.777508  1
  O  O74  1  0.761272  0.625948  0.674797  1
  O  O75  1  0.761272  0.874052  0.674797  1
  O  O76  1  0.793562  0.111303  0.972740  1
  O  O77  1  0.793562  0.388697  0.972740  1
  O  O78  1  0.785985  0.123019  0.386382  1
  O  O79  1  0.785985  0.376981  0.386382  1
  O  O80  1  0.873242  0.606557  0.093973  1
  O  O81  1  0.873242  0.893443  0.093973  1
  O  O82  1  0.973250  0.082672  0.614071  1
  O  O83  1  0.973250  0.417328  0.614071  1
