# generated using pymatgen
data_RbNpCuS3
_symmetry_space_group_name_H-M   'P 1'
_cell_length_a   4.01135493
_cell_length_b   7.56607935
_cell_length_c   10.26608550
_cell_angle_alpha   90.00000000
_cell_angle_beta   90.00000000
_cell_angle_gamma   74.62781331
_symmetry_Int_Tables_number   1
_chemical_formula_structural   RbNpCuS3
_chemical_formula_sum   'Rb2 Np2 Cu2 S6'
_cell_volume   300.43109901
_cell_formula_units_Z   2
loop_
 _symmetry_equiv_pos_site_id
 _symmetry_equiv_pos_as_xyz
  1  'x, y, z'
loop_
 _atom_site_type_symbol
 _atom_site_label
 _atom_site_symmetry_multiplicity
 _atom_site_fract_x
 _atom_site_fract_y
 _atom_site_fract_z
 _atom_site_occupancy
  Rb  Rb0  1  0.741643  0.516715  0.250000  1
  Rb  Rb1  1  0.258357  0.483285  0.750000  1
  Np  Np2  1  0.000000  0.000000  0.000000  1
  Np  Np3  1  0.000000  0.000000  0.500000  1
  Cu  Cu4  1  0.465085  0.069830  0.250000  1
  Cu  Cu5  1  0.534916  0.930170  0.750000  1
  S  S6  1  0.382335  0.235332  0.059474  1
  S  S7  1  0.055279  0.889443  0.250000  1
  S  S8  1  0.382335  0.235332  0.440526  1
  S  S9  1  0.617666  0.764668  0.559474  1
  S  S10  1  0.944722  0.110556  0.750000  1
  S  S11  1  0.617666  0.764668  0.940525  1
