# generated using pymatgen
data_Ca2Al2Si6SnO22
_symmetry_space_group_name_H-M   'P 1'
_cell_length_a   16.78023322
_cell_length_b   8.04159338
_cell_length_c   7.38958147
_cell_angle_alpha   90.00049270
_cell_angle_beta   102.65747097
_cell_angle_gamma   89.99986731
_symmetry_Int_Tables_number   1
_chemical_formula_structural   Ca2Al2Si6SnO22
_chemical_formula_sum   'Ca4 Al4 Si12 Sn2 O44'
_cell_volume   972.91549007
_cell_formula_units_Z   2
loop_
 _symmetry_equiv_pos_site_id
 _symmetry_equiv_pos_as_xyz
  1  'x, y, z'
loop_
 _atom_site_type_symbol
 _atom_site_label
 _atom_site_symmetry_multiplicity
 _atom_site_fract_x
 _atom_site_fract_y
 _atom_site_fract_z
 _atom_site_occupancy
  Ca  Ca0  1  0.818951  0.185535  0.002980  1
  Ca  Ca1  1  0.681051  0.685547  0.997034  1
  Ca  Ca2  1  0.181049  0.814465  0.997020  1
  Ca  Ca3  1  0.318949  0.314453  0.002966  1
  Al  Al4  1  0.786015  0.493549  0.688488  1
  Al  Al5  1  0.713993  0.993551  0.311521  1
  Al  Al6  1  0.213985  0.506451  0.311512  1
  Al  Al7  1  0.286007  0.006449  0.688479  1
  Si  Si8  1  0.961851  0.338586  0.721325  1
  Si  Si9  1  0.538149  0.838578  0.278673  1
  Si  Si10  1  0.038149  0.661414  0.278675  1
  Si  Si11  1  0.461851  0.161422  0.721327  1
  Si  Si12  1  0.663004  0.352814  0.316052  1
  Si  Si13  1  0.836994  0.852816  0.683952  1
  Si  Si14  1  0.336996  0.647186  0.683948  1
  Si  Si15  1  0.163006  0.147184  0.316048  1
  Si  Si16  1  0.995599  0.291029  0.331719  1
  Si  Si17  1  0.504406  0.791027  0.668287  1
  Si  Si18  1  0.004401  0.708971  0.668281  1
  Si  Si19  1  0.495594  0.208973  0.331713  1
  Sn  Sn20  1  0.500000  0.500000  0.000000  1
  Sn  Sn21  1  0.000000  0.000000  0.000000  1
  O  O22  1  0.516777  0.297381  0.851776  1
  O  O23  1  0.983226  0.797374  0.148222  1
  O  O24  1  0.483223  0.702619  0.148224  1
  O  O25  1  0.016774  0.202626  0.851778  1
  O  O26  1  0.009553  0.518978  0.749480  1
  O  O27  1  0.490451  0.018981  0.250520  1
  O  O28  1  0.990447  0.481022  0.250520  1
  O  O29  1  0.509549  0.981019  0.749480  1
  O  O30  1  0.712369  0.200814  0.237086  1
  O  O31  1  0.787623  0.700819  0.762915  1
  O  O32  1  0.287631  0.799186  0.762914  1
  O  O33  1  0.212377  0.299181  0.237085  1
  O  O34  1  0.621339  0.480465  0.149870  1
  O  O35  1  0.878662  0.980479  0.850134  1
  O  O36  1  0.378661  0.519535  0.850130  1
  O  O37  1  0.121338  0.019521  0.149866  1
  O  O38  1  0.870158  0.363762  0.766478  1
  O  O39  1  0.629845  0.863751  0.233530  1
  O  O40  1  0.129842  0.636238  0.233522  1
  O  O41  1  0.370155  0.136249  0.766470  1
  O  O42  1  0.949202  0.162624  0.171673  1
  O  O43  1  0.550802  0.662632  0.828328  1
  O  O44  1  0.050798  0.837376  0.828327  1
  O  O45  1  0.449198  0.337369  0.171672  1
  O  O46  1  0.724964  0.453693  0.476671  1
  O  O47  1  0.775033  0.953700  0.523345  1
  O  O48  1  0.275036  0.546307  0.523329  1
  O  O49  1  0.224967  0.046300  0.476655  1
  O  O50  1  0.777075  0.463373  0.041764  1
  O  O51  1  0.722929  0.963361  0.958250  1
  O  O52  1  0.222925  0.536627  0.958236  1
  O  O53  1  0.277071  0.036639  0.041750  1
  O  O54  1  0.727109  0.420395  0.873505  1
  O  O55  1  0.772891  0.920398  0.126516  1
  O  O56  1  0.272891  0.579605  0.126495  1
  O  O57  1  0.227109  0.079602  0.873484  1
  O  O58  1  0.948014  0.284735  0.501548  1
  O  O59  1  0.551990  0.784739  0.498464  1
  O  O60  1  0.051986  0.715265  0.498452  1
  O  O61  1  0.448010  0.215261  0.501536  1
  O  O62  1  0.592013  0.260718  0.403642  1
  O  O63  1  0.907983  0.760719  0.596358  1
  O  O64  1  0.407987  0.739282  0.596358  1
  O  O65  1  0.092017  0.239281  0.403642  1
