# generated using pymatgen
data_LiNi2(PO3)5
_symmetry_space_group_name_H-M   'P 1'
_cell_length_a   5.13678775
_cell_length_b   13.02363331
_cell_length_c   8.53482353
_cell_angle_alpha   90.00000000
_cell_angle_beta   102.06403933
_cell_angle_gamma   90.00000000
_symmetry_Int_Tables_number   1
_chemical_formula_structural   LiNi2(PO3)5
_chemical_formula_sum   'Li2 Ni4 P10 O30'
_cell_volume   558.36637910
_cell_formula_units_Z   2
loop_
 _symmetry_equiv_pos_site_id
 _symmetry_equiv_pos_as_xyz
  1  'x, y, z'
loop_
 _atom_site_type_symbol
 _atom_site_label
 _atom_site_symmetry_multiplicity
 _atom_site_fract_x
 _atom_site_fract_y
 _atom_site_fract_z
 _atom_site_occupancy
  Li  Li0  1  0.500000  0.000000  0.500000  1
  Li  Li1  1  0.500000  0.500000  0.500000  1
  Ni  Ni2  1  0.134308  0.086531  0.149266  1
  Ni  Ni3  1  0.134308  0.413469  0.149266  1
  Ni  Ni4  1  0.865692  0.586531  0.850734  1
  Ni  Ni5  1  0.865692  0.913469  0.850734  1
  P  P6  1  0.025518  0.637849  0.505730  1
  P  P7  1  0.025518  0.862151  0.505730  1
  P  P8  1  0.343263  0.070106  0.812504  1
  P  P9  1  0.343263  0.429894  0.812504  1
  P  P10  1  0.442026  0.750000  0.972640  1
  P  P11  1  0.557974  0.250000  0.027360  1
  P  P12  1  0.656737  0.570106  0.187496  1
  P  P13  1  0.656737  0.929894  0.187496  1
  P  P14  1  0.974482  0.362151  0.494270  1
  P  P15  1  0.974482  0.137849  0.494270  1
  O  O16  1  0.048983  0.250000  0.446789  1
  O  O17  1  0.149561  0.037853  0.917691  1
  O  O18  1  0.149561  0.462147  0.917691  1
  O  O19  1  0.163835  0.750000  0.875766  1
  O  O20  1  0.189053  0.131508  0.664696  1
  O  O21  1  0.189053  0.368492  0.664696  1
  O  O22  1  0.078563  0.428873  0.374638  1
  O  O23  1  0.078563  0.071127  0.374638  1
  O  O24  1  0.299521  0.627560  0.480297  1
  O  O25  1  0.299521  0.872440  0.480297  1
  O  O26  1  0.541997  0.153815  0.907025  1
  O  O27  1  0.541997  0.346185  0.907025  1
  O  O28  1  0.514033  0.987478  0.763407  1
  O  O29  1  0.514033  0.512522  0.763407  1
  O  O30  1  0.319050  0.250000  0.105781  1
  O  O31  1  0.680950  0.750000  0.894219  1
  O  O32  1  0.485967  0.487478  0.236593  1
  O  O33  1  0.485967  0.012522  0.236593  1
  O  O34  1  0.458003  0.653815  0.092975  1
  O  O35  1  0.458003  0.846185  0.092975  1
  O  O36  1  0.700479  0.127560  0.519703  1
  O  O37  1  0.700479  0.372440  0.519703  1
  O  O38  1  0.921437  0.571127  0.625362  1
  O  O39  1  0.921437  0.928873  0.625362  1
  O  O40  1  0.810947  0.631508  0.335304  1
  O  O41  1  0.810947  0.868492  0.335304  1
  O  O42  1  0.836165  0.250000  0.124234  1
  O  O43  1  0.850439  0.537853  0.082309  1
  O  O44  1  0.850439  0.962147  0.082309  1
  O  O45  1  0.951017  0.750000  0.553211  1
