# generated using pymatgen
data_K2VAgS4
_symmetry_space_group_name_H-M   'P 1'
_cell_length_a   5.82956365
_cell_length_b   7.23697211
_cell_length_c   11.72828118
_cell_angle_alpha   84.25524680
_cell_angle_beta   75.60969932
_cell_angle_gamma   66.24900302
_symmetry_Int_Tables_number   1
_chemical_formula_structural   K2VAgS4
_chemical_formula_sum   'K4 V2 Ag2 S8'
_cell_volume   438.68085931
_cell_formula_units_Z   2
loop_
 _symmetry_equiv_pos_site_id
 _symmetry_equiv_pos_as_xyz
  1  'x, y, z'
loop_
 _atom_site_type_symbol
 _atom_site_label
 _atom_site_symmetry_multiplicity
 _atom_site_fract_x
 _atom_site_fract_y
 _atom_site_fract_z
 _atom_site_occupancy
  S  S0  1  0.870173  0.551423  0.863190  1
  S  S1  1  0.578405  0.551423  0.636810  1
  S  S2  1  0.784786  0.948577  0.636810  1
  S  S3  1  0.266637  0.948577  0.863190  1
  S  S4  1  0.129827  0.448577  0.136810  1
  S  S5  1  0.215214  0.051423  0.363190  1
  S  S6  1  0.421595  0.448577  0.363190  1
  S  S7  1  0.733363  0.051423  0.136810  1
  K  K8  1  0.555134  0.250000  0.889731  1
  K  K9  1  0.444866  0.750000  0.110269  1
  K  K10  1  0.194866  0.250000  0.610269  1
  K  K11  1  0.805134  0.750000  0.389731  1
  V  V12  1  0.625000  0.750000  0.750000  1
  V  V13  1  0.375000  0.250000  0.250000  1
  Ag  Ag14  1  0.125000  0.750000  0.750000  1
  Ag  Ag15  1  0.875000  0.250000  0.250000  1
