# generated using pymatgen
data_BaNd2PdO5
_symmetry_space_group_name_H-M   'P 1'
_cell_length_a   5.98297567
_cell_length_b   6.81248704
_cell_length_c   6.81248704
_cell_angle_alpha   90.00000000
_cell_angle_beta   90.00000000
_cell_angle_gamma   90.00000000
_symmetry_Int_Tables_number   1
_chemical_formula_structural   BaNd2PdO5
_chemical_formula_sum   'Ba2 Nd4 Pd2 O10'
_cell_volume   277.66977921
_cell_formula_units_Z   2
loop_
 _symmetry_equiv_pos_site_id
 _symmetry_equiv_pos_as_xyz
  1  'x, y, z'
loop_
 _atom_site_type_symbol
 _atom_site_label
 _atom_site_symmetry_multiplicity
 _atom_site_fract_x
 _atom_site_fract_y
 _atom_site_fract_z
 _atom_site_occupancy
  O  O0  1  0.500000  0.500000  0.500000  1
  O  O1  1  0.500000  0.000000  0.000000  1
  O  O2  1  0.251883  0.640451  0.140451  1
  O  O3  1  0.251883  0.359549  0.859549  1
  O  O4  1  0.251883  0.140451  0.359549  1
  O  O5  1  0.251883  0.859549  0.640451  1
  O  O6  1  0.748117  0.640451  0.140451  1
  O  O7  1  0.748117  0.859549  0.640451  1
  O  O8  1  0.748117  0.359549  0.859549  1
  O  O9  1  0.748117  0.140451  0.359549  1
  Pd  Pd10  1  0.000000  0.500000  0.000000  1
  Pd  Pd11  1  0.000000  0.000000  0.500000  1
  Ba  Ba12  1  0.000000  0.500000  0.500000  1
  Ba  Ba13  1  0.000000  0.000000  0.000000  1
  Nd  Nd14  1  0.500000  0.173678  0.673678  1
  Nd  Nd15  1  0.500000  0.326322  0.173678  1
  Nd  Nd16  1  0.500000  0.673678  0.826322  1
  Nd  Nd17  1  0.500000  0.826322  0.326322  1
