# generated using pymatgen
data_Na3V5O23
_symmetry_space_group_name_H-M   'P 1'
_cell_length_a   11.95300725
_cell_length_b   10.13620720
_cell_length_c   8.43859467
_cell_angle_alpha   98.50350544
_cell_angle_beta   101.94392763
_cell_angle_gamma   106.80092309
_symmetry_Int_Tables_number   1
_chemical_formula_structural   Na3V5O23
_chemical_formula_sum   'Na6 V10 O46'
_cell_volume   933.73310197
_cell_formula_units_Z   2
loop_
 _symmetry_equiv_pos_site_id
 _symmetry_equiv_pos_as_xyz
  1  'x, y, z'
loop_
 _atom_site_type_symbol
 _atom_site_label
 _atom_site_symmetry_multiplicity
 _atom_site_fract_x
 _atom_site_fract_y
 _atom_site_fract_z
 _atom_site_occupancy
  Na  Na0  1  0.346124  0.786537  0.547050  1
  Na  Na1  1  0.653876  0.213463  0.452950  1
  Na  Na2  1  0.969574  0.739830  0.544887  1
  Na  Na3  1  0.030426  0.260170  0.455113  1
  Na  Na4  1  0.524323  0.387771  0.749218  1
  Na  Na5  1  0.475677  0.612229  0.250782  1
  V  V6  1  0.742793  0.810941  0.674552  1
  V  V7  1  0.257207  0.189059  0.325448  1
  V  V8  1  0.016116  0.015914  0.816034  1
  V  V9  1  0.983884  0.984086  0.183966  1
  V  V10  1  0.718036  0.793122  0.038372  1
  V  V11  1  0.281964  0.206878  0.961628  1
  V  V12  1  0.932657  0.707872  0.909805  1
  V  V13  1  0.067343  0.292128  0.090195  1
  V  V14  1  0.799098  0.093776  0.948606  1
  V  V15  1  0.200902  0.906224  0.051394  1
  O  O16  1  0.888359  0.915232  0.942533  1
  O  O17  1  0.111641  0.084768  0.057467  1
  O  O18  1  0.830438  0.682699  0.700437  1
  O  O19  1  0.169562  0.317301  0.299563  1
  O  O20  1  0.392349  0.291829  0.887921  1
  O  O21  1  0.607651  0.708171  0.112079  1
  O  O22  1  0.066358  0.849835  0.837449  1
  O  O23  1  0.933642  0.150165  0.162551  1
  O  O24  1  0.192600  0.339357  0.987987  1
  O  O25  1  0.807400  0.660643  0.012013  1
  O  O26  1  0.746092  0.226047  0.950954  1
  O  O27  1  0.253908  0.773953  0.049046  1
  O  O28  1  0.901772  0.927439  0.632633  1
  O  O29  1  0.098228  0.072561  0.367367  1
  O  O30  1  0.980142  0.573850  0.879893  1
  O  O31  1  0.019858  0.426150  0.120107  1
  O  O32  1  0.140708  0.112717  0.759366  1
  O  O33  1  0.859291  0.887283  0.240634  1
  O  O34  1  0.953827  0.167932  0.876729  1
  O  O35  1  0.046173  0.832068  0.123271  1
  O  O36  1  0.725181  0.987338  0.735624  1
  O  O37  1  0.274819  0.012662  0.264376  1
  O  O38  1  0.650527  0.736926  0.810575  1
  O  O39  1  0.349473  0.263074  0.189425  1
  O  O40  1  0.298281  0.030062  0.956142  1
  O  O41  1  0.701719  0.969938  0.043858  1
  O  O42  1  0.353420  0.257810  0.511572  1
  O  O43  1  0.646580  0.742190  0.488428  1
  O  O44  1  0.417295  0.574144  0.680966  1
  O  O45  1  0.582705  0.425856  0.319034  1
  O  O46  1  0.170610  0.852562  0.484673  1
  O  O47  1  0.829390  0.147438  0.515327  1
  O  O48  1  0.165987  0.462892  0.692048  1
  O  O49  1  0.834013  0.537108  0.307952  1
  O  O50  1  0.682250  0.457815  0.004557  1
  O  O51  1  0.317750  0.542185  0.995443  1
  O  O52  1  0.619533  0.436219  0.471961  1
  O  O53  1  0.380467  0.563781  0.528039  1
  O  O54  1  0.870257  0.263342  0.620814  1
  O  O55  1  0.129743  0.736658  0.379186  1
  O  O56  1  0.158028  0.567760  0.636404  1
  O  O57  1  0.841972  0.432240  0.363596  1
  O  O58  1  0.514697  0.081127  0.652451  1
  O  O59  1  0.485303  0.918873  0.347549  1
  O  O60  1  0.478407  0.995563  0.737392  1
  O  O61  1  0.521593  0.004437  0.262608  1
