# generated using pymatgen
data_Li2MnVP2(HO5)2
_symmetry_space_group_name_H-M   'P 1'
_cell_length_a   10.88044026
_cell_length_b   7.40605573
_cell_length_c   5.21129141
_cell_angle_alpha   107.98935712
_cell_angle_beta   98.64871072
_cell_angle_gamma   106.15727429
_symmetry_Int_Tables_number   1
_chemical_formula_structural   Li2MnVP2(HO5)2
_chemical_formula_sum   'Li4 Mn2 V2 P4 H4 O20'
_cell_volume   370.56943090
_cell_formula_units_Z   2
loop_
 _symmetry_equiv_pos_site_id
 _symmetry_equiv_pos_as_xyz
  1  'x, y, z'
loop_
 _atom_site_type_symbol
 _atom_site_label
 _atom_site_symmetry_multiplicity
 _atom_site_fract_x
 _atom_site_fract_y
 _atom_site_fract_z
 _atom_site_occupancy
  Li  Li0  1  0.197268  0.817177  0.738939  1
  Li  Li1  1  0.300928  0.163630  0.244501  1
  Li  Li2  1  0.699072  0.836370  0.755499  1
  Li  Li3  1  0.802732  0.182823  0.261061  1
  Mn  Mn4  1  0.000000  0.500000  0.000000  1
  Mn  Mn5  1  0.500000  0.000000  0.000000  1
  V  V6  1  0.000000  0.000000  0.000000  1
  V  V7  1  0.500000  0.500000  0.000000  1
  P  P8  1  0.181824  0.230106  0.670122  1
  P  P9  1  0.314739  0.765558  0.310709  1
  P  P10  1  0.685261  0.234442  0.689291  1
  P  P11  1  0.818176  0.769894  0.329878  1
  H  H12  1  0.033605  0.337819  0.355437  1
  H  H13  1  0.467612  0.651759  0.641814  1
  H  H14  1  0.532388  0.348241  0.358186  1
  H  H15  1  0.966395  0.662181  0.644563  1
  O  O16  1  0.021899  0.723654  0.841679  1
  O  O17  1  0.107497  0.380322  0.706720  1
  O  O18  1  0.169223  0.645426  0.295248  1
  O  O19  1  0.131166  0.071070  0.367471  1
  O  O20  1  0.167933  0.118082  0.880232  1
  O  O21  1  0.319039  0.878943  0.107337  1
  O  O22  1  0.368386  0.913748  0.614280  1
  O  O23  1  0.332602  0.337400  0.700578  1
  O  O24  1  0.398536  0.621829  0.249567  1
  O  O25  1  0.525076  0.708103  0.832969  1
  O  O26  1  0.474924  0.291897  0.167031  1
  O  O27  1  0.601464  0.378171  0.750433  1
  O  O28  1  0.667398  0.662600  0.299422  1
  O  O29  1  0.631614  0.086252  0.385720  1
  O  O30  1  0.680961  0.121057  0.892663  1
  O  O31  1  0.832067  0.881918  0.119768  1
  O  O32  1  0.868834  0.928929  0.632529  1
  O  O33  1  0.830777  0.354574  0.704752  1
  O  O34  1  0.892503  0.619678  0.293280  1
  O  O35  1  0.978101  0.276346  0.158321  1
