# generated using pymatgen
data_Zn5Co19O32
_symmetry_space_group_name_H-M   'P 1'
_cell_length_a   5.77483012
_cell_length_b   5.77483012
_cell_length_c   19.15135413
_cell_angle_alpha   98.67144926
_cell_angle_beta   90.00000000
_cell_angle_gamma   120.00000000
_symmetry_Int_Tables_number   1
_chemical_formula_structural   Zn5Co19O32
_chemical_formula_sum   'Zn5 Co19 O32'
_cell_volume   544.65993965
_cell_formula_units_Z   1
loop_
 _symmetry_equiv_pos_site_id
 _symmetry_equiv_pos_as_xyz
  1  'x, y, z'
loop_
 _atom_site_type_symbol
 _atom_site_label
 _atom_site_symmetry_multiplicity
 _atom_site_fract_x
 _atom_site_fract_y
 _atom_site_fract_z
 _atom_site_occupancy
  Zn  Zn0  1  0.000022  0.000044  0.000065  1
  Zn  Zn1  1  0.687493  0.374988  0.062481  1
  Zn  Zn2  1  0.749996  0.499991  0.249987  1
  Zn  Zn3  1  0.187515  0.375029  0.562545  1
  Zn  Zn4  1  0.249966  0.499932  0.749897  1
  Co  Co5  1  0.343754  0.687509  0.031263  1
  Co  Co6  1  0.218895  0.937484  0.156379  1
  Co  Co7  1  0.218895  0.437790  0.156379  1
  Co  Co8  1  0.718589  0.937484  0.156379  1
  Co  Co9  1  0.437471  0.874944  0.312415  1
  Co  Co10  1  0.093784  0.187568  0.281352  1
  Co  Co11  1  0.218743  0.937499  0.656255  1
  Co  Co12  1  0.968744  0.937487  0.406250  1
  Co  Co13  1  0.468762  0.437505  0.406250  1
  Co  Co14  1  0.718756  0.937499  0.656255  1
  Co  Co15  1  0.843733  0.687464  0.531197  1
  Co  Co16  1  0.968744  0.437505  0.406250  1
  Co  Co17  1  0.500029  0.000059  0.500088  1
  Co  Co18  1  0.718756  0.437511  0.656255  1
  Co  Co19  1  0.468736  0.937472  0.906089  1
  Co  Co20  1  0.937501  0.875003  0.812504  1
  Co  Co21  1  0.593759  0.187519  0.781278  1
  Co  Co22  1  0.468736  0.437353  0.906089  1
  Co  Co23  1  0.968617  0.437353  0.906089  1
  O  O24  1  0.070746  0.584081  0.097416  1
  O  O25  1  0.402841  0.805681  0.208522  1
  O  O26  1  0.513335  0.584081  0.097416  1
  O  O27  1  0.034855  0.069709  0.104564  1
  O  O28  1  0.367014  0.291124  0.215233  1
  O  O29  1  0.924110  0.848220  0.215233  1
  O  O30  1  0.118360  0.791858  0.465356  1
  O  O31  1  0.264018  0.528036  0.347146  1
  O  O32  1  0.513335  0.026670  0.097416  1
  O  O33  1  0.152645  0.305288  0.457933  1
  O  O34  1  0.264018  0.083128  0.347146  1
  O  O35  1  0.013357  0.584028  0.597385  1
  O  O36  1  0.673498  0.791858  0.465356  1
  O  O37  1  0.784859  0.569718  0.354577  1
  O  O38  1  0.924110  0.291124  0.215233  1
  O  O39  1  0.673498  0.346995  0.465356  1
  O  O40  1  0.424144  0.848288  0.715117  1
  O  O41  1  0.570670  0.584028  0.597385  1
  O  O42  1  0.013357  0.026715  0.597385  1
  O  O43  1  0.819110  0.083128  0.347146  1
  O  O44  1  0.902837  0.805674  0.708510  1
  O  O45  1  0.174124  0.791008  0.965131  1
  O  O46  1  0.534674  0.069346  0.604020  1
  O  O47  1  0.424144  0.290973  0.715117  1
  O  O48  1  0.284788  0.569576  0.854364  1
  O  O49  1  0.616885  0.791008  0.965131  1
  O  O50  1  0.174124  0.348246  0.965131  1
  O  O51  1  0.866829  0.290973  0.715117  1
  O  O52  1  0.319155  0.083133  0.847111  1
  O  O53  1  0.763978  0.527955  0.847111  1
  O  O54  1  0.652611  0.305221  0.957831  1
  O  O55  1  0.763978  0.083133  0.847111  1
