# generated using pymatgen
data_Ta2CrNO5
_symmetry_space_group_name_H-M   'P 1'
_cell_length_a   4.77642088
_cell_length_b   4.77294987
_cell_length_c   9.22495162
_cell_angle_alpha   89.77480311
_cell_angle_beta   90.00000000
_cell_angle_gamma   90.00000000
_symmetry_Int_Tables_number   1
_chemical_formula_structural   Ta2CrNO5
_chemical_formula_sum   'Ta4 Cr2 N2 O10'
_cell_volume   210.30529338
_cell_formula_units_Z   2
loop_
 _symmetry_equiv_pos_site_id
 _symmetry_equiv_pos_as_xyz
  1  'x, y, z'
loop_
 _atom_site_type_symbol
 _atom_site_label
 _atom_site_symmetry_multiplicity
 _atom_site_fract_x
 _atom_site_fract_y
 _atom_site_fract_z
 _atom_site_occupancy
  Ta  Ta0  1  0.990679  0.983346  0.334473  1
  Ta  Ta1  1  0.992052  0.005342  0.676934  1
  Ta  Ta2  1  0.507948  0.505342  0.176934  1
  Ta  Ta3  1  0.509321  0.483346  0.834473  1
  Cr  Cr4  1  0.000762  0.000810  0.998695  1
  Cr  Cr5  1  0.499238  0.500810  0.498695  1
  N  N6  1  0.697849  0.697959  0.331325  1
  N  N7  1  0.802151  0.197959  0.831325  1
  O  O8  1  0.197830  0.807358  0.495845  1
  O  O9  1  0.195736  0.804196  0.829074  1
  O  O10  1  0.199876  0.805704  0.168005  1
  O  O11  1  0.304264  0.304196  0.329074  1
  O  O12  1  0.300124  0.305704  0.668005  1
  O  O13  1  0.302170  0.307358  0.995845  1
  O  O14  1  0.689716  0.695354  0.998717  1
  O  O15  1  0.693716  0.699930  0.666931  1
  O  O16  1  0.806284  0.199930  0.166931  1
  O  O17  1  0.810284  0.195354  0.498717  1
