# generated using pymatgen
data_Li2Mn3(BO3)3
_symmetry_space_group_name_H-M   'P 1'
_cell_length_a   8.28653087
_cell_length_b   10.42714491
_cell_length_c   10.42714439
_cell_angle_alpha   74.87771607
_cell_angle_beta   66.55532942
_cell_angle_gamma   66.55533112
_symmetry_Int_Tables_number   1
_chemical_formula_structural   Li2Mn3(BO3)3
_chemical_formula_sum   'Li8 Mn12 B12 O36'
_cell_volume   752.68564603
_cell_formula_units_Z   4
loop_
 _symmetry_equiv_pos_site_id
 _symmetry_equiv_pos_as_xyz
  1  'x, y, z'
loop_
 _atom_site_type_symbol
 _atom_site_label
 _atom_site_symmetry_multiplicity
 _atom_site_fract_x
 _atom_site_fract_y
 _atom_site_fract_z
 _atom_site_occupancy
  Li  Li0  1  0.984322  0.981146  0.737535  1
  Li  Li1  1  0.980743  0.735947  0.985947  1
  Li  Li2  1  0.725724  0.526021  0.776021  1
  Li  Li3  1  0.984322  0.487535  0.231146  1
  Li  Li4  1  0.717223  0.024530  0.274530  1
  Li  Li5  1  0.296940  0.615138  0.361137  1
  Li  Li6  1  0.296940  0.111137  0.865138  1
  Li  Li7  1  0.308386  0.366416  0.616416  1
  Mn  Mn8  1  0.367267  0.813829  0.813694  1
  Mn  Mn9  1  0.647366  0.507752  0.505690  1
  Mn  Mn10  1  0.647366  0.255690  0.757752  1
  Mn  Mn11  1  0.606308  0.761194  0.255109  1
  Mn  Mn12  1  0.002846  0.929823  0.424916  1
  Mn  Mn13  1  0.011433  0.681761  0.678436  1
  Mn  Mn14  1  0.011433  0.428436  0.931761  1
  Mn  Mn15  1  0.367267  0.563694  0.063829  1
  Mn  Mn16  1  0.358122  0.314506  0.312924  1
  Mn  Mn17  1  0.358122  0.062924  0.564506  1
  Mn  Mn18  1  0.606308  0.005109  0.011194  1
  Mn  Mn19  1  0.002846  0.174916  0.179823  1
  B  B20  1  0.988243  -0.000096  0.996072  1
  B  B21  1  0.677231  0.707283  0.957283  1
  B  B22  1  0.988243  0.746072  0.249904  1
  B  B23  1  0.664076  0.958225  0.715919  1
  B  B24  1  0.664076  0.465919  0.208225  1
  B  B25  1  0.339041  0.543358  0.793358  1
  B  B26  1  0.667191  0.208245  0.458245  1
  B  B27  1  0.325734  0.796997  0.531792  1
  B  B28  1  0.332901  0.040016  0.290016  1
  B  B29  1  0.010320  0.501494  0.499718  1
  B  B30  1  0.010320  0.249718  0.751494  1
  B  B31  1  0.325734  0.281791  0.046997  1
  O  O32  1  0.895113  0.942981  0.950721  1
  O  O33  1  0.868521  0.652336  0.902336  1
  O  O34  1  0.854676  0.906367  0.656199  1
  O  O35  1  0.901361  0.586365  0.606103  1
  O  O36  1  0.901361  0.356103  0.836365  1
  O  O37  1  0.891616  0.851031  0.335971  1
  O  O38  1  0.927134  0.462732  0.431949  1
  O  O39  1  0.927134  0.181949  0.712732  1
  O  O40  1  0.895113  0.700721  0.192981  1
  O  O41  1  0.563791  0.668861  0.918861  1
  O  O42  1  0.539689  0.930716  0.680699  1
  O  O43  1  0.178704  0.967478  0.934335  1
  O  O44  1  0.534924  0.975062  0.225062  1
  O  O45  1  0.533492  0.487375  0.737375  1
  O  O46  1  0.854676  0.406199  0.156367  1
  O  O47  1  0.856305  0.145438  0.395438  1
  O  O48  1  0.518163  0.751888  0.460832  1
  O  O49  1  0.518163  0.210832  0.001888  1
  O  O50  1  0.600587  0.804822  0.054822  1
  O  O51  1  0.585538  0.570882  0.299956  1
  O  O52  1  0.585538  0.049956  0.820882  1
  O  O53  1  0.258609  0.640764  0.890764  1
  O  O54  1  0.595658  0.304211  0.554211  1
  O  O55  1  0.254630  0.881712  0.637063  1
  O  O56  1  0.891616  0.085971  0.101031  1
  O  O57  1  0.227576  0.503234  0.753234  1
  O  O58  1  0.539689  0.430699  0.180716  1
  O  O59  1  0.549659  0.171060  0.421060  1
  O  O60  1  0.210867  0.755061  0.495846  1
  O  O61  1  0.204618  0.455996  0.461512  1
  O  O62  1  0.204618  0.211512  0.705995  1
  O  O63  1  0.178704  0.684335  0.217478  1
  O  O64  1  0.277526  0.132275  0.382275  1
  O  O65  1  0.254630  0.387063  0.131712  1
  O  O66  1  0.218434  0.003663  0.253663  1
  O  O67  1  0.210867  0.245846  0.005061  1
