# generated using pymatgen
data_K2BaCdSb2
_symmetry_space_group_name_H-M   'P 1'
_cell_length_a   5.10501603
_cell_length_b   10.00531807
_cell_length_c   8.64847693
_cell_angle_alpha   90.00000000
_cell_angle_beta   90.00000000
_cell_angle_gamma   90.00000000
_symmetry_Int_Tables_number   1
_chemical_formula_structural   K2BaCdSb2
_chemical_formula_sum   'K4 Ba2 Cd2 Sb4'
_cell_volume   441.74092968
_cell_formula_units_Z   2
loop_
 _symmetry_equiv_pos_site_id
 _symmetry_equiv_pos_as_xyz
  1  'x, y, z'
loop_
 _atom_site_type_symbol
 _atom_site_label
 _atom_site_symmetry_multiplicity
 _atom_site_fract_x
 _atom_site_fract_y
 _atom_site_fract_z
 _atom_site_occupancy
  K  K0  1  0.499999  0.422297  0.020212  1
  K  K1  1  0.000000  0.339390  0.344918  1
  K  K2  1  0.499999  0.577703  0.520211  1
  K  K3  1  0.000000  0.660610  0.844919  1
  Ba  Ba4  1  0.000000  0.049857  0.999008  1
  Ba  Ba5  1  0.000000  0.950143  0.499007  1
  Cd  Cd6  1  0.499999  0.822950  0.154001  1
  Cd  Cd7  1  0.499999  0.177049  0.654000  1
  Sb  Sb8  1  0.000000  0.680700  0.239071  1
  Sb  Sb9  1  0.499999  0.113310  0.288391  1
  Sb  Sb10  1  0.000000  0.319300  0.739071  1
  Sb  Sb11  1  0.499999  0.886690  0.788392  1
