# generated using pymatgen
data_Co6O7F5
_symmetry_space_group_name_H-M   'P 1'
_cell_length_a   7.66782273
_cell_length_b   5.54235234
_cell_length_c   5.54235234
_cell_angle_alpha   67.44666446
_cell_angle_beta   66.99823818
_cell_angle_gamma   66.99823818
_symmetry_Int_Tables_number   1
_chemical_formula_structural   Co6O7F5
_chemical_formula_sum   'Co6 O7 F5'
_cell_volume   192.02275974
_cell_formula_units_Z   1
loop_
 _symmetry_equiv_pos_site_id
 _symmetry_equiv_pos_as_xyz
  1  'x, y, z'
loop_
 _atom_site_type_symbol
 _atom_site_label
 _atom_site_symmetry_multiplicity
 _atom_site_fract_x
 _atom_site_fract_y
 _atom_site_fract_z
 _atom_site_occupancy
  Co  Co0  1  0.834748  0.665046  0.665046  1
  Co  Co1  1  0.330391  0.656456  0.656456  1
  Co  Co2  1  0.654213  0.333514  0.333514  1
  Co  Co3  1  0.185513  0.345972  0.345972  1
  Co  Co4  1  0.497552  0.998303  0.998303  1
  Co  Co5  1  0.001712  0.001468  0.001468  1
  O  O6  1  0.330921  0.362245  0.976964  1
  O  O7  1  0.664017  0.026538  0.634703  1
  O  O8  1  0.374163  0.438212  0.438212  1
  O  O9  1  0.330921  0.976964  0.362245  1
  O  O10  1  0.664017  0.634703  0.026538  1
  O  O11  1  0.007617  0.310735  0.692939  1
  O  O12  1  0.007617  0.692939  0.310735  1
  F  F13  1  0.628218  0.563085  0.563085  1
  F  F14  1  0.291651  0.894831  0.894831  1
  F  F15  1  0.953667  0.229289  0.229289  1
  F  F16  1  0.033651  0.774659  0.774659  1
  F  F17  1  0.709411  0.095040  0.095040  1
