# generated using pymatgen
data_PaP3
_symmetry_space_group_name_H-M   'P 1'
_cell_length_a   5.55766912
_cell_length_b   5.55766959
_cell_length_c   5.46204902
_cell_angle_alpha   90.00000000
_cell_angle_beta   90.00000000
_cell_angle_gamma   119.99999718
_symmetry_Int_Tables_number   1
_chemical_formula_structural   PaP3
_chemical_formula_sum   'Pa2 P6'
_cell_volume   146.10721035
_cell_formula_units_Z   2
loop_
 _symmetry_equiv_pos_site_id
 _symmetry_equiv_pos_as_xyz
  1  'x, y, z'
loop_
 _atom_site_type_symbol
 _atom_site_label
 _atom_site_symmetry_multiplicity
 _atom_site_fract_x
 _atom_site_fract_y
 _atom_site_fract_z
 _atom_site_occupancy
  Pa  Pa0  1  0.333332  0.666665  0.750001  1
  Pa  Pa1  1  0.666667  0.333332  0.250001  1
  P  P2  1  0.189879  0.379758  0.250001  1
  P  P3  1  0.620240  0.810119  0.250001  1
  P  P4  1  0.189880  0.810119  0.250001  1
  P  P5  1  0.810121  0.620241  0.750001  1
  P  P6  1  0.379758  0.189880  0.750001  1
  P  P7  1  0.810121  0.189880  0.750001  1
