# generated using pymatgen
data_K2MnSe2
_symmetry_space_group_name_H-M   'P 1'
_cell_length_a   6.57325678
_cell_length_b   7.15098255
_cell_length_c   8.24811751
_cell_angle_alpha   115.68936334
_cell_angle_beta   113.48257322
_cell_angle_gamma   89.99999996
_symmetry_Int_Tables_number   1
_chemical_formula_structural   K2MnSe2
_chemical_formula_sum   'K4 Mn2 Se4'
_cell_volume   313.37158936
_cell_formula_units_Z   2
loop_
 _symmetry_equiv_pos_site_id
 _symmetry_equiv_pos_as_xyz
  1  'x, y, z'
loop_
 _atom_site_type_symbol
 _atom_site_label
 _atom_site_symmetry_multiplicity
 _atom_site_fract_x
 _atom_site_fract_y
 _atom_site_fract_z
 _atom_site_occupancy
  K  K0  1  0.145405  0.478893  0.290810  1
  K  K1  1  0.854595  0.521107  0.709190  1
  K  K2  1  0.354595  0.188082  0.709190  1
  K  K3  1  0.645405  0.811918  0.290810  1
  Mn  Mn4  1  0.250000  0.000000  0.000000  1
  Mn  Mn5  1  0.750000  0.000000  0.000000  1
  Se  Se6  1  0.895302  0.090423  0.790605  1
  Se  Se7  1  0.104698  0.909577  0.209395  1
  Se  Se8  1  0.604698  0.299818  0.209395  1
  Se  Se9  1  0.395302  0.700182  0.790605  1
