# generated using pymatgen
data_Li3V3P8O29
_symmetry_space_group_name_H-M   'P 1'
_cell_length_a   9.78319747
_cell_length_b   9.78176205
_cell_length_c   13.97302090
_cell_angle_alpha   90.00556282
_cell_angle_beta   90.01918675
_cell_angle_gamma   59.88756083
_symmetry_Int_Tables_number   1
_chemical_formula_structural   Li3V3P8O29
_chemical_formula_sum   'Li6 V6 P16 O58'
_cell_volume   1156.71309425
_cell_formula_units_Z   2
loop_
 _symmetry_equiv_pos_site_id
 _symmetry_equiv_pos_as_xyz
  1  'x, y, z'
loop_
 _atom_site_type_symbol
 _atom_site_label
 _atom_site_symmetry_multiplicity
 _atom_site_fract_x
 _atom_site_fract_y
 _atom_site_fract_z
 _atom_site_occupancy
  Li  Li0  1  0.772842  0.905865  0.554897  1
  Li  Li1  1  0.772766  0.317285  0.061507  1
  Li  Li2  1  0.684112  0.226672  0.438401  1
  Li  Li3  1  0.312974  0.777894  0.553566  1
  Li  Li4  1  0.222197  0.686988  0.946543  1
  Li  Li5  1  0.094453  0.227179  0.944959  1
  V  V6  1  0.564822  0.435119  0.250005  1
  V  V7  1  0.435916  0.564076  0.749986  1
  V  V8  1  0.563888  0.003073  0.757577  1
  V  V9  1  0.431814  0.002343  0.247285  1
  V  V10  1  0.997658  0.568255  0.252564  1
  V  V11  1  0.996811  0.435960  0.742518  1
  P  P12  1  0.915916  0.767720  0.843237  1
  P  P13  1  0.768618  0.913721  0.340192  1
  P  P14  1  0.915472  0.312843  0.345175  1
  P  P15  1  0.667497  0.666081  0.128843  1
  P  P16  1  0.663383  0.671693  0.628191  1
  P  P17  1  0.773232  0.316334  0.841983  1
  P  P18  1  0.683737  0.226580  0.658180  1
  P  P19  1  0.312735  0.914942  0.843352  1
  P  P20  1  0.687541  0.084286  0.154535  1
  P  P21  1  0.316609  0.774042  0.340507  1
  P  P22  1  0.225951  0.683473  0.159621  1
  P  P23  1  0.334135  0.332312  0.371173  1
  P  P24  1  0.328512  0.336410  0.871897  1
  P  P25  1  0.085000  0.687162  0.656729  1
  P  P26  1  0.232014  0.084062  0.656836  1
  P  P27  1  0.086250  0.231563  0.159620  1
  O  O28  1  0.994253  0.766471  0.569839  1
  O  O29  1  0.913133  0.745029  0.336581  1
  O  O30  1  0.767938  0.000490  0.066533  1
  O  O31  1  0.744353  0.910463  0.834744  1
  O  O32  1  0.908568  0.615036  0.821270  1
  O  O33  1  0.815873  0.663284  0.175176  1
  O  O34  1  0.908052  0.473779  0.324428  1
  O  O35  1  0.000011  0.243667  0.068063  1
  O  O36  1  0.918902  0.339002  0.836481  1
  O  O37  1  0.668151  0.817476  0.670219  1
  O  O38  1  0.616823  0.905599  0.322821  1
  O  O39  1  0.812614  0.519639  0.673402  1
  O  O40  1  0.670905  0.656931  0.022538  1
  O  O41  1  0.663212  0.668803  0.522236  1
  O  O42  1  0.669870  0.511435  0.170182  1
  O  O43  1  0.476352  0.904419  0.824864  1
  O  O44  1  0.520164  0.814041  0.172691  1
  O  O45  1  0.743063  0.340213  0.338702  1
  O  O46  1  0.792368  0.207466  0.750134  1
  O  O47  1  0.750615  0.240849  0.566711  1
  O  O48  1  0.758778  0.249661  0.933494  1
  O  O49  1  0.619080  0.478655  0.819631  1
  O  O50  1  0.512323  0.670423  0.670623  1
  O  O51  1  0.659405  0.257052  0.161632  1
  O  O52  1  0.477807  0.618749  0.320213  1
  O  O53  1  0.343383  0.915878  0.332567  1
  O  O54  1  0.790018  0.005991  0.252174  1
  O  O55  1  0.756872  -0.000047  0.431668  1
  O  O56  1  0.240473  0.995588  0.569935  1
  O  O57  1  0.660598  0.081199  0.663616  1
  O  O58  1  0.521562  0.380974  0.680400  1
  O  O59  1  0.338660  0.744165  0.839672  1
  O  O60  1  0.488572  0.330228  0.329950  1
  O  O61  1  0.381147  0.522083  0.179813  1
  O  O62  1  0.240363  0.751801  0.068261  1
  O  O63  1  0.248371  0.759506  0.431878  1
  O  O64  1  0.205708  0.794165  0.250115  1
  O  O65  1  0.255664  0.661500  0.660403  1
  O  O66  1  0.480461  0.187223  0.826617  1
  O  O67  1  0.526803  0.091244  0.175256  1
  O  O68  1  0.329811  0.487490  0.829449  1
  O  O69  1  0.331765  0.336182  0.977849  1
  O  O70  1  0.343413  0.328177  0.477472  1
  O  O71  1  0.185941  0.479496  0.327368  1
  O  O72  1  0.384669  0.091387  0.678788  1
  O  O73  1  0.337308  0.183930  0.324470  1
  O  O74  1  0.084142  0.656663  0.167404  1
  O  O75  1  0.002000  0.791732  0.750487  1
  O  O76  1  0.004590  0.758887  0.930123  1
  O  O77  1  0.095552  0.523485  0.675149  1
  O  O78  1  0.182691  0.331672  0.829891  1
  O  O79  1  0.094331  0.383422  0.177022  1
  O  O80  1  0.254890  0.086921  0.163240  1
  O  O81  1  0.233626  0.005687  0.930214  1
  O  O82  1  0.208081  0.997922  0.749599  1
  O  O83  1  0.089245  0.255625  0.665378  1
  O  O84  1  0.000314  0.232408  0.433115  1
  O  O85  1  0.993763  0.210388  0.247567  1
