# generated using pymatgen
data_NaNb6O15F
_symmetry_space_group_name_H-M   'P 1'
_cell_length_a   3.96714464
_cell_length_b   9.18158800
_cell_length_c   9.18158800
_cell_angle_alpha   109.92694342
_cell_angle_beta   90.00000000
_cell_angle_gamma   90.00000000
_symmetry_Int_Tables_number   1
_chemical_formula_structural   NaNb6O15F
_chemical_formula_sum   'Na1 Nb6 O15 F1'
_cell_volume   314.41308050
_cell_formula_units_Z   1
loop_
 _symmetry_equiv_pos_site_id
 _symmetry_equiv_pos_as_xyz
  1  'x, y, z'
loop_
 _atom_site_type_symbol
 _atom_site_label
 _atom_site_symmetry_multiplicity
 _atom_site_fract_x
 _atom_site_fract_y
 _atom_site_fract_z
 _atom_site_occupancy
  O  O0  1  0.500001  0.637485  0.008227  1
  O  O1  1  0.000000  0.513099  0.486901  1
  O  O2  1  0.000000  0.862267  0.137733  1
  O  O3  1  0.000000  0.533722  0.166803  1
  O  O4  1  0.000000  0.833198  0.466278  1
  O  O5  1  0.000000  0.767828  0.857525  1
  O  O6  1  0.000000  0.142475  0.232172  1
  O  O7  1  0.500001  0.220723  0.779278  1
  O  O8  1  0.500001  0.718035  0.635749  1
  O  O9  1  0.500001  0.364251  0.281965  1
  O  O10  1  0.500001  0.991773  0.362515  1
  O  O11  1  0.000000  0.444838  0.818893  1
  O  O12  1  0.000000  0.989058  0.773075  1
  O  O13  1  0.000000  0.226926  0.010942  1
  O  O14  1  0.000000  0.181107  0.555162  1
  F  F15  1  0.500001  0.999300  0.000700  1
  Na  Na16  1  0.500001  0.404932  0.595069  1
  Nb  Nb17  1  0.000000  0.737948  0.621926  1
  Nb  Nb18  1  0.000000  0.378074  0.262052  1
  Nb  Nb19  1  0.000000  0.995343  0.371424  1
  Nb  Nb20  1  0.000000  0.218024  0.781976  1
  Nb  Nb21  1  0.000000  0.999021  0.000979  1
  Nb  Nb22  1  0.000000  0.628576  0.004657  1
