# generated using pymatgen
data_Li5Mn6(BO3)6
_symmetry_space_group_name_H-M   'P 1'
_cell_length_a   5.93024776
_cell_length_b   5.29730051
_cell_length_c   13.24580767
_cell_angle_alpha   89.25243716
_cell_angle_beta   82.22963278
_cell_angle_gamma   113.16559090
_symmetry_Int_Tables_number   1
_chemical_formula_structural   Li5Mn6(BO3)6
_chemical_formula_sum   'Li5 Mn6 B6 O18'
_cell_volume   378.04179483
_cell_formula_units_Z   1
loop_
 _symmetry_equiv_pos_site_id
 _symmetry_equiv_pos_as_xyz
  1  'x, y, z'
loop_
 _atom_site_type_symbol
 _atom_site_label
 _atom_site_symmetry_multiplicity
 _atom_site_fract_x
 _atom_site_fract_y
 _atom_site_fract_z
 _atom_site_occupancy
  Li  Li0  1  0.697449  0.260073  0.645571  1
  Li  Li1  1  0.656676  0.397961  0.021017  1
  Li  Li2  1  0.341612  0.602541  0.977515  1
  Li  Li3  1  0.324246  0.735013  0.357122  1
  Li  Li4  1  0.012658  0.938732  0.312960  1
  Mn  Mn5  1  0.961923  0.562454  0.795657  1
  Mn  Mn6  1  0.378080  0.115286  0.862403  1
  Mn  Mn7  1  0.719216  0.779413  0.536791  1
  Mn  Mn8  1  0.289781  0.227937  0.474086  1
  Mn  Mn9  1  0.622055  0.885468  0.137854  1
  Mn  Mn10  1  0.041065  0.448208  0.197216  1
  B  B11  1  0.837508  0.347970  0.423224  1
  B  B12  1  0.826865  0.984162  0.912610  1
  B  B13  1  0.501839  0.676607  0.754110  1
  B  B14  1  0.491581  0.320170  0.246483  1
  B  B15  1  0.173308  0.014780  0.088648  1
  B  B16  1  0.165224  0.655986  0.573474  1
  O  O17  1  0.901468  0.122147  0.427238  1
  O  O18  1  0.764780  0.212603  0.904263  1
  O  O19  1  0.004612  0.953481  0.840791  1
  O  O20  1  0.949849  0.554553  0.346143  1
  O  O21  1  0.703234  0.779229  0.990694  1
  O  O22  1  0.667551  0.370292  0.503772  1
  O  O23  1  0.583939  0.462788  0.759378  1
  O  O24  1  0.658243  0.295079  0.165490  1
  O  O25  1  0.587353  0.872880  0.674194  1
  O  O26  1  0.381659  0.114983  0.324623  1
  O  O27  1  0.329813  0.694033  0.834855  1
  O  O28  1  0.430932  0.548832  0.245022  1
  O  O29  1  0.355164  0.643279  0.498265  1
  O  O30  1  0.286888  0.222985  0.011775  1
  O  O31  1  0.054883  0.457765  0.651150  1
  O  O32  1  0.005663  0.039264  0.169513  1
  O  O33  1  0.230264  0.784071  0.089942  1
  O  O34  1  0.083685  0.863402  0.556573  1
