# generated using pymatgen
data_Li2Mn3(BO3)3
_symmetry_space_group_name_H-M   'P 1'
_cell_length_a   7.82164638
_cell_length_b   9.19191660
_cell_length_c   6.20586423
_cell_angle_alpha   103.12434138
_cell_angle_beta   79.82661889
_cell_angle_gamma   66.07220053
_symmetry_Int_Tables_number   1
_chemical_formula_structural   Li2Mn3(BO3)3
_chemical_formula_sum   'Li4 Mn6 B6 O18'
_cell_volume   378.64894070
_cell_formula_units_Z   2
loop_
 _symmetry_equiv_pos_site_id
 _symmetry_equiv_pos_as_xyz
  1  'x, y, z'
loop_
 _atom_site_type_symbol
 _atom_site_label
 _atom_site_symmetry_multiplicity
 _atom_site_fract_x
 _atom_site_fract_y
 _atom_site_fract_z
 _atom_site_occupancy
  Li  Li0  1  0.956202  0.714397  0.730656  1
  Li  Li1  1  0.398849  0.605894  0.942766  1
  Li  Li2  1  0.710287  0.947688  0.602587  1
  Li  Li3  1  0.058767  0.281468  0.285576  1
  Mn  Mn4  1  0.981388  0.380991  0.779936  1
  Mn  Mn5  1  0.679497  0.273344  0.572116  1
  Mn  Mn6  1  0.634897  0.070180  0.110620  1
  Mn  Mn7  1  0.343719  0.941526  0.908258  1
  Mn  Mn8  1  0.329958  0.725412  0.432807  1
  Mn  Mn9  1  0.021349  0.614379  0.225252  1
  B  B10  1  0.977317  0.044054  0.759109  1
  B  B11  1  0.348787  0.280410  0.899437  1
  B  B12  1  0.691505  0.613646  0.575036  1
  B  B13  1  0.310076  0.396371  0.454279  1
  B  B14  1  0.649150  0.717728  0.071962  1
  B  B15  1  0.021590  0.951733  0.234655  1
  O  O16  1  0.873433  0.205898  0.747646  1
  O  O17  1  0.853198  0.645714  0.977083  1
  O  O18  1  0.883279  0.953861  0.812190  1
  O  O19  1  0.819241  0.023984  0.352931  1
  O  O20  1  0.461775  0.108182  0.853082  1
  O  O21  1  0.793824  0.440736  0.532623  1
  O  O22  1  0.431194  0.378271  0.839172  1
  O  O23  1  0.780916  0.707399  0.519338  1
  O  O24  1  0.488622  0.695494  0.693285  1
  O  O25  1  0.519031  0.311695  0.363156  1
  O  O26  1  0.215682  0.304509  0.492378  1
  O  O27  1  0.563053  0.627993  0.141625  1
  O  O28  1  0.208248  0.567016  0.480770  1
  O  O29  1  0.537399  0.886198  0.081445  1
  O  O30  1  0.183131  0.973461  0.695649  1
  O  O31  1  0.097175  0.052388  0.171453  1
  O  O32  1  0.148957  0.356026  0.023738  1
  O  O33  1  0.139459  0.780484  0.189400  1
