# generated using pymatgen
data_Li2V3P4H4O19
_symmetry_space_group_name_H-M   'P 1'
_cell_length_a   10.59314240
_cell_length_b   9.25708520
_cell_length_c   8.82335424
_cell_angle_alpha   90.00000000
_cell_angle_beta   115.21245439
_cell_angle_gamma   90.00000000
_symmetry_Int_Tables_number   1
_chemical_formula_structural   Li2V3P4H4O19
_chemical_formula_sum   'Li4 V6 P8 H8 O38'
_cell_volume   782.80560769
_cell_formula_units_Z   2
loop_
 _symmetry_equiv_pos_site_id
 _symmetry_equiv_pos_as_xyz
  1  'x, y, z'
loop_
 _atom_site_type_symbol
 _atom_site_label
 _atom_site_symmetry_multiplicity
 _atom_site_fract_x
 _atom_site_fract_y
 _atom_site_fract_z
 _atom_site_occupancy
  Li  Li0  1  0.004628  0.530034  0.759380  1
  Li  Li1  1  0.004628  0.469966  0.259380  1
  Li  Li2  1  0.540617  0.780288  0.750590  1
  Li  Li3  1  0.540617  0.219712  0.250590  1
  V  V4  1  0.210957  0.753255  0.882485  1
  V  V5  1  0.210957  0.246745  0.382485  1
  V  V6  1  0.504961  0.255649  0.771959  1
  V  V7  1  0.504961  0.744351  0.271959  1
  V  V8  1  0.821103  0.756276  0.637567  1
  V  V9  1  0.821103  0.243724  0.137567  1
  P  P10  1  0.237160  0.045356  0.696164  1
  P  P11  1  0.261727  0.500851  0.649105  1
  P  P12  1  0.237160  0.954644  0.196164  1
  P  P13  1  0.261727  0.499149  0.149105  1
  P  P14  1  0.736401  0.497257  0.850510  1
  P  P15  1  0.754951  0.044650  0.800397  1
  P  P16  1  0.736401  0.502743  0.350510  1
  P  P17  1  0.754951  0.955350  0.300397  1
  H  H18  1  0.140295  0.071481  0.864569  1
  H  H19  1  0.349172  0.403406  0.979155  1
  H  H20  1  0.140295  0.928519  0.364569  1
  H  H21  1  0.349172  0.596594  0.479155  1
  H  H22  1  0.647061  0.402346  0.519574  1
  H  H23  1  0.852550  0.068580  0.629990  1
  H  H24  1  0.647061  0.597654  0.019574  1
  H  H25  1  0.852550  0.931420  0.129990  1
  O  O26  1  0.997300  0.766224  0.753440  1
  O  O27  1  0.139714  0.124053  0.765721  1
  O  O28  1  0.997300  0.233776  0.253440  1
  O  O29  1  0.178120  0.588549  0.722149  1
  O  O30  1  0.155804  0.412993  0.501910  1
  O  O31  1  0.233601  0.880732  0.719510  1
  O  O32  1  0.178697  0.078406  0.506963  1
  O  O33  1  0.139714  0.875947  0.265721  1
  O  O34  1  0.178120  0.411451  0.222149  1
  O  O35  1  0.368338  0.406066  0.789262  1
  O  O36  1  0.387938  0.097808  0.789462  1
  O  O37  1  0.346432  0.614386  0.589908  1
  O  O38  1  0.155804  0.587007  0.001910  1
  O  O39  1  0.233601  0.119268  0.219510  1
  O  O40  1  0.178697  0.921594  0.006963  1
  O  O41  1  0.381839  0.268041  0.520881  1
  O  O42  1  0.368338  0.593934  0.289262  1
  O  O43  1  0.387938  0.902192  0.289462  1
  O  O44  1  0.615026  0.269573  0.982871  1
  O  O45  1  0.346432  0.385614  0.089908  1
  O  O46  1  0.658852  0.617442  0.914727  1
  O  O47  1  0.381839  0.731959  0.020881  1
  O  O48  1  0.605647  0.101526  0.713331  1
  O  O49  1  0.623108  0.406111  0.714005  1
  O  O50  1  0.615026  0.730427  0.482871  1
  O  O51  1  0.819309  0.074959  0.990529  1
  O  O52  1  0.748419  0.878932  0.770251  1
  O  O53  1  0.842851  0.408845  0.995727  1
  O  O54  1  0.658852  0.382558  0.414727  1
  O  O55  1  0.605647  0.898474  0.213331  1
  O  O56  1  0.623108  0.593889  0.214005  1
  O  O57  1  0.817253  0.582547  0.772991  1
  O  O58  1  0.853215  0.119550  0.730049  1
  O  O59  1  0.819309  0.925041  0.490529  1
  O  O60  1  0.748419  0.121068  0.270251  1
  O  O61  1  0.842851  0.591155  0.495727  1
  O  O62  1  0.817253  0.417453  0.272991  1
  O  O63  1  0.853215  0.880450  0.230049  1
