# generated using pymatgen
data_Co6O5F7
_symmetry_space_group_name_H-M   'P 1'
_cell_length_a   4.61128923
_cell_length_b   7.69757360
_cell_length_c   5.55733381
_cell_angle_alpha   92.47378463
_cell_angle_beta   89.88235361
_cell_angle_gamma   87.72962338
_symmetry_Int_Tables_number   1
_chemical_formula_structural   Co6O5F7
_chemical_formula_sum   'Co6 O5 F7'
_cell_volume   196.92172974
_cell_formula_units_Z   1
loop_
 _symmetry_equiv_pos_site_id
 _symmetry_equiv_pos_as_xyz
  1  'x, y, z'
loop_
 _atom_site_type_symbol
 _atom_site_label
 _atom_site_symmetry_multiplicity
 _atom_site_fract_x
 _atom_site_fract_y
 _atom_site_fract_z
 _atom_site_occupancy
  Co  Co0  1  0.521857  0.002914  0.499575  1
  Co  Co1  1  0.457231  0.354646  0.821069  1
  Co  Co2  1  0.531579  0.670368  0.159278  1
  Co  Co3  1  0.984985  0.676262  0.662084  1
  Co  Co4  1  0.013136  0.306662  0.352292  1
  Co  Co5  1  0.964654  0.988062  0.016857  1
  O  O6  1  0.809249  0.767622  0.946370  1
  O  O7  1  0.799579  0.093956  0.307900  1
  O  O8  1  0.707142  0.775004  0.465785  1
  O  O9  1  0.292828  0.566881  0.860309  1
  O  O10  1  0.313365  0.226663  0.529157  1
  F  F11  1  0.801214  0.428830  0.629541  1
  F  F12  1  0.697319  0.120809  0.812807  1
  F  F13  1  0.706196  0.422739  0.137539  1
  F  F14  1  0.301430  0.896849  0.195964  1
  F  F15  1  0.191506  0.226347  0.034761  1
  F  F16  1  0.216440  0.911625  0.697496  1
  F  F17  1  0.190291  0.563759  0.371217  1
