# generated using pymatgen
data_CsK2PdF5
_symmetry_space_group_name_H-M   'P 1'
_cell_length_a   6.36249524
_cell_length_b   7.49485239
_cell_length_c   7.49485239
_cell_angle_alpha   90.00000000
_cell_angle_beta   90.00000000
_cell_angle_gamma   90.00000000
_symmetry_Int_Tables_number   1
_chemical_formula_structural   CsK2PdF5
_chemical_formula_sum   'Cs2 K4 Pd2 F10'
_cell_volume   357.39925118
_cell_formula_units_Z   2
loop_
 _symmetry_equiv_pos_site_id
 _symmetry_equiv_pos_as_xyz
  1  'x, y, z'
loop_
 _atom_site_type_symbol
 _atom_site_label
 _atom_site_symmetry_multiplicity
 _atom_site_fract_x
 _atom_site_fract_y
 _atom_site_fract_z
 _atom_site_occupancy
  F  F0  1  0.774910  0.869290  0.369290  1
  F  F1  1  0.774910  0.130710  0.630710  1
  F  F2  1  0.774910  0.369290  0.130710  1
  F  F3  1  0.774910  0.630710  0.869290  1
  F  F4  1  0.225090  0.869290  0.369290  1
  F  F5  1  0.225090  0.630710  0.869290  1
  F  F6  1  0.225090  0.369290  0.130710  1
  F  F7  1  0.225090  0.130710  0.630710  1
  F  F8  1  0.500000  0.000000  0.000000  1
  F  F9  1  0.500000  0.500000  0.500000  1
  K  K10  1  0.500000  0.321837  0.821837  1
  K  K11  1  0.500000  0.178163  0.321837  1
  K  K12  1  0.500000  0.678163  0.178163  1
  K  K13  1  0.500000  0.821837  0.678163  1
  Pd  Pd14  1  0.000000  0.000000  0.500000  1
  Pd  Pd15  1  0.000000  0.500000  0.000000  1
  Cs  Cs16  1  0.000000  0.500000  0.500000  1
  Cs  Cs17  1  0.000000  0.000000  0.000000  1
