# generated using pymatgen
data_FeSCl7
_symmetry_space_group_name_H-M   'P 1'
_cell_length_a   7.12579927
_cell_length_b   12.17156769
_cell_length_c   12.59944532
_cell_angle_alpha   90.00000000
_cell_angle_beta   90.00000000
_cell_angle_gamma   107.62979627
_symmetry_Int_Tables_number   1
_chemical_formula_structural   FeSCl7
_chemical_formula_sum   'Fe4 S4 Cl28'
_cell_volume   1041.45282392
_cell_formula_units_Z   4
loop_
 _symmetry_equiv_pos_site_id
 _symmetry_equiv_pos_as_xyz
  1  'x, y, z'
loop_
 _atom_site_type_symbol
 _atom_site_label
 _atom_site_symmetry_multiplicity
 _atom_site_fract_x
 _atom_site_fract_y
 _atom_site_fract_z
 _atom_site_occupancy
  Fe  Fe0  1  0.635499  0.159904  0.475597  1
  Fe  Fe1  1  0.364500  0.340096  0.975597  1
  Fe  Fe2  1  0.363974  0.840016  0.523987  1
  Fe  Fe3  1  0.636028  0.659985  0.023988  1
  S  S4  1  0.958025  0.044833  0.753791  1
  S  S5  1  0.041974  0.455166  0.253790  1
  S  S6  1  0.041724  0.954962  0.246266  1
  S  S7  1  0.958277  0.545038  0.746266  1
  Cl  Cl8  1  0.908222  0.191314  0.570623  1
  Cl  Cl9  1  0.091776  0.308687  0.070623  1
  Cl  Cl10  1  0.091094  0.808571  0.429372  1
  Cl  Cl11  1  0.908906  0.691428  0.929372  1
  Cl  Cl12  1  0.793726  0.903360  0.672614  1
  Cl  Cl13  1  0.206272  0.596639  0.172614  1
  Cl  Cl14  1  0.206214  0.096359  0.327594  1
  Cl  Cl15  1  0.793784  0.403641  0.827594  1
  Cl  Cl16  1  0.084178  0.969633  0.862662  1
  Cl  Cl17  1  0.915822  0.530367  0.362662  1
  Cl  Cl18  1  0.916065  0.030676  0.137636  1
  Cl  Cl19  1  0.083935  0.469325  0.637635  1
  Cl  Cl20  1  0.753724  0.088769  0.840374  1
  Cl  Cl21  1  0.246276  0.411231  0.340373  1
  Cl  Cl22  1  0.246239  0.911166  0.159734  1
  Cl  Cl23  1  0.753760  0.588835  0.659734  1
  Cl  Cl24  1  0.395431  0.028313  0.598933  1
  Cl  Cl25  1  0.604568  0.471687  0.098933  1
  Cl  Cl26  1  0.604631  0.971636  0.400805  1
  Cl  Cl27  1  0.395371  0.528364  0.900805  1
  Cl  Cl28  1  0.747112  0.234600  0.311394  1
  Cl  Cl29  1  0.252888  0.265400  0.811394  1
  Cl  Cl30  1  0.251677  0.765072  0.688227  1
  Cl  Cl31  1  0.748323  0.734928  0.188226  1
  Cl  Cl32  1  0.485917  0.293902  0.511317  1
  Cl  Cl33  1  0.514083  0.206097  0.011316  1
  Cl  Cl34  1  0.514218  0.706221  0.489075  1
  Cl  Cl35  1  0.485783  0.793779  0.989074  1
