# generated using pymatgen
data_Li2V2(PO4)3
_symmetry_space_group_name_H-M   'P 1'
_cell_length_a   8.57019697
_cell_length_b   12.22726600
_cell_length_c   8.68955823
_cell_angle_alpha   90.00000000
_cell_angle_beta   90.00000000
_cell_angle_gamma   90.05141483
_symmetry_Int_Tables_number   1
_chemical_formula_structural   Li2V2(PO4)3
_chemical_formula_sum   'Li8 V8 P12 O48'
_cell_volume   910.57911785
_cell_formula_units_Z   4
loop_
 _symmetry_equiv_pos_site_id
 _symmetry_equiv_pos_as_xyz
  1  'x, y, z'
loop_
 _atom_site_type_symbol
 _atom_site_label
 _atom_site_symmetry_multiplicity
 _atom_site_fract_x
 _atom_site_fract_y
 _atom_site_fract_z
 _atom_site_occupancy
  Li  Li0  1  0.080130  0.697540  0.078684  1
  Li  Li1  1  0.208914  0.181359  0.777299  1
  Li  Li2  1  0.291086  0.318641  0.277299  1
  Li  Li3  1  0.419870  0.802460  0.578684  1
  Li  Li4  1  0.580130  0.197540  0.421316  1
  Li  Li5  1  0.708914  0.681359  0.722701  1
  Li  Li6  1  0.791086  0.818641  0.222701  1
  Li  Li7  1  0.919870  0.302460  0.921316  1
  V  V8  1  0.254371  0.887340  0.032254  1
  V  V9  1  0.245629  0.612660  0.532254  1
  V  V10  1  0.254704  0.387454  0.961227  1
  V  V11  1  0.245296  0.112546  0.461227  1
  V  V12  1  0.754704  0.887454  0.538773  1
  V  V13  1  0.745296  0.612546  0.038773  1
  V  V14  1  0.754371  0.387340  0.467746  1
  V  V15  1  0.745629  0.112660  0.967746  1
  P  P16  1  0.035142  0.494701  0.251431  1
  P  P17  1  0.106770  0.850497  0.383743  1
  P  P18  1  0.103811  0.144158  0.103558  1
  P  P19  1  0.393230  0.649503  0.883743  1
  P  P20  1  0.396189  0.355842  0.603558  1
  P  P21  1  0.464858  0.005299  0.751431  1
  P  P22  1  0.535142  0.994701  0.248569  1
  P  P23  1  0.603811  0.644158  0.396442  1
  P  P24  1  0.606770  0.350497  0.116257  1
  P  P25  1  0.896189  0.855842  0.896442  1
  P  P26  1  0.893230  0.149503  0.616257  1
  P  P27  1  0.964858  0.505299  0.748569  1
  O  O28  1  0.048484  0.431049  0.867174  1
  O  O29  1  0.077572  0.865567  0.897151  1
  O  O30  1  0.080846  0.587612  0.674145  1
  O  O31  1  0.070452  0.170095  0.592386  1
  O  O32  1  0.107128  0.574449  0.368317  1
  O  O33  1  0.151447  0.968020  0.418986  1
  O  O34  1  0.135387  0.823552  0.209524  1
  O  O35  1  0.142996  0.233751  0.981016  1
  O  O36  1  0.163532  0.181122  0.262168  1
  O  O37  1  0.164058  0.427359  0.174468  1
  O  O38  1  0.179977  0.036512  0.054040  1
  O  O39  1  0.203708  0.772860  0.489536  1
  O  O40  1  0.296292  0.727140  0.989536  1
  O  O41  1  0.320023  0.463488  0.554040  1
  O  O42  1  0.335942  0.072641  0.674468  1
  O  O43  1  0.336468  0.318878  0.762168  1
  O  O44  1  0.364613  0.676448  0.709524  1
  O  O45  1  0.348553  0.531980  0.918986  1
  O  O46  1  0.357004  0.266249  0.481016  1
  O  O47  1  0.392872  0.925551  0.868317  1
  O  O48  1  0.419154  0.912388  0.174145  1
  O  O49  1  0.422428  0.634433  0.397151  1
  O  O50  1  0.429548  0.329905  0.092386  1
  O  O51  1  0.451516  0.068951  0.367174  1
  O  O52  1  0.548484  0.931049  0.632826  1
  O  O53  1  0.570452  0.670095  0.907614  1
  O  O54  1  0.577572  0.365567  0.602849  1
  O  O55  1  0.580846  0.087612  0.825855  1
  O  O56  1  0.607128  0.074449  0.131683  1
  O  O57  1  0.642996  0.733751  0.518984  1
  O  O58  1  0.651447  0.468020  0.081014  1
  O  O59  1  0.635387  0.323552  0.290476  1
  O  O60  1  0.663532  0.681122  0.237832  1
  O  O61  1  0.664058  0.927359  0.325532  1
  O  O62  1  0.679977  0.536512  0.445960  1
  O  O63  1  0.703708  0.272860  0.010464  1
  O  O64  1  0.796292  0.227140  0.510464  1
  O  O65  1  0.820023  0.963488  0.945960  1
  O  O66  1  0.835942  0.572641  0.825532  1
  O  O67  1  0.836468  0.818878  0.737832  1
  O  O68  1  0.857004  0.766249  0.018984  1
  O  O69  1  0.864613  0.176448  0.790476  1
  O  O70  1  0.848553  0.031980  0.581014  1
  O  O71  1  0.892872  0.425552  0.631683  1
  O  O72  1  0.929548  0.829905  0.407614  1
  O  O73  1  0.919154  0.412388  0.325855  1
  O  O74  1  0.922428  0.134433  0.102849  1
  O  O75  1  0.951516  0.568951  0.132826  1
