# generated using pymatgen
data_LiMnP3HO10
_symmetry_space_group_name_H-M   'P 1'
_cell_length_a   12.52170006
_cell_length_b   5.01687474
_cell_length_c   14.58133004
_cell_angle_alpha   90.00000000
_cell_angle_beta   90.00000000
_cell_angle_gamma   90.00000000
_symmetry_Int_Tables_number   1
_chemical_formula_structural   LiMnP3HO10
_chemical_formula_sum   'Li4 Mn4 P12 H4 O40'
_cell_volume   915.99624753
_cell_formula_units_Z   4
loop_
 _symmetry_equiv_pos_site_id
 _symmetry_equiv_pos_as_xyz
  1  'x, y, z'
loop_
 _atom_site_type_symbol
 _atom_site_label
 _atom_site_symmetry_multiplicity
 _atom_site_fract_x
 _atom_site_fract_y
 _atom_site_fract_z
 _atom_site_occupancy
  Li  Li0  1  0.208206  0.148155  0.040899  1
  Li  Li1  1  0.291793  0.148155  0.540899  1
  Li  Li2  1  0.708206  0.851845  0.040899  1
  Li  Li3  1  0.791794  0.851845  0.540899  1
  Mn  Mn4  1  0.162496  0.984354  0.736695  1
  Mn  Mn5  1  0.337504  0.984354  0.236695  1
  Mn  Mn6  1  0.662496  0.015646  0.736695  1
  Mn  Mn7  1  0.837504  0.015646  0.236695  1
  P  P8  1  0.085195  0.252617  0.229862  1
  P  P9  1  0.082145  0.480752  0.619778  1
  P  P10  1  0.256327  0.484086  0.353732  1
  P  P11  1  0.243673  0.484086  0.853732  1
  P  P12  1  0.417855  0.480752  0.119778  1
  P  P13  1  0.414805  0.252617  0.729862  1
  P  P14  1  0.585195  0.747383  0.229862  1
  P  P15  1  0.582145  0.519248  0.619778  1
  P  P16  1  0.756327  0.515914  0.353732  1
  P  P17  1  0.743673  0.515914  0.853732  1
  P  P18  1  0.917855  0.519248  0.119778  1
  P  P19  1  0.914805  0.747383  0.729862  1
  H  H20  1  0.124523  0.502130  0.481496  1
  H  H21  1  0.375477  0.502130  0.981496  1
  H  H22  1  0.624523  0.497870  0.481496  1
  H  H23  1  0.875477  0.497870  0.981496  1
  O  O24  1  0.031007  0.486834  0.168197  1
  O  O25  1  0.000868  0.910221  0.773834  1
  O  O26  1  0.055846  0.544580  0.517376  1
  O  O27  1  0.140946  0.431776  0.306069  1
  O  O28  1  0.116859  0.188887  0.625883  1
  O  O29  1  0.167986  0.117147  0.170823  1
  O  O30  1  0.160078  0.307502  0.807472  1
  O  O31  1  0.165811  0.672481  0.658119  1
  O  O32  1  0.240067  0.415084  0.454283  1
  O  O33  1  0.222393  0.784001  0.840920  1
  O  O34  1  0.277607  0.784001  0.340920  1
  O  O35  1  0.259933  0.415084  0.954283  1
  O  O36  1  0.334189  0.672481  0.158119  1
  O  O37  1  0.339922  0.307502  0.307472  1
  O  O38  1  0.332014  0.117147  0.670823  1
  O  O39  1  0.383141  0.188887  0.125883  1
  O  O40  1  0.359054  0.431776  0.806069  1
  O  O41  1  0.444154  0.544580  0.017376  1
  O  O42  1  0.499132  0.910221  0.273834  1
  O  O43  1  0.468993  0.486834  0.668197  1
  O  O44  1  0.531007  0.513166  0.168197  1
  O  O45  1  0.500868  0.089779  0.773834  1
  O  O46  1  0.555846  0.455420  0.517376  1
  O  O47  1  0.640946  0.568224  0.306069  1
  O  O48  1  0.616859  0.811113  0.625883  1
  O  O49  1  0.667986  0.882853  0.170823  1
  O  O50  1  0.660078  0.692498  0.807472  1
  O  O51  1  0.665811  0.327519  0.658119  1
  O  O52  1  0.740067  0.584916  0.454283  1
  O  O53  1  0.722393  0.215999  0.840920  1
  O  O54  1  0.777607  0.215999  0.340920  1
  O  O55  1  0.759933  0.584916  0.954283  1
  O  O56  1  0.834189  0.327519  0.158119  1
  O  O57  1  0.839922  0.692498  0.307472  1
  O  O58  1  0.832014  0.882853  0.670823  1
  O  O59  1  0.883141  0.811113  0.125883  1
  O  O60  1  0.859054  0.568224  0.806069  1
  O  O61  1  0.944154  0.455420  0.017376  1
  O  O62  1  0.999132  0.089779  0.273834  1
  O  O63  1  0.968993  0.513166  0.668197  1
