# generated using pymatgen
data_NaAlPO4F
_symmetry_space_group_name_H-M   'P 1'
_cell_length_a   5.27894034
_cell_length_b   5.27894034
_cell_length_c   6.99412688
_cell_angle_alpha   105.50601751
_cell_angle_beta   105.50601746
_cell_angle_gamma   103.87802740
_symmetry_Int_Tables_number   1
_chemical_formula_structural   NaAlPO4F
_chemical_formula_sum   'Na2 Al2 P2 O8 F2'
_cell_volume   170.50092119
_cell_formula_units_Z   2
loop_
 _symmetry_equiv_pos_site_id
 _symmetry_equiv_pos_as_xyz
  1  'x, y, z'
loop_
 _atom_site_type_symbol
 _atom_site_label
 _atom_site_symmetry_multiplicity
 _atom_site_fract_x
 _atom_site_fract_y
 _atom_site_fract_z
 _atom_site_occupancy
  O  O0  1  0.301727  0.882693  0.121088  1
  O  O1  1  0.117307  0.698273  0.378912  1
  O  O2  1  0.238125  0.378180  0.100434  1
  O  O3  1  0.621820  0.761875  0.399566  1
  O  O4  1  0.761875  0.621820  0.899566  1
  O  O5  1  0.378180  0.238125  0.600434  1
  O  O6  1  0.698273  0.117307  0.878912  1
  O  O7  1  0.882693  0.301727  0.621088  1
  F  F8  1  0.930468  0.069532  0.250000  1
  F  F9  1  0.069532  0.930468  0.750000  1
  Na  Na10  1  0.331964  0.668037  0.750000  1
  Na  Na11  1  0.668037  0.331964  0.250000  1
  Al  Al12  1  0.000000  0.000000  0.500000  1
  Al  Al13  1  0.000000  0.000000  0.000000  1
  P  P14  1  0.683020  0.316980  0.750000  1
  P  P15  1  0.316980  0.683020  0.250000  1
