# generated using pymatgen
data_Li2Mn3(BO3)3
_symmetry_space_group_name_H-M   'P 1'
_cell_length_a   5.84206972
_cell_length_b   5.29948789
_cell_length_c   13.32200709
_cell_angle_alpha   88.96375212
_cell_angle_beta   83.03148831
_cell_angle_gamma   113.55685640
_symmetry_Int_Tables_number   1
_chemical_formula_structural   Li2Mn3(BO3)3
_chemical_formula_sum   'Li4 Mn6 B6 O18'
_cell_volume   374.27845429
_cell_formula_units_Z   2
loop_
 _symmetry_equiv_pos_site_id
 _symmetry_equiv_pos_as_xyz
  1  'x, y, z'
loop_
 _atom_site_type_symbol
 _atom_site_label
 _atom_site_symmetry_multiplicity
 _atom_site_fract_x
 _atom_site_fract_y
 _atom_site_fract_z
 _atom_site_occupancy
  Li  Li0  1  0.973331  0.081663  0.689960  1
  Li  Li1  1  0.360051  0.585046  0.976736  1
  Li  Li2  1  0.333592  0.737490  0.354467  1
  Li  Li3  1  0.999745  0.929153  0.312154  1
  Mn  Mn4  1  0.947136  0.561543  0.799637  1
  Mn  Mn5  1  0.386213  0.105127  0.867006  1
  Mn  Mn6  1  0.703506  0.767802  0.540481  1
  Mn  Mn7  1  0.283429  0.218480  0.470745  1
  Mn  Mn8  1  0.629820  0.898911  0.126232  1
  Mn  Mn9  1  0.049859  0.448132  0.195947  1
  B  B10  1  0.839486  0.348131  0.419959  1
  B  B11  1  0.834970  0.989609  0.906243  1
  B  B12  1  0.498338  0.676913  0.760406  1
  B  B13  1  0.494027  0.318542  0.246649  1
  B  B14  1  0.170072  0.008261  0.085457  1
  B  B15  1  0.163176  0.658204  0.581290  1
  O  O16  1  0.895845  0.116253  0.429913  1
  O  O17  1  0.754090  0.196983  0.887753  1
  O  O18  1  0.020742  0.973090  0.830229  1
  O  O19  1  0.965065  0.550536  0.342206  1
  O  O20  1  0.723916  0.795666  0.984528  1
  O  O21  1  0.662820  0.383912  0.491284  1
  O  O22  1  0.579325  0.469647  0.778905  1
  O  O23  1  0.670262  0.282901  0.175485  1
  O  O24  1  0.609498  0.871176  0.682038  1
  O  O25  1  0.368266  0.116123  0.324474  1
  O  O26  1  0.312485  0.693512  0.836424  1
  O  O27  1  0.437549  0.550369  0.236790  1
  O  O28  1  0.333800  0.638658  0.500167  1
  O  O29  1  0.255655  0.199383  0.005372  1
  O  O30  1  0.077633  0.467246  0.661321  1
  O  O31  1  -0.000013  0.028075  0.166466  1
  O  O32  1  0.250118  0.791644  0.092031  1
  O  O33  1  0.082858  0.875151  0.574577  1
