# generated using pymatgen
data_Ca3Sn2S7
_symmetry_space_group_name_H-M   'P 1'
_cell_length_a   5.04209638
_cell_length_b   4.96641320
_cell_length_c   23.47872845
_cell_angle_alpha   89.99952853
_cell_angle_beta   89.99987255
_cell_angle_gamma   90.00008979
_symmetry_Int_Tables_number   1
_chemical_formula_structural   Ca3Sn2S7
_chemical_formula_sum   'Ca6 Sn4 S14'
_cell_volume   587.93398566
_cell_formula_units_Z   2
loop_
 _symmetry_equiv_pos_site_id
 _symmetry_equiv_pos_as_xyz
  1  'x, y, z'
loop_
 _atom_site_type_symbol
 _atom_site_label
 _atom_site_symmetry_multiplicity
 _atom_site_fract_x
 _atom_site_fract_y
 _atom_site_fract_z
 _atom_site_occupancy
  Ca  Ca0  1  0.999988  0.999998  0.500045  1
  Ca  Ca1  1  0.499991  0.499989  0.999949  1
  Ca  Ca2  1  0.000011  0.000003  0.672703  1
  Ca  Ca3  1  0.000000  0.000003  0.327290  1
  Ca  Ca4  1  0.500010  0.500023  0.830431  1
  Ca  Ca5  1  0.499999  0.499999  0.169577  1
  Sn  Sn6  1  0.000007  0.000039  0.889092  1
  Sn  Sn7  1  1.000000  0.999997  0.110801  1
  Sn  Sn8  1  0.500000  0.499999  0.612980  1
  Sn  Sn9  1  0.500000  0.499999  0.387111  1
  S  S10  1  0.000003  -0.000000  0.999928  1
  S  S11  1  0.500005  0.499998  0.500073  1
  S  S12  1  0.999991  0.999982  0.787416  1
  S  S13  1  -0.000000  0.999996  0.212501  1
  S  S14  1  0.499990  0.499987  0.715690  1
  S  S15  1  0.500000  0.499997  0.284373  1
  S  S16  1  0.500003  0.999996  0.911322  1
  S  S17  1  0.499999  0.999995  0.088517  1
  S  S18  1  0.999999  0.500011  0.912171  1
  S  S19  1  0.999999  0.499998  0.087679  1
  S  S20  1  0.000000  0.499999  0.598249  1
  S  S21  1  0.000001  0.499996  0.401969  1
  S  S22  1  0.500002  0.999997  0.588483  1
  S  S23  1  0.500001  0.999998  0.411651  1
