# generated using pymatgen
data_LiFe2(BO3)2
_symmetry_space_group_name_H-M   'P 1'
_cell_length_a   5.23695708
_cell_length_b   9.14864479
_cell_length_c   10.12122812
_cell_angle_alpha   91.06155062
_cell_angle_beta   90.84980517
_cell_angle_gamma   89.23229060
_symmetry_Int_Tables_number   1
_chemical_formula_structural   LiFe2(BO3)2
_chemical_formula_sum   'Li4 Fe8 B8 O24'
_cell_volume   484.74044037
_cell_formula_units_Z   4
loop_
 _symmetry_equiv_pos_site_id
 _symmetry_equiv_pos_as_xyz
  1  'x, y, z'
loop_
 _atom_site_type_symbol
 _atom_site_label
 _atom_site_symmetry_multiplicity
 _atom_site_fract_x
 _atom_site_fract_y
 _atom_site_fract_z
 _atom_site_occupancy
  Li  Li0  1  0.848206  0.828775  0.652926  1
  Li  Li1  1  0.670594  0.671914  0.403400  1
  Li  Li2  1  0.672473  0.681606  0.921689  1
  Li  Li3  1  0.172013  0.170546  0.403982  1
  Fe  Fe4  1  0.828688  0.170988  0.630951  1
  Fe  Fe5  1  0.834900  0.494516  0.136306  1
  Fe  Fe6  1  0.682275  0.009783  0.880690  1
  Fe  Fe7  1  0.649300  0.340544  0.375406  1
  Fe  Fe8  1  0.344552  0.650550  0.627630  1
  Fe  Fe9  1  0.332849  0.996231  0.126666  1
  Fe  Fe10  1  0.156426  0.839255  0.377846  1
  Fe  Fe11  1  0.170643  0.495236  0.876785  1
  B  B12  1  0.845857  0.500995  0.625249  1
  B  B13  1  0.833183  0.166150  0.132332  1
  B  B14  1  0.661239  0.001938  0.383622  1
  B  B15  1  0.670081  0.339444  0.874193  1
  B  B16  1  0.327795  0.996116  0.626857  1
  B  B17  1  0.329369  0.667997  0.123960  1
  B  B18  1  0.165643  0.502622  0.375279  1
  B  B19  1  0.175613  0.824759  0.879913  1
  O  O20  1  0.905160  0.518895  0.333278  1
  O  O21  1  0.914100  0.829003  0.858893  1
  O  O22  1  0.799827  0.217276  0.825277  1
  O  O23  1  0.785950  0.130888  0.424417  1
  O  O24  1  0.782364  0.869057  0.390886  1
  O  O25  1  0.810945  0.461466  0.922426  1
  O  O26  1  0.720841  0.632863  0.606309  1
  O  O27  1  0.677245  0.054605  0.085630  1
  O  O28  1  0.738904  0.370847  0.581610  1
  O  O29  1  0.721291  0.300851  0.167087  1
  O  O30  1  0.590260  0.648839  0.117035  1
  O  O31  1  0.591024  0.002876  0.661161  1
  O  O32  1  0.407263  0.012701  0.337976  1
  O  O33  1  0.412128  0.345787  0.877744  1
  O  O34  1  0.316503  0.694553  0.850197  1
  O  O35  1  0.296571  0.628524  0.413353  1
  O  O36  1  0.275663  0.368078  0.378791  1
  O  O37  1  0.312406  0.942654  0.929141  1
  O  O38  1  0.170685  0.553843  0.080500  1
  O  O39  1  0.183765  0.122530  0.613916  1
  O  O40  1  0.216000  0.862231  0.599469  1
  O  O41  1  0.223063  0.798232  0.167531  1
  O  O42  1  0.089693  0.146315  0.145405  1
  O  O43  1  0.086621  0.499535  0.684379  1
