# generated using pymatgen
data_Pu(SiPt)2
_symmetry_space_group_name_H-M   'P 1'
_cell_length_a   4.20473749
_cell_length_b   4.19963665
_cell_length_c   9.86390452
_cell_angle_alpha   89.83315005
_cell_angle_beta   89.95228769
_cell_angle_gamma   90.74663685
_symmetry_Int_Tables_number   1
_chemical_formula_structural   Pu(SiPt)2
_chemical_formula_sum   'Pu2 Si4 Pt4'
_cell_volume   174.16487871
_cell_formula_units_Z   2
loop_
 _symmetry_equiv_pos_site_id
 _symmetry_equiv_pos_as_xyz
  1  'x, y, z'
loop_
 _atom_site_type_symbol
 _atom_site_label
 _atom_site_symmetry_multiplicity
 _atom_site_fract_x
 _atom_site_fract_y
 _atom_site_fract_z
 _atom_site_occupancy
  Pu  Pu0  1  0.750207  0.750191  0.254736  1
  Pu  Pu1  1  0.250314  0.249838  0.745212  1
  Si  Si2  1  0.249892  0.249727  0.134952  1
  Si  Si3  1  0.749658  0.250415  0.500031  1
  Si  Si4  1  0.250132  0.749548  0.500244  1
  Si  Si5  1  0.750322  0.749882  0.864935  1
  Pt  Pt6  1  0.750151  0.249947  0.999876  1
  Pt  Pt7  1  0.249737  0.750179  0.999889  1
  Pt  Pt8  1  0.249986  0.250144  0.376478  1
  Pt  Pt9  1  0.749602  0.750130  0.623646  1
