# generated using pymatgen
data_Fe4O3F5
_symmetry_space_group_name_H-M   'P 1'
_cell_length_a   4.76179012
_cell_length_b   7.83543746
_cell_length_c   7.95317554
_cell_angle_alpha   74.56798648
_cell_angle_beta   90.28445704
_cell_angle_gamma   89.44183813
_symmetry_Int_Tables_number   1
_chemical_formula_structural   Fe4O3F5
_chemical_formula_sum   'Fe8 O6 F10'
_cell_volume   286.01789886
_cell_formula_units_Z   2
loop_
 _symmetry_equiv_pos_site_id
 _symmetry_equiv_pos_as_xyz
  1  'x, y, z'
loop_
 _atom_site_type_symbol
 _atom_site_label
 _atom_site_symmetry_multiplicity
 _atom_site_fract_x
 _atom_site_fract_y
 _atom_site_fract_z
 _atom_site_occupancy
  Fe  Fe0  1  0.448008  0.116735  0.612065  1
  Fe  Fe1  1  0.551992  0.383265  0.887935  1
  Fe  Fe2  1  0.485408  0.881092  0.351875  1
  Fe  Fe3  1  0.514592  0.618908  0.148125  1
  Fe  Fe4  1  0.000000  0.750000  0.750000  1
  Fe  Fe5  1  0.958156  0.508686  0.510374  1
  Fe  Fe6  1  0.000000  0.250000  0.250000  1
  Fe  Fe7  1  0.041844  0.991314  0.989626  1
  O  O8  1  0.806510  0.520810  0.726141  1
  O  O9  1  0.697872  0.658837  0.352031  1
  O  O10  1  0.693463  0.407585  0.105658  1
  O  O11  1  0.302128  0.841163  0.147969  1
  O  O12  1  0.306537  0.092415  0.394342  1
  O  O13  1  0.193490  0.979190  0.773859  1
  F  F14  1  0.792168  0.275623  0.494848  1
  F  F15  1  0.787654  0.784432  0.977208  1
  F  F16  1  0.801682  0.020734  0.201249  1
  F  F17  1  0.692698  0.908473  0.585975  1
  F  F18  1  0.696196  0.151236  0.850295  1
  F  F19  1  0.307302  0.591527  0.914025  1
  F  F20  1  0.303804  0.348764  0.649705  1
  F  F21  1  0.207832  0.224377  0.005152  1
  F  F22  1  0.212346  0.715568  0.522792  1
  F  F23  1  0.198318  0.479266  0.298751  1
