# generated using pymatgen
data_LiNi(PO3)3
_symmetry_space_group_name_H-M   'P 1'
_cell_length_a   7.20824419
_cell_length_b   11.77332498
_cell_length_c   9.07210788
_cell_angle_alpha   90.00000000
_cell_angle_beta   90.00000000
_cell_angle_gamma   90.00000000
_symmetry_Int_Tables_number   1
_chemical_formula_structural   LiNi(PO3)3
_chemical_formula_sum   'Li4 Ni4 P12 O36'
_cell_volume   769.90444779
_cell_formula_units_Z   4
loop_
 _symmetry_equiv_pos_site_id
 _symmetry_equiv_pos_as_xyz
  1  'x, y, z'
loop_
 _atom_site_type_symbol
 _atom_site_label
 _atom_site_symmetry_multiplicity
 _atom_site_fract_x
 _atom_site_fract_y
 _atom_site_fract_z
 _atom_site_occupancy
  Li  Li0  1  0.250000  0.021957  0.041518  1
  Li  Li1  1  0.250000  0.478043  0.541518  1
  Li  Li2  1  0.750000  0.521957  0.458482  1
  Li  Li3  1  0.750000  0.978043  0.958482  1
  Ni  Ni4  1  0.250000  0.708787  0.479823  1
  Ni  Ni5  1  0.250000  0.791213  0.979823  1
  Ni  Ni6  1  0.750000  0.208787  0.020177  1
  Ni  Ni7  1  0.750000  0.291213  0.520177  1
  P  P8  1  0.042165  0.347962  0.247901  1
  P  P9  1  0.042165  0.152038  0.747901  1
  P  P10  1  0.250000  0.953228  0.693107  1
  P  P11  1  0.250000  0.546772  0.193107  1
  P  P12  1  0.457835  0.152038  0.747901  1
  P  P13  1  0.457835  0.347962  0.247901  1
  P  P14  1  0.542165  0.652038  0.752099  1
  P  P15  1  0.542165  0.847962  0.252099  1
  P  P16  1  0.750000  0.453228  0.806893  1
  P  P17  1  0.750000  0.046772  0.306893  1
  P  P18  1  0.957835  0.652038  0.752099  1
  P  P19  1  0.957835  0.847962  0.252099  1
  O  O20  1  0.029565  0.758106  0.352245  1
  O  O21  1  0.029565  0.741894  0.852245  1
  O  O22  1  0.061261  0.882244  0.113880  1
  O  O23  1  0.061261  0.617756  0.613880  1
  O  O24  1  0.077817  0.036821  0.653708  1
  O  O25  1  0.077817  0.463179  0.153708  1
  O  O26  1  0.250000  0.312240  0.301514  1
  O  O27  1  0.250000  0.855965  0.591847  1
  O  O28  1  0.250000  0.644035  0.091847  1
  O  O29  1  0.250000  0.938247  0.859127  1
  O  O30  1  0.250000  0.187760  0.801514  1
  O  O31  1  0.250000  0.561753  0.359127  1
  O  O32  1  0.422183  0.036821  0.653708  1
  O  O33  1  0.422183  0.463179  0.153708  1
  O  O34  1  0.438739  0.882244  0.113880  1
  O  O35  1  0.438739  0.617756  0.613880  1
  O  O36  1  0.470435  0.758106  0.352245  1
  O  O37  1  0.470435  0.741894  0.852245  1
  O  O38  1  0.529565  0.258106  0.147755  1
  O  O39  1  0.529565  0.241894  0.647755  1
  O  O40  1  0.561261  0.117756  0.886120  1
  O  O41  1  0.561261  0.382244  0.386120  1
  O  O42  1  0.577817  0.536821  0.846292  1
  O  O43  1  0.577817  0.963179  0.346292  1
  O  O44  1  0.750000  0.061753  0.140873  1
  O  O45  1  0.750000  0.144034  0.408153  1
  O  O46  1  0.750000  0.438247  0.640873  1
  O  O47  1  0.750000  0.355966  0.908153  1
  O  O48  1  0.750000  0.687760  0.698486  1
  O  O49  1  0.750000  0.812240  0.198486  1
  O  O50  1  0.922183  0.536821  0.846292  1
  O  O51  1  0.922183  0.963179  0.346292  1
  O  O52  1  0.938739  0.382244  0.386120  1
  O  O53  1  0.938739  0.117756  0.886120  1
  O  O54  1  0.970435  0.241894  0.647755  1
  O  O55  1  0.970435  0.258106  0.147755  1
