# generated using pymatgen
data_Li2Ni(PO3)4
_symmetry_space_group_name_H-M   'P 1'
_cell_length_a   7.44092801
_cell_length_b   9.29036537
_cell_length_c   7.75478963
_cell_angle_alpha   90.00000000
_cell_angle_beta   111.03860195
_cell_angle_gamma   90.00000000
_symmetry_Int_Tables_number   1
_chemical_formula_structural   Li2Ni(PO3)4
_chemical_formula_sum   'Li4 Ni2 P8 O24'
_cell_volume   500.34460852
_cell_formula_units_Z   2
loop_
 _symmetry_equiv_pos_site_id
 _symmetry_equiv_pos_as_xyz
  1  'x, y, z'
loop_
 _atom_site_type_symbol
 _atom_site_label
 _atom_site_symmetry_multiplicity
 _atom_site_fract_x
 _atom_site_fract_y
 _atom_site_fract_z
 _atom_site_occupancy
  Li  Li0  1  0.110153  0.684110  0.335835  1
  Li  Li1  1  0.610153  0.815890  0.835835  1
  Li  Li2  1  0.389847  0.184110  0.164165  1
  Li  Li3  1  0.889847  0.315890  0.664165  1
  Ni  Ni4  1  0.000000  0.000000  0.000000  1
  Ni  Ni5  1  0.500000  0.500000  0.500000  1
  P  P6  1  0.186914  0.588300  0.735210  1
  P  P7  1  0.313086  0.088300  0.764790  1
  P  P8  1  0.169484  0.215091  0.374021  1
  P  P9  1  0.330516  0.715091  0.125979  1
  P  P10  1  0.669484  0.284909  0.874021  1
  P  P11  1  0.830516  0.784909  0.625979  1
  P  P12  1  0.686914  0.911700  0.235210  1
  P  P13  1  0.813086  0.411700  0.264790  1
  O  O14  1  0.044629  0.725671  0.675918  1
  O  O15  1  0.186160  0.103230  0.877421  1
  O  O16  1  0.081172  0.452719  0.734704  1
  O  O17  1  0.319500  0.627850  0.944821  1
  O  O18  1  0.180500  0.127850  0.555179  1
  O  O19  1  0.171402  0.110122  0.226717  1
  O  O20  1  0.418828  0.952719  0.765296  1
  O  O21  1  0.313840  0.603229  0.622579  1
  O  O22  1  0.178304  0.827242  0.090861  1
  O  O23  1  0.455371  0.225671  0.824082  1
  O  O24  1  0.321696  0.327242  0.409139  1
  O  O25  1  0.328598  0.610122  0.273283  1
  O  O26  1  0.671402  0.389878  0.726717  1
  O  O27  1  0.678304  0.672758  0.590861  1
  O  O28  1  0.544629  0.774329  0.175918  1
  O  O29  1  0.821696  0.172758  0.909139  1
  O  O30  1  0.686160  0.396771  0.377421  1
  O  O31  1  0.581172  0.047281  0.234704  1
  O  O32  1  0.828598  0.889878  0.773283  1
  O  O33  1  0.819500  0.872150  0.444821  1
  O  O34  1  0.680500  0.372150  0.055179  1
  O  O35  1  0.918828  0.547281  0.265296  1
  O  O36  1  0.813840  0.896771  0.122579  1
  O  O37  1  0.955371  0.274329  0.324082  1
