# generated using pymatgen
data_Mn3(OF2)2
_symmetry_space_group_name_H-M   'P 1'
_cell_length_a   7.28754739
_cell_length_b   5.80106024
_cell_length_c   5.73463885
_cell_angle_alpha   73.98941115
_cell_angle_beta   73.87790745
_cell_angle_gamma   74.32385071
_symmetry_Int_Tables_number   1
_chemical_formula_structural   Mn3(OF2)2
_chemical_formula_sum   'Mn6 O4 F8'
_cell_volume   218.89026951
_cell_formula_units_Z   2
loop_
 _symmetry_equiv_pos_site_id
 _symmetry_equiv_pos_as_xyz
  1  'x, y, z'
loop_
 _atom_site_type_symbol
 _atom_site_label
 _atom_site_symmetry_multiplicity
 _atom_site_fract_x
 _atom_site_fract_y
 _atom_site_fract_z
 _atom_site_occupancy
  Mn  Mn0  1  0.837601  0.668870  0.702226  1
  Mn  Mn1  1  0.671188  0.358900  0.313184  1
  Mn  Mn2  1  0.316216  0.647992  0.653168  1
  Mn  Mn3  1  0.166024  0.333183  0.325806  1
  Mn  Mn4  1  0.506151  0.980231  0.995470  1
  Mn  Mn5  1  0.000752  0.999209  0.010504  1
  O  O6  1  0.965017  0.241044  0.223162  1
  O  O7  1  0.033396  0.763572  0.789872  1
  O  O8  1  0.369481  0.436651  0.415612  1
  O  O9  1  0.670785  0.647984  0.028404  1
  F  F10  1  0.664432  0.057308  0.617642  1
  F  F11  1  0.340741  0.336346  0.968624  1
  F  F12  1  0.301232  0.878100  0.892501  1
  F  F13  1  0.627436  0.583749  0.584671  1
  F  F14  1  0.703488  0.102086  0.091327  1
  F  F15  1  0.331289  0.970431  0.361307  1
  F  F16  1  0.005707  0.296923  0.689632  1
  F  F17  1  0.989063  0.697420  0.336887  1
