# generated using pymatgen
data_Li8MnFe7(PO4)8
_symmetry_space_group_name_H-M   'P 1'
_cell_length_a   7.72671401
_cell_length_b   10.44413153
_cell_length_c   7.72671401
_cell_angle_alpha   90.00097037
_cell_angle_beta   104.04385552
_cell_angle_gamma   90.00097037
_symmetry_Int_Tables_number   1
_chemical_formula_structural   Li8MnFe7(PO4)8
_chemical_formula_sum   'Li8 Mn1 Fe7 P8 O32'
_cell_volume   604.89933976
_cell_formula_units_Z   1
loop_
 _symmetry_equiv_pos_site_id
 _symmetry_equiv_pos_as_xyz
  1  'x, y, z'
loop_
 _atom_site_type_symbol
 _atom_site_label
 _atom_site_symmetry_multiplicity
 _atom_site_fract_x
 _atom_site_fract_y
 _atom_site_fract_z
 _atom_site_occupancy
  Li  Li0  1  0.999968  0.000074  0.000067  1
  Li  Li1  1  0.499968  0.499642  0.999722  1
  Li  Li2  1  0.249722  0.499642  0.249968  1
  Li  Li3  1  0.000462  0.499707  0.499718  1
  Li  Li4  1  0.750021  0.000716  0.249517  1
  Li  Li5  1  0.250067  0.000074  0.749968  1
  Li  Li6  1  0.499517  0.000716  0.500021  1
  Li  Li7  1  0.749718  0.499707  0.750462  1
  Mn  Mn8  1  0.637566  0.717937  0.387566  1
  Fe  Fe9  1  0.361363  0.218235  0.111363  1
  Fe  Fe10  1  0.138184  0.781940  0.388297  1
  Fe  Fe11  1  0.861986  0.281858  0.111525  1
  Fe  Fe12  1  0.361525  0.281858  0.611986  1
  Fe  Fe13  1  0.138061  0.718136  0.888061  1
  Fe  Fe14  1  0.861553  0.218043  0.611553  1
  Fe  Fe15  1  0.638297  0.781940  0.888184  1
  P  P16  1  0.083872  0.094905  0.334003  1
  P  P17  1  0.414544  0.906595  0.164544  1
  P  P18  1  0.583767  0.404263  0.333767  1
  P  P19  1  0.083738  0.405034  0.833738  1
  P  P20  1  0.415858  0.594382  0.668005  1
  P  P21  1  0.918005  0.594382  0.165858  1
  P  P22  1  0.584003  0.094905  0.833872  1
  P  P23  1  0.916715  0.905822  0.666715  1
  O  O24  1  0.086048  0.664538  0.129807  1
  O  O25  1  0.253123  0.903942  0.003123  1
  O  O26  1  0.118498  0.165409  0.165513  1
  O  O27  1  0.021727  0.956984  0.271960  1
  O  O28  1  0.477770  0.044008  0.227770  1
  O  O29  1  0.379234  0.836105  0.332698  1
  O  O30  1  0.582698  0.836105  0.129234  1
  O  O31  1  0.084582  0.834823  0.631607  1
  O  O32  1  0.245375  0.097248  0.495484  1
  O  O33  1  0.754938  0.597418  0.005871  1
  O  O34  1  0.255871  0.597418  0.504938  1
  O  O35  1  0.618725  0.333924  0.165392  1
  O  O36  1  0.118357  0.334417  0.665202  1
  O  O37  1  0.415392  0.333924  0.368725  1
  O  O38  1  0.021600  0.542929  0.771600  1
  O  O39  1  0.521028  0.541930  0.271028  1
  O  O40  1  0.477175  0.456055  0.728833  1
  O  O41  1  0.978833  0.456055  0.227175  1
  O  O42  1  0.887129  0.664645  0.335605  1
  O  O43  1  0.585605  0.664645  0.637129  1
  O  O44  1  0.379807  0.664538  0.836048  1
  O  O45  1  0.245241  0.402526  0.995241  1
  O  O46  1  0.745079  0.402875  0.495079  1
  O  O47  1  0.755300  0.903416  0.505300  1
  O  O48  1  0.915366  0.165516  0.368695  1
  O  O49  1  0.618695  0.165516  0.665366  1
  O  O50  1  0.415513  0.165409  0.868498  1
  O  O51  1  0.521960  0.956984  0.771727  1
  O  O52  1  0.978559  0.043697  0.728559  1
  O  O53  1  0.881607  0.834823  0.834582  1
  O  O54  1  0.745484  0.097248  0.995375  1
  O  O55  1  0.915202  0.334417  0.868357  1
