# generated using pymatgen
data_Li4Mn(PO3)6
_symmetry_space_group_name_H-M   'P 1'
_cell_length_a   7.37615799
_cell_length_b   7.37615799
_cell_length_c   14.03197062
_cell_angle_alpha   86.49842160
_cell_angle_beta   93.50157840
_cell_angle_gamma   115.59732101
_symmetry_Int_Tables_number   1
_chemical_formula_structural   Li4Mn(PO3)6
_chemical_formula_sum   'Li8 Mn2 P12 O36'
_cell_volume   686.72123069
_cell_formula_units_Z   2
loop_
 _symmetry_equiv_pos_site_id
 _symmetry_equiv_pos_as_xyz
  1  'x, y, z'
loop_
 _atom_site_type_symbol
 _atom_site_label
 _atom_site_symmetry_multiplicity
 _atom_site_fract_x
 _atom_site_fract_y
 _atom_site_fract_z
 _atom_site_occupancy
  Li  Li0  1  0.039682  0.700306  0.924336  1
  Li  Li1  1  0.299694  0.960318  0.424336  1
  Li  Li2  1  0.216784  0.558363  0.547251  1
  Li  Li3  1  0.441637  0.783216  0.047251  1
  Li  Li4  1  0.558363  0.216784  0.952749  1
  Li  Li5  1  0.783216  0.441637  0.452749  1
  Li  Li6  1  0.700306  0.039682  0.575664  1
  Li  Li7  1  0.960318  0.299694  0.075664  1
  Mn  Mn8  1  0.625491  0.625491  0.750000  1
  Mn  Mn9  1  0.374509  0.374509  0.250000  1
  P  P10  1  0.037338  0.853089  0.613034  1
  P  P11  1  0.146911  0.962662  0.113034  1
  P  P12  1  0.369360  0.908276  0.750821  1
  P  P13  1  0.091724  0.630640  0.250821  1
  P  P14  1  0.229367  0.398570  0.890375  1
  P  P15  1  0.601430  0.770633  0.390375  1
  P  P16  1  0.398570  0.229367  0.609625  1
  P  P17  1  0.770633  0.601430  0.109625  1
  P  P18  1  0.908276  0.369360  0.749179  1
  P  P19  1  0.630640  0.091724  0.249179  1
  P  P20  1  0.853089  0.037338  0.886966  1
  P  P21  1  0.962662  0.146911  0.386966  1
  O  O22  1  0.135342  0.816100  0.713866  1
  O  O23  1  0.086997  0.753415  0.534934  1
  O  O24  1  0.183900  0.864658  0.213866  1
  O  O25  1  0.246585  0.913003  0.034934  1
  O  O26  1  0.370092  0.901567  0.856865  1
  O  O27  1  0.098433  0.629908  0.356865  1
  O  O28  1  0.187062  0.504168  0.968559  1
  O  O29  1  0.477125  0.813398  0.698189  1
  O  O30  1  0.140670  0.447453  0.788520  1
  O  O31  1  0.495832  0.812938  0.468559  1
  O  O32  1  0.186602  0.522875  0.198189  1
  O  O33  1  0.552547  0.859330  0.288520  1
  O  O34  1  0.095739  0.157463  0.902055  1
  O  O35  1  0.811494  0.823770  0.869541  1
  O  O36  1  0.440470  0.428884  0.874057  1
  O  O37  1  0.842537  0.904261  0.402055  1
  O  O38  1  0.428884  0.440470  0.625943  1
  O  O39  1  0.176230  0.188506  0.369541  1
  O  O40  1  0.823770  0.811494  0.630459  1
  O  O41  1  0.571116  0.559530  0.374057  1
  O  O42  1  0.157463  0.095739  0.597945  1
  O  O43  1  0.559530  0.571116  0.125943  1
  O  O44  1  0.188506  0.176230  0.130459  1
  O  O45  1  0.904261  0.842537  0.097945  1
  O  O46  1  0.447453  0.140670  0.711480  1
  O  O47  1  0.813398  0.477125  0.801811  1
  O  O48  1  0.504168  0.187062  0.531441  1
  O  O49  1  0.859330  0.552547  0.211480  1
  O  O50  1  0.522875  0.186602  0.301811  1
  O  O51  1  0.812938  0.495832  0.031441  1
  O  O52  1  0.901567  0.370092  0.643135  1
  O  O53  1  0.629908  0.098433  0.143135  1
  O  O54  1  0.753415  0.086997  0.965066  1
  O  O55  1  0.816100  0.135342  0.786134  1
  O  O56  1  0.913003  0.246585  0.465066  1
  O  O57  1  0.864658  0.183900  0.286134  1
