# generated using pymatgen
data_Mn12O7F17
_symmetry_space_group_name_H-M   'P 1'
_cell_length_a   4.80535349
_cell_length_b   5.80132070
_cell_length_c   15.84217254
_cell_angle_alpha   88.81013281
_cell_angle_beta   89.36009558
_cell_angle_gamma   87.03281344
_symmetry_Int_Tables_number   1
_chemical_formula_structural   Mn12O7F17
_chemical_formula_sum   'Mn12 O7 F17'
_cell_volume   440.92880872
_cell_formula_units_Z   1
loop_
 _symmetry_equiv_pos_site_id
 _symmetry_equiv_pos_as_xyz
  1  'x, y, z'
loop_
 _atom_site_type_symbol
 _atom_site_label
 _atom_site_symmetry_multiplicity
 _atom_site_fract_x
 _atom_site_fract_y
 _atom_site_fract_z
 _atom_site_occupancy
  Mn  Mn0  1  0.991348  0.148433  0.417566  1
  Mn  Mn1  1  0.022121  0.839315  0.237455  1
  Mn  Mn2  1  0.009948  0.158980  0.073780  1
  Mn  Mn3  1  0.048940  0.195174  0.757164  1
  Mn  Mn4  1  0.030940  0.823290  0.583470  1
  Mn  Mn5  1  0.993021  0.855567  0.917266  1
  Mn  Mn6  1  0.491744  0.348768  0.586496  1
  Mn  Mn7  1  0.484607  0.336405  0.924260  1
  Mn  Mn8  1  0.525270  0.335408  0.259670  1
  Mn  Mn9  1  0.487657  0.650257  0.082808  1
  Mn  Mn10  1  0.498496  0.658442  0.417455  1
  Mn  Mn11  1  0.498730  0.638877  0.750654  1
  O  O12  1  0.199446  0.125738  0.967691  1
  O  O13  1  0.231523  0.890227  0.126900  1
  O  O14  1  0.218804  0.883647  0.468211  1
  O  O15  1  0.293189  0.592793  0.643609  1
  O  O16  1  0.304446  0.407951  0.812152  1
  O  O17  1  0.702350  0.385132  0.027938  1
  O  O18  1  0.720883  0.386254  0.370712  1
  F  F19  1  0.219858  0.116965  0.306755  1
  F  F20  1  0.241486  0.102860  0.639653  1
  F  F21  1  0.242934  0.894682  0.806329  1
  F  F22  1  0.268474  0.397945  0.149862  1
  F  F23  1  0.272826  0.618001  0.311878  1
  F  F24  1  0.251154  0.383188  0.478675  1
  F  F25  1  0.246969  0.615997  0.978013  1
  F  F26  1  0.721471  0.617218  0.194659  1
  F  F27  1  0.723357  0.615466  0.524986  1
  F  F28  1  0.730428  0.621621  0.858406  1
  F  F29  1  0.753219  0.369203  0.685276  1
  F  F30  1  0.788283  0.128096  0.184141  1
  F  F31  1  0.760572  0.114087  0.531858  1
  F  F32  1  0.760557  0.895607  0.351949  1
  F  F33  1  0.736548  0.879715  0.025490  1
  F  F34  1  0.758084  0.117297  0.854165  1
  F  F35  1  0.770314  0.851400  0.692652  1
