# generated using pymatgen
data_Li4Mn(SiO3)3
_symmetry_space_group_name_H-M   'P 1'
_cell_length_a   6.35353189
_cell_length_b   10.12733894
_cell_length_c   6.35353189
_cell_angle_alpha   89.03917317
_cell_angle_beta   72.53643273
_cell_angle_gamma   90.96082683
_symmetry_Int_Tables_number   1
_chemical_formula_structural   Li4Mn(SiO3)3
_chemical_formula_sum   'Li8 Mn2 Si6 O18'
_cell_volume   389.81423762
_cell_formula_units_Z   2
loop_
 _symmetry_equiv_pos_site_id
 _symmetry_equiv_pos_as_xyz
  1  'x, y, z'
loop_
 _atom_site_type_symbol
 _atom_site_label
 _atom_site_symmetry_multiplicity
 _atom_site_fract_x
 _atom_site_fract_y
 _atom_site_fract_z
 _atom_site_occupancy
  Li  Li0  1  0.380605  0.205562  0.810244  1
  Li  Li1  1  0.187724  0.791728  0.462794  1
  Li  Li2  1  0.995147  0.500000  0.995147  1
  Li  Li3  1  0.543039  0.500000  0.543039  1
  Li  Li4  1  0.628750  0.000000  0.628750  1
  Li  Li5  1  0.997104  0.000000  0.997104  1
  Li  Li6  1  0.462794  0.208272  0.187724  1
  Li  Li7  1  0.810244  0.794438  0.380605  1
  Mn  Mn8  1  0.828823  0.256097  0.825911  1
  Mn  Mn9  1  0.825911  0.743903  0.828823  1
  Si  Si10  1  0.340523  0.748187  0.881528  1
  Si  Si11  1  0.071579  0.499009  0.476344  1
  Si  Si12  1  0.131059  0.053550  0.509110  1
  Si  Si13  1  0.509110  0.946450  0.131059  1
  Si  Si14  1  0.476344  0.500991  0.071579  1
  Si  Si15  1  0.881528  0.251813  0.340523  1
  O  O16  1  0.141590  0.796902  0.796761  1
  O  O17  1  0.312922  0.585556  0.950420  1
  O  O18  1  0.118709  0.116323  0.745079  1
  O  O19  1  0.035184  0.421863  0.708691  1
  O  O20  1  0.505682  0.059467  0.950023  1
  O  O21  1  0.483988  0.353067  0.978673  1
  O  O22  1  0.118571  0.179452  0.336037  1
  O  O23  1  0.571513  0.776226  0.688598  1
  O  O24  1  0.348581  0.500000  0.348581  1
  O  O25  1  0.390355  0.000000  0.390355  1
  O  O26  1  0.688598  0.223774  0.571513  1
  O  O27  1  0.336037  0.820548  0.118571  1
  O  O28  1  0.978673  0.646934  0.483988  1
  O  O29  1  0.950023  0.940533  0.505682  1
  O  O30  1  0.708691  0.578137  0.035184  1
  O  O31  1  0.745079  0.883677  0.118709  1
  O  O32  1  0.950420  0.414444  0.312922  1
  O  O33  1  0.796761  0.203098  0.141590  1
