# generated using pymatgen
data_Ca2SnS4
_symmetry_space_group_name_H-M   'P 1'
_cell_length_a   6.58782017
_cell_length_b   8.32251749
_cell_length_c   13.92999936
_cell_angle_alpha   90.00043233
_cell_angle_beta   89.99846736
_cell_angle_gamma   90.00022528
_symmetry_Int_Tables_number   1
_chemical_formula_structural   Ca2SnS4
_chemical_formula_sum   'Ca8 Sn4 S16'
_cell_volume   763.74353756
_cell_formula_units_Z   4
loop_
 _symmetry_equiv_pos_site_id
 _symmetry_equiv_pos_as_xyz
  1  'x, y, z'
loop_
 _atom_site_type_symbol
 _atom_site_label
 _atom_site_symmetry_multiplicity
 _atom_site_fract_x
 _atom_site_fract_y
 _atom_site_fract_z
 _atom_site_occupancy
  Ca  Ca0  1  0.500001  0.999999  0.500000  1
  Ca  Ca1  1  -0.000000  0.499999  0.000000  1
  Ca  Ca2  1  0.500001  0.500001  0.499999  1
  Ca  Ca3  1  0.000000  0.000001  0.000001  1
  Ca  Ca4  1  0.024075  0.749999  0.275577  1
  Ca  Ca5  1  0.475917  0.749999  0.775578  1
  Ca  Ca6  1  0.975919  0.250001  0.724422  1
  Ca  Ca7  1  0.524080  0.250001  0.224422  1
  Sn  Sn8  1  0.592651  0.750006  0.096833  1
  Sn  Sn9  1  0.907324  0.750001  0.596835  1
  Sn  Sn10  1  0.407381  0.249997  0.903173  1
  Sn  Sn11  1  0.092664  0.249998  0.403163  1
  S  S12  1  0.228376  0.750000  0.093089  1
  S  S13  1  0.271625  0.750001  0.593085  1
  S  S14  1  0.771607  0.250001  0.906911  1
  S  S15  1  0.728382  0.250000  0.406916  1
  S  S16  1  0.740667  0.750001  0.936790  1
  S  S17  1  0.759332  0.749999  0.436793  1
  S  S18  1  0.259337  0.249999  0.063209  1
  S  S19  1  0.240668  0.250000  0.563210  1
  S  S20  1  0.763282  0.974728  0.173142  1
  S  S21  1  0.736711  0.525272  0.673144  1
  S  S22  1  0.236714  0.474739  0.826853  1
  S  S23  1  0.263290  0.025272  0.326855  1
  S  S24  1  0.236716  0.025264  0.826854  1
  S  S25  1  0.263289  0.474730  0.326856  1
  S  S26  1  0.763282  0.525266  0.173145  1
  S  S27  1  0.736709  0.974728  0.673144  1
