# generated using pymatgen
data_Mg17Al11Ag
_symmetry_space_group_name_H-M   'P 1'
_cell_length_a   9.14300235
_cell_length_b   9.14515940
_cell_length_c   9.08290510
_cell_angle_alpha   109.56044405
_cell_angle_beta   109.55081526
_cell_angle_gamma   109.57465414
_symmetry_Int_Tables_number   1
_chemical_formula_structural   Mg17Al11Ag
_chemical_formula_sum   'Mg17 Al11 Ag1'
_cell_volume   582.65992502
_cell_formula_units_Z   1
loop_
 _symmetry_equiv_pos_site_id
 _symmetry_equiv_pos_as_xyz
  1  'x, y, z'
loop_
 _atom_site_type_symbol
 _atom_site_label
 _atom_site_symmetry_multiplicity
 _atom_site_fract_x
 _atom_site_fract_y
 _atom_site_fract_z
 _atom_site_occupancy
  Mg  Mg0  1  0.345573  0.000978  0.999999  1
  Mg  Mg1  1  0.603641  0.317634  1.000000  1
  Mg  Mg2  1  0.000378  0.345186  1.000000  1
  Mg  Mg3  1  0.315340  0.603467  0.000000  1
  Mg  Mg4  1  0.000097  0.998553  0.000001  1
  Mg  Mg5  1  0.683834  0.683229  0.283008  1
  Mg  Mg6  1  0.998247  0.602428  0.313621  1
  Mg  Mg7  1  0.600909  0.999487  0.316007  1
  Mg  Mg8  1  0.999602  0.998561  0.343327  1
  Mg  Mg9  1  0.397939  0.713671  0.397449  1
  Mg  Mg10  1  0.714644  0.398367  0.398410  1
  Mg  Mg11  1  0.316235  0.999958  0.601592  1
  Mg  Mg12  1  0.000490  0.316222  0.602553  1
  Mg  Mg13  1  0.656274  0.655234  0.656672  1
  Mg  Mg14  1  0.284903  0.683480  0.683994  1
  Mg  Mg15  1  0.684627  0.288807  0.686378  1
  Mg  Mg16  1  0.400826  0.400221  0.716992  1
  Al  Al17  1  0.633025  0.813231  0.000000  1
  Al  Al18  1  0.367139  0.367584  0.181840  1
  Al  Al19  1  0.184244  0.817882  0.184101  1
  Al  Al20  1  0.818578  0.184778  0.185011  1
  Al  Al21  1  0.181064  0.365423  0.365311  1
  Al  Al22  1  0.366445  0.179967  0.365320  1
  Al  Al23  1  0.001124  0.814647  0.634681  1
  Al  Al24  1  0.815753  0.000111  0.634689  1
  Al  Al25  1  0.633567  0.999768  0.814990  1
  Al  Al26  1  0.000143  0.633783  0.815899  1
  Al  Al27  1  0.185299  0.185744  0.818159  1
  Ag  Ag28  1  0.810065  0.631602  0.000000  1
