# generated using pymatgen
data_SrPuO4
_symmetry_space_group_name_H-M   'P 1'
_cell_length_a   6.56865245
_cell_length_b   6.56865252
_cell_length_c   6.56865265
_cell_angle_alpha   35.03505540
_cell_angle_beta   35.03505447
_cell_angle_gamma   35.03505505
_symmetry_Int_Tables_number   1
_chemical_formula_structural   SrPuO4
_chemical_formula_sum   'Sr1 Pu1 O4'
_cell_volume   83.40448021
_cell_formula_units_Z   1
loop_
 _symmetry_equiv_pos_site_id
 _symmetry_equiv_pos_as_xyz
  1  'x, y, z'
loop_
 _atom_site_type_symbol
 _atom_site_label
 _atom_site_symmetry_multiplicity
 _atom_site_fract_x
 _atom_site_fract_y
 _atom_site_fract_z
 _atom_site_occupancy
  Sr  Sr0  1  0.500000  0.500000  0.500000  1
  Pu  Pu1  1  0.000000  0.000000  0.000000  1
  O  O2  1  0.106414  0.106414  0.106414  1
  O  O3  1  0.893586  0.893586  0.893586  1
  O  O4  1  0.358806  0.358806  0.358806  1
  O  O5  1  0.641194  0.641194  0.641194  1
