# generated using pymatgen
data_Mn6O5F7
_symmetry_space_group_name_H-M   'P 1'
_cell_length_a   4.70438919
_cell_length_b   5.75275547
_cell_length_c   15.62619791
_cell_angle_alpha   90.02833017
_cell_angle_beta   89.45680627
_cell_angle_gamma   91.54666674
_symmetry_Int_Tables_number   1
_chemical_formula_structural   Mn6O5F7
_chemical_formula_sum   'Mn12 O10 F14'
_cell_volume   422.72184692
_cell_formula_units_Z   2
loop_
 _symmetry_equiv_pos_site_id
 _symmetry_equiv_pos_as_xyz
  1  'x, y, z'
loop_
 _atom_site_type_symbol
 _atom_site_label
 _atom_site_symmetry_multiplicity
 _atom_site_fract_x
 _atom_site_fract_y
 _atom_site_fract_z
 _atom_site_occupancy
  Mn  Mn0  1  0.052136  0.160050  0.414237  1
  Mn  Mn1  1  0.990822  0.843951  0.247548  1
  Mn  Mn2  1  0.013574  0.174760  0.077968  1
  Mn  Mn3  1  0.996963  0.157637  0.741710  1
  Mn  Mn4  1  0.027353  0.857542  0.578749  1
  Mn  Mn5  1  0.036376  0.861302  0.911398  1
  Mn  Mn6  1  0.500634  0.333551  0.588073  1
  Mn  Mn7  1  0.505243  0.335730  0.924829  1
  Mn  Mn8  1  0.481544  0.346955  0.248546  1
  Mn  Mn9  1  0.519316  0.623498  0.090135  1
  Mn  Mn10  1  0.476819  0.652220  0.424798  1
  Mn  Mn11  1  0.492781  0.656273  0.751911  1
  O  O12  1  0.220407  0.116870  0.302923  1
  O  O13  1  0.218983  0.111338  0.636139  1
  O  O14  1  0.222519  0.123044  0.970510  1
  O  O15  1  0.234692  0.884228  0.473983  1
  O  O16  1  0.215914  0.895589  0.800110  1
  O  O17  1  0.276963  0.389600  0.141570  1
  O  O18  1  0.291396  0.389888  0.479238  1
  O  O19  1  0.716634  0.380493  0.029682  1
  O  O20  1  0.716583  0.604918  0.194840  1
  O  O21  1  0.707357  0.372223  0.695452  1
  F  F22  1  0.251777  0.879163  0.134257  1
  F  F23  1  0.239998  0.615010  0.311059  1
  F  F24  1  0.253286  0.605493  0.643005  1
  F  F25  1  0.260939  0.394657  0.820292  1
  F  F26  1  0.279037  0.627069  0.983682  1
  F  F27  1  0.716080  0.393865  0.357985  1
  F  F28  1  0.751852  0.617150  0.533594  1
  F  F29  1  0.738967  0.613646  0.868015  1
  F  F30  1  0.774365  0.107500  0.186696  1
  F  F31  1  0.780874  0.132135  0.515923  1
  F  F32  1  0.746046  0.883487  0.364869  1
  F  F33  1  0.775316  0.867884  0.026083  1
  F  F34  1  0.759063  0.117205  0.850979  1
  F  F35  1  0.757398  0.874076  0.679213  1
