# generated using pymatgen
data_Li4Co3Ni3(SnO8)2
_symmetry_space_group_name_H-M   'P 1'
_cell_length_a   5.89070665
_cell_length_b   5.76676796
_cell_length_c   9.56641302
_cell_angle_alpha   89.99177913
_cell_angle_beta   92.15156393
_cell_angle_gamma   119.35648417
_symmetry_Int_Tables_number   1
_chemical_formula_structural   Li4Co3Ni3(SnO8)2
_chemical_formula_sum   'Li4 Co3 Ni3 Sn2 O16'
_cell_volume   282.98126321
_cell_formula_units_Z   1
loop_
 _symmetry_equiv_pos_site_id
 _symmetry_equiv_pos_as_xyz
  1  'x, y, z'
loop_
 _atom_site_type_symbol
 _atom_site_label
 _atom_site_symmetry_multiplicity
 _atom_site_fract_x
 _atom_site_fract_y
 _atom_site_fract_z
 _atom_site_occupancy
  Li  Li0  1  0.319195  0.659330  0.893811  1
  Li  Li1  1  0.006392  0.002967  0.993934  1
  Li  Li2  1  0.004456  0.002446  0.494591  1
  Li  Li3  1  0.664175  0.332480  0.391796  1
  Co  Co4  1  0.173374  0.832835  0.215774  1
  Co  Co5  1  0.173465  0.340404  0.215737  1
  Co  Co6  1  0.337938  0.169025  0.715158  1
  Ni  Ni7  1  0.663396  0.831690  0.214188  1
  Ni  Ni8  1  0.829539  0.662535  0.714808  1
  Ni  Ni9  1  0.829451  0.167200  0.714881  1
  Sn  Sn10  1  0.339993  0.670014  0.492284  1
  Sn  Sn11  1  0.666490  0.332934  0.993119  1
  O  O12  1  0.175799  0.852905  0.601825  1
  O  O13  1  0.032508  0.515916  0.329931  1
  O  O14  1  0.298626  0.649411  0.113304  1
  O  O15  1  0.031320  0.015461  0.306330  1
  O  O16  1  0.014018  0.006645  0.804282  1
  O  O17  1  0.175597  0.323480  0.602298  1
  O  O18  1  0.468761  0.966459  0.335291  1
  O  O19  1  0.468735  0.502596  0.335295  1
  O  O20  1  0.320017  0.159847  0.106600  1
  O  O21  1  0.696880  0.848892  0.598589  1
  O  O22  1  0.495887  0.470366  0.838518  1
  O  O23  1  0.496217  0.025342  0.838033  1
  O  O24  1  0.652018  0.326810  0.616283  1
  O  O25  1  0.853891  0.689161  0.099480  1
  O  O26  1  0.957913  0.478827  0.832508  1
  O  O27  1  0.853946  0.164320  0.099187  1
