# generated using pymatgen
data_V3O5F
_symmetry_space_group_name_H-M   'P 1'
_cell_length_a   4.65614837
_cell_length_b   7.50171978
_cell_length_c   5.55605528
_cell_angle_alpha   95.49009211
_cell_angle_beta   91.14125868
_cell_angle_gamma   89.27507321
_symmetry_Int_Tables_number   1
_chemical_formula_structural   V3O5F
_chemical_formula_sum   'V6 O10 F2'
_cell_volume   193.12830490
_cell_formula_units_Z   2
loop_
 _symmetry_equiv_pos_site_id
 _symmetry_equiv_pos_as_xyz
  1  'x, y, z'
loop_
 _atom_site_type_symbol
 _atom_site_label
 _atom_site_symmetry_multiplicity
 _atom_site_fract_x
 _atom_site_fract_y
 _atom_site_fract_z
 _atom_site_occupancy
  V  V0  1  0.518834  0.673900  0.155175  1
  V  V1  1  0.481166  0.992766  0.511491  1
  V  V2  1  0.500000  0.333333  0.833333  1
  V  V3  1  0.983566  0.669661  0.687354  1
  V  V4  1  0.000000  0.333333  0.333333  1
  V  V5  1  0.016434  0.997005  0.979313  1
  O  O6  1  0.798589  0.434656  0.639595  1
  O  O7  1  0.796524  0.771326  0.972251  1
  O  O8  1  0.697386  0.095481  0.792382  1
  O  O9  1  0.698228  0.770981  0.466854  1
  O  O10  1  0.691466  0.441842  0.137991  1
  O  O11  1  0.302614  0.571185  0.874285  1
  O  O12  1  0.308534  0.224824  0.528676  1
  O  O13  1  0.301772  0.895685  0.199813  1
  O  O14  1  0.201411  0.232011  0.027072  1
  O  O15  1  0.203476  0.895341  0.694416  1
  F  F16  1  0.797035  0.093599  0.294386  1
  F  F17  1  0.202965  0.573068  0.372281  1
