# generated using pymatgen
data_KNa2LiZr2(Si2O5)6
_symmetry_space_group_name_H-M   'P 1'
_cell_length_a   10.22932373
_cell_length_b   10.30098895
_cell_length_c   14.61346609
_cell_angle_alpha   90.00015087
_cell_angle_beta   89.99993771
_cell_angle_gamma   119.77053827
_symmetry_Int_Tables_number   1
_chemical_formula_structural   KNa2LiZr2(Si2O5)6
_chemical_formula_sum   'K2 Na4 Li2 Zr4 Si24 O60'
_cell_volume   1336.62400069
_cell_formula_units_Z   2
loop_
 _symmetry_equiv_pos_site_id
 _symmetry_equiv_pos_as_xyz
  1  'x, y, z'
loop_
 _atom_site_type_symbol
 _atom_site_label
 _atom_site_symmetry_multiplicity
 _atom_site_fract_x
 _atom_site_fract_y
 _atom_site_fract_z
 _atom_site_occupancy
  K  K0  1  -0.000000  -0.000000  0.250000  1
  K  K1  1  -0.000001  0.999999  0.750000  1
  Na  Na2  1  0.333967  0.664236  0.000000  1
  Na  Na3  1  0.330224  0.664189  0.500000  1
  Na  Na4  1  0.665987  0.335760  -0.000000  1
  Na  Na5  1  0.669777  0.335813  0.500000  1
  Li  Li6  1  0.500002  1.000000  0.250000  1
  Li  Li7  1  0.499998  0.999992  0.749999  1
  Zr  Zr8  1  0.327962  0.655932  0.250000  1
  Zr  Zr9  1  0.327966  0.655927  0.749998  1
  Zr  Zr10  1  0.672033  0.344068  0.250002  1
  Zr  Zr11  1  0.672030  0.344066  0.749999  1
  Si  Si12  1  0.114268  0.763606  0.390409  1
  Si  Si13  1  0.114270  0.763605  0.609592  1
  Si  Si14  1  0.238020  0.886738  0.109767  1
  Si  Si15  1  0.238020  0.886735  0.890233  1
  Si  Si16  1  0.112687  0.349633  0.109322  1
  Si  Si17  1  0.112686  0.349630  0.890678  1
  Si  Si18  1  0.236940  0.349627  0.390677  1
  Si  Si19  1  0.236938  0.349624  0.609321  1
  Si  Si20  1  0.648708  0.886734  0.390234  1
  Si  Si21  1  0.648713  0.886734  0.609766  1
  Si  Si22  1  0.350660  0.236395  0.109594  1
  Si  Si23  1  0.350660  0.236393  0.890408  1
  Si  Si24  1  0.649333  0.763607  0.109591  1
  Si  Si25  1  0.649335  0.763607  0.890409  1
  Si  Si26  1  0.351286  0.113264  0.609765  1
  Si  Si27  1  0.351286  0.113263  0.390233  1
  Si  Si28  1  0.763055  0.650371  0.390678  1
  Si  Si29  1  0.763058  0.650371  0.609323  1
  Si  Si30  1  0.887308  0.650366  0.890680  1
  Si  Si31  1  0.887308  0.650367  0.109321  1
  Si  Si32  1  0.761975  0.113263  0.109767  1
  Si  Si33  1  0.761974  0.113263  0.890234  1
  Si  Si34  1  0.885727  0.236392  0.390409  1
  Si  Si35  1  0.885726  0.236391  0.609591  1
  O  O36  1  0.057957  0.782831  0.132705  1
  O  O37  1  0.057960  0.782828  0.867293  1
  O  O38  1  0.216720  0.943314  0.367880  1
  O  O39  1  0.216724  0.943314  0.632120  1
  O  O40  1  0.131682  0.737476  0.500001  1
  O  O41  1  0.264420  0.865908  -0.000001  1
  O  O42  1  0.170915  0.666410  0.336121  1
  O  O43  1  0.170917  0.666407  0.663876  1
  O  O44  1  0.166700  0.503570  0.162797  1
  O  O45  1  0.166699  0.503567  0.837200  1
  O  O46  1  0.056933  0.272753  0.366812  1
  O  O47  1  0.056932  0.272750  0.633186  1
  O  O48  1  0.341629  0.841899  0.169368  1
  O  O49  1  0.341630  0.841894  0.830630  1
  O  O50  1  0.131130  0.393880  -0.000001  1
  O  O51  1  0.262748  0.393873  0.499999  1
  O  O52  1  0.500264  0.841901  0.330630  1
  O  O53  1  0.500265  0.841897  0.669373  1
  O  O54  1  0.215815  0.272756  0.133189  1
  O  O55  1  0.215813  0.272752  0.866811  1
  O  O56  1  0.336862  0.503565  0.662796  1
  O  O57  1  0.336858  0.503567  0.337201  1
  O  O58  1  0.495487  0.666410  0.163877  1
  O  O59  1  0.495491  0.666409  0.836121  1
  O  O60  1  0.601477  0.865900  0.500001  1
  O  O61  1  0.275130  0.217167  0.367292  1
  O  O62  1  0.275131  0.217166  0.632707  1
  O  O63  1  0.605791  0.737482  -0.000001  1
  O  O64  1  0.726590  0.943315  0.132122  1
  O  O65  1  0.726590  0.943315  0.867879  1
  O  O66  1  0.273403  0.056686  0.132123  1
  O  O67  1  0.273408  0.056684  0.867878  1
  O  O68  1  0.394198  0.262516  -0.000000  1
  O  O69  1  0.724862  0.782826  0.367294  1
  O  O70  1  0.724866  0.782828  0.632709  1
  O  O71  1  0.398516  0.134098  0.500000  1
  O  O72  1  0.504507  0.333594  0.163878  1
  O  O73  1  0.504504  0.333592  0.836122  1
  O  O74  1  0.663133  0.496429  0.337205  1
  O  O75  1  0.663134  0.496429  0.662797  1
  O  O76  1  0.784176  0.727240  0.133184  1
  O  O77  1  0.784181  0.727245  0.866816  1
  O  O78  1  0.499732  0.158097  0.330629  1
  O  O79  1  0.499733  0.158098  0.669370  1
  O  O80  1  0.737251  0.606125  0.500002  1
  O  O81  1  0.868870  0.606112  -0.000001  1
  O  O82  1  0.658363  0.158099  0.169371  1
  O  O83  1  0.658360  0.158098  0.830631  1
  O  O84  1  0.943061  0.727246  0.366812  1
  O  O85  1  0.943064  0.727246  0.633191  1
  O  O86  1  0.833293  0.496432  0.162801  1
  O  O87  1  0.833291  0.496432  0.837199  1
  O  O88  1  0.829079  0.333591  0.336126  1
  O  O89  1  0.829078  0.333592  0.663876  1
  O  O90  1  0.735572  0.134091  -0.000000  1
  O  O91  1  0.868311  0.262519  0.500000  1
  O  O92  1  0.783275  0.056684  0.367879  1
  O  O93  1  0.783269  0.056682  0.632123  1
  O  O94  1  0.942037  0.217172  0.132705  1
  O  O95  1  0.942035  0.217170  0.867294  1
