# generated using pymatgen
data_CaSnS3
_symmetry_space_group_name_H-M   'P 1'
_cell_length_a   7.01652345
_cell_length_b   10.72862561
_cell_length_c   13.52618587
_cell_angle_alpha   119.30707454
_cell_angle_beta   92.07161302
_cell_angle_gamma   88.08624039
_symmetry_Int_Tables_number   1
_chemical_formula_structural   CaSnS3
_chemical_formula_sum   'Ca6 Sn6 S18'
_cell_volume   887.17209306
_cell_formula_units_Z   6
loop_
 _symmetry_equiv_pos_site_id
 _symmetry_equiv_pos_as_xyz
  1  'x, y, z'
loop_
 _atom_site_type_symbol
 _atom_site_label
 _atom_site_symmetry_multiplicity
 _atom_site_fract_x
 _atom_site_fract_y
 _atom_site_fract_z
 _atom_site_occupancy
  Ca  Ca0  1  0.141292  0.572806  0.118932  1
  Ca  Ca1  1  0.952020  0.251857  0.784612  1
  Ca  Ca2  1  0.463052  0.208064  0.567059  1
  Ca  Ca3  1  0.968552  0.250727  0.304270  1
  Ca  Ca4  1  0.553140  0.896278  0.250908  1
  Ca  Ca5  1  0.618069  0.278076  0.005357  1
  Sn  Sn6  1  0.821849  0.945487  0.886154  1
  Sn  Sn7  1  0.469047  0.873441  0.619931  1
  Sn  Sn8  1  0.919197  0.511381  0.635613  1
  Sn  Sn9  1  0.510640  0.552578  0.915149  1
  Sn  Sn10  1  0.990233  0.009278  0.445922  1
  Sn  Sn11  1  0.687649  0.570192  0.322699  1
  S  S12  1  0.482935  0.089711  0.135927  1
  S  S13  1  0.766593  0.014384  0.101788  1
  S  S14  1  0.991684  0.156615  0.934493  1
  S  S15  1  0.191375  0.066471  0.614400  1
  S  S16  1  0.494351  0.980297  0.845686  1
  S  S17  1  0.713473  0.042324  0.615964  1
  S  S18  1  0.596123  0.482575  0.718273  1
  S  S19  1  0.691618  0.524662  0.482164  1
  S  S20  1  0.037131  0.754791  0.772566  1
  S  S21  1  0.338092  0.757278  0.049962  1
  S  S22  1  0.806695  0.494874  0.980106  1
  S  S23  1  0.314426  0.362507  0.903850  1
  S  S24  1  0.745428  0.155667  0.414560  1
  S  S25  1  0.894098  0.769182  0.302947  1
  S  S26  1  0.237318  0.088328  0.359238  1
  S  S27  1  0.427983  0.308041  0.197080  1
  S  S28  1  0.909601  0.402422  0.188994  1
  S  S29  1  0.400535  0.689605  0.309797  1
