# generated using pymatgen
data_Dy2H16S3O20
_symmetry_space_group_name_H-M   'P 1'
_cell_length_a   6.71642328
_cell_length_b   7.62421577
_cell_length_c   18.27382226
_cell_angle_alpha   80.74861268
_cell_angle_beta   90.00000000
_cell_angle_gamma   63.86635049
_symmetry_Int_Tables_number   1
_chemical_formula_structural   Dy2H16S3O20
_chemical_formula_sum   'Dy4 H32 S6 O40'
_cell_volume   826.51331437
_cell_formula_units_Z   2
loop_
 _symmetry_equiv_pos_site_id
 _symmetry_equiv_pos_as_xyz
  1  'x, y, z'
loop_
 _atom_site_type_symbol
 _atom_site_label
 _atom_site_symmetry_multiplicity
 _atom_site_fract_x
 _atom_site_fract_y
 _atom_site_fract_z
 _atom_site_occupancy
  Dy  Dy0  1  0.155511  0.680623  0.888623  1
  Dy  Dy1  1  0.163868  0.680623  0.388623  1
  Dy  Dy2  1  0.836132  0.319377  0.611377  1
  Dy  Dy3  1  0.844489  0.319377  0.111377  1
  H  H4  1  0.685846  0.989889  0.892327  1
  H  H5  1  0.804735  0.996986  0.965714  1
  H  H6  1  0.306918  0.995999  0.660112  1
  H  H7  1  0.563348  0.700062  0.005105  1
  H  H8  1  0.154180  0.887812  0.646580  1
  H  H9  1  0.324265  0.989889  0.392327  1
  H  H10  1  0.198279  0.996986  0.465714  1
  H  H11  1  0.697083  0.995999  0.160112  1
  H  H12  1  0.539960  0.699085  0.550621  1
  H  H13  1  0.736591  0.700062  0.505105  1
  H  H14  1  0.741837  0.642994  0.701285  1
  H  H15  1  0.958007  0.887812  0.146580  1
  H  H16  1  0.218825  0.551795  0.741442  1
  H  H17  1  0.770620  0.448205  0.758558  1
  H  H18  1  0.384831  0.357006  0.798715  1
  H  H19  1  0.239046  0.300915  0.949379  1
  H  H20  1  0.760954  0.699085  0.050621  1
  H  H21  1  0.615169  0.642994  0.201285  1
  H  H22  1  0.229380  0.551795  0.241442  1
  H  H23  1  0.781175  0.448205  0.258558  1
  H  H24  1  0.041993  0.112188  0.853420  1
  H  H25  1  0.258163  0.357006  0.298715  1
  H  H26  1  0.263409  0.299938  0.494895  1
  H  H27  1  0.460040  0.300915  0.449379  1
  H  H28  1  0.302917  0.004001  0.839888  1
  H  H29  1  0.801721  0.003014  0.534286  1
  H  H30  1  0.675735  0.010111  0.607673  1
  H  H31  1  0.845820  0.112188  0.353420  1
  H  H32  1  0.436652  0.299938  0.994895  1
  H  H33  1  0.693082  0.004001  0.339888  1
  H  H34  1  0.195265  0.003014  0.034286  1
  H  H35  1  0.314154  0.010111  0.107673  1
  S  S36  1  0.766116  0.441868  0.912009  1
  S  S37  1  0.207984  0.558132  0.587991  1
  S  S38  1  0.792016  0.441868  0.412009  1
  S  S39  1  0.233884  0.558132  0.087991  1
  S  S40  1  0.683866  0.000000  0.750000  1
  S  S41  1  0.316134  0.000000  0.250000  1
  O  O42  1  0.178918  0.982652  0.861556  1
  O  O43  1  0.809582  0.909656  0.931587  1
  O  O44  1  0.593170  0.925328  0.693673  1
  O  O45  1  0.894038  0.834755  0.787123  1
  O  O46  1  0.838431  0.982652  0.361556  1
  O  O47  1  0.280763  0.909656  0.431587  1
  O  O48  1  0.543211  0.618230  0.902819  1
  O  O49  1  0.121267  0.672307  0.648603  1
  O  O50  1  0.941637  0.509896  0.912900  1
  O  O51  1  0.481503  0.925328  0.193673  1
  O  O52  1  0.100681  0.690525  0.514752  1
  O  O53  1  0.696069  0.673390  0.555854  1
  O  O54  1  0.271206  0.834755  0.287123  1
  O  O55  1  0.286779  0.500927  0.793290  1
  O  O56  1  0.787706  0.499073  0.706710  1
  O  O57  1  0.369459  0.326610  0.944146  1
  O  O58  1  0.791206  0.309475  0.985248  1
  O  O59  1  0.838559  0.618230  0.402819  1
  O  O60  1  0.451534  0.490103  0.587100  1
  O  O61  1  0.793574  0.327693  0.851397  1
  O  O62  1  0.206426  0.672307  0.148603  1
  O  O63  1  0.548466  0.509896  0.412900  1
  O  O64  1  0.161441  0.381770  0.597181  1
  O  O65  1  0.208794  0.690525  0.014752  1
  O  O66  1  0.630541  0.673390  0.055854  1
  O  O67  1  0.212294  0.500927  0.293290  1
  O  O68  1  0.713221  0.499073  0.206710  1
  O  O69  1  0.728794  0.165245  0.712877  1
  O  O70  1  0.303931  0.326610  0.444146  1
  O  O71  1  0.899319  0.309475  0.485248  1
  O  O72  1  0.518497  0.074672  0.806327  1
  O  O73  1  0.058363  0.490103  0.087100  1
  O  O74  1  0.878733  0.327693  0.351397  1
  O  O75  1  0.456789  0.381770  0.097181  1
  O  O76  1  0.719237  0.090344  0.568413  1
  O  O77  1  0.161569  0.017348  0.638444  1
  O  O78  1  0.105962  0.165245  0.212877  1
  O  O79  1  0.406830  0.074672  0.306327  1
  O  O80  1  0.190418  0.090344  0.068413  1
  O  O81  1  0.821082  0.017348  0.138444  1
