# generated using pymatgen
data_Li3Co4SbO8
_symmetry_space_group_name_H-M   'P 1'
_cell_length_a   10.55624394
_cell_length_b   10.55624380
_cell_length_c   14.79397331
_cell_angle_alpha   19.60174684
_cell_angle_beta   19.60174807
_cell_angle_gamma   33.93110296
_symmetry_Int_Tables_number   1
_chemical_formula_structural   Li3Co4SbO8
_chemical_formula_sum   'Li3 Co4 Sb1 O8'
_cell_volume   159.25863340
_cell_formula_units_Z   1
loop_
 _symmetry_equiv_pos_site_id
 _symmetry_equiv_pos_as_xyz
  1  'x, y, z'
loop_
 _atom_site_type_symbol
 _atom_site_label
 _atom_site_symmetry_multiplicity
 _atom_site_fract_x
 _atom_site_fract_y
 _atom_site_fract_z
 _atom_site_occupancy
  Li  Li0  1  0.000000  0.500000  0.500000  1
  Li  Li1  1  0.500000  0.000000  0.500000  1
  Li  Li2  1  0.500000  0.500000  0.500000  1
  Co  Co3  1  0.000000  0.000000  0.000000  1
  Co  Co4  1  0.000000  0.500000  0.000000  1
  Co  Co5  1  0.500000  0.000000  0.000000  1
  Co  Co6  1  0.000000  0.000000  0.500000  1
  Sb  Sb7  1  0.500000  0.500000  0.000000  1
  O  O8  1  0.984955  0.984955  0.274831  1
  O  O9  1  0.042620  0.508197  0.220725  1
  O  O10  1  0.508197  0.042620  0.220725  1
  O  O11  1  0.015045  0.015045  0.725169  1
  O  O12  1  0.519277  0.519277  0.230665  1
  O  O13  1  0.957380  0.491803  0.779275  1
  O  O14  1  0.491803  0.957380  0.779275  1
  O  O15  1  0.480723  0.480723  0.769335  1
