# generated using pymatgen
data_In15SnO24
_symmetry_space_group_name_H-M   'P 1'
_cell_length_a   8.93276506
_cell_length_b   8.93299763
_cell_length_c   8.96736585
_cell_angle_alpha   109.55170221
_cell_angle_beta   109.55070360
_cell_angle_gamma   109.39180346
_symmetry_Int_Tables_number   1
_chemical_formula_structural   In15SnO24
_chemical_formula_sum   'In15 Sn1 O24'
_cell_volume   550.29152007
_cell_formula_units_Z   1
loop_
 _symmetry_equiv_pos_site_id
 _symmetry_equiv_pos_as_xyz
  1  'x, y, z'
loop_
 _atom_site_type_symbol
 _atom_site_label
 _atom_site_symmetry_multiplicity
 _atom_site_fract_x
 _atom_site_fract_y
 _atom_site_fract_z
 _atom_site_occupancy
  In  In0  1  0.966766  0.251215  0.216374  1
  In  In1  1  0.782837  0.034324  0.749319  1
  In  In2  1  0.715577  0.466798  0.250424  1
  In  In3  1  0.751200  0.784431  0.034878  1
  In  In4  1  0.748516  0.282803  0.533497  1
  In  In5  1  0.000008  0.499981  0.999985  1
  In  In6  1  0.534299  0.751487  0.285006  1
  In  In7  1  0.499970  0.499981  0.499976  1
  In  In8  1  0.465695  0.248562  0.714998  1
  In  In9  1  0.000003  0.000011  0.500002  1
  In  In10  1  0.251489  0.717190  0.466485  1
  In  In11  1  0.248774  0.215544  0.965142  1
  In  In12  1  0.217174  0.965726  0.250691  1
  In  In13  1  0.284438  0.533228  0.749553  1
  In  In14  1  0.033264  0.748767  0.783642  1
  Sn  Sn15  1  0.499989  -0.000006  0.000029  1
  O  O16  1  0.723610  0.217269  0.263124  1
  O  O17  1  0.765562  0.037635  0.493121  1
  O  O18  1  0.961938  0.506416  0.236258  1
  O  O19  1  0.282673  0.006340  0.045845  1
  O  O20  1  0.769140  0.727584  0.262080  1
  O  O21  1  0.462396  0.227882  0.455471  1
  O  O22  1  0.455520  0.461950  0.225666  1
  O  O23  1  0.041556  0.269149  0.007077  1
  O  O24  1  0.727880  0.265523  0.772436  1
  O  O25  1  0.493642  0.776333  0.039491  1
  O  O26  1  0.006414  0.044468  0.270120  1
  O  O27  1  0.772379  0.541548  0.534502  1
  O  O28  1  0.227602  0.458454  0.465497  1
  O  O29  1  0.272089  0.734461  0.227551  1
  O  O30  1  0.993568  0.955506  0.729893  1
  O  O31  1  0.506339  0.223654  0.960492  1
  O  O32  1  0.544479  0.538066  0.774361  1
  O  O33  1  0.958460  0.730866  0.992937  1
  O  O34  1  0.230867  0.272415  0.737940  1
  O  O35  1  0.537645  0.772108  0.544527  1
  O  O36  1  0.038123  0.493605  0.763741  1
  O  O37  1  0.717312  0.993670  0.954157  1
  O  O38  1  0.234487  0.962381  0.506885  1
  O  O39  1  0.276320  0.782678  0.736824  1
