# generated using pymatgen
data_LiFe4(BO3)4
_symmetry_space_group_name_H-M   'P 1'
_cell_length_a   5.23343477
_cell_length_b   9.15704953
_cell_length_c   10.08004731
_cell_angle_alpha   90.09707810
_cell_angle_beta   90.59051759
_cell_angle_gamma   89.06187864
_symmetry_Int_Tables_number   1
_chemical_formula_structural   LiFe4(BO3)4
_chemical_formula_sum   'Li2 Fe8 B8 O24'
_cell_volume   482.97334200
_cell_formula_units_Z   2
loop_
 _symmetry_equiv_pos_site_id
 _symmetry_equiv_pos_as_xyz
  1  'x, y, z'
loop_
 _atom_site_type_symbol
 _atom_site_label
 _atom_site_symmetry_multiplicity
 _atom_site_fract_x
 _atom_site_fract_y
 _atom_site_fract_z
 _atom_site_occupancy
  Li  Li0  1  0.664583  0.676827  0.898145  1
  Li  Li1  1  0.341949  0.322636  0.652824  1
  Fe  Fe2  1  0.851048  0.152748  0.627792  1
  Fe  Fe3  1  0.829293  0.497986  0.130774  1
  Fe  Fe4  1  0.678608  0.012435  0.876669  1
  Fe  Fe5  1  0.665234  0.334348  0.380166  1
  Fe  Fe6  1  0.324229  0.666548  0.629038  1
  Fe  Fe7  1  0.327814  0.000578  0.126846  1
  Fe  Fe8  1  0.164775  0.839926  0.377049  1
  Fe  Fe9  1  0.176892  0.492649  0.882987  1
  B  B10  1  0.826627  0.495834  0.627954  1
  B  B11  1  0.828772  0.171278  0.128150  1
  B  B12  1  0.660113  0.001301  0.373144  1
  B  B13  1  0.675256  0.334137  0.873330  1
  B  B14  1  0.351338  0.001180  0.627936  1
  B  B15  1  0.331412  0.669675  0.127178  1
  B  B16  1  0.158610  0.502747  0.381164  1
  B  B17  1  0.171958  0.832619  0.880000  1
  O  O18  1  0.904738  0.495662  0.334867  1
  O  O19  1  0.911915  0.844391  0.882656  1
  O  O20  1  0.815263  0.207269  0.842618  1
  O  O21  1  0.744989  0.133263  0.422115  1
  O  O22  1  0.816196  0.881348  0.370746  1
  O  O23  1  0.801426  0.455985  0.928807  1
  O  O24  1  0.673492  0.615274  0.650813  1
  O  O25  1  0.669120  0.063322  0.076170  1
  O  O26  1  0.721701  0.366063  0.580410  1
  O  O27  1  0.712806  0.300365  0.175671  1
  O  O28  1  0.589646  0.655734  0.108068  1
  O  O29  1  0.594499  0.994244  0.686331  1
  O  O30  1  0.405712  0.994966  0.327546  1
  O  O31  1  0.423232  0.340949  0.843926  1
  O  O32  1  0.295117  0.706852  0.829395  1
  O  O33  1  0.246499  0.637760  0.429115  1
  O  O34  1  0.315207  0.384241  0.382831  1
  O  O35  1  0.330593  0.941252  0.930225  1
  O  O36  1  0.173511  0.555709  0.089762  1
  O  O37  1  0.220549  0.128241  0.620452  1
  O  O38  1  0.252887  0.869847  0.575610  1
  O  O39  1  0.219658  0.798517  0.174992  1
  O  O40  1  0.084741  0.151040  0.131052  1
  O  O41  1  0.089346  0.498552  0.658602  1
