# generated using pymatgen
data_LiCoPO4
_symmetry_space_group_name_H-M   'P 1'
_cell_length_a   9.90777672
_cell_length_b   10.06991755
_cell_length_c   16.43236528
_cell_angle_alpha   82.24550122
_cell_angle_beta   90.00000000
_cell_angle_gamma   60.53121606
_symmetry_Int_Tables_number   1
_chemical_formula_structural   LiCoPO4
_chemical_formula_sum   'Li16 Co16 P16 O64'
_cell_volume   1410.11176394
_cell_formula_units_Z   16
loop_
 _symmetry_equiv_pos_site_id
 _symmetry_equiv_pos_as_xyz
  1  'x, y, z'
loop_
 _atom_site_type_symbol
 _atom_site_label
 _atom_site_symmetry_multiplicity
 _atom_site_fract_x
 _atom_site_fract_y
 _atom_site_fract_z
 _atom_site_occupancy
  Li  Li0  1  0.812770  0.988079  0.997038  1
  Li  Li1  1  0.199151  0.988079  0.497038  1
  Li  Li2  1  0.577435  0.721213  0.746805  1
  Li  Li3  1  0.074459  0.665951  0.748028  1
  Li  Li4  1  0.313499  0.546299  0.998173  1
  Li  Li5  1  0.701352  0.721213  0.246805  1
  Li  Li6  1  0.811421  0.486845  0.996389  1
  Li  Li7  1  0.259589  0.665951  0.248028  1
  Li  Li8  1  0.140202  0.546299  0.498173  1
  Li  Li9  1  0.701735  0.486845  0.496389  1
  Li  Li10  1  0.569677  0.226417  0.747872  1
  Li  Li11  1  0.081184  0.158953  0.746920  1
  Li  Li12  1  0.312413  0.047840  0.997188  1
  Li  Li13  1  0.203905  0.226417  0.247872  1
  Li  Li14  1  0.759863  0.158953  0.246920  1
  Li  Li15  1  0.639747  0.047840  0.497188  1
  Co  Co16  1  0.266751  0.848562  0.871522  1
  Co  Co17  1  0.768637  0.785579  0.872186  1
  Co  Co18  1  0.884688  0.848562  0.371522  1
  Co  Co19  1  0.445784  0.785579  0.372186  1
  Co  Co20  1  0.325400  0.669997  0.621659  1
  Co  Co21  1  0.880233  0.609432  0.621205  1
  Co  Co22  1  0.004604  0.669997  0.121659  1
  Co  Co23  1  0.510335  0.609432  0.121205  1
  Co  Co24  1  0.269994  0.347770  0.872193  1
  Co  Co25  1  0.767147  0.287124  0.870301  1
  Co  Co26  1  0.382236  0.347770  0.372193  1
  Co  Co27  1  0.945728  0.287124  0.370301  1
  Co  Co28  1  0.825890  0.164711  0.620750  1
  Co  Co29  1  0.381230  0.113947  0.621036  1
  Co  Co30  1  0.009399  0.164711  0.120750  1
  Co  Co31  1  0.504822  0.113947  0.121036  1
  P  P32  1  0.914627  0.983840  0.809338  1
  P  P33  1  0.101533  0.983840  0.309338  1
  P  P34  1  0.982571  0.848990  0.560337  1
  P  P35  1  0.537067  0.797441  0.558937  1
  P  P36  1  0.168440  0.848990  0.060337  1
  P  P37  1  0.665492  0.797441  0.058937  1
  P  P38  1  0.416934  0.539728  0.811237  1
  P  P39  1  0.918115  0.479767  0.809239  1
  P  P40  1  0.043339  0.539728  0.311237  1
  P  P41  1  0.602118  0.479767  0.309239  1
  P  P42  1  0.481938  0.352616  0.560315  1
  P  P43  1  0.038688  0.294314  0.558357  1
  P  P44  1  0.165447  0.352616  0.060316  1
  P  P45  1  0.666999  0.294314  0.058357  1
  P  P46  1  0.418431  0.036818  0.810948  1
  P  P47  1  0.544751  0.036818  0.310948  1
  O  O48  1  0.339629  0.997491  0.885010  1
  O  O49  1  0.076785  0.968136  0.795565  1
  O  O50  1  0.576619  0.895186  0.798413  1
  O  O51  1  0.743228  0.837604  0.984697  1
  O  O52  1  0.662881  0.997491  0.385010  1
  O  O53  1  0.550786  0.940049  0.573192  1
  O  O54  1  0.238904  0.772508  0.983188  1
  O  O55  1  0.931687  0.820499  0.820230  1
  O  O56  1  0.955080  0.968136  0.295564  1
  O  O57  1  0.131123  0.861209  0.573660  1
  O  O58  1  0.528196  0.895186  0.298413  1
  O  O59  1  0.419169  0.837604  0.484697  1
  O  O60  1  0.509165  0.940049  0.073192  1
  O  O61  1  0.475078  0.744944  0.636862  1
  O  O62  1  0.973860  0.741510  0.635342  1
  O  O63  1  0.442309  0.675109  0.826728  1
  O  O64  1  0.988588  0.772508  0.483188  1
  O  O65  1  0.247815  0.820499  0.320230  1
  O  O66  1  0.007669  0.861209  0.073660  1
  O  O67  1  0.699605  0.665742  0.542864  1
  O  O68  1  0.844473  0.559076  0.885381  1
  O  O69  1  0.300661  0.589946  0.734646  1
  O  O70  1  0.807504  0.584721  0.731920  1
  O  O71  1  0.779978  0.744944  0.136862  1
  O  O72  1  0.284629  0.741510  0.135342  1
  O  O73  1  0.882582  0.675109  0.326728  1
  O  O74  1  0.344146  0.495224  0.886652  1
  O  O75  1  0.079177  0.467882  0.797248  1
  O  O76  1  0.341298  0.519709  0.548693  1
  O  O77  1  0.634653  0.665742  0.042864  1
  O  O78  1  0.596451  0.559076  0.385381  1
  O  O79  1  0.109393  0.589946  0.234646  1
  O  O80  1  0.607775  0.584721  0.231920  1
  O  O81  1  0.574021  0.399323  0.796227  1
  O  O82  1  0.740882  0.337591  0.983306  1
  O  O83  1  0.160630  0.495224  0.386652  1
  O  O84  1  0.051099  0.436800  0.574496  1
  O  O85  1  0.240740  0.274118  0.984379  1
  O  O86  1  0.936864  0.315917  0.821078  1
  O  O87  1  0.452941  0.467882  0.297248  1
  O  O88  1  0.138993  0.519709  0.048694  1
  O  O89  1  0.633743  0.359506  0.572634  1
  O  O90  1  0.026655  0.399323  0.296227  1
  O  O91  1  0.921527  0.337591  0.483306  1
  O  O92  1  0.512101  0.436800  0.074496  1
  O  O93  1  0.470252  0.249801  0.636880  1
  O  O94  1  0.976870  0.237196  0.634630  1
  O  O95  1  0.485143  0.274118  0.484379  1
  O  O96  1  0.442465  0.172760  0.826690  1
  O  O97  1  0.747220  0.315917  0.321078  1
  O  O98  1  0.006751  0.359506  0.072634  1
  O  O99  1  0.202314  0.164509  0.542411  1
  O  O100  1  0.847374  0.059654  0.887241  1
  O  O101  1  0.799009  0.093774  0.734979  1
  O  O102  1  0.309246  0.082247  0.731638  1
  O  O103  1  0.279946  0.249801  0.136880  1
  O  O104  1  0.785935  0.237196  0.134630  1
  O  O105  1  0.384775  0.172760  0.326690  1
  O  O106  1  0.633177  0.164509  0.042411  1
  O  O107  1  0.839186  0.014151  0.549637  1
  O  O108  1  0.092973  0.059654  0.387241  1
  O  O109  1  0.107217  0.093774  0.234979  1
  O  O110  1  0.608507  0.082247  0.231638  1
  O  O111  1  0.146663  0.014151  0.049637  1
