# generated using pymatgen
data_LiNiPO4
_symmetry_space_group_name_H-M   'P 1'
_cell_length_a   18.54606840
_cell_length_b   5.42462936
_cell_length_c   8.22762425
_cell_angle_alpha   90.00000000
_cell_angle_beta   90.00000000
_cell_angle_gamma   90.00000000
_symmetry_Int_Tables_number   1
_chemical_formula_structural   LiNiPO4
_chemical_formula_sum   'Li12 Ni12 P12 O48'
_cell_volume   827.74463946
_cell_formula_units_Z   12
loop_
 _symmetry_equiv_pos_site_id
 _symmetry_equiv_pos_as_xyz
  1  'x, y, z'
loop_
 _atom_site_type_symbol
 _atom_site_label
 _atom_site_symmetry_multiplicity
 _atom_site_fract_x
 _atom_site_fract_y
 _atom_site_fract_z
 _atom_site_occupancy
  Li  Li0  1  0.082252  0.249594  0.076288  1
  Li  Li1  1  0.084219  0.720696  0.578586  1
  Li  Li2  1  0.248729  0.240774  0.418448  1
  Li  Li3  1  0.251271  0.740774  0.918448  1
  Li  Li4  1  0.415781  0.220696  0.078586  1
  Li  Li5  1  0.417748  0.749594  0.576288  1
  Li  Li6  1  0.582252  0.249594  0.423712  1
  Li  Li7  1  0.584219  0.720696  0.921414  1
  Li  Li8  1  0.748729  0.240774  0.081552  1
  Li  Li9  1  0.751271  0.740774  0.581552  1
  Li  Li10  1  0.915781  0.220696  0.421414  1
  Li  Li11  1  0.917748  0.749594  0.923712  1
  Ni  Ni12  1  0.999696  0.233824  0.748816  1
  Ni  Ni13  1  0.166832  0.735758  0.248540  1
  Ni  Ni14  1  0.166535  0.237635  0.750031  1
  Ni  Ni15  1  0.333465  0.737635  0.250031  1
  Ni  Ni16  1  0.333168  0.235758  0.748540  1
  Ni  Ni17  1  0.500304  0.733824  0.248816  1
  Ni  Ni18  1  0.499696  0.233824  0.751184  1
  Ni  Ni19  1  0.666832  0.735758  0.251460  1
  Ni  Ni20  1  0.666535  0.237635  0.749969  1
  Ni  Ni21  1  0.833465  0.737635  0.249969  1
  Ni  Ni22  1  0.833168  0.235758  0.751460  1
  Ni  Ni23  1  0.000304  0.733824  0.251184  1
  P  P24  1  0.082857  0.231750  0.400011  1
  P  P25  1  0.083888  0.737988  0.900427  1
  P  P26  1  0.249496  0.237424  0.098507  1
  P  P27  1  0.250504  0.737424  0.598507  1
  P  P28  1  0.416112  0.237988  0.400427  1
  P  P29  1  0.417143  0.731750  0.900011  1
  P  P30  1  0.582857  0.231750  0.099989  1
  P  P31  1  0.583888  0.737988  0.599573  1
  P  P32  1  0.749496  0.237424  0.401493  1
  P  P33  1  0.750504  0.737424  0.901493  1
  P  P34  1  0.916112  0.237988  0.099573  1
  P  P35  1  0.917143  0.731750  0.599989  1
  O  O36  1  0.014367  0.232319  0.503586  1
  O  O37  1  0.016068  0.736315  0.006251  1
  O  O38  1  0.083329  0.967494  0.781794  1
  O  O39  1  0.083262  0.505784  0.783003  1
  O  O40  1  0.082984  0.462409  0.281390  1
  O  O41  1  0.083473  0.000787  0.282676  1
  O  O42  1  0.150871  0.236373  0.505196  1
  O  O43  1  0.152599  0.737590  0.003171  1
  O  O44  1  0.181012  0.238419  0.995011  1
  O  O45  1  0.182401  0.734850  0.493718  1
  O  O46  1  0.250002  0.968572  0.716398  1
  O  O47  1  0.250490  0.507486  0.717273  1
  O  O48  1  0.249510  0.007486  0.217273  1
  O  O49  1  0.249998  0.468572  0.216398  1
  O  O50  1  0.317599  0.234850  0.993718  1
  O  O51  1  0.318988  0.738419  0.495011  1
  O  O52  1  0.347401  0.237590  0.503171  1
  O  O53  1  0.349129  0.736373  0.005196  1
  O  O54  1  0.416527  0.500787  0.782676  1
  O  O55  1  0.417016  0.962409  0.781390  1
  O  O56  1  0.416738  0.005784  0.283003  1
  O  O57  1  0.416671  0.467494  0.281794  1
  O  O58  1  0.483932  0.236315  0.506251  1
  O  O59  1  0.485633  0.732319  0.003586  1
  O  O60  1  0.514367  0.232319  0.996414  1
  O  O61  1  0.516068  0.736315  0.493749  1
  O  O62  1  0.583329  0.967494  0.718206  1
  O  O63  1  0.583262  0.505784  0.716997  1
  O  O64  1  0.582984  0.462409  0.218610  1
  O  O65  1  0.583473  0.000787  0.217324  1
  O  O66  1  0.650871  0.236373  0.994804  1
  O  O67  1  0.652599  0.737590  0.496829  1
  O  O68  1  0.681012  0.238419  0.504989  1
  O  O69  1  0.682401  0.734850  0.006282  1
  O  O70  1  0.750002  0.968572  0.783602  1
  O  O71  1  0.750490  0.507486  0.782727  1
  O  O72  1  0.749510  0.007486  0.282727  1
  O  O73  1  0.749998  0.468572  0.283602  1
  O  O74  1  0.817599  0.234850  0.506282  1
  O  O75  1  0.818988  0.738419  0.004989  1
  O  O76  1  0.847401  0.237590  0.996829  1
  O  O77  1  0.849129  0.736373  0.494804  1
  O  O78  1  0.916527  0.500787  0.717324  1
  O  O79  1  0.917016  0.962409  0.718610  1
  O  O80  1  0.916738  0.005784  0.216997  1
  O  O81  1  0.916671  0.467494  0.218206  1
  O  O82  1  0.983932  0.236315  0.993749  1
  O  O83  1  0.985633  0.732319  0.496414  1
