# generated using pymatgen
data_Zn3In2O6
_symmetry_space_group_name_H-M   'P 1'
_cell_length_a   14.51476483
_cell_length_b   6.83546361
_cell_length_c   5.91031636
_cell_angle_alpha   89.91008438
_cell_angle_beta   85.97606334
_cell_angle_gamma   83.11668312
_symmetry_Int_Tables_number   1
_chemical_formula_structural   Zn3In2O6
_chemical_formula_sum   'Zn12 In8 O24'
_cell_volume   580.71735081
_cell_formula_units_Z   4
loop_
 _symmetry_equiv_pos_site_id
 _symmetry_equiv_pos_as_xyz
  1  'x, y, z'
loop_
 _atom_site_type_symbol
 _atom_site_label
 _atom_site_symmetry_multiplicity
 _atom_site_fract_x
 _atom_site_fract_y
 _atom_site_fract_z
 _atom_site_occupancy
  Zn  Zn0  1  0.214271  0.193035  0.129640  1
  Zn  Zn1  1  0.595507  0.101571  0.062462  1
  Zn  Zn2  1  0.214706  0.448813  0.627526  1
  Zn  Zn3  1  0.594514  0.350712  0.566996  1
  Zn  Zn4  1  0.788590  0.307730  0.868821  1
  Zn  Zn5  1  0.212512  0.700078  0.134131  1
  Zn  Zn6  1  0.394793  0.658364  0.432891  1
  Zn  Zn7  1  0.785127  0.553257  0.371849  1
  Zn  Zn8  1  0.214886  0.943094  0.633082  1
  Zn  Zn9  1  0.592122  0.851378  0.569957  1
  Zn  Zn10  1  0.394670  0.894944  0.932366  1
  Zn  Zn11  1  0.785119  0.799713  0.868022  1
  In  In12  1  0.002021  0.999231  0.996564  1
  In  In13  1  0.408112  0.138059  0.433267  1
  In  In14  1  0.002584  0.250654  0.500386  1
  In  In15  1  0.777202  0.055782  0.369826  1
  In  In16  1  0.999861  0.500412  0.001198  1
  In  In17  1  0.405759  0.405106  0.931334  1
  In  In18  1  0.593824  0.606741  0.071555  1
  In  In19  1  0.001518  0.747445  0.501035  1
  O  O20  1  0.423628  0.131579  0.084936  1
  O  O21  1  0.075036  0.230449  0.154140  1
  O  O22  1  0.254530  0.185144  0.458553  1
  O  O23  1  0.745990  0.066885  0.027356  1
  O  O24  1  0.579760  0.105159  0.399987  1
  O  O25  1  0.925760  0.019475  0.345293  1
  O  O26  1  0.424648  0.403680  0.580200  1
  O  O27  1  0.075721  0.480887  0.656341  1
  O  O28  1  0.254341  0.438612  0.958756  1
  O  O29  1  0.744840  0.321303  0.552080  1
  O  O30  1  0.566360  0.352739  0.900914  1
  O  O31  1  0.927129  0.268112  0.845499  1
  O  O32  1  0.431605  0.655327  0.105796  1
  O  O33  1  0.073647  0.731306  0.154451  1
  O  O34  1  0.747998  0.560721  0.044209  1
  O  O35  1  0.252245  0.687566  0.455890  1
  O  O36  1  0.925716  0.517653  0.347778  1
  O  O37  1  0.583717  0.603772  0.418570  1
  O  O38  1  0.426827  0.878807  0.607156  1
  O  O39  1  0.075142  0.980179  0.651080  1
  O  O40  1  0.251822  0.934903  0.958560  1
  O  O41  1  0.746765  0.804661  0.546982  1
  O  O42  1  0.583617  0.865479  0.896660  1
  O  O43  1  0.925452  0.769484  0.845905  1
