# generated using pymatgen
data_Li2VF6
_symmetry_space_group_name_H-M   'P 1'
_cell_length_a   5.12966589
_cell_length_b   5.02133494
_cell_length_c   15.08974874
_cell_angle_alpha   90.00000000
_cell_angle_beta   96.38744102
_cell_angle_gamma   90.00000000
_symmetry_Int_Tables_number   1
_chemical_formula_structural   Li2VF6
_chemical_formula_sum   'Li8 V4 F24'
_cell_volume   386.26549935
_cell_formula_units_Z   4
loop_
 _symmetry_equiv_pos_site_id
 _symmetry_equiv_pos_as_xyz
  1  'x, y, z'
loop_
 _atom_site_type_symbol
 _atom_site_label
 _atom_site_symmetry_multiplicity
 _atom_site_fract_x
 _atom_site_fract_y
 _atom_site_fract_z
 _atom_site_occupancy
  Li  Li0  1  0.255664  0.511140  0.751175  1
  Li  Li1  1  0.321477  0.021325  0.912397  1
  Li  Li2  1  0.255664  0.988860  0.251175  1
  Li  Li3  1  0.321477  0.478675  0.412397  1
  Li  Li4  1  0.678523  0.521325  0.587603  1
  Li  Li5  1  0.744336  0.011140  0.748825  1
  Li  Li6  1  0.678523  0.978675  0.087603  1
  Li  Li7  1  0.744336  0.488860  0.248825  1
  V  V8  1  0.173483  0.061316  0.599795  1
  V  V9  1  0.173483  0.438684  0.099795  1
  V  V10  1  0.826517  0.561316  0.900205  1
  V  V11  1  0.826517  0.938684  0.400205  1
  F  F12  1  0.019225  0.823459  0.839830  1
  F  F13  1  0.073261  0.338438  0.847325  1
  F  F14  1  0.130379  0.677448  0.988371  1
  F  F15  1  0.019225  0.676541  0.339830  1
  F  F16  1  0.073261  0.161562  0.347325  1
  F  F17  1  0.130379  0.822552  0.488371  1
  F  F18  1  0.360143  0.294947  0.532124  1
  F  F19  1  0.400627  0.780312  0.627708  1
  F  F20  1  0.432721  0.210398  0.695372  1
  F  F21  1  0.567279  0.710398  0.804628  1
  F  F22  1  0.599373  0.280312  0.872292  1
  F  F23  1  0.639857  0.794947  0.967876  1
  F  F24  1  0.360143  0.205053  0.032124  1
  F  F25  1  0.400627  0.719688  0.127708  1
  F  F26  1  0.432721  0.289602  0.195372  1
  F  F27  1  0.567279  0.789602  0.304628  1
  F  F28  1  0.599373  0.219688  0.372292  1
  F  F29  1  0.639857  0.705053  0.467876  1
  F  F30  1  0.869621  0.177448  0.511629  1
  F  F31  1  0.926739  0.838438  0.652675  1
  F  F32  1  0.980775  0.323459  0.660170  1
  F  F33  1  0.869621  0.322552  0.011629  1
  F  F34  1  0.926739  0.661562  0.152675  1
  F  F35  1  0.980775  0.176541  0.160170  1
