# generated using pymatgen
data_Li3NiPCO7
_symmetry_space_group_name_H-M   'P 1'
_cell_length_a   8.50219526
_cell_length_b   9.76934357
_cell_length_c   6.34142763
_cell_angle_alpha   90.00000000
_cell_angle_beta   90.00000000
_cell_angle_gamma   84.95494476
_symmetry_Int_Tables_number   1
_chemical_formula_structural   Li3NiPCO7
_chemical_formula_sum   'Li12 Ni4 P4 C4 O28'
_cell_volume   524.68386722
_cell_formula_units_Z   4
loop_
 _symmetry_equiv_pos_site_id
 _symmetry_equiv_pos_as_xyz
  1  'x, y, z'
loop_
 _atom_site_type_symbol
 _atom_site_label
 _atom_site_symmetry_multiplicity
 _atom_site_fract_x
 _atom_site_fract_y
 _atom_site_fract_z
 _atom_site_occupancy
  Li  Li0  1  0.100139  0.383355  0.251300  1
  Li  Li1  1  0.100139  0.883355  0.248700  1
  Li  Li2  1  0.279561  0.119356  0.009702  1
  Li  Li3  1  0.279561  0.619356  0.490298  1
  Li  Li4  1  0.347854  0.390177  0.747290  1
  Li  Li5  1  0.347854  0.890177  0.752710  1
  Li  Li6  1  0.652146  0.109823  0.247290  1
  Li  Li7  1  0.652146  0.609823  0.252710  1
  Li  Li8  1  0.720439  0.380644  0.509702  1
  Li  Li9  1  0.720439  0.880644  0.990298  1
  Li  Li10  1  0.899861  0.116645  0.751300  1
  Li  Li11  1  0.899861  0.616645  0.748700  1
  Ni  Ni12  1  0.273008  0.125168  0.490551  1
  Ni  Ni13  1  0.273008  0.625168  0.009449  1
  Ni  Ni14  1  0.726993  0.374832  0.990551  1
  Ni  Ni15  1  0.726993  0.874832  0.509449  1
  P  P16  1  0.409158  0.360541  0.251882  1
  P  P17  1  0.409158  0.860541  0.248118  1
  P  P18  1  0.590842  0.139459  0.751882  1
  P  P19  1  0.590842  0.639459  0.748118  1
  C  C20  1  0.038614  0.352266  0.750471  1
  C  C21  1  0.038614  0.852266  0.749529  1
  C  C22  1  0.961386  0.147734  0.250471  1
  C  C23  1  0.961386  0.647734  0.249529  1
  O  O24  1  0.069287  0.477054  0.755669  1
  O  O25  1  0.110001  0.180411  0.262440  1
  O  O26  1  0.069287  0.977054  0.744331  1
  O  O27  1  0.148330  0.251510  0.733493  1
  O  O28  1  0.110001  0.680411  0.237560  1
  O  O29  1  0.148330  0.751510  0.766507  1
  O  O30  1  0.308948  0.415808  0.057996  1
  O  O31  1  0.315547  0.417193  0.444515  1
  O  O32  1  0.315547  0.917193  0.055485  1
  O  O33  1  0.308948  0.915808  0.442004  1
  O  O34  1  0.419913  0.095521  0.741140  1
  O  O35  1  0.418983  0.199352  0.256202  1
  O  O36  1  0.419913  0.595521  0.758860  1
  O  O37  1  0.418983  0.699352  0.243798  1
  O  O38  1  0.581017  0.300648  0.756202  1
  O  O39  1  0.580087  0.404479  0.241140  1
  O  O40  1  0.581017  0.800648  0.743798  1
  O  O41  1  0.580087  0.904479  0.258860  1
  O  O42  1  0.684453  0.082807  0.944515  1
  O  O43  1  0.691052  0.084192  0.557996  1
  O  O44  1  0.684453  0.582807  0.555485  1
  O  O45  1  0.691052  0.584192  0.942004  1
  O  O46  1  0.851670  0.248490  0.233493  1
  O  O47  1  0.889999  0.319589  0.762440  1
  O  O48  1  0.851670  0.748490  0.266507  1
  O  O49  1  0.930713  0.022946  0.255669  1
  O  O50  1  0.889999  0.819589  0.737560  1
  O  O51  1  0.930713  0.522946  0.244331  1
