# generated using pymatgen
data_CsTaGeS5
_symmetry_space_group_name_H-M   'P 1'
_cell_length_a   7.06243972
_cell_length_b   7.48602722
_cell_length_c   9.54045012
_cell_angle_alpha   67.34803610
_cell_angle_beta   77.48155578
_cell_angle_gamma   74.84190190
_symmetry_Int_Tables_number   1
_chemical_formula_structural   CsTaGeS5
_chemical_formula_sum   'Cs2 Ta2 Ge2 S10'
_cell_volume   445.46650862
_cell_formula_units_Z   2
loop_
 _symmetry_equiv_pos_site_id
 _symmetry_equiv_pos_as_xyz
  1  'x, y, z'
loop_
 _atom_site_type_symbol
 _atom_site_label
 _atom_site_symmetry_multiplicity
 _atom_site_fract_x
 _atom_site_fract_y
 _atom_site_fract_z
 _atom_site_occupancy
  Cs  Cs0  1  0.605308  0.351301  0.312321  1
  Cs  Cs1  1  0.394689  0.648696  0.687681  1
  Ta  Ta2  1  0.239753  0.028001  0.004256  1
  Ta  Ta3  1  0.760241  0.971999  0.995741  1
  Ge  Ge4  1  0.977191  0.702380  0.372371  1
  Ge  Ge5  1  0.022804  0.297624  0.627627  1
  S  S6  1  0.070034  0.760800  0.013609  1
  S  S7  1  0.437995  0.216334  0.031058  1
  S  S8  1  0.690753  0.861625  0.286269  1
  S  S9  1  0.210795  0.880332  0.288992  1
  S  S10  1  0.076849  0.390497  0.366420  1
  S  S11  1  0.923163  0.609498  0.633584  1
  S  S12  1  0.789207  0.119674  0.711009  1
  S  S13  1  0.309248  0.138377  0.713732  1
  S  S14  1  0.562006  0.783663  0.968942  1
  S  S15  1  0.929966  0.239200  0.986389  1
