# generated using pymatgen
data_Na6Cr2B4SO16
_symmetry_space_group_name_H-M   'P 1'
_cell_length_a   9.93031823
_cell_length_b   9.93031751
_cell_length_c   9.93031771
_cell_angle_alpha   90.00000117
_cell_angle_beta   60.00000165
_cell_angle_gamma   60.00000104
_symmetry_Int_Tables_number   1
_chemical_formula_structural   Na6Cr2B4SO16
_chemical_formula_sum   'Na12 Cr4 B8 S2 O32'
_cell_volume   692.42774272
_cell_formula_units_Z   2
loop_
 _symmetry_equiv_pos_site_id
 _symmetry_equiv_pos_as_xyz
  1  'x, y, z'
loop_
 _atom_site_type_symbol
 _atom_site_label
 _atom_site_symmetry_multiplicity
 _atom_site_fract_x
 _atom_site_fract_y
 _atom_site_fract_z
 _atom_site_occupancy
  Na  Na0  1  0.750000  0.906333  0.656333  1
  Na  Na1  1  0.687335  0.656333  0.906333  1
  Na  Na2  1  0.750000  0.343667  0.656333  1
  Na  Na3  1  0.750000  0.906333  0.093667  1
  Na  Na4  1  0.812665  0.093667  0.343667  1
  Na  Na5  1  0.250000  0.656333  0.906333  1
  Na  Na6  1  0.187335  0.906333  0.656333  1
  Na  Na7  1  0.750000  0.343667  0.093667  1
  Na  Na8  1  0.250000  0.656333  0.343667  1
  Na  Na9  1  0.250000  0.093667  0.906333  1
  Na  Na10  1  0.312665  0.343667  0.093667  1
  Na  Na11  1  0.250000  0.093667  0.343667  1
  Cr  Cr12  1  0.500000  0.500000  0.500000  1
  Cr  Cr13  1  0.500000  0.000000  0.500000  1
  Cr  Cr14  1  0.000000  0.500000  0.500000  1
  Cr  Cr15  1  0.000000  0.500000  0.000000  1
  B  B16  1  0.923775  0.711887  0.288113  1
  B  B17  1  0.923775  0.364338  0.288113  1
  B  B18  1  0.576225  0.711887  0.635662  1
  B  B19  1  0.576225  0.711887  0.288113  1
  B  B20  1  0.423775  0.288113  0.711887  1
  B  B21  1  0.423775  0.288113  0.364338  1
  B  B22  1  0.076225  0.635662  0.711887  1
  B  B23  1  0.076225  0.288113  0.711887  1
  S  S24  1  0.750000  0.125000  0.875000  1
  S  S25  1  0.250000  0.875000  0.125000  1
  O  O26  1  0.954144  0.641865  0.679123  1
  O  O27  1  0.954144  0.403991  0.866733  1
  O  O28  1  0.962741  0.679123  0.403991  1
  O  O29  1  0.775131  0.866733  0.320877  1
  O  O30  1  0.873163  0.063419  0.936582  1
  O  O31  1  0.724869  0.596009  0.641865  1
  O  O32  1  0.537259  0.866733  0.641865  1
  O  O33  1  0.873163  0.063419  0.690254  1
  O  O34  1  0.626837  0.309746  0.936582  1
  O  O35  1  0.962741  0.358135  0.133267  1
  O  O36  1  0.775131  0.358135  0.403991  1
  O  O37  1  0.626837  0.063419  0.936582  1
  O  O38  1  0.724869  0.679123  0.133267  1
  O  O39  1  0.454144  0.679123  0.641865  1
  O  O40  1  0.454144  0.866733  0.403991  1
  O  O41  1  0.462741  0.403991  0.679123  1
  O  O42  1  0.537259  0.596009  0.320877  1
  O  O43  1  0.545856  0.133267  0.596009  1
  O  O44  1  0.545856  0.320877  0.358135  1
  O  O45  1  0.275131  0.320877  0.866733  1
  O  O46  1  0.373163  0.936582  0.063419  1
  O  O47  1  0.224869  0.641865  0.596009  1
  O  O48  1  0.037259  0.641865  0.866733  1
  O  O49  1  0.126836  0.936582  0.309746  1
  O  O50  1  0.373163  0.690254  0.063419  1
  O  O51  1  0.462741  0.133267  0.358135  1
  O  O52  1  0.275131  0.403991  0.358135  1
  O  O53  1  0.126836  0.936582  0.063419  1
  O  O54  1  0.224869  0.133267  0.679123  1
  O  O55  1  0.037259  0.320877  0.596009  1
  O  O56  1  0.045856  0.596009  0.133267  1
  O  O57  1  0.045856  0.358135  0.320877  1
