# generated using pymatgen
data_LiMnPO4
_symmetry_space_group_name_H-M   'P 1'
_cell_length_a   8.59756503
_cell_length_b   8.59761822
_cell_length_c   7.48912007
_cell_angle_alpha   90.00306380
_cell_angle_beta   89.99450791
_cell_angle_gamma   119.99969261
_symmetry_Int_Tables_number   1
_chemical_formula_structural   LiMnPO4
_chemical_formula_sum   'Li6 Mn6 P6 O24'
_cell_volume   479.42027176
_cell_formula_units_Z   6
loop_
 _symmetry_equiv_pos_site_id
 _symmetry_equiv_pos_as_xyz
  1  'x, y, z'
loop_
 _atom_site_type_symbol
 _atom_site_label
 _atom_site_symmetry_multiplicity
 _atom_site_fract_x
 _atom_site_fract_y
 _atom_site_fract_z
 _atom_site_occupancy
  Li  Li0  1  0.016233  0.679568  0.413910  1
  Li  Li1  1  0.320434  0.336675  0.413856  1
  Li  Li2  1  0.663317  0.983760  0.413885  1
  Li  Li3  1  0.336667  0.016234  0.913896  1
  Li  Li4  1  0.679565  0.663326  0.913894  1
  Li  Li5  1  0.983771  0.320446  0.913866  1
  Mn  Mn6  1  0.333332  0.666688  0.274543  1
  Mn  Mn7  1  0.333318  0.666663  0.698726  1
  Mn  Mn8  1  0.999965  0.000010  0.193440  1
  Mn  Mn9  1  0.999943  0.000007  0.693420  1
  Mn  Mn10  1  0.666667  0.333343  0.774545  1
  Mn  Mn11  1  0.666652  0.333319  0.198724  1
  P  P12  1  0.033606  0.684695  0.000222  1
  P  P13  1  0.315314  0.348922  0.000182  1
  P  P14  1  0.651083  0.966393  0.000166  1
  P  P15  1  0.348907  0.033593  0.500195  1
  P  P16  1  0.684672  0.651067  0.500186  1
  P  P17  1  0.966377  0.315308  0.500166  1
  O  O18  1  0.138551  0.931113  0.493462  1
  O  O19  1  0.136229  0.727550  0.179865  1
  O  O20  1  0.173203  0.750985  0.847105  1
  O  O21  1  0.107724  0.520351  0.488169  1
  O  O22  1  0.412628  0.892282  0.488201  1
  O  O23  1  0.068853  0.207410  0.493327  1
  O  O24  1  0.249022  0.422184  0.847044  1
  O  O25  1  0.272513  0.408752  0.179811  1
  O  O26  1  0.207432  0.138562  0.993421  1
  O  O27  1  0.591294  0.863815  0.179823  1
  O  O28  1  0.577767  0.826791  0.847065  1
  O  O29  1  0.479642  0.587359  0.488204  1
  O  O30  1  0.520356  0.412626  0.988180  1
  O  O31  1  0.422175  0.173164  0.347086  1
  O  O32  1  0.408727  0.136229  0.679858  1
  O  O33  1  0.792559  0.861426  0.493355  1
  O  O34  1  0.727509  0.591300  0.679842  1
  O  O35  1  0.750964  0.577752  0.347083  1
  O  O36  1  0.931115  0.792559  0.993429  1
  O  O37  1  0.587373  0.107732  0.988171  1
  O  O38  1  0.892304  0.479654  0.988231  1
  O  O39  1  0.826804  0.249016  0.347056  1
  O  O40  1  0.863794  0.272507  0.679812  1
  O  O41  1  0.861437  0.068857  0.993321  1
