# generated using pymatgen
data_Li2CuP3(HO5)2
_symmetry_space_group_name_H-M   'P 1'
_cell_length_a   8.23532135
_cell_length_b   7.32518004
_cell_length_c   7.64629765
_cell_angle_alpha   108.50232261
_cell_angle_beta   108.61083049
_cell_angle_gamma   73.79031981
_symmetry_Int_Tables_number   1
_chemical_formula_structural   Li2CuP3(HO5)2
_chemical_formula_sum   'Li4 Cu2 P6 H4 O20'
_cell_volume   406.34778682
_cell_formula_units_Z   2
loop_
 _symmetry_equiv_pos_site_id
 _symmetry_equiv_pos_as_xyz
  1  'x, y, z'
loop_
 _atom_site_type_symbol
 _atom_site_label
 _atom_site_symmetry_multiplicity
 _atom_site_fract_x
 _atom_site_fract_y
 _atom_site_fract_z
 _atom_site_occupancy
  Li  Li0  1  0.010901  0.679920  0.402131  1
  Li  Li1  1  0.373402  0.582701  0.664673  1
  Li  Li2  1  0.626598  0.417299  0.335327  1
  Li  Li3  1  0.989099  0.320080  0.597869  1
  Cu  Cu4  1  0.361424  0.287406  0.937527  1
  Cu  Cu5  1  0.638576  0.712594  0.062473  1
  P  P6  1  0.085455  0.704447  0.888489  1
  P  P7  1  0.281710  0.248366  0.290419  1
  P  P8  1  0.329379  0.811885  0.276922  1
  P  P9  1  0.670621  0.188115  0.723078  1
  P  P10  1  0.718290  0.751634  0.709581  1
  P  P11  1  0.914545  0.295553  0.111511  1
  H  H12  1  0.163234  0.006572  0.758911  1
  H  H13  1  0.265252  0.000250  0.622216  1
  H  H14  1  0.734748  -0.000250  0.377784  1
  H  H15  1  0.836766  0.993428  0.241089  1
  O  O16  1  0.196551  0.096827  0.708835  1
  O  O17  1  0.118473  0.486809  0.859298  1
  O  O18  1  0.117765  0.205758  0.112159  1
  O  O19  1  0.139623  0.775415  0.753855  1
  O  O20  1  0.219677  0.403830  0.452484  1
  O  O21  1  0.348602  0.040386  0.346345  1
  O  O22  1  0.154451  0.818947  0.106330  1
  O  O23  1  0.517495  0.318479  0.797198  1
  O  O24  1  0.290283  0.767606  0.436380  1
  O  O25  1  0.417081  0.282413  0.215818  1
  O  O26  1  0.582920  0.717587  0.784182  1
  O  O27  1  0.709717  0.232394  0.563620  1
  O  O28  1  0.482505  0.681521  0.202802  1
  O  O29  1  0.845549  0.181053  0.893670  1
  O  O30  1  0.651398  0.959614  0.653655  1
  O  O31  1  0.780323  0.596170  0.547516  1
  O  O32  1  0.860377  0.224585  0.246145  1
  O  O33  1  0.882235  0.794242  0.887841  1
  O  O34  1  0.881527  0.513192  0.140702  1
  O  O35  1  0.803449  0.903173  0.291165  1
