# generated using pymatgen
data_Ca2SnS4
_symmetry_space_group_name_H-M   'P 1'
_cell_length_a   7.07646431
_cell_length_b   7.08181182
_cell_length_c   7.81828777
_cell_angle_alpha   90.00000000
_cell_angle_beta   116.90795303
_cell_angle_gamma   90.00000000
_symmetry_Int_Tables_number   1
_chemical_formula_structural   Ca2SnS4
_chemical_formula_sum   'Ca4 Sn2 S8'
_cell_volume   349.38803735
_cell_formula_units_Z   2
loop_
 _symmetry_equiv_pos_site_id
 _symmetry_equiv_pos_as_xyz
  1  'x, y, z'
loop_
 _atom_site_type_symbol
 _atom_site_label
 _atom_site_symmetry_multiplicity
 _atom_site_fract_x
 _atom_site_fract_y
 _atom_site_fract_z
 _atom_site_occupancy
  Ca  Ca0  1  0.057601  0.518815  0.294755  1
  Ca  Ca1  1  0.737154  0.981185  0.294755  1
  Ca  Ca2  1  0.762846  0.481185  0.705245  1
  Ca  Ca3  1  0.442399  0.018815  0.705245  1
  Sn  Sn4  1  0.464806  0.500000  0.000000  1
  Sn  Sn5  1  0.035194  0.000000  1.000000  1
  S  S6  1  0.175743  0.750000  0.851486  1
  S  S7  1  0.324257  0.250000  0.148514  1
  S  S8  1  0.779249  0.250000  0.058498  1
  S  S9  1  0.720751  0.750000  0.941502  1
  S  S10  1  0.340334  0.397039  0.655746  1
  S  S11  1  0.815412  0.102961  0.655746  1
  S  S12  1  0.684588  0.602961  0.344254  1
  S  S13  1  0.159666  0.897039  0.344254  1
