# generated using pymatgen
data_FeS2
_symmetry_space_group_name_H-M   'P 1'
_cell_length_a   6.41914259
_cell_length_b   5.75574021
_cell_length_c   5.67364274
_cell_angle_alpha   90.00000000
_cell_angle_beta   90.00000000
_cell_angle_gamma   87.82262362
_symmetry_Int_Tables_number   1
_chemical_formula_structural   FeS2
_chemical_formula_sum   'Fe4 S8'
_cell_volume   209.47225922
_cell_formula_units_Z   4
loop_
 _symmetry_equiv_pos_site_id
 _symmetry_equiv_pos_as_xyz
  1  'x, y, z'
loop_
 _atom_site_type_symbol
 _atom_site_label
 _atom_site_symmetry_multiplicity
 _atom_site_fract_x
 _atom_site_fract_y
 _atom_site_fract_z
 _atom_site_occupancy
  Fe  Fe0  1  0.392271  0.010356  0.000687  1
  Fe  Fe1  1  0.392271  0.510356  0.499313  1
  Fe  Fe2  1  0.607937  0.490693  0.000873  1
  Fe  Fe3  1  0.607937  0.990693  0.499127  1
  S  S4  1  0.727163  0.353084  0.362957  1
  S  S5  1  0.271802  0.879269  0.639212  1
  S  S6  1  0.727163  0.853084  0.137043  1
  S  S7  1  0.271802  0.379269  0.860788  1
  S  S8  1  0.272910  0.647918  0.136977  1
  S  S9  1  0.272910  0.147918  0.363023  1
  S  S10  1  0.727917  0.621880  0.639395  1
  S  S11  1  0.727917  0.121880  0.860605  1
