# generated using pymatgen
data_LiMnPO4
_symmetry_space_group_name_H-M   'P 1'
_cell_length_a   6.30737141
_cell_length_b   5.39692305
_cell_length_c   9.05779596
_cell_angle_alpha   90.00000000
_cell_angle_beta   90.00000000
_cell_angle_gamma   90.00000000
_symmetry_Int_Tables_number   1
_chemical_formula_structural   LiMnPO4
_chemical_formula_sum   'Li4 Mn4 P4 O16'
_cell_volume   308.33098082
_cell_formula_units_Z   4
loop_
 _symmetry_equiv_pos_site_id
 _symmetry_equiv_pos_as_xyz
  1  'x, y, z'
loop_
 _atom_site_type_symbol
 _atom_site_label
 _atom_site_symmetry_multiplicity
 _atom_site_fract_x
 _atom_site_fract_y
 _atom_site_fract_z
 _atom_site_occupancy
  Li  Li0  1  0.182842  0.250000  0.994713  1
  Li  Li1  1  0.317158  0.750000  0.494713  1
  Li  Li2  1  0.682842  0.250000  0.505287  1
  Li  Li3  1  0.817158  0.750000  0.005287  1
  Mn  Mn4  1  0.984147  0.750000  0.712879  1
  Mn  Mn5  1  0.515853  0.250000  0.212879  1
  Mn  Mn6  1  0.484147  0.750000  0.787121  1
  Mn  Mn7  1  0.015853  0.250000  0.287121  1
  P  P8  1  0.218016  0.250000  0.590354  1
  P  P9  1  0.281984  0.750000  0.090354  1
  P  P10  1  0.718016  0.250000  0.909646  1
  P  P11  1  0.781984  0.750000  0.409646  1
  O  O12  1  0.988480  0.250000  0.531162  1
  O  O13  1  0.125074  0.750000  0.958534  1
  O  O14  1  0.245087  0.988973  0.185166  1
  O  O15  1  0.245087  0.511027  0.185166  1
  O  O16  1  0.254913  0.011027  0.685166  1
  O  O17  1  0.254913  0.488973  0.685166  1
  O  O18  1  0.374926  0.250000  0.458534  1
  O  O19  1  0.511520  0.750000  0.031162  1
  O  O20  1  0.488480  0.250000  0.968838  1
  O  O21  1  0.625074  0.750000  0.541466  1
  O  O22  1  0.745087  0.511027  0.314834  1
  O  O23  1  0.745087  0.988973  0.314834  1
  O  O24  1  0.754913  0.011027  0.814834  1
  O  O25  1  0.754913  0.488973  0.814834  1
  O  O26  1  0.874926  0.250000  0.041466  1
  O  O27  1  0.011520  0.750000  0.468838  1
