# generated using pymatgen
data_CaSnS3
_symmetry_space_group_name_H-M   'P 1'
_cell_length_a   9.97482775
_cell_length_b   9.97468565
_cell_length_c   9.97467270
_cell_angle_alpha   90.00005066
_cell_angle_beta   90.00049635
_cell_angle_gamma   90.00051823
_symmetry_Int_Tables_number   1
_chemical_formula_structural   CaSnS3
_chemical_formula_sum   'Ca8 Sn8 S24'
_cell_volume   992.43775291
_cell_formula_units_Z   8
loop_
 _symmetry_equiv_pos_site_id
 _symmetry_equiv_pos_as_xyz
  1  'x, y, z'
loop_
 _atom_site_type_symbol
 _atom_site_label
 _atom_site_symmetry_multiplicity
 _atom_site_fract_x
 _atom_site_fract_y
 _atom_site_fract_z
 _atom_site_occupancy
  Ca  Ca0  1  0.754029  0.254031  0.245971  1
  Ca  Ca1  1  0.254036  0.245967  0.754033  1
  Ca  Ca2  1  0.245961  0.754036  0.254030  1
  Ca  Ca3  1  0.745967  0.745959  0.745969  1
  Ca  Ca4  1  0.209608  0.709605  0.790401  1
  Ca  Ca5  1  0.709601  0.790395  0.209603  1
  Ca  Ca6  1  0.790397  0.209603  0.709604  1
  Ca  Ca7  1  0.290393  0.290395  0.290394  1
  Sn  Sn8  1  0.515948  0.015967  0.484046  1
  Sn  Sn9  1  0.015952  0.484056  0.515968  1
  Sn  Sn10  1  0.484056  0.515941  0.015945  1
  Sn  Sn11  1  0.984043  0.984046  0.984045  1
  Sn  Sn12  1  0.981456  0.481444  0.018586  1
  Sn  Sn13  1  0.481437  0.018543  0.981439  1
  Sn  Sn14  1  0.018571  0.981444  0.481435  1
  Sn  Sn15  1  0.518543  0.518587  0.518542  1
  S  S16  1  0.537578  0.275372  0.432946  1
  S  S17  1  0.567048  0.037578  0.224637  1
  S  S18  1  0.775363  0.067047  0.462417  1
  S  S19  1  0.037583  0.224643  0.567055  1
  S  S20  1  0.067061  0.462418  0.775373  1
  S  S21  1  0.275362  0.432951  0.537579  1
  S  S22  1  0.462414  0.775354  0.067054  1
  S  S23  1  0.432939  0.537581  0.275355  1
  S  S24  1  0.224647  0.567048  0.037584  1
  S  S25  1  0.962422  0.724632  0.932949  1
  S  S26  1  0.932943  0.962415  0.724637  1
  S  S27  1  0.724630  0.932942  0.962417  1
  S  S28  1  0.601057  0.773506  0.492576  1
  S  S29  1  0.507420  0.101059  0.726505  1
  S  S30  1  0.273499  0.007426  0.398932  1
  S  S31  1  0.101069  0.726508  0.507426  1
  S  S32  1  0.007423  0.398942  0.273508  1
  S  S33  1  0.773496  0.492576  0.601050  1
  S  S34  1  0.398946  0.273490  0.007421  1
  S  S35  1  0.492578  0.601057  0.773494  1
  S  S36  1  0.726504  0.507420  0.101056  1
  S  S37  1  0.898948  0.226501  0.992580  1
  S  S38  1  0.992576  0.898942  0.226503  1
  S  S39  1  0.226497  0.992574  0.898937  1
