# generated using pymatgen
data_Na6U(SO5)4
_symmetry_space_group_name_H-M   'P 1'
_cell_length_a   5.61619651
_cell_length_b   11.41531282
_cell_length_c   14.19182711
_cell_angle_alpha   90.73281403
_cell_angle_beta   93.26595295
_cell_angle_gamma   100.25887533
_symmetry_Int_Tables_number   1
_chemical_formula_structural   Na6U(SO5)4
_chemical_formula_sum   'Na12 U2 S8 O40'
_cell_volume   893.60376468
_cell_formula_units_Z   2
loop_
 _symmetry_equiv_pos_site_id
 _symmetry_equiv_pos_as_xyz
  1  'x, y, z'
loop_
 _atom_site_type_symbol
 _atom_site_label
 _atom_site_symmetry_multiplicity
 _atom_site_fract_x
 _atom_site_fract_y
 _atom_site_fract_z
 _atom_site_occupancy
  Na  Na0  1  0.854044  0.764924  0.421063  1
  Na  Na1  1  0.145956  0.235076  0.578937  1
  Na  Na2  1  0.234920  0.769086  0.247361  1
  Na  Na3  1  0.765080  0.230914  0.752639  1
  Na  Na4  1  0.253103  0.463859  0.414826  1
  Na  Na5  1  0.746897  0.536141  0.585174  1
  Na  Na6  1  0.283986  0.042444  0.107904  1
  Na  Na7  1  0.716014  0.957556  0.892096  1
  Na  Na8  1  0.652399  0.771371  0.093684  1
  Na  Na9  1  0.347601  0.228629  0.906316  1
  Na  Na10  1  0.500000  0.000000  0.500000  1
  Na  Na11  1  0.000000  0.500000  0.000000  1
  U  U12  1  0.259494  0.709525  0.757261  1
  U  U13  1  0.740506  0.290475  0.242739  1
  S  S14  1  0.300520  0.437002  0.748909  1
  S  S15  1  0.699480  0.562998  0.251091  1
  S  S16  1  0.313752  0.713589  0.507190  1
  S  S17  1  0.686248  0.286411  0.492810  1
  S  S18  1  0.149468  0.790738  0.995211  1
  S  S19  1  0.850532  0.209262  0.004789  1
  S  S20  1  0.778295  0.970182  0.256197  1
  S  S21  1  0.221705  0.029818  0.743803  1
  O  O22  1  0.960150  0.647244  0.706083  1
  O  O23  1  0.039850  0.352756  0.293917  1
  O  O24  1  0.556753  0.776107  0.807023  1
  O  O25  1  0.443247  0.223893  0.192977  1
  O  O26  1  0.238291  0.505670  0.833722  1
  O  O27  1  0.761709  0.494330  0.166278  1
  O  O28  1  0.406689  0.534531  0.684480  1
  O  O29  1  0.593311  0.465469  0.315520  1
  O  O30  1  0.770215  0.950215  0.360130  1
  O  O31  1  0.229785  0.049785  0.639870  1
  O  O32  1  0.849916  0.101772  0.240421  1
  O  O33  1  0.150084  0.898228  0.759579  1
  O  O34  1  0.379733  0.766212  0.606375  1
  O  O35  1  0.620267  0.233788  0.393625  1
  O  O36  1  0.508773  0.649162  0.480666  1
  O  O37  1  0.491227  0.350838  0.519334  1
  O  O38  1  0.078661  0.631968  0.504525  1
  O  O39  1  0.921339  0.368032  0.495475  1
  O  O40  1  0.101349  0.713047  0.905382  1
  O  O41  1  0.898651  0.286953  0.094618  1
  O  O42  1  0.077881  0.366290  0.702942  1
  O  O43  1  0.922119  0.633710  0.297058  1
  O  O44  1  0.533748  0.927017  0.209434  1
  O  O45  1  0.466252  0.072983  0.790566  1
  O  O46  1  0.298426  0.813533  0.441977  1
  O  O47  1  0.701574  0.186467  0.558023  1
  O  O48  1  0.475678  0.359949  0.776002  1
  O  O49  1  0.524322  0.640051  0.223998  1
  O  O50  1  0.959062  0.864199  0.999069  1
  O  O51  1  0.040938  0.135801  0.000931  1
  O  O52  1  0.138228  0.707297  0.075397  1
  O  O53  1  0.861772  0.292703  0.924603  1
  O  O54  1  0.958733  0.908213  0.214579  1
  O  O55  1  0.041267  0.091787  0.785421  1
  O  O56  1  0.391843  0.866765  0.994991  1
  O  O57  1  0.608157  0.133235  0.005009  1
  O  O58  1  0.841836  0.909340  0.564655  1
  O  O59  1  0.158164  0.090660  0.435345  1
  O  O60  1  0.642443  0.597284  0.969322  1
  O  O61  1  0.357557  0.402716  0.030678  1
