# generated using pymatgen
data_Tl3Os3O10
_symmetry_space_group_name_H-M   'P 1'
_cell_length_a   7.38739108
_cell_length_b   7.38739108
_cell_length_c   16.53084252
_cell_angle_alpha   102.91131827
_cell_angle_beta   77.08868173
_cell_angle_gamma   90.00000000
_symmetry_Int_Tables_number   1
_chemical_formula_structural   Tl3Os3O10
_chemical_formula_sum   'Tl12 Os12 O40'
_cell_volume   855.92128971
_cell_formula_units_Z   4
loop_
 _symmetry_equiv_pos_site_id
 _symmetry_equiv_pos_as_xyz
  1  'x, y, z'
loop_
 _atom_site_type_symbol
 _atom_site_label
 _atom_site_symmetry_multiplicity
 _atom_site_fract_x
 _atom_site_fract_y
 _atom_site_fract_z
 _atom_site_occupancy
  Tl  Tl0  1  0.990563  0.498085  0.996170  1
  Tl  Tl1  1  0.513266  0.498085  0.996170  1
  Tl  Tl2  1  0.166667  0.833333  0.166667  1
  Tl  Tl3  1  0.166667  0.333333  0.166667  1
  Tl  Tl4  1  0.820067  0.168582  0.337163  1
  Tl  Tl5  1  0.342770  0.168582  0.337163  1
  Tl  Tl6  1  0.501915  0.009437  0.496170  1
  Tl  Tl7  1  0.501915  0.486734  0.496170  1
  Tl  Tl8  1  0.166667  0.833333  0.666667  1
  Tl  Tl9  1  0.666667  0.833333  0.666667  1
  Tl  Tl10  1  0.831418  0.657230  0.837163  1
  Tl  Tl11  1  0.831418  0.179933  0.837163  1
  Os  Os12  1  0.499414  0.000090  0.000180  1
  Os  Os13  1  0.000406  0.000090  0.000180  1
  Os  Os14  1  0.666667  0.833333  0.166667  1
  Os  Os15  1  0.666667  0.333333  0.166667  1
  Os  Os16  1  0.833920  0.666577  0.333153  1
  Os  Os17  1  0.332927  0.666577  0.333153  1
  Os  Os18  1  -0.000090  0.500586  0.500180  1
  Os  Os19  1  -0.000090  0.999594  0.500180  1
  Os  Os20  1  0.166667  0.333333  0.666667  1
  Os  Os21  1  0.666667  0.333333  0.666667  1
  Os  Os22  1  0.333423  0.667073  0.833153  1
  Os  Os23  1  0.333423  0.166080  0.833153  1
  O  O24  1  0.224857  0.025143  0.050288  1
  O  O25  1  0.903149  0.234533  0.083653  1
  O  O26  1  0.903149  0.849120  0.083653  1
  O  O27  1  0.513198  0.849120  0.083653  1
  O  O28  1  0.513198  0.234533  0.083653  1
  O  O29  1  0.205640  0.544360  0.088721  1
  O  O30  1  0.685554  0.564446  0.128891  1
  O  O31  1  0.647779  0.102221  0.204442  1
  O  O32  1  0.127693  0.122307  0.244613  1
  O  O33  1  0.430184  0.432133  0.249680  1
  O  O34  1  0.430184  0.817547  0.249680  1
  O  O35  1  0.820136  0.432133  0.249680  1
  O  O36  1  0.820136  0.817547  0.249680  1
  O  O37  1  0.108477  0.641523  0.283045  1
  O  O38  1  0.563997  0.686003  0.372007  1
  O  O39  1  0.225038  0.524962  0.416667  1
  O  O40  1  0.225038  0.891705  0.416667  1
  O  O41  1  0.858295  0.891705  0.416667  1
  O  O42  1  0.858295  0.524962  0.416667  1
  O  O43  1  0.019336  0.230664  0.461326  1
  O  O44  1  0.974857  0.775143  0.550288  1
  O  O45  1  0.765467  0.096851  0.583653  1
  O  O46  1  0.150880  0.486802  0.583653  1
  O  O47  1  0.455640  0.794360  0.588721  1
  O  O48  1  0.765467  0.486802  0.583653  1
  O  O49  1  0.150880  0.096851  0.583653  1
  O  O50  1  0.435554  0.314446  0.628891  1
  O  O51  1  0.897779  0.352221  0.704442  1
  O  O52  1  0.877693  0.872307  0.744613  1
  O  O53  1  0.567867  0.569816  0.749680  1
  O  O54  1  0.567867  0.179864  0.749680  1
  O  O55  1  0.182453  0.569816  0.749680  1
  O  O56  1  0.182453  0.179864  0.749680  1
  O  O57  1  0.358477  0.891523  0.783045  1
  O  O58  1  0.313997  0.436003  0.872007  1
  O  O59  1  0.475038  0.774962  0.916667  1
  O  O60  1  0.108295  0.141705  0.916667  1
  O  O61  1  0.475038  0.141705  0.916667  1
  O  O62  1  0.108295  0.774962  0.916667  1
  O  O63  1  0.769336  0.980664  0.961326  1
