# generated using pymatgen
data_MgSb2H2F14
_symmetry_space_group_name_H-M   'P 1'
_cell_length_a   12.67159897
_cell_length_b   12.54958678
_cell_length_c   7.06448131
_cell_angle_alpha   90.00000000
_cell_angle_beta   90.00000000
_cell_angle_gamma   90.00000000
_symmetry_Int_Tables_number   1
_chemical_formula_structural   MgSb2H2F14
_chemical_formula_sum   'Mg4 Sb8 H8 F56'
_cell_volume   1123.41734911
_cell_formula_units_Z   4
loop_
 _symmetry_equiv_pos_site_id
 _symmetry_equiv_pos_as_xyz
  1  'x, y, z'
loop_
 _atom_site_type_symbol
 _atom_site_label
 _atom_site_symmetry_multiplicity
 _atom_site_fract_x
 _atom_site_fract_y
 _atom_site_fract_z
 _atom_site_occupancy
  Mg  Mg0  1  0.091216  0.250000  0.280219  1
  Mg  Mg1  1  0.408784  0.750000  0.780219  1
  Mg  Mg2  1  0.591216  0.250000  0.219781  1
  Mg  Mg3  1  0.908784  0.750000  0.719781  1
  Sb  Sb4  1  0.000000  0.000000  0.000000  1
  Sb  Sb5  1  0.000000  0.500000  0.000000  1
  Sb  Sb6  1  0.172396  0.750000  0.452746  1
  Sb  Sb7  1  0.327604  0.250000  0.952746  1
  Sb  Sb8  1  0.500000  0.500000  0.500000  1
  Sb  Sb9  1  0.500000  0.000000  0.500000  1
  Sb  Sb10  1  0.672396  0.750000  0.047254  1
  Sb  Sb11  1  0.827604  0.250000  0.547254  1
  H  H12  1  0.114535  0.114818  0.594938  1
  H  H13  1  0.114535  0.385182  0.594938  1
  H  H14  1  0.385465  0.614818  0.094938  1
  H  H15  1  0.385465  0.885182  0.094938  1
  H  H16  1  0.614535  0.114818  0.905062  1
  H  H17  1  0.614535  0.385182  0.905062  1
  H  H18  1  0.885465  0.614818  0.405062  1
  H  H19  1  0.885465  0.885182  0.405062  1
  F  F20  1  0.042778  0.039310  0.747215  1
  F  F21  1  0.042778  0.460690  0.747215  1
  F  F22  1  0.052906  0.137204  0.090733  1
  F  F23  1  0.052906  0.362796  0.090733  1
  F  F24  1  0.057380  0.750000  0.640926  1
  F  F25  1  0.067396  0.750000  0.260771  1
  F  F26  1  0.133566  0.136784  0.467612  1
  F  F27  1  0.133566  0.363216  0.467612  1
  F  F28  1  0.134992  0.559820  0.038131  1
  F  F29  1  0.134992  0.940180  0.038131  1
  F  F30  1  0.173538  0.599401  0.469845  1
  F  F31  1  0.173538  0.900599  0.469845  1
  F  F32  1  0.207626  0.250000  0.789872  1
  F  F33  1  0.235586  0.250000  0.178364  1
  F  F34  1  0.264414  0.750000  0.678364  1
  F  F35  1  0.292374  0.750000  0.289872  1
  F  F36  1  0.326462  0.099401  0.969845  1
  F  F37  1  0.326462  0.400599  0.969845  1
  F  F38  1  0.365008  0.059820  0.538131  1
  F  F39  1  0.365008  0.440180  0.538131  1
  F  F40  1  0.366434  0.636784  0.967612  1
  F  F41  1  0.366434  0.863216  0.967612  1
  F  F42  1  0.432604  0.250000  0.760771  1
  F  F43  1  0.442620  0.250000  0.140926  1
  F  F44  1  0.447094  0.637204  0.590733  1
  F  F45  1  0.447094  0.862796  0.590733  1
  F  F46  1  0.457222  0.539310  0.247215  1
  F  F47  1  0.457222  0.960690  0.247215  1
  F  F48  1  0.542778  0.039310  0.752785  1
  F  F49  1  0.542778  0.460690  0.752785  1
  F  F50  1  0.552906  0.137204  0.409267  1
  F  F51  1  0.552906  0.362796  0.409267  1
  F  F52  1  0.557380  0.750000  0.859074  1
  F  F53  1  0.567396  0.750000  0.239229  1
  F  F54  1  0.633566  0.136784  0.032388  1
  F  F55  1  0.633566  0.363216  0.032388  1
  F  F56  1  0.634992  0.559820  0.461869  1
  F  F57  1  0.634992  0.940180  0.461869  1
  F  F58  1  0.673538  0.599401  0.030155  1
  F  F59  1  0.673538  0.900599  0.030155  1
  F  F60  1  0.707626  0.250000  0.710128  1
  F  F61  1  0.735586  0.250000  0.321636  1
  F  F62  1  0.764414  0.750000  0.821636  1
  F  F63  1  0.792374  0.750000  0.210128  1
  F  F64  1  0.826462  0.099401  0.530155  1
  F  F65  1  0.826462  0.400599  0.530155  1
  F  F66  1  0.865008  0.059820  0.961869  1
  F  F67  1  0.865008  0.440180  0.961869  1
  F  F68  1  0.866434  0.636784  0.532388  1
  F  F69  1  0.866434  0.863216  0.532388  1
  F  F70  1  0.932604  0.250000  0.739229  1
  F  F71  1  0.942620  0.250000  0.359074  1
  F  F72  1  0.947094  0.637204  0.909267  1
  F  F73  1  0.947094  0.862796  0.909267  1
  F  F74  1  0.957222  0.960690  0.252785  1
  F  F75  1  0.957222  0.539310  0.252785  1
