# generated using pymatgen
data_Li3MnV(P2O7)2
_symmetry_space_group_name_H-M   'P 1'
_cell_length_a   5.05058314
_cell_length_b   7.09237606
_cell_length_c   8.36808126
_cell_angle_alpha   90.82938898
_cell_angle_beta   90.20039788
_cell_angle_gamma   70.87586753
_symmetry_Int_Tables_number   1
_chemical_formula_structural   Li3MnV(P2O7)2
_chemical_formula_sum   'Li3 Mn1 V1 P4 O14'
_cell_volume   283.17716738
_cell_formula_units_Z   1
loop_
 _symmetry_equiv_pos_site_id
 _symmetry_equiv_pos_as_xyz
  1  'x, y, z'
loop_
 _atom_site_type_symbol
 _atom_site_label
 _atom_site_symmetry_multiplicity
 _atom_site_fract_x
 _atom_site_fract_y
 _atom_site_fract_z
 _atom_site_occupancy
  Li  Li0  1  0.177366  0.340486  0.851176  1
  Li  Li1  1  0.273053  0.903786  0.161183  1
  Li  Li2  1  0.818729  0.655335  0.356617  1
  Mn  Mn3  1  0.802405  0.730594  0.983442  1
  V  V4  1  0.215362  0.275020  0.504679  1
  P  P5  1  0.392448  0.475068  0.185852  1
  P  P6  1  0.222891  0.919627  0.781848  1
  P  P7  1  0.792249  0.087456  0.296913  1
  P  P8  1  0.605294  0.521974  0.678808  1
  O  O9  1  0.073380  0.120451  0.335026  1
  O  O10  1  0.168499  0.118314  0.694596  1
  O  O11  1  0.205800  0.495517  0.039922  1
  O  O12  1  0.224990  0.478714  0.341136  1
  O  O13  1  0.384243  0.415074  0.671803  1
  O  O14  1  0.605317  0.092134  0.438971  1
  O  O15  1  0.628478  0.256435  0.169760  1
  O  O16  1  0.436508  0.758110  0.660501  1
  O  O17  1  0.377471  0.925763  0.940334  1
  O  O18  1  0.542846  0.631340  0.195496  1
  O  O19  1  0.761227  0.490717  0.837572  1
  O  O20  1  0.804381  0.475416  0.533761  1
  O  O21  1  0.869448  0.888987  0.202212  1
  O  O22  1  0.962438  0.863163  0.804084  1
