# generated using pymatgen
data_TmCuPbSe3
_symmetry_space_group_name_H-M   'P 1'
_cell_length_a   10.54784182
_cell_length_b   4.04704302
_cell_length_c   7.09205209
_cell_angle_alpha   73.42329042
_cell_angle_beta   89.53491429
_cell_angle_gamma   89.99829370
_symmetry_Int_Tables_number   1
_chemical_formula_structural   TmCuPbSe3
_chemical_formula_sum   'Tm2 Cu2 Pb2 Se6'
_cell_volume   290.14969005
_cell_formula_units_Z   2
loop_
 _symmetry_equiv_pos_site_id
 _symmetry_equiv_pos_as_xyz
  1  'x, y, z'
loop_
 _atom_site_type_symbol
 _atom_site_label
 _atom_site_symmetry_multiplicity
 _atom_site_fract_x
 _atom_site_fract_y
 _atom_site_fract_z
 _atom_site_occupancy
  Tm  Tm0  1  0.502561  0.497578  0.504840  1
  Tm  Tm1  1  0.004649  0.499181  0.501653  1
  Cu  Cu2  1  0.754776  0.032341  0.435426  1
  Cu  Cu3  1  0.254478  0.967741  0.564447  1
  Pb  Pb4  1  0.243444  0.255519  0.988933  1
  Pb  Pb5  1  0.748573  0.742747  0.014479  1
  Se  Se6  1  0.568158  0.139615  0.220600  1
  Se  Se7  1  0.943247  0.140021  0.219913  1
  Se  Se8  1  0.066449  0.858623  0.783077  1
  Se  Se9  1  0.438639  0.857997  0.783990  1
  Se  Se10  1  0.752992  0.421990  0.656046  1
  Se  Se11  1  0.254670  0.577697  0.344538  1
