# generated using pymatgen
data_Li2Mn4Si4O13
_symmetry_space_group_name_H-M   'P 1'
_cell_length_a   10.43383622
_cell_length_b   8.06061162
_cell_length_c   6.98140570
_cell_angle_alpha   78.01471899
_cell_angle_beta   90.26415616
_cell_angle_gamma   111.95952517
_symmetry_Int_Tables_number   1
_chemical_formula_structural   Li2Mn4Si4O13
_chemical_formula_sum   'Li4 Mn8 Si8 O26'
_cell_volume   530.95832870
_cell_formula_units_Z   2
loop_
 _symmetry_equiv_pos_site_id
 _symmetry_equiv_pos_as_xyz
  1  'x, y, z'
loop_
 _atom_site_type_symbol
 _atom_site_label
 _atom_site_symmetry_multiplicity
 _atom_site_fract_x
 _atom_site_fract_y
 _atom_site_fract_z
 _atom_site_occupancy
  Li  Li0  1  0.114149  0.599282  0.229007  1
  Li  Li1  1  0.415499  0.443899  0.739334  1
  Li  Li2  1  0.584501  0.556101  0.260666  1
  Li  Li3  1  0.885851  0.400718  0.770993  1
  Mn  Mn4  1  0.003661  0.808887  0.917370  1
  Mn  Mn5  1  0.009482  0.810988  0.428403  1
  Mn  Mn6  1  0.386743  0.819323  0.423645  1
  Mn  Mn7  1  0.390723  0.810901  0.928137  1
  Mn  Mn8  1  0.609277  0.189099  0.071863  1
  Mn  Mn9  1  0.613257  0.180677  0.576355  1
  Mn  Mn10  1  0.990518  0.189012  0.571597  1
  Mn  Mn11  1  0.996339  0.191113  0.082630  1
  Si  Si12  1  0.176767  0.589997  0.729813  1
  Si  Si13  1  0.290452  0.412477  0.277807  1
  Si  Si14  1  0.282433  0.119920  0.625922  1
  Si  Si15  1  0.282320  0.109183  0.073873  1
  Si  Si16  1  0.717680  0.890817  0.926127  1
  Si  Si17  1  0.717567  0.880080  0.374079  1
  Si  Si18  1  0.709548  0.587523  0.722193  1
  Si  Si19  1  0.823233  0.410003  0.270187  1
  O  O20  1  0.117271  0.998194  0.135499  1
  O  O21  1  0.068284  0.373759  0.787469  1
  O  O22  1  0.157170  0.683139  0.500773  1
  O  O23  1  0.161540  0.698988  0.902997  1
  O  O24  1  0.123275  0.354724  0.283279  1
  O  O25  1  0.117845  0.013710  0.610534  1
  O  O26  1  0.385454  0.998751  0.134357  1
  O  O27  1  0.389638  0.022909  0.596819  1
  O  O28  1  0.345120  0.626895  0.724838  1
  O  O29  1  0.381027  0.631735  0.216975  1
  O  O30  1  0.305719  0.181671  0.836276  1
  O  O31  1  0.340311  0.335535  0.492274  1
  O  O32  1  0.344751  0.310224  0.133362  1
  O  O33  1  0.655249  0.689776  0.866638  1
  O  O34  1  0.659689  0.664465  0.507726  1
  O  O35  1  0.694281  0.818329  0.163724  1
  O  O36  1  0.618973  0.368265  0.783025  1
  O  O37  1  0.654880  0.373105  0.275162  1
  O  O38  1  0.610362  0.977091  0.403181  1
  O  O39  1  0.614546  0.001249  0.865643  1
  O  O40  1  0.882155  0.986290  0.389466  1
  O  O41  1  0.876725  0.645276  0.716721  1
  O  O42  1  0.838460  0.301012  0.097003  1
  O  O43  1  0.842830  0.316861  0.499227  1
  O  O44  1  0.931716  0.626241  0.212531  1
  O  O45  1  0.882729  0.001806  0.864501  1
