# generated using pymatgen
data_Li2MnFe(BO3)2
_symmetry_space_group_name_H-M   'P 1'
_cell_length_a   8.27646794
_cell_length_b   8.26418725
_cell_length_c   6.32313968
_cell_angle_alpha   90.00000000
_cell_angle_beta   90.00000000
_cell_angle_gamma   120.11758191
_symmetry_Int_Tables_number   1
_chemical_formula_structural   Li2MnFe(BO3)2
_chemical_formula_sum   'Li6 Mn3 Fe3 B6 O18'
_cell_volume   374.10439196
_cell_formula_units_Z   3
loop_
 _symmetry_equiv_pos_site_id
 _symmetry_equiv_pos_as_xyz
  1  'x, y, z'
loop_
 _atom_site_type_symbol
 _atom_site_label
 _atom_site_symmetry_multiplicity
 _atom_site_fract_x
 _atom_site_fract_y
 _atom_site_fract_z
 _atom_site_occupancy
  Li  Li0  1  0.283168  0.981524  0.250557  1
  Li  Li1  1  0.283168  0.981524  0.749443  1
  Li  Li2  1  0.016838  0.301386  0.250431  1
  Li  Li3  1  0.016838  0.301386  0.749569  1
  Li  Li4  1  0.698737  0.714681  0.750352  1
  Li  Li5  1  0.698737  0.714681  0.249648  1
  Mn  Mn6  1  0.371846  0.360009  0.000000  1
  Mn  Mn7  1  0.373233  0.361209  0.500000  1
  Mn  Mn8  1  0.640635  0.012374  0.000000  1
  Fe  Fe9  1  0.640793  0.007026  0.500000  1
  Fe  Fe10  1  0.992025  0.632992  0.000000  1
  Fe  Fe11  1  0.991867  0.632252  0.500000  1
  B  B12  1  0.998207  0.997386  0.000000  1
  B  B13  1  0.998242  -0.000060  0.500000  1
  B  B14  1  0.332103  0.668043  0.251842  1
  B  B15  1  0.332103  0.668043  0.748158  1
  B  B16  1  0.669381  0.333883  0.251491  1
  B  B17  1  0.669381  0.333883  0.748509  1
  O  O18  1  0.107291  0.915331  0.500000  1
  O  O19  1  0.111218  0.916390  0.000000  1
  O  O20  1  0.138118  0.581854  0.250160  1
  O  O21  1  0.138118  0.581854  0.749840  1
  O  O22  1  0.079084  0.191291  0.000000  1
  O  O23  1  0.080996  0.193330  0.500000  1
  O  O24  1  0.440364  0.861643  0.254039  1
  O  O25  1  0.440364  0.861643  0.745961  1
  O  O26  1  0.417922  0.560447  0.249894  1
  O  O27  1  0.417922  0.560447  0.750106  1
  O  O28  1  0.475060  0.252304  0.250457  1
  O  O29  1  0.475060  0.252304  0.749543  1
  O  O30  1  0.805129  0.883697  0.000000  1
  O  O31  1  0.803585  0.888621  0.500000  1
  O  O32  1  0.782368  0.527815  0.250209  1
  O  O33  1  0.782368  0.527815  0.749791  1
  O  O34  1  0.748864  0.220495  0.746943  1
  O  O35  1  0.748864  0.220495  0.253057  1
