# generated using pymatgen
data_Li2MnVP2(HO5)2
_symmetry_space_group_name_H-M   'P 1'
_cell_length_a   5.46098445
_cell_length_b   14.55657974
_cell_length_c   7.44473565
_cell_angle_alpha   95.60964937
_cell_angle_beta   69.08042998
_cell_angle_gamma   88.76092878
_symmetry_Int_Tables_number   1
_chemical_formula_structural   Li2MnVP2(HO5)2
_chemical_formula_sum   'Li6 Mn3 V3 P6 H6 O30'
_cell_volume   549.13053453
_cell_formula_units_Z   3
loop_
 _symmetry_equiv_pos_site_id
 _symmetry_equiv_pos_as_xyz
  1  'x, y, z'
loop_
 _atom_site_type_symbol
 _atom_site_label
 _atom_site_symmetry_multiplicity
 _atom_site_fract_x
 _atom_site_fract_y
 _atom_site_fract_z
 _atom_site_occupancy
  Li  Li0  1  0.738362  0.693767  0.865308  1
  Li  Li1  1  0.932400  0.641690  0.466780  1
  Li  Li2  1  0.595905  0.974079  0.796963  1
  Li  Li3  1  0.398945  0.024834  0.203476  1
  Li  Li4  1  0.068473  0.359394  0.532679  1
  Li  Li5  1  0.264816  0.306887  0.133429  1
  Mn  Mn6  1  0.664489  0.834783  0.335410  1
  Mn  Mn7  1  0.666828  0.333378  0.333643  1
  Mn  Mn8  1  0.331892  0.666369  0.667989  1
  V  V9  1  0.337607  0.165850  0.663872  1
  V  V10  1  0.000091  0.500150  0.000073  1
  V  V11  1  0.999399  0.999215  0.999090  1
  P  P12  1  0.986482  0.148538  0.379997  1
  P  P13  1  0.688709  0.184408  0.951779  1
  P  P14  1  0.650637  0.481840  0.715660  1
  P  P15  1  0.348951  0.517981  0.284967  1
  P  P16  1  0.316607  0.814134  0.047549  1
  P  P17  1  0.011387  0.852580  0.619174  1
  H  H18  1  0.947106  0.326632  0.989748  1
  H  H19  1  0.715344  0.007946  0.347029  1
  H  H20  1  0.611727  0.658687  0.325418  1
  H  H21  1  0.384966  0.341030  0.677060  1
  H  H22  1  0.284825  0.991778  0.652559  1
  H  H23  1  0.053594  0.674506  0.010313  1
  O  O24  1  0.909251  0.901104  0.830371  1
  O  O25  1  0.960952  0.218548  0.837759  1
  O  O26  1  0.858921  0.448661  0.798436  1
  O  O27  1  0.795359  0.884585  0.540732  1
  O  O28  1  0.703521  0.077338  0.955815  1
  O  O29  1  0.979815  0.254214  0.375369  1
  O  O30  1  0.644405  0.587526  0.712741  1
  O  O31  1  0.751962  0.432629  0.504903  1
  O  O32  1  0.949069  0.370264  0.100489  1
  O  O33  1  0.712230  0.115074  0.494471  1
  O  O34  1  0.714244  0.962917  0.237866  1
  O  O35  1  0.422448  0.765860  0.836194  1
  O  O36  1  0.477572  0.213978  0.869485  1
  O  O37  1  0.611981  0.703447  0.435372  1
  O  O38  1  0.375044  0.448379  0.828583  1
  O  O39  1  0.624517  0.551113  0.171368  1
  O  O40  1  0.384900  0.296775  0.566486  1
  O  O41  1  0.535009  0.787286  0.126592  1
  O  O42  1  0.583747  0.232876  0.162450  1
  O  O43  1  0.280486  0.037780  0.762073  1
  O  O44  1  0.279396  0.889014  0.507378  1
  O  O45  1  0.051411  0.630095  0.899979  1
  O  O46  1  0.247804  0.567044  0.495603  1
  O  O47  1  0.355075  0.412070  0.288374  1
  O  O48  1  0.022092  0.746885  0.623256  1
  O  O49  1  0.295187  0.921300  0.042371  1
  O  O50  1  0.196256  0.115917  0.461654  1
  O  O51  1  0.141017  0.550973  0.201935  1
  O  O52  1  0.050621  0.777354  0.161043  1
  O  O53  1  0.086161  0.098544  0.170887  1
