# generated using pymatgen
data_LiFe2O2F3
_symmetry_space_group_name_H-M   'P 1'
_cell_length_a   3.85185530
_cell_length_b   5.37672582
_cell_length_c   10.21763618
_cell_angle_alpha   89.26176289
_cell_angle_beta   89.93636848
_cell_angle_gamma   69.07035388
_symmetry_Int_Tables_number   1
_chemical_formula_structural   LiFe2O2F3
_chemical_formula_sum   'Li2 Fe4 O4 F6'
_cell_volume   197.63109176
_cell_formula_units_Z   2
loop_
 _symmetry_equiv_pos_site_id
 _symmetry_equiv_pos_as_xyz
  1  'x, y, z'
loop_
 _atom_site_type_symbol
 _atom_site_label
 _atom_site_symmetry_multiplicity
 _atom_site_fract_x
 _atom_site_fract_y
 _atom_site_fract_z
 _atom_site_occupancy
  Li  Li0  1  0.136869  0.736158  0.055760  1
  Li  Li1  1  0.866387  0.267426  0.942473  1
  Fe  Fe2  1  0.140794  0.725680  0.452158  1
  Fe  Fe3  1  0.184735  0.633887  0.749680  1
  Fe  Fe4  1  0.818963  0.369849  0.250398  1
  Fe  Fe5  1  0.864415  0.275923  0.547798  1
  O  O6  1  0.045847  0.913380  0.619659  1
  O  O7  1  0.699067  0.608863  0.418495  1
  O  O8  1  0.306257  0.392323  0.582562  1
  O  O9  1  0.958608  0.088476  0.380078  1
  F  F10  1  0.050078  0.901940  0.882356  1
  F  F11  1  0.696301  0.616025  0.094184  1
  F  F12  1  0.260789  0.486331  0.253800  1
  F  F13  1  0.739860  0.523524  0.747345  1
  F  F14  1  0.308408  0.385374  0.904844  1
  F  F15  1  0.949470  0.102653  0.117040  1
