# generated using pymatgen
data_Rb4H4C3O10
_symmetry_space_group_name_H-M   'P 1'
_cell_length_a   12.46831166
_cell_length_b   15.86052010
_cell_length_c   6.29033344
_cell_angle_alpha   90.00000000
_cell_angle_beta   90.00000000
_cell_angle_gamma   90.00000000
_symmetry_Int_Tables_number   1
_chemical_formula_structural   Rb4H4C3O10
_chemical_formula_sum   'Rb16 H16 C12 O40'
_cell_volume   1243.93801847
_cell_formula_units_Z   4
loop_
 _symmetry_equiv_pos_site_id
 _symmetry_equiv_pos_as_xyz
  1  'x, y, z'
loop_
 _atom_site_type_symbol
 _atom_site_label
 _atom_site_symmetry_multiplicity
 _atom_site_fract_x
 _atom_site_fract_y
 _atom_site_fract_z
 _atom_site_occupancy
  Rb  Rb0  1  0.125116  0.623439  0.189021  1
  Rb  Rb1  1  0.125116  0.876561  0.189021  1
  Rb  Rb2  1  0.146934  0.127798  0.179430  1
  Rb  Rb3  1  0.146934  0.372202  0.179430  1
  Rb  Rb4  1  0.353066  0.627798  0.679430  1
  Rb  Rb5  1  0.353066  0.872202  0.679430  1
  Rb  Rb6  1  0.374884  0.376561  0.689021  1
  Rb  Rb7  1  0.374884  0.123439  0.689021  1
  Rb  Rb8  1  0.625116  0.876561  0.310979  1
  Rb  Rb9  1  0.625116  0.623439  0.310979  1
  Rb  Rb10  1  0.646934  0.127798  0.320570  1
  Rb  Rb11  1  0.646934  0.372202  0.320570  1
  Rb  Rb12  1  0.853066  0.872202  0.820570  1
  Rb  Rb13  1  0.853066  0.627798  0.820570  1
  Rb  Rb14  1  0.874884  0.123439  0.810979  1
  Rb  Rb15  1  0.874884  0.376561  0.810979  1
  H  H16  1  0.090859  0.592705  0.705606  1
  H  H17  1  0.090859  0.907295  0.705606  1
  H  H18  1  0.154558  0.199473  0.628629  1
  H  H19  1  0.154558  0.300527  0.628629  1
  H  H20  1  0.345442  0.699473  0.128629  1
  H  H21  1  0.345442  0.800527  0.128629  1
  H  H22  1  0.409141  0.092705  0.205606  1
  H  H23  1  0.409141  0.407295  0.205606  1
  H  H24  1  0.590859  0.907295  0.794394  1
  H  H25  1  0.590859  0.592705  0.794394  1
  H  H26  1  0.654558  0.199473  0.871371  1
  H  H27  1  0.654558  0.300527  0.871371  1
  H  H28  1  0.845442  0.699473  0.371371  1
  H  H29  1  0.845442  0.800527  0.371371  1
  H  H30  1  0.909141  0.092705  0.294394  1
  H  H31  1  0.909141  0.407295  0.294394  1
  C  C32  1  0.094420  0.750000  0.719704  1
  C  C33  1  0.126728  0.028655  0.660637  1
  C  C34  1  0.126728  0.471345  0.660637  1
  C  C35  1  0.373272  0.528655  0.160637  1
  C  C36  1  0.373272  0.971345  0.160637  1
  C  C37  1  0.405580  0.250000  0.219704  1
  C  C38  1  0.594420  0.750000  0.780296  1
  C  C39  1  0.626728  0.028655  0.839363  1
  C  C40  1  0.626728  0.471345  0.839363  1
  C  C41  1  0.873272  0.528655  0.339363  1
  C  C42  1  0.873272  0.971345  0.339363  1
  C  C43  1  0.905580  0.250000  0.280296  1
  O  O44  1  0.029652  0.750000  0.880106  1
  O  O45  1  0.067009  0.532635  0.757531  1
  O  O46  1  0.067009  0.967365  0.757531  1
  O  O47  1  0.105295  0.103973  0.721211  1
  O  O48  1  0.105295  0.396027  0.721211  1
  O  O49  1  0.128711  0.679300  0.635858  1
  O  O50  1  0.128711  0.820700  0.635858  1
  O  O51  1  0.191347  0.250000  0.568893  1
  O  O52  1  0.196060  0.008002  0.523001  1
  O  O53  1  0.196060  0.491998  0.523001  1
  O  O54  1  0.303940  0.508002  0.023001  1
  O  O55  1  0.303940  0.991998  0.023001  1
  O  O56  1  0.308653  0.750000  0.068893  1
  O  O57  1  0.371289  0.179300  0.135858  1
  O  O58  1  0.371289  0.320700  0.135858  1
  O  O59  1  0.394705  0.603973  0.221211  1
  O  O60  1  0.394705  0.896027  0.221211  1
  O  O61  1  0.432991  0.032635  0.257531  1
  O  O62  1  0.432991  0.467365  0.257531  1
  O  O63  1  0.470348  0.250000  0.380106  1
  O  O64  1  0.529652  0.750000  0.619894  1
  O  O65  1  0.567009  0.967365  0.742469  1
  O  O66  1  0.567009  0.532635  0.742469  1
  O  O67  1  0.605295  0.103973  0.778789  1
  O  O68  1  0.605295  0.396027  0.778789  1
  O  O69  1  0.628711  0.820700  0.864142  1
  O  O70  1  0.628711  0.679300  0.864142  1
  O  O71  1  0.691347  0.250000  0.931107  1
  O  O72  1  0.696060  0.008002  0.976999  1
  O  O73  1  0.696060  0.491998  0.976999  1
  O  O74  1  0.803940  0.508002  0.476999  1
  O  O75  1  0.803940  0.991998  0.476999  1
  O  O76  1  0.808653  0.750000  0.431107  1
  O  O77  1  0.871289  0.179300  0.364142  1
  O  O78  1  0.871289  0.320700  0.364142  1
  O  O79  1  0.894705  0.896027  0.278789  1
  O  O80  1  0.894705  0.603973  0.278789  1
  O  O81  1  0.932991  0.032635  0.242469  1
  O  O82  1  0.932991  0.467365  0.242469  1
  O  O83  1  0.970348  0.250000  0.119894  1
