# generated using pymatgen
data_Li2Fe2Si3O10
_symmetry_space_group_name_H-M   'P 1'
_cell_length_a   9.18317617
_cell_length_b   9.81775784
_cell_length_c   6.85606658
_cell_angle_alpha   69.56365303
_cell_angle_beta   68.08103388
_cell_angle_gamma   82.51063880
_symmetry_Int_Tables_number   1
_chemical_formula_structural   Li2Fe2Si3O10
_chemical_formula_sum   'Li4 Fe4 Si6 O20'
_cell_volume   537.35524216
_cell_formula_units_Z   2
loop_
 _symmetry_equiv_pos_site_id
 _symmetry_equiv_pos_as_xyz
  1  'x, y, z'
loop_
 _atom_site_type_symbol
 _atom_site_label
 _atom_site_symmetry_multiplicity
 _atom_site_fract_x
 _atom_site_fract_y
 _atom_site_fract_z
 _atom_site_occupancy
  Li  Li0  1  0.324976  0.900873  0.679462  1
  Li  Li1  1  0.824976  0.599127  0.830335  1
  Li  Li2  1  0.175024  0.400873  0.254439  1
  Li  Li3  1  0.675024  0.099127  0.905312  1
  Fe  Fe4  1  0.770882  0.956472  0.516065  1
  Fe  Fe5  1  0.270882  0.543528  0.722537  1
  Fe  Fe6  1  0.729118  0.456472  0.536947  1
  Fe  Fe7  1  0.229118  0.043528  0.243419  1
  Si  Si8  1  0.043741  0.792944  0.719443  1
  Si  Si9  1  0.543741  0.707056  0.762387  1
  Si  Si10  1  0.500000  0.500000  0.249920  1
  Si  Si11  1  0.456259  0.292944  0.013183  1
  Si  Si12  1  0.956259  0.207056  0.556127  1
  Si  Si13  1  0.000000  1.000000  -0.000080  1
  O  O14  1  0.843136  0.964879  0.220115  1
  O  O15  1  0.560054  0.885577  0.668314  1
  O  O16  1  0.192017  0.873830  0.496867  1
  O  O17  1  0.050209  0.860021  0.906494  1
  O  O18  1  0.872162  0.815793  0.694969  1
  O  O19  1  0.372162  0.684207  0.760762  1
  O  O20  1  0.550209  0.639979  0.016514  1
  O  O21  1  0.692017  0.626170  0.620697  1
  O  O22  1  0.060054  0.614423  0.803890  1
  O  O23  1  0.343136  0.535121  0.434995  1
  O  O24  1  0.656864  0.464879  0.313252  1
  O  O25  1  0.939946  0.385577  0.478368  1
  O  O26  1  0.307983  0.373829  0.938886  1
  O  O27  1  0.449791  0.360021  0.206702  1
  O  O28  1  0.627838  0.315793  0.817131  1
  O  O29  1  0.127838  0.184207  0.382923  1
  O  O30  1  0.949791  0.139979  0.816723  1
  O  O31  1  0.807983  0.126170  0.562715  1
  O  O32  1  0.439946  0.114423  0.113944  1
  O  O33  1  0.156864  0.035121  0.028131  1
