# generated using pymatgen
data_CeMo12(NO27)2
_symmetry_space_group_name_H-M   'P 1'
_cell_length_a   10.53845597
_cell_length_b   10.53845597
_cell_length_c   10.53845636
_cell_angle_alpha   76.50065114
_cell_angle_beta   76.50065110
_cell_angle_gamma   76.50065218
_symmetry_Int_Tables_number   1
_chemical_formula_structural   CeMo12(NO27)2
_chemical_formula_sum   'Ce1 Mo12 N2 O54'
_cell_volume   1086.61565943
_cell_formula_units_Z   1
loop_
 _symmetry_equiv_pos_site_id
 _symmetry_equiv_pos_as_xyz
  1  'x, y, z'
loop_
 _atom_site_type_symbol
 _atom_site_label
 _atom_site_symmetry_multiplicity
 _atom_site_fract_x
 _atom_site_fract_y
 _atom_site_fract_z
 _atom_site_occupancy
  Ce  Ce0  1  0.000000  0.000000  0.000000  1
  Mo  Mo1  1  0.148797  0.069881  0.655539  1
  Mo  Mo2  1  0.069881  0.655539  0.148797  1
  Mo  Mo3  1  0.655539  0.148797  0.069881  1
  Mo  Mo4  1  0.851203  0.930119  0.344461  1
  Mo  Mo5  1  0.930119  0.344461  0.851203  1
  Mo  Mo6  1  0.344461  0.851203  0.930119  1
  Mo  Mo7  1  0.832524  0.063711  0.719484  1
  Mo  Mo8  1  0.063711  0.719484  0.832524  1
  Mo  Mo9  1  0.719484  0.832524  0.063711  1
  Mo  Mo10  1  0.167476  0.936289  0.280516  1
  Mo  Mo11  1  0.936289  0.280516  0.167476  1
  Mo  Mo12  1  0.280516  0.167476  0.936289  1
  N  N13  1  0.638175  0.638175  0.638175  1
  N  N14  1  0.361825  0.361825  0.361825  1
  O  O15  1  0.214871  0.209928  0.573862  1
  O  O16  1  0.209928  0.573862  0.214871  1
  O  O17  1  0.573862  0.214871  0.209928  1
  O  O18  1  0.785129  0.790072  0.426138  1
  O  O19  1  0.790072  0.426138  0.785129  1
  O  O20  1  0.426138  0.785129  0.790072  1
  O  O21  1  0.969663  0.172711  0.792132  1
  O  O22  1  0.172711  0.792132  0.969663  1
  O  O23  1  0.792132  0.969663  0.172711  1
  O  O24  1  0.030337  0.827289  0.207868  1
  O  O25  1  0.827289  0.207868  0.030337  1
  O  O26  1  0.207868  0.030337  0.827289  1
  O  O27  1  0.255091  0.939007  0.581829  1
  O  O28  1  0.939007  0.581829  0.255091  1
  O  O29  1  0.581829  0.255091  0.939007  1
  O  O30  1  0.744909  0.060993  0.418171  1
  O  O31  1  0.060993  0.418171  0.744909  1
  O  O32  1  0.418171  0.744909  0.060993  1
  O  O33  1  0.024562  0.913364  0.787513  1
  O  O34  1  0.913364  0.787513  0.024562  1
  O  O35  1  0.787513  0.024562  0.913364  1
  O  O36  1  0.975438  0.086636  0.212487  1
  O  O37  1  0.086636  0.212487  0.975438  1
  O  O38  1  0.212487  0.975438  0.086636  1
  O  O39  1  0.991276  0.092441  0.579996  1
  O  O40  1  0.092441  0.579996  0.991276  1
  O  O41  1  0.579996  0.991276  0.092441  1
  O  O42  1  0.008724  0.907559  0.420004  1
  O  O43  1  0.907559  0.420004  0.008724  1
  O  O44  1  0.420004  0.008724  0.907559  1
  O  O45  1  0.720302  0.206044  0.670486  1
  O  O46  1  0.206044  0.670486  0.720302  1
  O  O47  1  0.670486  0.720302  0.206044  1
  O  O48  1  0.279698  0.793956  0.329514  1
  O  O49  1  0.793956  0.329514  0.279698  1
  O  O50  1  0.329514  0.279698  0.793956  1
  O  O51  1  0.777054  0.939633  0.676532  1
  O  O52  1  0.939633  0.676532  0.777054  1
  O  O53  1  0.676532  0.777054  0.939633  1
  O  O54  1  0.222946  0.060367  0.323468  1
  O  O55  1  0.060367  0.323468  0.222946  1
  O  O56  1  0.323468  0.222946  0.060367  1
  O  O57  1  0.887737  0.486188  0.463699  1
  O  O58  1  0.486188  0.463699  0.887737  1
  O  O59  1  0.463699  0.887737  0.486188  1
  O  O60  1  0.112263  0.513812  0.536301  1
  O  O61  1  0.513812  0.536301  0.112263  1
  O  O62  1  0.536301  0.112263  0.513812  1
  O  O63  1  0.499326  0.490376  0.769368  1
  O  O64  1  0.490376  0.769368  0.499326  1
  O  O65  1  0.769368  0.499326  0.490376  1
  O  O66  1  0.500674  0.509624  0.230632  1
  O  O67  1  0.509624  0.230632  0.500674  1
  O  O68  1  0.230632  0.500674  0.509624  1
