# generated using pymatgen
data_CoOF
_symmetry_space_group_name_H-M   'P 1'
_cell_length_a   4.49173221
_cell_length_b   4.49173221
_cell_length_c   12.24612188
_cell_angle_alpha   89.92674961
_cell_angle_beta   89.92674961
_cell_angle_gamma   90.14793941
_symmetry_Int_Tables_number   1
_chemical_formula_structural   CoOF
_chemical_formula_sum   'Co8 O8 F8'
_cell_volume   247.07234156
_cell_formula_units_Z   8
loop_
 _symmetry_equiv_pos_site_id
 _symmetry_equiv_pos_as_xyz
  1  'x, y, z'
loop_
 _atom_site_type_symbol
 _atom_site_label
 _atom_site_symmetry_multiplicity
 _atom_site_fract_x
 _atom_site_fract_y
 _atom_site_fract_z
 _atom_site_occupancy
  Co  Co0  1  0.978275  0.967305  0.000146  1
  Co  Co1  1  0.032695  0.021725  0.249854  1
  Co  Co2  1  0.985888  0.957631  0.499565  1
  Co  Co3  1  0.042369  0.014112  0.750435  1
  Co  Co4  1  0.530511  0.469489  0.125000  1
  Co  Co5  1  0.482046  0.517954  0.625000  1
  Co  Co6  1  0.481917  0.521765  0.375128  1
  Co  Co7  1  0.478235  0.518083  0.874872  1
  O  O8  1  0.191152  0.808848  0.625000  1
  O  O9  1  0.186353  0.810310  0.374331  1
  O  O10  1  0.189690  0.813647  0.875669  1
  O  O11  1  0.326152  0.312217  0.249740  1
  O  O12  1  0.308454  0.326330  0.750434  1
  O  O13  1  0.687783  0.673848  0.000260  1
  O  O14  1  0.673670  0.691546  0.499566  1
  O  O15  1  0.824148  0.175852  0.125000  1
  F  F16  1  0.225776  0.774224  0.125000  1
  F  F17  1  0.284881  0.274057  0.999108  1
  F  F18  1  0.273700  0.284685  0.500324  1
  F  F19  1  0.725943  0.715119  0.250892  1
  F  F20  1  0.715315  0.726300  0.749676  1
  F  F21  1  0.796578  0.203422  0.625000  1
  F  F22  1  0.787610  0.209140  0.379259  1
  F  F23  1  0.790860  0.212390  0.870741  1
