# generated using pymatgen
data_Pu
_symmetry_space_group_name_H-M   'P 1'
_cell_length_a   3.78245498
_cell_length_b   4.24912076
_cell_length_c   5.14152863
_cell_angle_alpha   65.59299886
_cell_angle_beta   90.00000000
_cell_angle_gamma   90.00000000
_symmetry_Int_Tables_number   1
_chemical_formula_structural   Pu
_chemical_formula_sum   Pu4
_cell_volume   75.25035755
_cell_formula_units_Z   4
loop_
 _symmetry_equiv_pos_site_id
 _symmetry_equiv_pos_as_xyz
  1  'x, y, z'
loop_
 _atom_site_type_symbol
 _atom_site_label
 _atom_site_symmetry_multiplicity
 _atom_site_fract_x
 _atom_site_fract_y
 _atom_site_fract_z
 _atom_site_occupancy
  Pu  Pu0  1  0.894846  0.379289  0.241421  1
  Pu  Pu1  1  0.605154  0.879290  0.241421  1
  Pu  Pu2  1  0.394849  0.120710  0.758579  1
  Pu  Pu3  1  0.105154  0.620712  0.758579  1
