# generated using pymatgen
data_Pb13(N2O13)2
_symmetry_space_group_name_H-M   'P 1'
_cell_length_a   10.25983917
_cell_length_b   10.25934621
_cell_length_c   10.26715438
_cell_angle_alpha   61.46127097
_cell_angle_beta   61.51760829
_cell_angle_gamma   61.56089897
_symmetry_Int_Tables_number   1
_chemical_formula_structural   Pb13(N2O13)2
_chemical_formula_sum   'Pb13 N4 O26'
_cell_volume   790.13410286
_cell_formula_units_Z   1
loop_
 _symmetry_equiv_pos_site_id
 _symmetry_equiv_pos_as_xyz
  1  'x, y, z'
loop_
 _atom_site_type_symbol
 _atom_site_label
 _atom_site_symmetry_multiplicity
 _atom_site_fract_x
 _atom_site_fract_y
 _atom_site_fract_z
 _atom_site_occupancy
  Pb  Pb0  1  0.819330  0.660724  0.382480  1
  Pb  Pb1  1  0.660922  0.382225  0.819231  1
  Pb  Pb2  1  0.382891  0.819055  0.660159  1
  Pb  Pb3  1  0.180651  0.339234  0.617509  1
  Pb  Pb4  1  0.339066  0.617781  0.180754  1
  Pb  Pb5  1  0.617139  0.180921  0.339794  1
  Pb  Pb6  1  0.499976  0.499990  0.500004  1
  Pb  Pb7  1  0.424592  0.920738  0.243098  1
  Pb  Pb8  1  0.920479  0.243326  0.424870  1
  Pb  Pb9  1  0.243450  0.424128  0.920410  1
  Pb  Pb10  1  0.575339  0.079219  0.756961  1
  Pb  Pb11  1  0.079495  0.756640  0.575190  1
  Pb  Pb12  1  0.756538  0.575875  0.079615  1
  N  N13  1  0.069170  0.068747  0.069126  1
  N  N14  1  0.930925  0.931279  0.930774  1
  N  N15  1  0.278575  0.278125  0.277843  1
  N  N16  1  0.721469  0.721903  0.722112  1
  O  O17  1  0.326031  0.769719  0.492861  1
  O  O18  1  0.769726  0.493300  0.326026  1
  O  O19  1  0.493283  0.325702  0.769914  1
  O  O20  1  0.673943  0.230280  0.507153  1
  O  O21  1  0.230287  0.506668  0.673955  1
  O  O22  1  0.506692  0.674275  0.230137  1
  O  O23  1  0.596127  0.595900  0.595808  1
  O  O24  1  0.403858  0.404087  0.404160  1
  O  O25  1  0.269549  0.160941  0.403314  1
  O  O26  1  0.160693  0.403190  0.269657  1
  O  O27  1  0.402627  0.270070  0.161485  1
  O  O28  1  0.730516  0.839011  0.596803  1
  O  O29  1  0.839335  0.596731  0.730375  1
  O  O30  1  0.597370  0.729870  0.838553  1
  O  O31  1  0.601363  0.859328  0.342117  1
  O  O32  1  0.859350  0.342552  0.601156  1
  O  O33  1  0.342252  0.601131  0.858578  1
  O  O34  1  0.398558  0.140728  0.658037  1
  O  O35  1  0.140602  0.657448  0.398853  1
  O  O36  1  0.657714  0.398881  0.141364  1
  O  O37  1  0.975956  0.793792  0.022692  1
  O  O38  1  0.793448  0.022813  0.975783  1
  O  O39  1  0.022347  0.976323  0.793343  1
  O  O40  1  0.024065  0.206308  0.977202  1
  O  O41  1  0.206539  0.977289  0.024161  1
  O  O42  1  0.977658  0.023755  0.206583  1
