# generated using pymatgen
data_Li2Mn5(Si2O5)6
_symmetry_space_group_name_H-M   'P 1'
_cell_length_a   10.40592818
_cell_length_b   10.40590987
_cell_length_c   14.67722066
_cell_angle_alpha   90.00009929
_cell_angle_beta   89.99998767
_cell_angle_gamma   120.00029363
_symmetry_Int_Tables_number   1
_chemical_formula_structural   Li2Mn5(Si2O5)6
_chemical_formula_sum   'Li4 Mn10 Si24 O60'
_cell_volume   1376.36637598
_cell_formula_units_Z   2
loop_
 _symmetry_equiv_pos_site_id
 _symmetry_equiv_pos_as_xyz
  1  'x, y, z'
loop_
 _atom_site_type_symbol
 _atom_site_label
 _atom_site_symmetry_multiplicity
 _atom_site_fract_x
 _atom_site_fract_y
 _atom_site_fract_z
 _atom_site_occupancy
  Li  Li0  1  0.333300  0.666706  -0.000001  1
  Li  Li1  1  0.999999  0.000000  0.750000  1
  Li  Li2  1  0.999999  0.000002  0.250000  1
  Li  Li3  1  0.666708  0.333409  0.500000  1
  Mn  Mn4  1  0.999987  0.498857  0.750001  1
  Mn  Mn5  1  0.999990  0.498853  0.250003  1
  Mn  Mn6  1  0.333331  0.666670  0.253852  1
  Mn  Mn7  1  0.333326  0.666655  0.746149  1
  Mn  Mn8  1  0.501140  0.501140  0.249997  1
  Mn  Mn9  1  0.501147  0.501142  0.749999  1
  Mn  Mn10  1  0.666659  0.333337  0.246141  1
  Mn  Mn11  1  0.666648  0.333320  0.753844  1
  Mn  Mn12  1  0.498860  0.000000  0.249999  1
  Mn  Mn13  1  0.498855  0.999990  0.750001  1
  Si  Si14  1  0.113226  0.765437  0.608666  1
  Si  Si15  1  0.113226  0.765438  0.391344  1
  Si  Si16  1  0.233619  0.886081  0.109155  1
  Si  Si17  1  0.233618  0.886080  0.890835  1
  Si  Si18  1  0.113919  0.347541  0.109158  1
  Si  Si19  1  0.113916  0.347539  0.890839  1
  Si  Si20  1  0.234558  0.347786  0.391343  1
  Si  Si21  1  0.234563  0.347787  0.608663  1
  Si  Si22  1  0.652213  0.886773  0.391345  1
  Si  Si23  1  0.652213  0.886770  0.608664  1
  Si  Si24  1  0.347787  0.234563  0.891336  1
  Si  Si25  1  0.347786  0.234562  0.108655  1
  Si  Si26  1  0.652454  0.766378  0.890838  1
  Si  Si27  1  0.652460  0.766382  0.109157  1
  Si  Si28  1  0.347541  0.113918  0.609162  1
  Si  Si29  1  0.347539  0.113921  0.390842  1
  Si  Si30  1  0.766376  0.652458  0.390843  1
  Si  Si31  1  0.766379  0.652459  0.609163  1
  Si  Si32  1  0.886769  0.652210  0.108656  1
  Si  Si33  1  0.886767  0.652211  0.891336  1
  Si  Si34  1  0.765439  0.113227  0.108657  1
  Si  Si35  1  0.765436  0.113225  0.891337  1
  Si  Si36  1  0.886077  0.233620  0.390844  1
  Si  Si37  1  0.886080  0.233619  0.609163  1
  O  O38  1  0.056921  0.785207  0.864751  1
  O  O39  1  0.056926  0.785207  0.135245  1
  O  O40  1  0.217738  0.943370  0.633713  1
  O  O41  1  0.217734  0.943372  0.366290  1
  O  O42  1  0.123780  0.741984  0.499998  1
  O  O43  1  0.154950  0.661763  0.668002  1
  O  O44  1  0.154955  0.661764  0.332001  1
  O  O45  1  0.256759  0.863216  0.000002  1
  O  O46  1  0.158286  0.497858  0.164604  1
  O  O47  1  0.158283  0.497854  0.835399  1
  O  O48  1  0.056624  0.274370  0.366289  1
  O  O49  1  0.056626  0.274368  0.633709  1
  O  O50  1  0.339567  0.841713  0.164598  1
  O  O51  1  0.339560  0.841704  0.835399  1
  O  O52  1  0.136770  0.393535  0.000004  1
  O  O53  1  0.258015  0.381794  0.499992  1
  O  O54  1  0.506810  0.845033  0.668002  1
  O  O55  1  0.506807  0.845040  0.331999  1
  O  O56  1  0.214791  0.271720  0.135250  1
  O  O57  1  0.214788  0.271719  0.864755  1
  O  O58  1  0.338235  0.493188  0.667996  1
  O  O59  1  0.338230  0.493194  0.331995  1
  O  O60  1  0.271714  0.214791  0.364750  1
  O  O61  1  0.271717  0.214790  0.635247  1
  O  O62  1  0.618207  0.876217  0.499998  1
  O  O63  1  0.502144  0.660435  0.835397  1
  O  O64  1  0.502147  0.660440  0.164606  1
  O  O65  1  0.274362  0.056624  0.133710  1
  O  O66  1  0.274362  0.056620  0.866290  1
  O  O67  1  0.606466  0.743244  0.000005  1
  O  O68  1  0.381792  0.258011  0.000005  1
  O  O69  1  0.728287  0.943077  0.135249  1
  O  O70  1  0.728280  0.943076  0.864751  1
  O  O71  1  0.493191  0.338237  0.167999  1
  O  O72  1  0.493186  0.338231  0.831998  1
  O  O73  1  0.393526  0.136773  0.499996  1
  O  O74  1  0.725637  0.782258  0.366292  1
  O  O75  1  0.725638  0.782257  0.633710  1
  O  O76  1  0.660427  0.502142  0.335400  1
  O  O77  1  0.660433  0.502140  0.664598  1
  O  O78  1  0.782258  0.725634  0.133710  1
  O  O79  1  0.782257  0.725636  0.866290  1
  O  O80  1  0.497848  0.158286  0.335396  1
  O  O81  1  0.497849  0.158280  0.664604  1
  O  O82  1  0.743241  0.606454  0.499997  1
  O  O83  1  0.876216  0.618201  0.000003  1
  O  O84  1  0.661767  0.154960  0.168003  1
  O  O85  1  0.661765  0.154957  0.831998  1
  O  O86  1  0.943073  0.728279  0.364753  1
  O  O87  1  0.943077  0.728283  0.635249  1
  O  O88  1  0.845037  0.506811  0.168005  1
  O  O89  1  0.845029  0.506807  0.831996  1
  O  O90  1  0.741985  0.123783  0.000005  1
  O  O91  1  0.841706  0.339566  0.335401  1
  O  O92  1  0.841707  0.339561  0.664600  1
  O  O93  1  0.863227  0.256764  0.499996  1
  O  O94  1  0.785212  0.056927  0.364753  1
  O  O95  1  0.785210  0.056927  0.635248  1
  O  O96  1  0.943376  0.217743  0.133713  1
  O  O97  1  0.943374  0.217740  0.866290  1
