# generated using pymatgen
data_NaAl11O17
_symmetry_space_group_name_H-M   'P 1'
_cell_length_a   5.65336900
_cell_length_b   5.65335484
_cell_length_c   22.75263400
_cell_angle_alpha   90.00034073
_cell_angle_beta   89.99991917
_cell_angle_gamma   119.99995766
_symmetry_Int_Tables_number   1
_chemical_formula_structural   NaAl11O17
_chemical_formula_sum   'Na2 Al22 O34'
_cell_volume   629.76145607
_cell_formula_units_Z   2
loop_
 _symmetry_equiv_pos_site_id
 _symmetry_equiv_pos_as_xyz
  1  'x, y, z'
loop_
 _atom_site_type_symbol
 _atom_site_label
 _atom_site_symmetry_multiplicity
 _atom_site_fract_x
 _atom_site_fract_y
 _atom_site_fract_z
 _atom_site_occupancy
  Na  Na0  1  0.000004  0.999993  0.250000  1
  Na  Na1  1  0.999994  0.999986  0.750000  1
  Al  Al2  1  0.168239  0.831755  0.893595  1
  Al  Al3  1  0.168236  0.831753  0.606403  1
  Al  Al4  1  0.333334  0.666680  0.174804  1
  Al  Al5  1  0.333339  0.666674  0.026248  1
  Al  Al6  1  0.000007  0.000004  0.000000  1
  Al  Al7  1  0.000000  0.000000  0.500000  1
  Al  Al8  1  0.333320  0.666665  0.325208  1
  Al  Al9  1  0.333331  0.666665  0.473751  1
  Al  Al10  1  0.168255  0.336488  0.606403  1
  Al  Al11  1  0.168256  0.336490  0.893596  1
  Al  Al12  1  0.336484  0.168248  0.106404  1
  Al  Al13  1  0.336478  0.168230  0.393597  1
  Al  Al14  1  0.663522  0.831772  0.606403  1
  Al  Al15  1  0.663522  0.831774  0.893596  1
  Al  Al16  1  0.831759  0.663529  0.106404  1
  Al  Al17  1  0.831740  0.663510  0.393597  1
  Al  Al18  1  0.666673  0.333344  0.674798  1
  Al  Al19  1  0.666673  0.333346  0.825202  1
  Al  Al20  1  0.666669  0.333335  0.526248  1
  Al  Al21  1  0.666673  0.333338  0.973751  1
  Al  Al22  1  0.831766  0.168257  0.106403  1
  Al  Al23  1  0.831762  0.168246  0.393597  1
  O  O24  1  0.002486  0.501235  0.855921  1
  O  O25  1  0.997510  0.498760  0.355922  1
  O  O26  1  0.997522  0.498775  0.144078  1
  O  O27  1  0.155777  0.844256  0.050078  1
  O  O28  1  0.002485  0.501238  0.644078  1
  O  O29  1  0.155772  0.844249  0.449922  1
  O  O30  1  0.333294  0.666699  0.249994  1
  O  O31  1  0.155746  0.311519  0.449922  1
  O  O32  1  0.000005  0.000006  0.856358  1
  O  O33  1  0.000002  0.000014  0.143642  1
  O  O34  1  0.999993  0.999992  0.356358  1
  O  O35  1  0.000005  0.000006  0.643642  1
  O  O36  1  0.333336  0.666669  0.945863  1
  O  O37  1  0.333335  0.666663  0.554136  1
  O  O38  1  0.155763  0.311529  0.050077  1
  O  O39  1  0.311524  0.155769  0.550078  1
  O  O40  1  0.311528  0.155772  0.949922  1
  O  O41  1  0.498770  0.501255  0.855922  1
  O  O42  1  0.501222  0.498746  0.355920  1
  O  O43  1  0.501242  0.498767  0.144082  1
  O  O44  1  0.498774  0.501254  0.644078  1
  O  O45  1  0.688485  0.844238  0.050076  1
  O  O46  1  0.688476  0.844228  0.449923  1
  O  O47  1  0.666664  0.333339  0.445863  1
  O  O48  1  0.498754  0.997522  0.644081  1
  O  O49  1  0.501244  0.002478  0.355923  1
  O  O50  1  0.501249  0.002493  0.144079  1
  O  O51  1  0.498756  0.997523  0.855918  1
  O  O52  1  0.666703  0.333415  0.750001  1
  O  O53  1  0.666677  0.333345  0.054135  1
  O  O54  1  0.844257  0.688481  0.550078  1
  O  O55  1  0.844254  0.688483  0.949923  1
  O  O56  1  0.844232  0.155752  0.949923  1
  O  O57  1  0.844226  0.155748  0.550077  1
