# generated using pymatgen
data_TbAgH2C2SO9
_symmetry_space_group_name_H-M   'P 1'
_cell_length_a   7.73775735
_cell_length_b   7.73775735
_cell_length_c   9.08942112
_cell_angle_alpha   66.10216679
_cell_angle_beta   113.89783321
_cell_angle_gamma   126.59091438
_symmetry_Int_Tables_number   1
_chemical_formula_structural   TbAgH2C2SO9
_chemical_formula_sum   'Tb2 Ag2 H4 C4 S2 O18'
_cell_volume   389.44197069
_cell_formula_units_Z   2
loop_
 _symmetry_equiv_pos_site_id
 _symmetry_equiv_pos_as_xyz
  1  'x, y, z'
loop_
 _atom_site_type_symbol
 _atom_site_label
 _atom_site_symmetry_multiplicity
 _atom_site_fract_x
 _atom_site_fract_y
 _atom_site_fract_z
 _atom_site_occupancy
  Tb  Tb0  1  0.242753  0.757245  0.268287  1
  Tb  Tb1  1  0.757245  0.242753  0.731713  1
  Ag  Ag2  1  0.086355  0.913643  0.668481  1
  Ag  Ag3  1  0.913643  0.086354  0.331519  1
  H  H4  1  0.301046  0.698952  0.988286  1
  H  H5  1  0.698951  0.301046  0.011714  1
  H  H6  1  0.415195  0.584803  0.147042  1
  H  H7  1  0.584802  0.415195  0.852958  1
  C  C8  1  0.017238  0.982759  0.930132  1
  C  C9  1  0.982759  0.017239  0.069868  1
  C  C10  1  0.609770  0.609770  0.499999  1
  C  C11  1  0.390231  0.390231  0.499999  1
  S  S12  1  0.333664  0.666333  0.716413  1
  S  S13  1  0.666333  0.333665  0.283586  1
  O  O14  1  0.335642  0.664356  0.108832  1
  O  O15  1  0.664356  0.335642  0.891168  1
  O  O16  1  0.448424  0.551574  0.752839  1
  O  O17  1  0.551573  0.448424  0.247160  1
  O  O18  1  0.479791  0.865423  0.790803  1
  O  O19  1  0.865423  0.479790  0.209197  1
  O  O20  1  0.520210  0.134577  0.209197  1
  O  O21  1  0.134578  0.520210  0.790803  1
  O  O22  1  0.261231  0.738767  0.534549  1
  O  O23  1  0.738767  0.261230  0.465451  1
  O  O24  1  0.601670  0.782898  0.417989  1
  O  O25  1  0.782899  0.601670  0.582012  1
  O  O26  1  0.398329  0.217100  0.582012  1
  O  O27  1  0.217101  0.398329  0.417989  1
  O  O28  1  0.943677  0.056321  0.782250  1
  O  O29  1  0.056321  0.943676  0.217750  1
  O  O30  1  0.118275  0.881722  0.972372  1
  O  O31  1  0.881722  0.118276  0.027628  1
