# generated using pymatgen
data_YbGaPt
_symmetry_space_group_name_H-M   'P 1'
_cell_length_a   7.02445626
_cell_length_b   4.32461774
_cell_length_c   7.79449054
_cell_angle_alpha   90.00000462
_cell_angle_beta   90.00064033
_cell_angle_gamma   90.00013501
_symmetry_Int_Tables_number   1
_chemical_formula_structural   YbGaPt
_chemical_formula_sum   'Yb4 Ga4 Pt4'
_cell_volume   236.78172075
_cell_formula_units_Z   4
loop_
 _symmetry_equiv_pos_site_id
 _symmetry_equiv_pos_as_xyz
  1  'x, y, z'
loop_
 _atom_site_type_symbol
 _atom_site_label
 _atom_site_symmetry_multiplicity
 _atom_site_fract_x
 _atom_site_fract_y
 _atom_site_fract_z
 _atom_site_occupancy
  Yb  Yb0  1  0.521304  0.749998  0.186833  1
  Yb  Yb1  1  0.021304  0.749998  0.313167  1
  Yb  Yb2  1  0.978695  0.249999  0.686832  1
  Yb  Yb3  1  0.478696  0.249999  0.813167  1
  Ga  Ga4  1  0.842794  0.249999  0.070759  1
  Ga  Ga5  1  0.342794  0.249998  0.429241  1
  Ga  Ga6  1  0.657206  0.749999  0.570759  1
  Ga  Ga7  1  0.157207  0.750000  0.929242  1
  Pt  Pt8  1  0.219743  0.250001  0.112099  1
  Pt  Pt9  1  0.719740  0.249998  0.387903  1
  Pt  Pt10  1  0.280259  0.749997  0.612098  1
  Pt  Pt11  1  0.780262  0.749996  0.887901  1
