# generated using pymatgen
data_Li3P3(WO6)2
_symmetry_space_group_name_H-M   'P 1'
_cell_length_a   8.86645524
_cell_length_b   12.62762128
_cell_length_c   9.07726322
_cell_angle_alpha   90.00000000
_cell_angle_beta   90.00000000
_cell_angle_gamma   89.76148568
_symmetry_Int_Tables_number   1
_chemical_formula_structural   Li3P3(WO6)2
_chemical_formula_sum   'Li12 P12 W8 O48'
_cell_volume   1016.30190680
_cell_formula_units_Z   4
loop_
 _symmetry_equiv_pos_site_id
 _symmetry_equiv_pos_as_xyz
  1  'x, y, z'
loop_
 _atom_site_type_symbol
 _atom_site_label
 _atom_site_symmetry_multiplicity
 _atom_site_fract_x
 _atom_site_fract_y
 _atom_site_fract_z
 _atom_site_occupancy
  Li  Li0  1  0.060783  0.705213  0.071041  1
  Li  Li1  1  0.210536  0.178274  0.775456  1
  Li  Li2  1  0.202344  0.822443  0.729149  1
  Li  Li3  1  0.297656  0.677557  0.229149  1
  Li  Li4  1  0.289464  0.321726  0.275456  1
  Li  Li5  1  0.439217  0.794787  0.571041  1
  Li  Li6  1  0.560783  0.205213  0.428959  1
  Li  Li7  1  0.710536  0.678274  0.724544  1
  Li  Li8  1  0.702344  0.322443  0.770851  1
  Li  Li9  1  0.797656  0.177557  0.270851  1
  Li  Li10  1  0.789464  0.821726  0.224544  1
  Li  Li11  1  0.939217  0.294787  0.928959  1
  P  P12  1  0.048548  0.500541  0.245176  1
  P  P13  1  0.106736  0.849777  0.392094  1
  P  P14  1  0.108013  0.149126  0.102357  1
  P  P15  1  0.391987  0.350874  0.602357  1
  P  P16  1  0.393264  0.650223  0.892094  1
  P  P17  1  0.451452  0.999459  0.745176  1
  P  P18  1  0.548548  0.000541  0.254824  1
  P  P19  1  0.606736  0.349777  0.107906  1
  P  P20  1  0.608013  0.649126  0.397643  1
  P  P21  1  0.891987  0.850874  0.897643  1
  P  P22  1  0.893264  0.150223  0.607906  1
  P  P23  1  0.951452  0.499459  0.754824  1
  W  W24  1  0.244812  0.612880  0.542003  1
  W  W25  1  0.255188  0.887120  0.042003  1
  W  W26  1  0.744812  0.112880  0.957997  1
  W  W27  1  0.755188  0.387120  0.457997  1
  W  W28  1  0.246030  0.113227  0.456818  1
  W  W29  1  0.253970  0.386773  0.956818  1
  W  W30  1  0.746030  0.613227  0.043182  1
  W  W31  1  0.753970  0.886773  0.543182  1
  O  O32  1  0.036055  0.429951  0.869953  1
  O  O33  1  0.053505  0.575171  0.670955  1
  O  O34  1  0.068442  0.849658  0.890001  1
  O  O35  1  0.064075  0.172661  0.594966  1
  O  O36  1  0.134569  0.582801  0.340127  1
  O  O37  1  0.141847  0.966322  0.409002  1
  O  O38  1  0.154653  0.807737  0.235489  1
  O  O39  1  0.144691  0.232340  0.977896  1
  O  O40  1  0.172783  0.432332  0.169416  1
  O  O41  1  0.169703  0.187645  0.252382  1
  O  O42  1  0.172112  0.043966  0.054179  1
  O  O43  1  0.197493  0.786249  0.513809  1
  O  O44  1  0.302507  0.713751  0.013809  1
  O  O45  1  0.327888  0.456034  0.554179  1
  O  O46  1  0.330297  0.312355  0.752382  1
  O  O47  1  0.327217  0.067668  0.669416  1
  O  O48  1  0.355309  0.267660  0.477896  1
  O  O49  1  0.345347  0.692263  0.735489  1
  O  O50  1  0.358153  0.533678  0.909002  1
  O  O51  1  0.365431  0.917199  0.840127  1
  O  O52  1  0.431558  0.650342  0.390001  1
  O  O53  1  0.435925  0.327339  0.094966  1
  O  O54  1  0.446495  0.924829  0.170955  1
  O  O55  1  0.463945  0.070049  0.369953  1
  O  O56  1  0.536055  0.929951  0.630047  1
  O  O57  1  0.553505  0.075171  0.829045  1
  O  O58  1  0.564075  0.672661  0.905034  1
  O  O59  1  0.568442  0.349658  0.609999  1
  O  O60  1  0.634569  0.082802  0.159873  1
  O  O61  1  0.641847  0.466322  0.090998  1
  O  O62  1  0.654653  0.307737  0.264511  1
  O  O63  1  0.644691  0.732340  0.522104  1
  O  O64  1  0.672783  0.932332  0.330584  1
  O  O65  1  0.669703  0.687645  0.247618  1
  O  O66  1  0.672112  0.543966  0.445821  1
  O  O67  1  0.697493  0.286249  0.986191  1
  O  O68  1  0.802507  0.213751  0.486191  1
  O  O69  1  0.827888  0.956034  0.945821  1
  O  O70  1  0.830297  0.812355  0.747618  1
  O  O71  1  0.827217  0.567668  0.830584  1
  O  O72  1  0.855309  0.767660  0.022104  1
  O  O73  1  0.845347  0.192263  0.764511  1
  O  O74  1  0.858153  0.033678  0.590998  1
  O  O75  1  0.865431  0.417198  0.659873  1
  O  O76  1  0.935925  0.827339  0.405034  1
  O  O77  1  0.931558  0.150342  0.109999  1
  O  O78  1  0.946495  0.424829  0.329045  1
  O  O79  1  0.963945  0.570049  0.130047  1
