# generated using pymatgen
data_Mn6O5F7
_symmetry_space_group_name_H-M   'P 1'
_cell_length_a   4.73055624
_cell_length_b   5.76206346
_cell_length_c   15.57362461
_cell_angle_alpha   89.97811779
_cell_angle_beta   90.12069644
_cell_angle_gamma   91.59532069
_symmetry_Int_Tables_number   1
_chemical_formula_structural   Mn6O5F7
_chemical_formula_sum   'Mn12 O10 F14'
_cell_volume   424.33670041
_cell_formula_units_Z   2
loop_
 _symmetry_equiv_pos_site_id
 _symmetry_equiv_pos_as_xyz
  1  'x, y, z'
loop_
 _atom_site_type_symbol
 _atom_site_label
 _atom_site_symmetry_multiplicity
 _atom_site_fract_x
 _atom_site_fract_y
 _atom_site_fract_z
 _atom_site_occupancy
  Mn  Mn0  1  0.048245  0.152465  0.413747  1
  Mn  Mn1  1  0.988892  0.847678  0.244786  1
  Mn  Mn2  1  0.009938  0.138444  0.079050  1
  Mn  Mn3  1  0.007641  0.187388  0.746657  1
  Mn  Mn4  1  0.018148  0.867735  0.581723  1
  Mn  Mn5  1  0.049574  0.838019  0.920033  1
  Mn  Mn6  1  0.485770  0.335443  0.583935  1
  Mn  Mn7  1  0.476479  0.348134  0.920490  1
  Mn  Mn8  1  0.496323  0.349656  0.252333  1
  Mn  Mn9  1  0.476625  0.670144  0.089206  1
  Mn  Mn10  1  0.476871  0.660338  0.423428  1
  Mn  Mn11  1  0.510515  0.623724  0.749640  1
  O  O12  1  0.222257  0.109076  0.304369  1
  O  O13  1  0.214184  0.121002  0.636848  1
  O  O14  1  0.225942  0.100913  0.974744  1
  O  O15  1  0.201561  0.897885  0.138357  1
  O  O16  1  0.219022  0.895606  0.472777  1
  O  O17  1  0.287652  0.380783  0.474807  1
  O  O18  1  0.290501  0.389318  0.812705  1
  O  O19  1  0.284263  0.614947  0.979527  1
  O  O20  1  0.699474  0.629686  0.194065  1
  O  O21  1  0.701100  0.381740  0.690728  1
  F  F22  1  0.264305  0.873156  0.800335  1
  F  F23  1  0.249047  0.396802  0.140636  1
  F  F24  1  0.250958  0.604577  0.308828  1
  F  F25  1  0.252088  0.615727  0.639739  1
  F  F26  1  0.730535  0.362325  0.027235  1
  F  F27  1  0.754521  0.384741  0.363923  1
  F  F28  1  0.737103  0.625395  0.534575  1
  F  F29  1  0.774608  0.609134  0.866043  1
  F  F30  1  0.754008  0.133133  0.183306  1
  F  F31  1  0.774198  0.129202  0.515644  1
  F  F32  1  0.760876  0.881903  0.357569  1
  F  F33  1  0.751608  0.869135  0.024048  1
  F  F34  1  0.786497  0.103293  0.861402  1
  F  F35  1  0.768674  0.871351  0.692758  1
