# generated using pymatgen
data_Sr2LiFe2N3
_symmetry_space_group_name_H-M   'P 1'
_cell_length_a   6.53908782
_cell_length_b   6.50931341
_cell_length_c   6.55091201
_cell_angle_alpha   88.89951158
_cell_angle_beta   87.80864536
_cell_angle_gamma   59.84857343
_symmetry_Int_Tables_number   1
_chemical_formula_structural   Sr2LiFe2N3
_chemical_formula_sum   'Sr4 Li2 Fe4 N6'
_cell_volume   240.93635169
_cell_formula_units_Z   2
loop_
 _symmetry_equiv_pos_site_id
 _symmetry_equiv_pos_as_xyz
  1  'x, y, z'
loop_
 _atom_site_type_symbol
 _atom_site_label
 _atom_site_symmetry_multiplicity
 _atom_site_fract_x
 _atom_site_fract_y
 _atom_site_fract_z
 _atom_site_occupancy
  Li  Li0  1  0.192776  0.614449  0.750000  1
  Li  Li1  1  0.807224  0.385551  0.250000  1
  N  N2  1  0.589611  0.820778  0.750000  1
  N  N3  1  0.410389  0.179222  0.250000  1
  N  N4  1  0.719082  0.280762  0.515903  1
  N  N5  1  0.999844  0.719238  0.015903  1
  N  N6  1  0.280918  0.719238  0.484097  1
  N  N7  1  0.000156  0.280762  0.984097  1
  Fe  Fe8  1  0.164394  0.406946  0.103112  1
  Fe  Fe9  1  0.835606  0.593054  0.896888  1
  Fe  Fe10  1  0.428659  0.406946  0.396888  1
  Fe  Fe11  1  0.571341  0.593054  0.603112  1
  Sr  Sr12  1  0.681959  0.140750  0.900685  1
  Sr  Sr13  1  0.177291  0.140750  0.599315  1
  Sr  Sr14  1  0.318041  0.859250  0.099315  1
  Sr  Sr15  1  0.822709  0.859250  0.400685  1
