# generated using pymatgen
data_CrFe3Ni2(PO4)6
_symmetry_space_group_name_H-M   'P 1'
_cell_length_a   8.46520821
_cell_length_b   8.46520825
_cell_length_c   8.46520758
_cell_angle_alpha   61.16523577
_cell_angle_beta   61.16523547
_cell_angle_gamma   61.16523484
_symmetry_Int_Tables_number   1
_chemical_formula_structural   CrFe3Ni2(PO4)6
_chemical_formula_sum   'Cr1 Fe3 Ni2 P6 O24'
_cell_volume   440.18701318
_cell_formula_units_Z   1
loop_
 _symmetry_equiv_pos_site_id
 _symmetry_equiv_pos_as_xyz
  1  'x, y, z'
loop_
 _atom_site_type_symbol
 _atom_site_label
 _atom_site_symmetry_multiplicity
 _atom_site_fract_x
 _atom_site_fract_y
 _atom_site_fract_z
 _atom_site_occupancy
  Cr  Cr0  1  0.857962  0.857962  0.857962  1
  Fe  Fe1  1  0.144006  0.144006  0.144006  1
  Fe  Fe2  1  0.355579  0.355579  0.355579  1
  Fe  Fe3  1  0.644006  0.644006  0.644006  1
  Ni  Ni4  1  0.001096  0.001096  0.001096  1
  Ni  Ni5  1  0.500330  0.500330  0.500330  1
  P  P6  1  0.045171  0.749698  0.454644  1
  P  P7  1  0.454644  0.045171  0.749698  1
  P  P8  1  0.749698  0.454644  0.045171  1
  P  P9  1  0.249135  0.546480  0.952291  1
  P  P10  1  0.546480  0.952291  0.249135  1
  P  P11  1  0.952291  0.249135  0.546480  1
  O  O12  1  0.109607  0.314314  0.509689  1
  O  O13  1  0.314314  0.509689  0.109607  1
  O  O14  1  0.060260  0.908354  0.256526  1
  O  O15  1  0.509689  0.109607  0.314314  1
  O  O16  1  0.999462  0.821368  0.615528  1
  O  O17  1  0.243305  0.592001  0.446997  1
  O  O18  1  0.256526  0.060260  0.908354  1
  O  O19  1  0.446997  0.243305  0.592001  1
  O  O20  1  0.176529  0.392157  0.994830  1
  O  O21  1  0.592001  0.446997  0.243305  1
  O  O22  1  0.086587  0.747374  0.936297  1
  O  O23  1  0.392157  0.994830  0.176529  1
  O  O24  1  0.615528  0.999462  0.821368  1
  O  O25  1  0.908354  0.256526  0.060260  1
  O  O26  1  0.405101  0.564037  0.752581  1
  O  O27  1  0.821368  0.615528  0.999462  1
  O  O28  1  0.564037  0.752581  0.405101  1
  O  O29  1  0.747374  0.936297  0.086587  1
  O  O30  1  0.752581  0.405101  0.564037  1
  O  O31  1  0.994830  0.176529  0.392157  1
  O  O32  1  0.497233  0.890030  0.679437  1
  O  O33  1  0.936297  0.086587  0.747374  1
  O  O34  1  0.679437  0.497233  0.890030  1
  O  O35  1  0.890030  0.679437  0.497233  1
