# generated using pymatgen
data_Ti2N2O
_symmetry_space_group_name_H-M   'P 1'
_cell_length_a   8.22797999
_cell_length_b   8.24104491
_cell_length_c   8.22729501
_cell_angle_alpha   109.54865052
_cell_angle_beta   109.51811950
_cell_angle_gamma   109.46810744
_symmetry_Int_Tables_number   1
_chemical_formula_structural   Ti2N2O
_chemical_formula_sum   'Ti16 N16 O8'
_cell_volume   428.80429883
_cell_formula_units_Z   8
loop_
 _symmetry_equiv_pos_site_id
 _symmetry_equiv_pos_as_xyz
  1  'x, y, z'
loop_
 _atom_site_type_symbol
 _atom_site_label
 _atom_site_symmetry_multiplicity
 _atom_site_fract_x
 _atom_site_fract_y
 _atom_site_fract_z
 _atom_site_occupancy
  Ti  Ti0  1  0.491364  0.013515  0.002263  1
  Ti  Ti1  1  0.951634  0.236496  0.206610  1
  Ti  Ti2  1  0.790545  0.044030  0.749806  1
  Ti  Ti3  1  0.709056  0.458447  0.250471  1
  Ti  Ti4  1  0.762307  0.305301  0.547021  1
  Ti  Ti5  1  0.751924  0.785982  0.053831  1
  Ti  Ti6  1  0.996161  0.483147  0.986351  1
  Ti  Ti7  1  0.514262  0.509594  0.515501  1
  Ti  Ti8  1  0.456060  0.253824  0.715200  1
  Ti  Ti9  1  0.013379  0.001597  0.503658  1
  Ti  Ti10  1  0.538317  0.748421  0.299292  1
  Ti  Ti11  1  0.256864  0.717372  0.456698  1
  Ti  Ti12  1  0.233913  0.198452  0.946262  1
  Ti  Ti13  1  0.207318  0.952985  0.246833  1
  Ti  Ti14  1  0.295589  0.546035  0.749333  1
  Ti  Ti15  1  0.052467  0.753885  0.788114  1
  N  N16  1  0.007052  0.048892  0.271198  1
  N  N17  1  0.738614  0.224907  0.276460  1
  N  N18  1  0.769976  0.720817  0.259698  1
  N  N19  1  0.726566  0.265264  0.771939  1
  N  N20  1  0.769619  0.547073  0.538566  1
  N  N21  1  0.278582  0.735921  0.224634  1
  N  N22  1  0.508716  0.235645  0.960376  1
  N  N23  1  0.540099  0.772301  0.549235  1
  N  N24  1  0.274704  0.007184  0.051565  1
  N  N25  1  0.221233  0.275548  0.730020  1
  N  N26  1  0.550631  0.543410  0.773972  1
  N  N27  1  0.050201  0.275409  0.011306  1
  N  N28  1  0.235075  0.958988  0.509730  1
  N  N29  1  0.265577  0.774645  0.725735  1
  N  N30  1  0.040526  0.490441  0.765478  1
  N  N31  1  0.988975  0.948954  0.721791  1
  O  O32  1  0.961304  0.510255  0.237327  1
  O  O33  1  0.949425  0.723437  0.997314  1
  O  O34  1  0.757727  0.034754  0.486995  1
  O  O35  1  0.451359  0.461174  0.226435  1
  O  O36  1  0.723481  0.992700  0.947980  1
  O  O37  1  0.452484  0.225848  0.448929  1
  O  O38  1  0.493668  0.765984  0.038248  1
  O  O39  1  0.223247  0.451363  0.457821  1
