# generated using pymatgen
data_FeNi3Sn2(PO4)6
_symmetry_space_group_name_H-M   'P 1'
_cell_length_a   8.50176723
_cell_length_b   8.50176716
_cell_length_c   8.50176732
_cell_angle_alpha   61.54910920
_cell_angle_beta   61.54910892
_cell_angle_gamma   61.54910827
_symmetry_Int_Tables_number   1
_chemical_formula_structural   FeNi3Sn2(PO4)6
_chemical_formula_sum   'Fe1 Ni3 Sn2 P6 O24'
_cell_volume   449.62754625
_cell_formula_units_Z   1
loop_
 _symmetry_equiv_pos_site_id
 _symmetry_equiv_pos_as_xyz
  1  'x, y, z'
loop_
 _atom_site_type_symbol
 _atom_site_label
 _atom_site_symmetry_multiplicity
 _atom_site_fract_x
 _atom_site_fract_y
 _atom_site_fract_z
 _atom_site_occupancy
  Fe  Fe0  1  0.850508  0.850508  0.850508  1
  Ni  Ni1  1  0.147624  0.147624  0.147624  1
  Ni  Ni2  1  0.353359  0.353359  0.353359  1
  Ni  Ni3  1  0.646564  0.646564  0.646564  1
  Sn  Sn4  1  0.001251  0.001251  0.001251  1
  Sn  Sn5  1  0.500321  0.500321  0.500321  1
  P  P6  1  0.045884  0.749041  0.452838  1
  P  P7  1  0.452838  0.045884  0.749041  1
  P  P8  1  0.250675  0.546214  0.953834  1
  P  P9  1  0.546214  0.953834  0.250675  1
  P  P10  1  0.953834  0.250675  0.546214  1
  P  P11  1  0.749041  0.452838  0.045884  1
  O  O12  1  0.102718  0.321423  0.512740  1
  O  O13  1  0.321423  0.512740  0.102718  1
  O  O14  1  0.066643  0.904559  0.249564  1
  O  O15  1  0.512740  0.102718  0.321423  1
  O  O16  1  0.003602  0.824232  0.604916  1
  O  O17  1  0.249903  0.596359  0.438033  1
  O  O18  1  0.249564  0.066643  0.904559  1
  O  O19  1  0.438033  0.249903  0.596359  1
  O  O20  1  0.178094  0.397926  0.989190  1
  O  O21  1  0.596359  0.438033  0.249903  1
  O  O22  1  0.092915  0.752243  0.933731  1
  O  O23  1  0.397926  0.989190  0.178094  1
  O  O24  1  0.604916  0.003602  0.824232  1
  O  O25  1  0.904559  0.249564  0.066643  1
  O  O26  1  0.403055  0.568150  0.748410  1
  O  O27  1  0.824232  0.604916  0.003602  1
  O  O28  1  0.568150  0.748410  0.403055  1
  O  O29  1  0.752243  0.933731  0.092915  1
  O  O30  1  0.748410  0.403055  0.568150  1
  O  O31  1  0.989190  0.178094  0.397926  1
  O  O32  1  0.489398  0.897688  0.676393  1
  O  O33  1  0.933731  0.092915  0.752243  1
  O  O34  1  0.676393  0.489398  0.897688  1
  O  O35  1  0.897688  0.676393  0.489398  1
