# generated using pymatgen
data_LiFeF3
_symmetry_space_group_name_H-M   'P 1'
_cell_length_a   4.94479635
_cell_length_b   7.40751810
_cell_length_c   3.20521313
_cell_angle_alpha   89.99580024
_cell_angle_beta   89.94438701
_cell_angle_gamma   89.93136436
_symmetry_Int_Tables_number   1
_chemical_formula_structural   LiFeF3
_chemical_formula_sum   'Li2 Fe2 F6'
_cell_volume   117.40254944
_cell_formula_units_Z   2
loop_
 _symmetry_equiv_pos_site_id
 _symmetry_equiv_pos_as_xyz
  1  'x, y, z'
loop_
 _atom_site_type_symbol
 _atom_site_label
 _atom_site_symmetry_multiplicity
 _atom_site_fract_x
 _atom_site_fract_y
 _atom_site_fract_z
 _atom_site_occupancy
  Li  Li0  1  0.466589  0.754365  0.496337  1
  Li  Li1  1  0.531072  0.254258  0.504272  1
  Fe  Fe2  1  0.998676  0.001409  0.000908  1
  Fe  Fe3  1  0.997144  0.501411  0.001203  1
  F  F4  1  0.242587  0.432612  0.516130  1
  F  F5  1  0.245820  0.068742  0.515132  1
  F  F6  1  0.230174  0.750931  0.997658  1
  F  F7  1  0.748314  0.567932  0.485674  1
  F  F8  1  0.752181  0.933896  0.486447  1
  F  F9  1  0.766961  0.251244  0.003174  1
