# generated using pymatgen
data_Tm(Al2Cu)4
_symmetry_space_group_name_H-M   'P 1'
_cell_length_a   5.11984300
_cell_length_b   6.72034363
_cell_length_c   6.72034363
_cell_angle_alpha   98.34312655
_cell_angle_beta   67.60924314
_cell_angle_gamma   112.39075686
_symmetry_Int_Tables_number   1
_chemical_formula_structural   Tm(Al2Cu)4
_chemical_formula_sum   'Tm1 Al8 Cu4'
_cell_volume   197.67621909
_cell_formula_units_Z   1
loop_
 _symmetry_equiv_pos_site_id
 _symmetry_equiv_pos_as_xyz
  1  'x, y, z'
loop_
 _atom_site_type_symbol
 _atom_site_label
 _atom_site_symmetry_multiplicity
 _atom_site_fract_x
 _atom_site_fract_y
 _atom_site_fract_z
 _atom_site_occupancy
  Tm  Tm0  1  0.000000  0.000000  0.000000  1
  Al  Al1  1  0.500000  0.218047  0.218047  1
  Al  Al2  1  0.281952  0.781952  0.218047  1
  Al  Al3  1  0.652383  0.652382  0.347617  1
  Al  Al4  1  0.000000  0.347618  0.347618  1
  Al  Al5  1  0.347618  0.347617  0.652382  1
  Al  Al6  1  0.000000  0.652382  0.652382  1
  Al  Al7  1  0.718049  0.218047  0.781952  1
  Al  Al8  1  0.500000  0.781952  0.781952  1
  Cu  Cu9  1  0.000001  0.500001  0.000000  1
  Cu  Cu10  1  0.500000  0.500001  0.000000  1
  Cu  Cu11  1  0.000000  0.000000  0.500001  1
  Cu  Cu12  1  0.499999  0.000000  0.500001  1
