# generated using pymatgen
data_Li2CrFeO4
_symmetry_space_group_name_H-M   'P 1'
_cell_length_a   5.13403814
_cell_length_b   6.65929428
_cell_length_c   6.63399055
_cell_angle_alpha   96.04453078
_cell_angle_beta   82.75201421
_cell_angle_gamma   97.29508329
_symmetry_Int_Tables_number   1
_chemical_formula_structural   Li2CrFeO4
_chemical_formula_sum   'Li6 Cr3 Fe3 O12'
_cell_volume   222.25576165
_cell_formula_units_Z   3
loop_
 _symmetry_equiv_pos_site_id
 _symmetry_equiv_pos_as_xyz
  1  'x, y, z'
loop_
 _atom_site_type_symbol
 _atom_site_label
 _atom_site_symmetry_multiplicity
 _atom_site_fract_x
 _atom_site_fract_y
 _atom_site_fract_z
 _atom_site_occupancy
  Li  Li0  1  0.499631  0.165839  0.164827  1
  Li  Li1  1  0.505154  0.500614  0.499772  1
  Li  Li2  1  0.994700  0.000333  0.001083  1
  Li  Li3  1  0.999612  0.332341  0.335643  1
  Li  Li4  1  0.500050  0.835751  0.832762  1
  Li  Li5  1  0.000883  0.664857  0.665623  1
  Cr  Cr6  1  0.749970  0.919625  0.419484  1
  Cr  Cr7  1  0.250094  0.085260  0.585119  1
  Cr  Cr8  1  0.249974  0.414229  0.914343  1
  Fe  Fe9  1  0.749996  0.250030  0.749994  1
  Fe  Fe10  1  0.749976  0.580453  0.080833  1
  Fe  Fe11  1  0.250108  0.749762  0.249691  1
  O  O12  1  0.879250  0.300724  0.025667  1
  O  O13  1  0.621711  0.197254  0.475091  1
  O  O14  1  0.877758  0.637884  0.365778  1
  O  O15  1  0.878169  0.976619  0.698433  1
  O  O16  1  0.622057  0.864778  0.136512  1
  O  O17  1  0.377605  0.466761  0.196735  1
  O  O18  1  0.385982  0.139684  0.861184  1
  O  O19  1  0.620988  0.524134  0.799782  1
  O  O20  1  0.119526  0.031449  0.304832  1
  O  O21  1  0.380305  0.806040  0.532364  1
  O  O22  1  0.114032  0.360206  0.638618  1
  O  O23  1  0.122471  0.695372  0.965829  1
