# generated using pymatgen
data_Na3H7Os
_symmetry_space_group_name_H-M   'P 1'
_cell_length_a   9.59847635
_cell_length_b   9.59847635
_cell_length_c   5.31497145
_cell_angle_alpha   90.00000000
_cell_angle_beta   90.00000000
_cell_angle_gamma   90.00000000
_symmetry_Int_Tables_number   1
_chemical_formula_structural   Na3H7Os
_chemical_formula_sum   'Na12 H28 Os4'
_cell_volume   489.67229657
_cell_formula_units_Z   4
loop_
 _symmetry_equiv_pos_site_id
 _symmetry_equiv_pos_as_xyz
  1  'x, y, z'
loop_
 _atom_site_type_symbol
 _atom_site_label
 _atom_site_symmetry_multiplicity
 _atom_site_fract_x
 _atom_site_fract_y
 _atom_site_fract_z
 _atom_site_occupancy
  Na  Na0  1  0.966665  0.701409  0.500000  1
  Na  Na1  1  0.033335  0.298591  0.500000  1
  Na  Na2  1  0.533335  0.201409  0.000000  1
  Na  Na3  1  0.466665  0.798591  0.000000  1
  Na  Na4  1  0.701409  0.966665  0.500000  1
  Na  Na5  1  0.298591  0.033335  0.500000  1
  Na  Na6  1  0.201409  0.533335  0.000000  1
  Na  Na7  1  0.798591  0.466665  0.000000  1
  Na  Na8  1  0.384603  0.384603  0.500000  1
  Na  Na9  1  0.615397  0.615397  0.500000  1
  Na  Na10  1  0.115397  0.884603  0.000000  1
  Na  Na11  1  0.884603  0.115397  0.000000  1
  H  H12  1  0.395839  0.604161  0.697391  1
  H  H13  1  0.604161  0.395839  0.697391  1
  H  H14  1  0.104161  0.104161  0.197391  1
  H  H15  1  0.895839  0.895839  0.197391  1
  H  H16  1  0.604161  0.395839  0.302609  1
  H  H17  1  0.395839  0.604161  0.302609  1
  H  H18  1  0.895839  0.895839  0.802609  1
  H  H19  1  0.104161  0.104161  0.802609  1
  H  H20  1  0.255924  0.744076  0.205059  1
  H  H21  1  0.744076  0.255924  0.205059  1
  H  H22  1  0.244076  0.244076  0.705059  1
  H  H23  1  0.755924  0.755924  0.705059  1
  H  H24  1  0.744076  0.255924  0.794941  1
  H  H25  1  0.255924  0.744076  0.794941  1
  H  H26  1  0.755924  0.755924  0.294941  1
  H  H27  1  0.244076  0.244076  0.294941  1
  H  H28  1  0.175427  0.569080  0.500000  1
  H  H29  1  0.824573  0.430920  0.500000  1
  H  H30  1  0.324573  0.069080  0.000000  1
  H  H31  1  0.675427  0.930920  0.000000  1
  H  H32  1  0.569080  0.175427  0.500000  1
  H  H33  1  0.430920  0.824573  0.500000  1
  H  H34  1  0.069080  0.324573  0.000000  1
  H  H35  1  0.930920  0.675427  0.000000  1
  H  H36  1  0.173958  0.826042  0.500000  1
  H  H37  1  0.826042  0.173958  0.500000  1
  H  H38  1  0.326042  0.326042  0.000000  1
  H  H39  1  0.673958  0.673958  0.000000  1
  Os  Os40  1  0.297647  0.702353  0.500000  1
  Os  Os41  1  0.702353  0.297647  0.500000  1
  Os  Os42  1  0.202353  0.202353  0.000000  1
  Os  Os43  1  0.797647  0.797647  0.000000  1
