# generated using pymatgen
data_LiMnPO4
_symmetry_space_group_name_H-M   'P 1'
_cell_length_a   8.09875759
_cell_length_b   9.18333304
_cell_length_c   5.05283215
_cell_angle_alpha   90.00000000
_cell_angle_beta   90.00000000
_cell_angle_gamma   90.00000000
_symmetry_Int_Tables_number   1
_chemical_formula_structural   LiMnPO4
_chemical_formula_sum   'Li4 Mn4 P4 O16'
_cell_volume   375.79725736
_cell_formula_units_Z   4
loop_
 _symmetry_equiv_pos_site_id
 _symmetry_equiv_pos_as_xyz
  1  'x, y, z'
loop_
 _atom_site_type_symbol
 _atom_site_label
 _atom_site_symmetry_multiplicity
 _atom_site_fract_x
 _atom_site_fract_y
 _atom_site_fract_z
 _atom_site_occupancy
  Li  Li0  1  0.049894  0.621777  0.929549  1
  Li  Li1  1  0.450106  0.121777  0.429549  1
  Li  Li2  1  0.549894  0.878223  0.929549  1
  Li  Li3  1  0.950106  0.378223  0.429549  1
  Mn  Mn4  1  0.169060  0.026875  0.016124  1
  Mn  Mn5  1  0.330940  0.526875  0.516124  1
  Mn  Mn6  1  0.669060  0.473125  0.016124  1
  Mn  Mn7  1  0.830940  0.973125  0.516124  1
  P  P8  1  0.235856  0.862733  0.561887  1
  P  P9  1  0.264144  0.362733  0.061887  1
  P  P10  1  0.735856  0.637267  0.561887  1
  P  P11  1  0.764144  0.137267  0.061887  1
  O  O12  1  0.074553  0.944171  0.652010  1
  O  O13  1  0.122008  0.455882  0.186759  1
  O  O14  1  0.250062  0.854420  0.258454  1
  O  O15  1  0.228263  0.708255  0.687217  1
  O  O16  1  0.271737  0.208255  0.187217  1
  O  O17  1  0.249938  0.354420  0.758454  1
  O  O18  1  0.377992  0.955882  0.686759  1
  O  O19  1  0.425447  0.444171  0.152010  1
  O  O20  1  0.574553  0.555829  0.652010  1
  O  O21  1  0.622008  0.044118  0.186759  1
  O  O22  1  0.750062  0.645580  0.258454  1
  O  O23  1  0.728263  0.791745  0.687217  1
  O  O24  1  0.771737  0.291745  0.187217  1
  O  O25  1  0.749938  0.145580  0.758454  1
  O  O26  1  0.877992  0.544118  0.686759  1
  O  O27  1  0.925447  0.055829  0.152010  1
