# generated using pymatgen
data_Li2V2(SO4)3
_symmetry_space_group_name_H-M   'P 1'
_cell_length_a   8.78587722
_cell_length_b   8.90338981
_cell_length_c   24.38849105
_cell_angle_alpha   90.00000000
_cell_angle_beta   90.00000000
_cell_angle_gamma   90.00000000
_symmetry_Int_Tables_number   1
_chemical_formula_structural   Li2V2(SO4)3
_chemical_formula_sum   'Li16 V16 S24 O96'
_cell_volume   1907.76751185
_cell_formula_units_Z   8
loop_
 _symmetry_equiv_pos_site_id
 _symmetry_equiv_pos_as_xyz
  1  'x, y, z'
loop_
 _atom_site_type_symbol
 _atom_site_label
 _atom_site_symmetry_multiplicity
 _atom_site_fract_x
 _atom_site_fract_y
 _atom_site_fract_z
 _atom_site_occupancy
  Li  Li0  1  0.037233  0.622375  0.290705  1
  Li  Li1  1  0.037233  0.877625  0.790705  1
  Li  Li2  1  0.144281  0.931600  0.009504  1
  Li  Li3  1  0.144281  0.568400  0.509504  1
  Li  Li4  1  0.355719  0.068400  0.509504  1
  Li  Li5  1  0.355719  0.431600  0.009504  1
  Li  Li6  1  0.462767  0.122375  0.290705  1
  Li  Li7  1  0.462767  0.377625  0.790705  1
  Li  Li8  1  0.537233  0.622375  0.209295  1
  Li  Li9  1  0.537233  0.877625  0.709295  1
  Li  Li10  1  0.644281  0.568400  0.990496  1
  Li  Li11  1  0.644281  0.931600  0.490496  1
  Li  Li12  1  0.855719  0.431600  0.490496  1
  Li  Li13  1  0.855719  0.068400  0.990496  1
  Li  Li14  1  0.962767  0.122375  0.209295  1
  Li  Li15  1  0.962767  0.377625  0.709295  1
  V  V16  1  0.003292  0.400355  0.062816  1
  V  V17  1  0.003292  0.099645  0.562816  1
  V  V18  1  0.998311  0.796526  0.179472  1
  V  V19  1  0.998311  0.703474  0.679472  1
  V  V20  1  0.501689  0.296526  0.179472  1
  V  V21  1  0.501689  0.203474  0.679472  1
  V  V22  1  0.496708  0.599645  0.562816  1
  V  V23  1  0.496708  0.900355  0.062816  1
  V  V24  1  0.503292  0.400355  0.437184  1
  V  V25  1  0.503292  0.099645  0.937184  1
  V  V26  1  0.498311  0.703474  0.820528  1
  V  V27  1  0.498311  0.796526  0.320528  1
  V  V28  1  0.001689  0.296526  0.320528  1
  V  V29  1  0.001689  0.203474  0.820528  1
  V  V30  1  0.996708  0.900355  0.437184  1
  V  V31  1  0.996708  0.599645  0.937184  1
  S  S32  1  0.144107  0.946700  0.299529  1
  S  S33  1  0.144107  0.553300  0.799529  1
  S  S34  1  0.148632  0.254103  0.447972  1
  S  S35  1  0.148632  0.245897  0.947972  1
  S  S36  1  0.194995  0.093125  0.116326  1
  S  S37  1  0.194995  0.406875  0.616326  1
  S  S38  1  0.305005  0.593125  0.116326  1
  S  S39  1  0.305005  0.906875  0.616326  1
  S  S40  1  0.351368  0.754103  0.447972  1
  S  S41  1  0.351368  0.745897  0.947972  1
  S  S42  1  0.355893  0.446700  0.299529  1
  S  S43  1  0.355893  0.053300  0.799529  1
  S  S44  1  0.644107  0.553300  0.700471  1
  S  S45  1  0.644107  0.946700  0.200471  1
  S  S46  1  0.648632  0.254103  0.052028  1
  S  S47  1  0.648632  0.245897  0.552028  1
  S  S48  1  0.694995  0.093125  0.383674  1
  S  S49  1  0.694995  0.406875  0.883674  1
  S  S50  1  0.805005  0.593125  0.383674  1
  S  S51  1  0.805005  0.906875  0.883674  1
  S  S52  1  0.851368  0.754103  0.052028  1
  S  S53  1  0.851368  0.745897  0.552028  1
  S  S54  1  0.855893  0.446700  0.200471  1
  S  S55  1  0.855893  0.053300  0.700471  1
  O  O56  1  0.065240  0.389482  0.465668  1
  O  O57  1  0.065240  0.110518  0.965668  1
  O  O58  1  0.082607  0.092535  0.278747  1
  O  O59  1  0.082607  0.407465  0.778748  1
  O  O60  1  0.084354  0.113766  0.475904  1
  O  O61  1  0.084354  0.386234  0.975904  1
  O  O62  1  0.088979  0.913239  0.354795  1
  O  O63  1  0.088979  0.586761  0.854795  1
  O  O64  1  0.094328  0.188531  0.083065  1
  O  O65  1  0.094328  0.311469  0.583065  1
  O  O66  1  0.093871  0.822662  0.262064  1
  O  O67  1  0.093871  0.677338  0.762064  1
  O  O68  1  0.098013  0.010347  0.156918  1
  O  O69  1  0.098013  0.489653  0.656918  1
  O  O70  1  0.139734  0.231373  0.388546  1
  O  O71  1  0.139734  0.268627  0.888546  1
  O  O72  1  0.185881  0.455126  0.297742  1
  O  O73  1  0.185881  0.044874  0.797742  1
  O  O74  1  0.189647  0.678810  0.146342  1
  O  O75  1  0.189647  0.821190  0.646342  1
  O  O76  1  0.189576  0.763192  0.466513  1
  O  O77  1  0.189576  0.736808  0.966513  1
  O  O78  1  0.231647  0.016775  0.577643  1
  O  O79  1  0.231647  0.483225  0.077643  1
  O  O80  1  0.268353  0.983225  0.077643  1
  O  O81  1  0.268353  0.516775  0.577643  1
  O  O82  1  0.310424  0.236808  0.966513  1
  O  O83  1  0.310424  0.263192  0.466513  1
  O  O84  1  0.310353  0.178810  0.146342  1
  O  O85  1  0.310353  0.321190  0.646342  1
  O  O86  1  0.314119  0.955126  0.297742  1
  O  O87  1  0.314119  0.544874  0.797742  1
  O  O88  1  0.360266  0.731373  0.388546  1
  O  O89  1  0.360266  0.768627  0.888546  1
  O  O90  1  0.401987  0.510347  0.156918  1
  O  O91  1  0.401987  0.989653  0.656918  1
  O  O92  1  0.406129  0.322662  0.262064  1
  O  O93  1  0.406129  0.177338  0.762064  1
  O  O94  1  0.405672  0.688531  0.083065  1
  O  O95  1  0.405672  0.811469  0.583065  1
  O  O96  1  0.411021  0.086761  0.854795  1
  O  O97  1  0.411021  0.413239  0.354795  1
  O  O98  1  0.415646  0.613766  0.475904  1
  O  O99  1  0.415646  0.886234  0.975904  1
  O  O100  1  0.417393  0.592535  0.278747  1
  O  O101  1  0.417393  0.907465  0.778748  1
  O  O102  1  0.434760  0.610518  0.965668  1
  O  O103  1  0.434760  0.889482  0.465668  1
  O  O104  1  0.565240  0.389482  0.034333  1
  O  O105  1  0.565240  0.110518  0.534332  1
  O  O106  1  0.582607  0.092535  0.221252  1
  O  O107  1  0.582607  0.407465  0.721252  1
  O  O108  1  0.584354  0.113766  0.024096  1
  O  O109  1  0.584354  0.386234  0.524096  1
  O  O110  1  0.588979  0.586761  0.645205  1
  O  O111  1  0.588979  0.913239  0.145205  1
  O  O112  1  0.594328  0.188531  0.416935  1
  O  O113  1  0.594328  0.311469  0.916935  1
  O  O114  1  0.593871  0.822662  0.237936  1
  O  O115  1  0.593871  0.677338  0.737936  1
  O  O116  1  0.598013  0.010347  0.343082  1
  O  O117  1  0.598013  0.489653  0.843082  1
  O  O118  1  0.639735  0.231373  0.111454  1
  O  O119  1  0.639735  0.268627  0.611454  1
  O  O120  1  0.685881  0.455126  0.202258  1
  O  O121  1  0.685881  0.044874  0.702258  1
  O  O122  1  0.689647  0.678810  0.353658  1
  O  O123  1  0.689647  0.821190  0.853658  1
  O  O124  1  0.689576  0.763192  0.033487  1
  O  O125  1  0.689576  0.736808  0.533487  1
  O  O126  1  0.731647  0.483225  0.422357  1
  O  O127  1  0.731647  0.016775  0.922357  1
  O  O128  1  0.768353  0.983225  0.422357  1
  O  O129  1  0.768353  0.516775  0.922357  1
  O  O130  1  0.810424  0.263192  0.033487  1
  O  O131  1  0.810424  0.236808  0.533487  1
  O  O132  1  0.810353  0.178810  0.353658  1
  O  O133  1  0.810353  0.321190  0.853658  1
  O  O134  1  0.814119  0.544874  0.702258  1
  O  O135  1  0.814119  0.955126  0.202258  1
  O  O136  1  0.860265  0.731373  0.111454  1
  O  O137  1  0.860265  0.768627  0.611454  1
  O  O138  1  0.901987  0.510347  0.343082  1
  O  O139  1  0.901987  0.989653  0.843082  1
  O  O140  1  0.906129  0.322662  0.237936  1
  O  O141  1  0.906129  0.177338  0.737936  1
  O  O142  1  0.905672  0.688531  0.416935  1
  O  O143  1  0.905672  0.811469  0.916935  1
  O  O144  1  0.911021  0.413239  0.145205  1
  O  O145  1  0.911021  0.086761  0.645205  1
  O  O146  1  0.915646  0.613766  0.024096  1
  O  O147  1  0.915646  0.886234  0.524096  1
  O  O148  1  0.917393  0.592535  0.221252  1
  O  O149  1  0.917393  0.907465  0.721252  1
  O  O150  1  0.934760  0.610518  0.534332  1
  O  O151  1  0.934760  0.889482  0.034333  1
