# generated using pymatgen
data_Cs9AlO4
_symmetry_space_group_name_H-M   'P 1'
_cell_length_a   12.48836400
_cell_length_b   12.48836400
_cell_length_c   12.48836400
_cell_angle_alpha   104.91518246
_cell_angle_beta   104.91518246
_cell_angle_gamma   119.02703684
_symmetry_Int_Tables_number   1
_chemical_formula_structural   Cs9AlO4
_chemical_formula_sum   'Cs18 Al2 O8'
_cell_volume   1467.58402052
_cell_formula_units_Z   2
loop_
 _symmetry_equiv_pos_site_id
 _symmetry_equiv_pos_as_xyz
  1  'x, y, z'
loop_
 _atom_site_type_symbol
 _atom_site_label
 _atom_site_symmetry_multiplicity
 _atom_site_fract_x
 _atom_site_fract_y
 _atom_site_fract_z
 _atom_site_occupancy
  Cs  Cs0  1  0.083200  0.583199  0.666400  1
  Cs  Cs1  1  0.916801  0.416800  0.333600  1
  Cs  Cs2  1  0.416801  0.083200  0.500001  1
  Cs  Cs3  1  0.583200  0.916801  0.500001  1
  Cs  Cs4  1  0.000000  0.000000  0.000000  1
  Cs  Cs5  1  0.500000  0.500000  0.000000  1
  Cs  Cs6  1  0.250000  0.518938  0.268938  1
  Cs  Cs7  1  0.250000  0.981063  0.731063  1
  Cs  Cs8  1  0.981063  0.250000  0.731063  1
  Cs  Cs9  1  0.518938  0.250000  0.268938  1
  Cs  Cs10  1  0.749999  0.481063  0.731062  1
  Cs  Cs11  1  0.749999  0.018937  0.268937  1
  Cs  Cs12  1  0.018937  0.749999  0.268937  1
  Cs  Cs13  1  0.481063  0.749999  0.731062  1
  Cs  Cs14  1  0.667456  0.167456  0.834913  1
  Cs  Cs15  1  0.332544  0.832543  0.165087  1
  Cs  Cs16  1  0.832543  0.667456  0.499999  1
  Cs  Cs17  1  0.167456  0.332543  0.499999  1
  Al  Al18  1  0.749999  0.250000  0.499999  1
  Al  Al19  1  0.250000  0.749999  0.499999  1
  O  O20  1  0.733524  0.233524  0.636830  1
  O  O21  1  0.596692  0.096693  0.363169  1
  O  O22  1  0.766476  0.403307  0.499999  1
  O  O23  1  0.903308  0.266476  0.500000  1
  O  O24  1  0.266476  0.766476  0.363169  1
  O  O25  1  0.403307  0.903308  0.636830  1
  O  O26  1  0.096693  0.733524  0.500000  1
  O  O27  1  0.233524  0.596692  0.499999  1
