# generated using pymatgen
data_Ce5Al2Ru3
_symmetry_space_group_name_H-M   'P 1'
_cell_length_a   8.38317113
_cell_length_b   8.38317113
_cell_length_c   8.38317109
_cell_angle_alpha   109.48439307
_cell_angle_beta   109.48439314
_cell_angle_gamma   109.48439362
_symmetry_Int_Tables_number   1
_chemical_formula_structural   Ce5Al2Ru3
_chemical_formula_sum   'Ce10 Al4 Ru6'
_cell_volume   453.30563115
_cell_formula_units_Z   2
loop_
 _symmetry_equiv_pos_site_id
 _symmetry_equiv_pos_as_xyz
  1  'x, y, z'
loop_
 _atom_site_type_symbol
 _atom_site_label
 _atom_site_symmetry_multiplicity
 _atom_site_fract_x
 _atom_site_fract_y
 _atom_site_fract_z
 _atom_site_occupancy
  Ce  Ce0  1  0.381676  0.381676  0.381676  1
  Ce  Ce1  1  0.342573  0.899435  0.149379  1
  Ce  Ce2  1  0.149379  0.342573  0.899435  1
  Ce  Ce3  1  0.899435  0.149380  0.342573  1
  Ce  Ce4  1  0.592632  0.303472  0.092751  1
  Ce  Ce5  1  0.092751  0.592632  0.303472  1
  Ce  Ce6  1  0.303472  0.092751  0.592632  1
  Ce  Ce7  1  0.535417  0.842550  0.785562  1
  Ce  Ce8  1  0.785562  0.535417  0.842550  1
  Ce  Ce9  1  0.842551  0.785562  0.535417  1
  Al  Al10  1  0.995284  0.995284  0.995284  1
  Al  Al11  1  0.592552  0.689482  0.092275  1
  Al  Al12  1  0.092275  0.592552  0.689482  1
  Al  Al13  1  0.689483  0.092275  0.592551  1
  Ru  Ru14  1  0.342336  0.466656  0.716074  1
  Ru  Ru15  1  0.716074  0.342335  0.466657  1
  Ru  Ru16  1  0.466656  0.716075  0.342336  1
  Ru  Ru17  1  0.968832  0.842458  0.218606  1
  Ru  Ru18  1  0.218607  0.968831  0.842458  1
  Ru  Ru19  1  0.842458  0.218606  0.968832  1
