# generated using pymatgen
data_BaBSbS4
_symmetry_space_group_name_H-M   'P 1'
_cell_length_a   9.95329059
_cell_length_b   6.26393904
_cell_length_c   11.89801657
_cell_angle_alpha   90.00000000
_cell_angle_beta   90.00000000
_cell_angle_gamma   90.00000000
_symmetry_Int_Tables_number   1
_chemical_formula_structural   BaBSbS4
_chemical_formula_sum   'Ba4 B4 Sb4 S16'
_cell_volume   741.80332496
_cell_formula_units_Z   4
loop_
 _symmetry_equiv_pos_site_id
 _symmetry_equiv_pos_as_xyz
  1  'x, y, z'
loop_
 _atom_site_type_symbol
 _atom_site_label
 _atom_site_symmetry_multiplicity
 _atom_site_fract_x
 _atom_site_fract_y
 _atom_site_fract_z
 _atom_site_occupancy
  Ba  Ba0  1  0.483989  0.250000  0.666953  1
  Ba  Ba1  1  0.016011  0.750000  0.166954  1
  Ba  Ba2  1  0.983989  0.250000  0.833047  1
  Ba  Ba3  1  0.516011  0.750000  0.333046  1
  B  B4  1  0.192184  0.250000  0.450520  1
  B  B5  1  0.307816  0.750000  0.950521  1
  B  B6  1  0.692184  0.250000  0.049480  1
  B  B7  1  0.807816  0.750000  0.549480  1
  Sb  Sb8  1  0.810131  0.250000  0.459671  1
  Sb  Sb9  1  0.689869  0.750000  0.959671  1
  Sb  Sb10  1  0.310131  0.250000  0.040329  1
  Sb  Sb11  1  0.189869  0.750000  0.540330  1
  S  S12  1  0.169854  0.250000  0.600092  1
  S  S13  1  0.330146  0.750000  0.100091  1
  S  S14  1  0.669854  0.250000  0.899909  1
  S  S15  1  0.830145  0.750000  0.399908  1
  S  S16  1  0.575271  0.250000  0.408602  1
  S  S17  1  0.924730  0.750000  0.908602  1
  S  S18  1  0.075271  0.250000  0.091398  1
  S  S19  1  0.424730  0.750000  0.591397  1
  S  S20  1  0.792163  0.997565  0.628359  1
  S  S21  1  0.707837  0.002435  0.128359  1
  S  S22  1  0.292163  0.502434  0.871641  1
  S  S23  1  0.207837  0.497564  0.371642  1
  S  S24  1  0.207837  0.002435  0.371642  1
  S  S25  1  0.292163  0.997565  0.871641  1
  S  S26  1  0.707837  0.497564  0.128359  1
  S  S27  1  0.792163  0.502434  0.628359  1
