# generated using pymatgen
data_LiMnPO4
_symmetry_space_group_name_H-M   'P 1'
_cell_length_a   9.88533474
_cell_length_b   9.88533416
_cell_length_c   22.48206637
_cell_angle_alpha   90.00000000
_cell_angle_beta   90.00000000
_cell_angle_gamma   120.00000349
_symmetry_Int_Tables_number   1
_chemical_formula_structural   LiMnPO4
_chemical_formula_sum   'Li24 Mn24 P24 O96'
_cell_volume   1902.60913196
_cell_formula_units_Z   24
loop_
 _symmetry_equiv_pos_site_id
 _symmetry_equiv_pos_as_xyz
  1  'x, y, z'
loop_
 _atom_site_type_symbol
 _atom_site_label
 _atom_site_symmetry_multiplicity
 _atom_site_fract_x
 _atom_site_fract_y
 _atom_site_fract_z
 _atom_site_occupancy
  Li  Li0  1  0.148712  0.831570  0.678784  1
  Li  Li1  1  0.183879  0.880000  0.010562  1
  Li  Li2  1  0.179825  0.790470  0.375697  1
  Li  Li3  1  0.120000  0.303880  0.677228  1
  Li  Li4  1  0.330768  0.675974  0.818960  1
  Li  Li5  1  0.324026  0.654793  0.485626  1
  Li  Li6  1  0.345207  0.669232  0.152293  1
  Li  Li7  1  0.168430  0.317142  0.345451  1
  Li  Li8  1  0.209530  0.389356  0.042363  1
  Li  Li9  1  0.610644  0.820175  0.709030  1
  Li  Li10  1  0.303880  0.183879  0.843895  1
  Li  Li11  1  0.317142  0.148712  0.512117  1
  Li  Li12  1  0.682858  0.851288  0.012117  1
  Li  Li13  1  0.696120  0.816121  0.343895  1
  Li  Li14  1  0.389356  0.179825  0.209030  1
  Li  Li15  1  0.790470  0.610644  0.542363  1
  Li  Li16  1  0.831570  0.682858  0.845451  1
  Li  Li17  1  0.654793  0.330768  0.652293  1
  Li  Li18  1  0.675974  0.345207  0.985627  1
  Li  Li19  1  0.669232  0.324026  0.318960  1
  Li  Li20  1  0.880000  0.696120  0.177228  1
  Li  Li21  1  0.820175  0.209530  0.875697  1
  Li  Li22  1  0.816121  0.120000  0.510562  1
  Li  Li23  1  0.851288  0.168430  0.178784  1
  Mn  Mn24  1  0.005070  0.962456  0.419940  1
  Mn  Mn25  1  0.051635  0.552804  0.913090  1
  Mn  Mn26  1  0.040286  0.506873  0.251500  1
  Mn  Mn27  1  0.020065  0.482091  0.590154  1
  Mn  Mn28  1  0.462025  0.979935  0.923488  1
  Mn  Mn29  1  0.466587  0.959714  0.584833  1
  Mn  Mn30  1  0.037544  0.042613  0.086606  1
  Mn  Mn31  1  0.501169  0.948365  0.246424  1
  Mn  Mn32  1  0.042613  0.005070  0.253273  1
  Mn  Mn33  1  0.447196  0.498831  0.579757  1
  Mn  Mn34  1  0.493127  0.533413  0.918167  1
  Mn  Mn35  1  0.517909  0.537975  0.256821  1
  Mn  Mn36  1  0.482091  0.462025  0.756821  1
  Mn  Mn37  1  0.506873  0.466587  0.418167  1
  Mn  Mn38  1  0.552804  0.501169  0.079757  1
  Mn  Mn39  1  0.957387  0.994930  0.753273  1
  Mn  Mn40  1  0.498831  0.051635  0.746424  1
  Mn  Mn41  1  0.962456  0.957387  0.586606  1
  Mn  Mn42  1  0.533413  0.040286  0.084833  1
  Mn  Mn43  1  0.537975  0.020065  0.423488  1
  Mn  Mn44  1  0.979935  0.517909  0.090154  1
  Mn  Mn45  1  0.959714  0.493127  0.751500  1
  Mn  Mn46  1  0.948365  0.447196  0.413090  1
  Mn  Mn47  1  0.994930  0.037544  0.919940  1
  P  P48  1  0.169692  0.857152  0.814757  1
  P  P49  1  0.127976  0.776113  0.506957  1
  P  P50  1  0.213350  0.879961  0.146751  1
  P  P51  1  0.120039  0.333390  0.813417  1
  P  P52  1  0.326091  0.689424  0.012119  1
  P  P53  1  0.142848  0.312540  0.481424  1
  P  P54  1  0.310576  0.636667  0.678785  1
  P  P55  1  0.363333  0.673909  0.345452  1
  P  P56  1  0.223887  0.351863  0.173624  1
  P  P57  1  0.648137  0.872023  0.840290  1
  P  P58  1  0.333390  0.213350  0.980084  1
  P  P59  1  0.312540  0.169692  0.648091  1
  P  P60  1  0.687460  0.830308  0.148091  1
  P  P61  1  0.666610  0.786650  0.480084  1
  P  P62  1  0.351863  0.127976  0.340290  1
  P  P63  1  0.776113  0.648137  0.673624  1
  P  P64  1  0.636667  0.326091  0.845452  1
  P  P65  1  0.689424  0.363333  0.178786  1
  P  P66  1  0.857152  0.687460  0.981424  1
  P  P67  1  0.673909  0.310576  0.512119  1
  P  P68  1  0.879961  0.666610  0.313417  1
  P  P69  1  0.786650  0.120039  0.646751  1
  P  P70  1  0.872023  0.223887  0.006957  1
  P  P71  1  0.830308  0.142848  0.314757  1
  O  O72  1  0.017380  0.700760  0.801308  1
  O  O73  1  0.122602  0.974726  0.840808  1
  O  O74  1  0.012444  0.678636  0.557500  1
  O  O75  1  0.125387  0.932238  0.498184  1
  O  O76  1  0.177369  0.991791  0.183238  1
  O  O77  1  0.059968  0.727068  0.134639  1
  O  O78  1  0.074825  0.678726  0.448753  1
  O  O79  1  0.256039  0.921830  0.754733  1
  O  O80  1  0.285472  0.963369  0.086743  1
  O  O81  1  0.146729  0.626995  0.677920  1
  O  O82  1  0.207012  0.711539  0.974156  1
  O  O83  1  0.279562  0.831383  0.857251  1
  O  O84  1  0.206876  0.646782  0.318733  1
  O  O85  1  0.294048  0.811512  0.524247  1
  O  O86  1  0.036631  0.322103  0.753409  1
  O  O87  1  0.335321  0.851044  0.179377  1
  O  O88  1  0.148956  0.484278  0.846044  1
  O  O89  1  0.008209  0.185577  0.849904  1
  O  O90  1  0.078170  0.334211  0.421400  1
  O  O91  1  0.025274  0.147878  0.507475  1
  O  O92  1  0.255640  0.635776  0.074384  1
  O  O93  1  0.067762  0.193149  0.164850  1
  O  O94  1  0.168617  0.448179  0.523918  1
  O  O95  1  0.188488  0.482536  0.190913  1
  O  O96  1  0.380137  0.744360  0.407717  1
  O  O97  1  0.288461  0.495473  0.640822  1
  O  O98  1  0.364224  0.619863  0.741050  1
  O  O99  1  0.353218  0.560094  0.985400  1
  O  O100  1  0.439906  0.793124  0.652067  1
  O  O101  1  0.480266  0.853271  0.011253  1
  O  O102  1  0.373005  0.519734  0.344587  1
  O  O103  1  0.147878  0.122602  0.674142  1
  O  O104  1  0.185577  0.177369  0.016571  1
  O  O105  1  0.272932  0.332900  0.801305  1
  O  O106  1  0.321274  0.396099  0.115419  1
  O  O107  1  0.504527  0.792988  0.307489  1
  O  O108  1  0.193149  0.125387  0.331517  1
  O  O109  1  0.299240  0.316620  0.467974  1
  O  O110  1  0.321364  0.333808  0.224166  1
  O  O111  1  0.517464  0.705952  0.857580  1
  O  O112  1  0.603901  0.925175  0.782086  1
  O  O113  1  0.551821  0.720438  0.190584  1
  O  O114  1  0.322103  0.285472  0.920076  1
  O  O115  1  0.666192  0.987556  0.890833  1
  O  O116  1  0.515722  0.664679  0.512711  1
  O  O117  1  0.334211  0.256039  0.588067  1
  O  O118  1  0.667100  0.940032  0.467972  1
  O  O119  1  0.683380  0.982620  0.134641  1
  O  O120  1  0.316620  0.017380  0.634641  1
  O  O121  1  0.332900  0.059968  0.967972  1
  O  O122  1  0.665789  0.743961  0.088067  1
  O  O123  1  0.484278  0.335321  0.012711  1
  O  O124  1  0.333808  0.012444  0.390833  1
  O  O125  1  0.677897  0.714528  0.420076  1
  O  O126  1  0.448179  0.279562  0.690584  1
  O  O127  1  0.396099  0.074825  0.282086  1
  O  O128  1  0.482536  0.294048  0.357580  1
  O  O129  1  0.678636  0.666192  0.724166  1
  O  O130  1  0.700760  0.683380  0.967974  1
  O  O131  1  0.806851  0.874613  0.831517  1
  O  O132  1  0.495473  0.207012  0.807489  1
  O  O133  1  0.678726  0.603901  0.615419  1
  O  O134  1  0.727068  0.667100  0.301305  1
  O  O135  1  0.814423  0.822631  0.516571  1
  O  O136  1  0.852122  0.877398  0.174142  1
  O  O137  1  0.626995  0.480266  0.844587  1
  O  O138  1  0.519734  0.146729  0.511253  1
  O  O139  1  0.560094  0.206876  0.152067  1
  O  O140  1  0.646782  0.439906  0.485400  1
  O  O141  1  0.635776  0.380137  0.241050  1
  O  O142  1  0.711539  0.504527  0.140822  1
  O  O143  1  0.619863  0.255640  0.907717  1
  O  O144  1  0.811512  0.517464  0.690913  1
  O  O145  1  0.831383  0.551821  0.023918  1
  O  O146  1  0.932238  0.806851  0.664850  1
  O  O147  1  0.744360  0.364224  0.574384  1
  O  O148  1  0.974726  0.852122  0.007475  1
  O  O149  1  0.921830  0.665789  0.921400  1
  O  O150  1  0.991791  0.814423  0.349904  1
  O  O151  1  0.851044  0.515722  0.346044  1
  O  O152  1  0.664679  0.148956  0.679377  1
  O  O153  1  0.963369  0.677897  0.253409  1
  O  O154  1  0.705952  0.188488  0.024247  1
  O  O155  1  0.793124  0.353218  0.818733  1
  O  O156  1  0.720438  0.168617  0.357251  1
  O  O157  1  0.792988  0.288461  0.474156  1
  O  O158  1  0.853271  0.373005  0.177920  1
  O  O159  1  0.714528  0.036631  0.586743  1
  O  O160  1  0.743961  0.078170  0.254733  1
  O  O161  1  0.925175  0.321274  0.948753  1
  O  O162  1  0.940032  0.272932  0.634639  1
  O  O163  1  0.822631  0.008209  0.683238  1
  O  O164  1  0.874613  0.067762  0.998184  1
  O  O165  1  0.987556  0.321364  0.057500  1
  O  O166  1  0.877398  0.025274  0.340808  1
  O  O167  1  0.982620  0.299240  0.301308  1
