# generated using pymatgen
data_Cr4OF11
_symmetry_space_group_name_H-M   'P 1'
_cell_length_a   5.09551058
_cell_length_b   5.34210761
_cell_length_c   16.93325865
_cell_angle_alpha   91.73167952
_cell_angle_beta   98.30173726
_cell_angle_gamma   61.70988521
_symmetry_Int_Tables_number   1
_chemical_formula_structural   Cr4OF11
_chemical_formula_sum   'Cr8 O2 F22'
_cell_volume   401.24219795
_cell_formula_units_Z   2
loop_
 _symmetry_equiv_pos_site_id
 _symmetry_equiv_pos_as_xyz
  1  'x, y, z'
loop_
 _atom_site_type_symbol
 _atom_site_label
 _atom_site_symmetry_multiplicity
 _atom_site_fract_x
 _atom_site_fract_y
 _atom_site_fract_z
 _atom_site_occupancy
  Cr  Cr0  1  0.745079  0.642798  0.128646  1
  Cr  Cr1  1  0.756586  0.134721  0.620887  1
  Cr  Cr2  1  0.501655  0.753734  0.749691  1
  Cr  Cr3  1  0.508964  0.231566  0.246485  1
  Cr  Cr4  1  0.249688  0.867695  0.375305  1
  Cr  Cr5  1  0.249566  0.377461  0.875007  1
  Cr  Cr6  1  0.992128  0.487390  0.502810  1
  Cr  Cr7  1  0.997005  0.004895  0.000701  1
  O  O8  1  0.746646  0.937555  0.187348  1
  O  O9  1  0.814252  0.281612  0.531958  1
  F  F10  1  0.813003  0.782960  0.032834  1
  F  F11  1  0.754705  0.812988  0.562808  1
  F  F12  1  0.757462  0.318360  0.064390  1
  F  F13  1  0.684194  0.971096  0.714651  1
  F  F14  1  0.685012  0.657467  0.408753  1
  F  F15  1  0.683675  0.467425  0.217845  1
  F  F16  1  0.813875  0.593794  0.842726  1
  F  F17  1  0.813786  0.090524  0.341710  1
  F  F18  1  0.313095  0.842201  0.093368  1
  F  F19  1  0.751180  0.437316  0.687673  1
  F  F20  1  0.262301  0.555557  0.310964  1
  F  F21  1  0.684852  0.158129  0.907442  1
  F  F22  1  0.185838  0.907130  0.656697  1
  F  F23  1  0.183270  0.408084  0.157604  1
  F  F24  1  0.179522  0.712138  0.467912  1
  F  F25  1  0.315603  0.533256  0.781826  1
  F  F26  1  0.317187  0.342734  0.593168  1
  F  F27  1  0.312250  0.030636  0.282100  1
  F  F28  1  0.245222  0.690194  0.937816  1
  F  F29  1  0.243501  0.185929  0.437921  1
  F  F30  1  0.252434  0.063472  0.812637  1
  F  F31  1  0.186464  0.219182  0.968317  1
