# generated using pymatgen
data_CaSnS3
_symmetry_space_group_name_H-M   'P 1'
_cell_length_a   3.78694112
_cell_length_b   6.48447405
_cell_length_c   9.42174512
_cell_angle_alpha   90.00000000
_cell_angle_beta   90.00000000
_cell_angle_gamma   106.97776158
_symmetry_Int_Tables_number   1
_chemical_formula_structural   CaSnS3
_chemical_formula_sum   'Ca2 Sn2 S6'
_cell_volume   221.28015972
_cell_formula_units_Z   2
loop_
 _symmetry_equiv_pos_site_id
 _symmetry_equiv_pos_as_xyz
  1  'x, y, z'
loop_
 _atom_site_type_symbol
 _atom_site_label
 _atom_site_symmetry_multiplicity
 _atom_site_fract_x
 _atom_site_fract_y
 _atom_site_fract_z
 _atom_site_occupancy
  Ca  Ca0  1  0.744805  0.489611  0.750000  1
  Ca  Ca1  1  0.255195  0.510389  0.250000  1
  Sn  Sn2  1  0.000000  0.000000  0.500000  1
  Sn  Sn3  1  0.000000  0.000000  0.000000  1
  S  S4  1  0.080200  0.160400  0.750000  1
  S  S5  1  0.919800  0.839600  0.250000  1
  S  S6  1  0.358024  0.716048  0.547361  1
  S  S7  1  0.641976  0.283952  0.452639  1
  S  S8  1  0.358024  0.716048  0.952639  1
  S  S9  1  0.641976  0.283952  0.047361  1
