# generated using pymatgen
data_Pr3Sb4Au3
_symmetry_space_group_name_H-M   'P 1'
_cell_length_a   8.79692142
_cell_length_b   8.79692142
_cell_length_c   8.79692142
_cell_angle_alpha   109.47122063
_cell_angle_beta   109.47122063
_cell_angle_gamma   109.47122063
_symmetry_Int_Tables_number   1
_chemical_formula_structural   Pr3Sb4Au3
_chemical_formula_sum   'Pr6 Sb8 Au6'
_cell_volume   524.04700951
_cell_formula_units_Z   2
loop_
 _symmetry_equiv_pos_site_id
 _symmetry_equiv_pos_as_xyz
  1  'x, y, z'
loop_
 _atom_site_type_symbol
 _atom_site_label
 _atom_site_symmetry_multiplicity
 _atom_site_fract_x
 _atom_site_fract_y
 _atom_site_fract_z
 _atom_site_occupancy
  Pr  Pr0  1  0.250000  0.625000  0.375000  1
  Pr  Pr1  1  0.750000  0.875001  0.125001  1
  Pr  Pr2  1  0.375000  0.250000  0.625000  1
  Pr  Pr3  1  0.625000  0.375000  0.250000  1
  Pr  Pr4  1  0.125001  0.750000  0.875001  1
  Pr  Pr5  1  0.875001  0.125001  0.750000  1
  Sb  Sb6  1  0.174775  0.174775  0.174775  1
  Sb  Sb7  1  0.499999  0.000000  0.325224  1
  Sb  Sb8  1  0.325224  0.499999  0.000000  1
  Sb  Sb9  1  0.000000  0.325224  0.499999  1
  Sb  Sb10  1  0.674776  0.674776  0.674776  1
  Sb  Sb11  1  0.500001  0.000000  0.825225  1
  Sb  Sb12  1  0.000000  0.825225  0.500001  1
  Sb  Sb13  1  0.825225  0.500001  0.000000  1
  Au  Au14  1  0.250000  0.125001  0.875000  1
  Au  Au15  1  0.750000  0.375000  0.625001  1
  Au  Au16  1  0.875000  0.250000  0.125001  1
  Au  Au17  1  0.125001  0.875000  0.250000  1
  Au  Au18  1  0.625001  0.750000  0.375000  1
  Au  Au19  1  0.375000  0.625001  0.750000  1
