# generated using pymatgen
data_Tl4SiS4
_symmetry_space_group_name_H-M   'P 1'
_cell_length_a   7.80755769
_cell_length_b   8.75744310
_cell_length_c   8.75744310
_cell_angle_alpha   84.38294727
_cell_angle_beta   72.29888639
_cell_angle_gamma   72.29888639
_symmetry_Int_Tables_number   1
_chemical_formula_structural   Tl4SiS4
_chemical_formula_sum   'Tl8 Si2 S8'
_cell_volume   543.41784502
_cell_formula_units_Z   2
loop_
 _symmetry_equiv_pos_site_id
 _symmetry_equiv_pos_as_xyz
  1  'x, y, z'
loop_
 _atom_site_type_symbol
 _atom_site_label
 _atom_site_symmetry_multiplicity
 _atom_site_fract_x
 _atom_site_fract_y
 _atom_site_fract_z
 _atom_site_occupancy
  Si  Si0  1  0.027949  0.617470  0.202258  1
  Si  Si1  1  0.527949  0.202258  0.617470  1
  S  S2  1  0.699752  0.094768  0.771029  1
  S  S3  1  0.704416  0.234026  0.381324  1
  S  S4  1  0.204416  0.381324  0.234026  1
  S  S5  1  0.843337  0.711484  0.430571  1
  S  S6  1  0.356398  0.055464  0.606626  1
  S  S7  1  0.856398  0.606626  0.055464  1
  S  S8  1  0.343337  0.430571  0.711484  1
  S  S9  1  0.199752  0.771029  0.094768  1
  Tl  Tl10  1  0.076981  0.784729  0.808293  1
  Tl  Tl11  1  0.576981  0.808293  0.784729  1
  Tl  Tl12  1  0.037013  0.964864  0.423217  1
  Tl  Tl13  1  0.537013  0.423217  0.964864  1
  Tl  Tl14  1  0.078138  0.262981  0.989732  1
  Tl  Tl15  1  0.578138  0.989732  0.262981  1
  Tl  Tl16  1  0.007216  0.368465  0.581098  1
  Tl  Tl17  1  0.507216  0.581098  0.368465  1
