# generated using pymatgen
data_Li3Mn2(P2O7)2
_symmetry_space_group_name_H-M   'P 1'
_cell_length_a   9.83156154
_cell_length_b   9.84453336
_cell_length_c   11.37968378
_cell_angle_alpha   90.08124394
_cell_angle_beta   103.21158386
_cell_angle_gamma   89.89088963
_symmetry_Int_Tables_number   1
_chemical_formula_structural   Li3Mn2(P2O7)2
_chemical_formula_sum   'Li12 Mn8 P16 O56'
_cell_volume   1072.25325412
_cell_formula_units_Z   4
loop_
 _symmetry_equiv_pos_site_id
 _symmetry_equiv_pos_as_xyz
  1  'x, y, z'
loop_
 _atom_site_type_symbol
 _atom_site_label
 _atom_site_symmetry_multiplicity
 _atom_site_fract_x
 _atom_site_fract_y
 _atom_site_fract_z
 _atom_site_occupancy
  Li  Li0  1  0.157724  0.438302  0.533446  1
  Li  Li1  1  0.087637  0.105702  0.026402  1
  Li  Li2  1  0.149969  0.407588  0.041239  1
  Li  Li3  1  0.411559  0.609216  0.970109  1
  Li  Li4  1  0.328171  0.911067  0.452487  1
  Li  Li5  1  0.386430  0.221688  0.551737  1
  Li  Li6  1  0.658595  0.062349  0.533934  1
  Li  Li7  1  0.586862  0.393394  0.026706  1
  Li  Li8  1  0.650713  0.091811  0.040452  1
  Li  Li9  1  0.911254  0.891604  0.970327  1
  Li  Li10  1  0.827680  0.588756  0.452073  1
  Li  Li11  1  0.886464  0.278611  0.552242  1
  Mn  Mn12  1  0.205279  0.918251  0.677184  1
  Mn  Mn13  1  0.254017  0.212376  0.822989  1
  Mn  Mn14  1  0.238998  0.716607  0.173316  1
  Mn  Mn15  1  0.298039  0.427103  0.326927  1
  Mn  Mn16  1  0.705277  0.581205  0.677041  1
  Mn  Mn17  1  0.754033  0.287471  0.823300  1
  Mn  Mn18  1  0.739107  0.783923  0.173846  1
  Mn  Mn19  1  0.798431  0.073642  0.327024  1
  P  P20  1  0.022160  0.453041  0.756909  1
  P  P21  1  0.118180  0.710166  0.888512  1
  P  P22  1  0.060744  0.930994  0.240924  1
  P  P23  1  0.123714  0.149025  0.426751  1
  P  P24  1  0.381465  0.648484  0.580216  1
  P  P25  1  0.437253  0.430688  0.757301  1
  P  P26  1  0.522090  0.046861  0.756640  1
  P  P27  1  0.381136  0.207739  0.108563  1
  P  P28  1  0.618752  0.790005  0.888202  1
  P  P29  1  0.473653  0.948612  0.245897  1
  P  P30  1  0.560285  0.569194  0.241080  1
  P  P31  1  0.623582  0.351560  0.427066  1
  P  P32  1  0.881734  0.851195  0.579889  1
  P  P33  1  0.937237  0.068916  0.757289  1
  P  P34  1  0.880995  0.292016  0.108658  1
  P  P35  1  0.973370  0.551400  0.245749  1
  O  O36  1  0.025345  0.412885  0.629357  1
  O  O37  1  0.037281  0.847199  0.572420  1
  O  O38  1  0.083776  0.083195  0.729207  1
  O  O39  1  0.102581  0.357651  0.855126  1
  O  O40  1  0.097076  0.597121  0.780134  1
  O  O41  1  0.185209  0.826771  0.834050  1
  O  O42  1  0.224530  0.642470  0.999713  1
  O  O43  1  0.022259  0.272803  0.079802  1
  O  O44  1  0.116618  0.077224  0.297056  1
  O  O45  1  0.059452  0.938179  0.108427  1
  O  O46  1  0.121711  0.546546  0.211100  1
  O  O47  1  0.188681  0.289176  0.418725  1
  O  O48  1  0.173371  0.825176  0.301802  1
  O  O49  1  0.224346  0.061320  0.519889  1
  O  O50  1  0.290447  0.561905  0.482462  1
  O  O51  1  0.334963  0.322898  0.689110  1
  O  O52  1  0.326520  0.792658  0.589631  1
  O  O53  1  0.367148  0.032389  0.772133  1
  O  O54  1  0.376915  0.577423  0.707438  1
  O  O55  1  0.434863  0.432681  0.889684  1
  O  O56  1  0.481630  0.766983  0.920714  1
  O  O57  1  0.271787  0.150425  0.000875  1
  O  O58  1  0.320541  0.331904  0.160602  1
  O  O59  1  0.402671  0.095549  0.216230  1
  O  O60  1  0.416928  0.592356  0.270755  1
  O  O61  1  0.385024  0.846875  0.156419  1
  O  O62  1  0.525286  0.086863  0.629188  1
  O  O63  1  0.474877  0.339787  0.444151  1
  O  O64  1  0.536765  0.651865  0.572294  1
  O  O65  1  0.482526  0.928586  0.377746  1
  O  O66  1  0.602406  0.142110  0.855036  1
  O  O67  1  0.583455  0.415762  0.728965  1
  O  O68  1  0.597066  0.902571  0.779842  1
  O  O69  1  0.685214  0.673024  0.833861  1
  O  O70  1  0.724340  0.857807  0.999659  1
  O  O71  1  0.522529  0.226377  0.079985  1
  O  O72  1  0.558368  0.561029  0.108443  1
  O  O73  1  0.616922  0.423179  0.297577  1
  O  O74  1  0.622305  0.953350  0.211697  1
  O  O75  1  0.688529  0.211206  0.419056  1
  O  O76  1  0.672937  0.675004  0.301452  1
  O  O77  1  0.724474  0.439047  0.520451  1
  O  O78  1  0.791286  0.938432  0.482253  1
  O  O79  1  0.835252  0.177040  0.688970  1
  O  O80  1  0.826340  0.707538  0.588957  1
  O  O81  1  0.867324  0.467672  0.772534  1
  O  O82  1  0.934658  0.067548  0.889554  1
  O  O83  1  0.877008  0.922442  0.707249  1
  O  O84  1  0.981829  0.733549  0.920698  1
  O  O85  1  0.771443  0.349566  0.001201  1
  O  O86  1  0.820579  0.168109  0.160595  1
  O  O87  1  0.902731  0.404414  0.216430  1
  O  O88  1  0.884015  0.652876  0.156386  1
  O  O89  1  0.917083  0.908169  0.270094  1
  O  O90  1  0.974928  0.161501  0.443817  1
  O  O91  1  0.982487  0.571953  0.377646  1
