# generated using pymatgen
data_Li3CrP2O9
_symmetry_space_group_name_H-M   'P 1'
_cell_length_a   6.82362438
_cell_length_b   8.83854672
_cell_length_c   11.68512575
_cell_angle_alpha   89.98487594
_cell_angle_beta   90.53523555
_cell_angle_gamma   89.99512824
_symmetry_Int_Tables_number   1
_chemical_formula_structural   Li3CrP2O9
_chemical_formula_sum   'Li12 Cr4 P8 O36'
_cell_volume   704.70994157
_cell_formula_units_Z   4
loop_
 _symmetry_equiv_pos_site_id
 _symmetry_equiv_pos_as_xyz
  1  'x, y, z'
loop_
 _atom_site_type_symbol
 _atom_site_label
 _atom_site_symmetry_multiplicity
 _atom_site_fract_x
 _atom_site_fract_y
 _atom_site_fract_z
 _atom_site_occupancy
  Li  Li0  1  0.107147  0.610257  0.170503  1
  Li  Li1  1  0.183252  0.754813  0.758035  1
  Li  Li2  1  0.259354  0.094408  0.506482  1
  Li  Li3  1  0.239908  0.905684  0.006328  1
  Li  Li4  1  0.316399  0.245428  0.258970  1
  Li  Li5  1  0.392839  0.389377  0.670815  1
  Li  Li6  1  0.607222  0.889421  0.829149  1
  Li  Li7  1  0.683597  0.745235  0.241134  1
  Li  Li8  1  0.760184  0.405689  0.493645  1
  Li  Li9  1  0.740588  0.594358  0.993555  1
  Li  Li10  1  0.816752  0.254732  0.741716  1
  Li  Li11  1  0.892953  0.110309  0.329648  1
  Cr  Cr12  1  0.018906  0.244826  0.004820  1
  Cr  Cr13  1  0.479268  0.754685  0.503271  1
  Cr  Cr14  1  0.520205  0.254522  0.996742  1
  Cr  Cr15  1  0.980971  0.744660  0.495085  1
  P  P16  1  0.230741  0.872486  0.288156  1
  P  P17  1  0.235573  0.463518  0.418382  1
  P  P18  1  0.264657  0.536381  0.919002  1
  P  P19  1  0.269129  0.128065  0.788456  1
  P  P20  1  0.730777  0.627993  0.711536  1
  P  P21  1  0.735394  0.036437  0.580923  1
  P  P22  1  0.764549  0.963440  0.081644  1
  P  P23  1  0.769346  0.372434  0.211864  1
  O  O24  1  0.048914  0.782637  0.337649  1
  O  O25  1  0.043984  0.530782  0.473244  1
  O  O26  1  0.077592  0.198265  0.841076  1
  O  O27  1  0.088056  0.463556  0.985027  1
  O  O28  1  0.210251  0.040111  0.319115  1
  O  O29  1  0.215391  0.792825  0.546067  1
  O  O30  1  0.244316  0.295285  0.443808  1
  O  O31  1  0.233387  0.831349  0.161969  1
  O  O32  1  0.254234  0.512202  0.789268  1
  O  O33  1  0.246626  0.487360  0.288920  1
  O  O34  1  0.265723  0.168415  0.661860  1
  O  O35  1  0.257379  0.704986  0.943314  1
  O  O36  1  0.263321  0.207622  0.042969  1
  O  O37  1  0.291952  0.960193  0.819142  1
  O  O38  1  0.413944  0.540607  0.483407  1
  O  O39  1  0.423228  0.801375  0.343448  1
  O  O40  1  0.458579  0.466855  0.972937  1
  O  O41  1  0.454341  0.215918  0.839050  1
  O  O42  1  0.545617  0.715841  0.660787  1
  O  O43  1  0.541265  0.967005  0.527224  1
  O  O44  1  0.576800  0.301336  0.156703  1
  O  O45  1  0.586236  0.040538  0.016392  1
  O  O46  1  0.707828  0.460147  0.680927  1
  O  O47  1  0.736235  0.707619  0.456957  1
  O  O48  1  0.742596  0.205098  0.556743  1
  O  O49  1  0.734077  0.668386  0.838086  1
  O  O50  1  0.753507  0.987329  0.211086  1
  O  O51  1  0.766880  0.331315  0.338074  1
  O  O52  1  0.745712  0.012195  0.710665  1
  O  O53  1  0.755898  0.795249  0.056224  1
  O  O54  1  0.784821  0.292639  0.954227  1
  O  O55  1  0.790021  0.540080  0.180866  1
  O  O56  1  0.912063  0.963790  0.514867  1
  O  O57  1  0.922243  0.698283  0.658914  1
  O  O58  1  0.955981  0.030874  0.026767  1
  O  O59  1  0.951293  0.282775  0.162365  1
