# generated using pymatgen
data_V3(O2F)2
_symmetry_space_group_name_H-M   'P 1'
_cell_length_a   4.69058984
_cell_length_b   7.71569693
_cell_length_c   5.61887761
_cell_angle_alpha   94.48055376
_cell_angle_beta   91.40342473
_cell_angle_gamma   88.66446461
_symmetry_Int_Tables_number   1
_chemical_formula_structural   V3(O2F)2
_chemical_formula_sum   'V6 O8 F4'
_cell_volume   202.62477031
_cell_formula_units_Z   2
loop_
 _symmetry_equiv_pos_site_id
 _symmetry_equiv_pos_as_xyz
  1  'x, y, z'
loop_
 _atom_site_type_symbol
 _atom_site_label
 _atom_site_symmetry_multiplicity
 _atom_site_fract_x
 _atom_site_fract_y
 _atom_site_fract_z
 _atom_site_occupancy
  V  V0  1  0.494014  0.673744  0.169050  1
  V  V1  1  0.493959  0.986726  0.503927  1
  V  V2  1  0.529716  0.343804  0.834043  1
  V  V3  1  0.006602  0.670702  0.659986  1
  V  V4  1  0.941988  0.325689  0.339561  1
  V  V5  1  0.009424  0.003353  0.997601  1
  O  O6  1  0.811473  0.429495  0.627829  1
  O  O7  1  0.806224  0.105670  0.303783  1
  O  O8  1  0.681675  0.119769  0.805022  1
  O  O9  1  0.702515  0.754362  0.460576  1
  O  O10  1  0.711452  0.433895  0.132545  1
  O  O11  1  0.319198  0.550059  0.860442  1
  O  O12  1  0.298948  0.897255  0.201328  1
  O  O13  1  0.194807  0.898727  0.704863  1
  F  F14  1  0.801255  0.770293  0.963050  1
  F  F15  1  0.294809  0.242149  0.529316  1
  F  F16  1  0.202028  0.241193  0.042829  1
  F  F17  1  0.199910  0.553115  0.364248  1
