# generated using pymatgen
data_U(PO3)4
_symmetry_space_group_name_H-M   'P 1'
_cell_length_a   8.33187195
_cell_length_b   8.33497398
_cell_length_c   8.98567338
_cell_angle_alpha   118.56835111
_cell_angle_beta   119.40628517
_cell_angle_gamma   90.30011663
_symmetry_Int_Tables_number   1
_chemical_formula_structural   U(PO3)4
_chemical_formula_sum   'U2 P8 O24'
_cell_volume   453.32730928
_cell_formula_units_Z   2
loop_
 _symmetry_equiv_pos_site_id
 _symmetry_equiv_pos_as_xyz
  1  'x, y, z'
loop_
 _atom_site_type_symbol
 _atom_site_label
 _atom_site_symmetry_multiplicity
 _atom_site_fract_x
 _atom_site_fract_y
 _atom_site_fract_z
 _atom_site_occupancy
  U  U0  1  0.089031  0.087935  0.079428  1
  U  U1  1  0.678593  0.663879  0.230624  1
  P  P2  1  0.944532  0.399413  0.449475  1
  P  P3  1  0.621010  0.159382  0.415254  1
  P  P4  1  0.387350  0.615785  0.423163  1
  P  P5  1  0.822885  0.352355  0.860481  1
  P  P6  1  0.590722  0.817660  0.874585  1
  P  P7  1  0.176949  0.934010  0.435420  1
  P  P8  1  0.146343  0.592418  0.894742  1
  P  P9  1  0.380340  0.135886  0.886776  1
  O  O10  1  0.643201  0.283641  0.632282  1
  O  O11  1  0.680763  0.984685  0.397392  1
  O  O12  1  0.124222  0.468320  0.677730  1
  O  O13  1  0.322214  0.104579  0.672904  1
  O  O14  1  0.980720  0.249276  0.301034  1
  O  O15  1  0.570321  0.747116  0.990680  1
  O  O16  1  0.499049  0.987932  0.896798  1
  O  O17  1  0.424292  0.131674  0.249351  1
  O  O18  1  0.197264  0.004589  0.319311  1
  O  O19  1  0.086628  0.767138  0.912595  1
  O  O20  1  0.445600  0.647132  0.637075  1
  O  O21  1  0.789292  0.878910  0.923730  1
  O  O22  1  0.786817  0.502615  0.008975  1
  O  O23  1  0.268688  0.763778  0.413185  1
  O  O24  1  0.567459  0.668236  0.433920  1
  O  O25  1  0.000003  0.442869  0.870616  1
  O  O26  1  0.978425  0.872760  0.386311  1
  O  O27  1  0.857580  0.181156  0.875096  1
  O  O28  1  0.767398  0.308735  0.439225  1
  O  O29  1  0.523529  0.334541  0.050228  1
  O  O30  1  0.909844  0.570729  0.434966  1
  O  O31  1  0.244166  0.417244  0.259749  1
  O  O32  1  0.343163  0.620135  0.060671  1
  O  O33  1  0.200311  0.083485  0.876030  1
