# generated using pymatgen
data_LiMn(PO3)4
_symmetry_space_group_name_H-M   'P 1'
_cell_length_a   7.36916753
_cell_length_b   9.29055485
_cell_length_c   13.92698826
_cell_angle_alpha   90.00000000
_cell_angle_beta   95.50224257
_cell_angle_gamma   90.00000000
_symmetry_Int_Tables_number   1
_chemical_formula_structural   LiMn(PO3)4
_chemical_formula_sum   'Li4 Mn4 P16 O48'
_cell_volume   949.09925310
_cell_formula_units_Z   4
loop_
 _symmetry_equiv_pos_site_id
 _symmetry_equiv_pos_as_xyz
  1  'x, y, z'
loop_
 _atom_site_type_symbol
 _atom_site_label
 _atom_site_symmetry_multiplicity
 _atom_site_fract_x
 _atom_site_fract_y
 _atom_site_fract_z
 _atom_site_occupancy
  Li  Li0  1  0.028352  0.570907  0.912493  1
  Li  Li1  1  0.471648  0.070907  0.587507  1
  Li  Li2  1  0.528352  0.929093  0.412493  1
  Li  Li3  1  0.971648  0.429093  0.087507  1
  Mn  Mn4  1  0.020024  0.653602  0.358487  1
  Mn  Mn5  1  0.520024  0.846398  0.858487  1
  Mn  Mn6  1  0.479976  0.153602  0.141513  1
  Mn  Mn7  1  0.979976  0.346398  0.641513  1
  P  P8  1  0.067781  0.277367  0.425763  1
  P  P9  1  0.133107  0.047758  0.784173  1
  P  P10  1  0.185830  0.234473  0.958387  1
  P  P11  1  0.226111  0.052062  0.303262  1
  P  P12  1  0.314170  0.734473  0.541613  1
  P  P13  1  0.366893  0.547758  0.715827  1
  P  P14  1  0.273889  0.552062  0.196738  1
  P  P15  1  0.567781  0.222633  0.925763  1
  P  P16  1  0.432219  0.777367  0.074237  1
  P  P17  1  0.726111  0.447938  0.803262  1
  P  P18  1  0.633107  0.452242  0.284173  1
  P  P19  1  0.685830  0.265527  0.458387  1
  P  P20  1  0.773889  0.947938  0.696738  1
  P  P21  1  0.814170  0.765527  0.041613  1
  P  P22  1  0.866893  0.952242  0.215827  1
  P  P23  1  0.932219  0.722633  0.574237  1
  O  O24  1  0.063902  0.362467  0.965362  1
  O  O25  1  0.086258  0.118578  0.885819  1
  O  O26  1  0.041218  0.057648  0.233047  1
  O  O27  1  0.111233  0.291032  0.535201  1
  O  O28  1  0.133812  0.156626  0.705081  1
  O  O29  1  0.139713  0.782988  0.595318  1
  O  O30  1  0.103778  0.404330  0.366479  1
  O  O31  1  0.202551  0.452022  0.700492  1
  O  O32  1  0.174579  0.135909  0.399251  1
  O  O33  1  0.138876  0.648127  0.242745  1
  O  O34  1  0.297449  0.952022  0.799508  1
  O  O35  1  0.289430  0.907329  0.336776  1
  O  O36  1  0.248231  0.655454  0.449120  1
  O  O37  1  0.360287  0.282988  0.904682  1
  O  O38  1  0.366188  0.656626  0.794919  1
  O  O39  1  0.388767  0.791032  0.964799  1
  O  O40  1  0.251769  0.155454  0.050880  1
  O  O41  1  0.210570  0.407329  0.163224  1
  O  O42  1  0.413742  0.618578  0.614181  1
  O  O43  1  0.361124  0.148127  0.257255  1
  O  O44  1  0.436098  0.862467  0.534638  1
  O  O45  1  0.325421  0.635909  0.100749  1
  O  O46  1  0.541218  0.442352  0.733047  1
  O  O47  1  0.396222  0.904330  0.133521  1
  O  O48  1  0.603778  0.095670  0.866479  1
  O  O49  1  0.458782  0.557648  0.266953  1
  O  O50  1  0.674579  0.364091  0.899251  1
  O  O51  1  0.563902  0.137533  0.465362  1
  O  O52  1  0.638876  0.851873  0.742745  1
  O  O53  1  0.586258  0.381422  0.385819  1
  O  O54  1  0.789430  0.592671  0.836776  1
  O  O55  1  0.748231  0.844546  0.949120  1
  O  O56  1  0.611233  0.208968  0.035201  1
  O  O57  1  0.633812  0.343374  0.205081  1
  O  O58  1  0.639713  0.717012  0.095318  1
  O  O59  1  0.751769  0.344546  0.550880  1
  O  O60  1  0.710570  0.092671  0.663224  1
  O  O61  1  0.702551  0.047978  0.200492  1
  O  O62  1  0.861124  0.351873  0.757255  1
  O  O63  1  0.825421  0.864091  0.600749  1
  O  O64  1  0.797449  0.547978  0.299508  1
  O  O65  1  0.896222  0.595670  0.633521  1
  O  O66  1  0.860287  0.217012  0.404682  1
  O  O67  1  0.866188  0.843374  0.294919  1
  O  O68  1  0.888767  0.708968  0.464799  1
  O  O69  1  0.958782  0.942352  0.766953  1
  O  O70  1  0.913742  0.881422  0.114181  1
  O  O71  1  0.936098  0.637533  0.034638  1
