# generated using pymatgen
data_LiFeSiO4
_symmetry_space_group_name_H-M   'P 1'
_cell_length_a   4.90403321
_cell_length_b   9.10641733
_cell_length_c   6.29740856
_cell_angle_alpha   90.00098765
_cell_angle_beta   90.00095832
_cell_angle_gamma   89.99986358
_symmetry_Int_Tables_number   1
_chemical_formula_structural   LiFeSiO4
_chemical_formula_sum   'Li4 Fe4 Si4 O16'
_cell_volume   281.23076095
_cell_formula_units_Z   4
loop_
 _symmetry_equiv_pos_site_id
 _symmetry_equiv_pos_as_xyz
  1  'x, y, z'
loop_
 _atom_site_type_symbol
 _atom_site_label
 _atom_site_symmetry_multiplicity
 _atom_site_fract_x
 _atom_site_fract_y
 _atom_site_fract_z
 _atom_site_occupancy
  Li  Li0  1  0.023073  0.666877  0.750004  1
  Li  Li1  1  0.476929  0.166880  0.750001  1
  Li  Li2  1  0.523071  0.833121  0.250005  1
  Li  Li3  1  0.976943  0.333111  0.250006  1
  Fe  Fe4  1  0.999985  0.000061  0.999883  1
  Fe  Fe5  1  0.999939  0.999989  0.499945  1
  Fe  Fe6  1  0.499989  0.499993  0.499952  1
  Fe  Fe7  1  0.500043  0.500026  0.000117  1
  Si  Si8  1  0.024751  0.677682  0.250002  1
  Si  Si9  1  0.475266  0.177654  0.250019  1
  Si  Si10  1  0.524733  0.822318  0.750010  1
  Si  Si11  1  0.975283  0.322347  0.750003  1
  O  O12  1  0.907597  0.140230  0.749987  1
  O  O13  1  0.197857  0.873669  0.749997  1
  O  O14  1  0.327297  0.118232  0.034916  1
  O  O15  1  0.327273  0.118221  0.465089  1
  O  O16  1  0.172716  0.618223  0.034924  1
  O  O17  1  0.172718  0.618226  0.465085  1
  O  O18  1  0.302145  0.373661  0.750007  1
  O  O19  1  0.592399  0.640222  0.750006  1
  O  O20  1  0.407605  0.359764  0.250006  1
  O  O21  1  0.697865  0.626328  0.250003  1
  O  O22  1  0.672703  0.881762  0.534915  1
  O  O23  1  0.672727  0.881774  0.965094  1
  O  O24  1  0.827283  0.381764  0.534910  1
  O  O25  1  0.827288  0.381767  0.965103  1
  O  O26  1  0.802135  0.126329  0.250006  1
  O  O27  1  0.092391  0.859769  0.250004  1
