# generated using pymatgen
data_YNb2NO5
_symmetry_space_group_name_H-M   'P 1'
_cell_length_a   15.03833979
_cell_length_b   5.85005944
_cell_length_c   5.29224399
_cell_angle_alpha   89.21136422
_cell_angle_beta   90.01671762
_cell_angle_gamma   90.06978148
_symmetry_Int_Tables_number   1
_chemical_formula_structural   YNb2NO5
_chemical_formula_sum   'Y4 Nb8 N4 O20'
_cell_volume   465.54166055
_cell_formula_units_Z   4
loop_
 _symmetry_equiv_pos_site_id
 _symmetry_equiv_pos_as_xyz
  1  'x, y, z'
loop_
 _atom_site_type_symbol
 _atom_site_label
 _atom_site_symmetry_multiplicity
 _atom_site_fract_x
 _atom_site_fract_y
 _atom_site_fract_z
 _atom_site_occupancy
  Y  Y0  1  0.004050  0.286501  0.264392  1
  Y  Y1  1  0.999336  0.719490  0.737532  1
  Y  Y2  1  0.498367  0.216433  0.740144  1
  Y  Y3  1  0.497327  0.778933  0.264145  1
  Nb  Nb4  1  0.174569  0.192717  0.728372  1
  Nb  Nb5  1  0.167742  0.817037  0.207704  1
  Nb  Nb6  1  0.334475  0.316441  0.206794  1
  Nb  Nb7  1  0.326647  0.692701  0.727946  1
  Nb  Nb8  1  0.669376  0.310747  0.282228  1
  Nb  Nb9  1  0.664564  0.681242  0.792899  1
  Nb  Nb10  1  0.840122  0.179077  0.768653  1
  Nb  Nb11  1  0.837684  0.807363  0.296532  1
  N  N12  1  0.245140  0.887026  0.896003  1
  N  N13  1  0.259420  0.385487  0.892492  1
  N  N14  1  0.901755  0.069146  0.482766  1
  N  N15  1  0.915922  0.591405  0.405422  1
  O  O16  1  0.085195  0.606052  0.090037  1
  O  O17  1  0.086966  0.400939  0.598841  1
  O  O18  1  0.095843  0.081019  0.011619  1
  O  O19  1  0.098171  0.928844  0.502161  1
  O  O20  1  0.245796  0.139735  0.395942  1
  O  O21  1  0.257415  0.638340  0.394711  1
  O  O22  1  0.406908  0.431775  0.496074  1
  O  O23  1  0.406178  0.582297  0.011259  1
  O  O24  1  0.418209  0.103857  0.093812  1
  O  O25  1  0.417165  0.899397  0.597538  1
  O  O26  1  0.582816  0.100526  0.404148  1
  O  O27  1  0.581060  0.892953  0.907286  1
  O  O28  1  0.592537  0.417213  0.992895  1
  O  O29  1  0.594309  0.571006  0.498008  1
  O  O30  1  0.740297  0.363395  0.606710  1
  O  O31  1  0.735779  0.622904  0.112317  1
  O  O32  1  0.749649  0.133671  0.097125  1
  O  O33  1  0.751457  0.858392  0.613263  1
  O  O34  1  0.897120  0.908792  0.974879  1
  O  O35  1  0.920638  0.387141  0.907351  1
