# generated using pymatgen
data_CeHg3
_symmetry_space_group_name_H-M   'P 1'
_cell_length_a   6.85092443
_cell_length_b   6.85092392
_cell_length_c   5.04226608
_cell_angle_alpha   90.00000000
_cell_angle_beta   90.00000000
_cell_angle_gamma   120.00000241
_symmetry_Int_Tables_number   1
_chemical_formula_structural   CeHg3
_chemical_formula_sum   'Ce2 Hg6'
_cell_volume   204.95319952
_cell_formula_units_Z   2
loop_
 _symmetry_equiv_pos_site_id
 _symmetry_equiv_pos_as_xyz
  1  'x, y, z'
loop_
 _atom_site_type_symbol
 _atom_site_label
 _atom_site_symmetry_multiplicity
 _atom_site_fract_x
 _atom_site_fract_y
 _atom_site_fract_z
 _atom_site_occupancy
  Ce  Ce0  1  0.333333  0.666666  0.750002  1
  Ce  Ce1  1  0.666666  0.333332  0.249999  1
  Hg  Hg2  1  0.163652  0.327303  0.249999  1
  Hg  Hg3  1  0.672696  0.836349  0.249999  1
  Hg  Hg4  1  0.163653  0.836349  0.249999  1
  Hg  Hg5  1  0.836349  0.672696  0.750002  1
  Hg  Hg6  1  0.327304  0.163653  0.750002  1
  Hg  Hg7  1  0.836348  0.163653  0.750002  1
