# generated using pymatgen
data_GaFeO3
_symmetry_space_group_name_H-M   'P 1'
_cell_length_a   8.85977306
_cell_length_b   9.53169772
_cell_length_c   5.16462236
_cell_angle_alpha   90.11267340
_cell_angle_beta   89.93213611
_cell_angle_gamma   90.03599690
_symmetry_Int_Tables_number   1
_chemical_formula_structural   GaFeO3
_chemical_formula_sum   'Ga8 Fe8 O24'
_cell_volume   436.14429925
_cell_formula_units_Z   8
loop_
 _symmetry_equiv_pos_site_id
 _symmetry_equiv_pos_as_xyz
  1  'x, y, z'
loop_
 _atom_site_type_symbol
 _atom_site_label
 _atom_site_symmetry_multiplicity
 _atom_site_fract_x
 _atom_site_fract_y
 _atom_site_fract_z
 _atom_site_occupancy
  Ga  Ga0  1  0.033692  0.796754  0.677017  1
  Ga  Ga1  1  0.153051  0.998906  0.175599  1
  Ga  Ga2  1  0.160946  0.305986  0.814259  1
  Ga  Ga3  1  0.338563  0.305961  0.314709  1
  Ga  Ga4  1  0.346352  0.998813  0.676389  1
  Ga  Ga5  1  0.651805  0.499144  0.324672  1
  Ga  Ga6  1  0.660696  0.806504  0.686922  1
  Ga  Ga7  1  0.847352  0.500007  0.823056  1
  Fe  Fe8  1  0.151832  0.582783  0.187943  1
  Fe  Fe9  1  0.346836  0.583175  0.689934  1
  Fe  Fe10  1  0.469079  0.797643  0.176418  1
  Fe  Fe11  1  0.530612  0.297801  0.824450  1
  Fe  Fe12  1  0.651552  0.082333  0.309937  1
  Fe  Fe13  1  0.839554  0.807310  0.187613  1
  Fe  Fe14  1  0.848427  0.082790  0.808903  1
  Fe  Fe15  1  0.969624  0.298216  0.324473  1
  O  O16  1  0.002067  0.703141  0.352166  1
  O  O17  1  0.010822  0.432298  0.013683  1
  O  O18  1  0.160555  0.196628  0.153843  1
  O  O19  1  0.169279  0.673095  0.846247  1
  O  O20  1  0.167958  0.938459  0.515283  1
  O  O21  1  0.176463  0.422391  0.474774  1
  O  O22  1  0.321404  0.423817  0.975048  1
  O  O23  1  0.331228  0.939720  0.015572  1
  O  O24  1  0.329825  0.671067  0.346191  1
  O  O25  1  0.338891  0.196486  0.653991  1
  O  O26  1  0.487808  0.431396  0.514109  1
  O  O27  1  0.502329  0.701488  0.845117  1
  O  O28  1  0.497900  0.202986  0.155983  1
  O  O29  1  0.510899  0.931783  0.487119  1
  O  O30  1  0.658921  0.696435  0.347654  1
  O  O31  1  0.669780  0.172136  0.653321  1
  O  O32  1  0.669479  0.440215  0.984856  1
  O  O33  1  0.674337  0.925403  0.021289  1
  O  O34  1  0.822484  0.924069  0.526163  1
  O  O35  1  0.830356  0.439900  0.484374  1
  O  O36  1  0.831512  0.170014  0.154626  1
  O  O37  1  0.841712  0.697656  0.843107  1
  O  O38  1  0.992074  0.930783  0.977198  1
  O  O39  1  0.001947  0.202909  0.655992  1
