# generated using pymatgen
data_Mn3OF8
_symmetry_space_group_name_H-M   'P 1'
_cell_length_a   5.18486367
_cell_length_b   5.17460551
_cell_length_c   26.95172059
_cell_angle_alpha   89.11960473
_cell_angle_beta   90.12749349
_cell_angle_gamma   59.77974607
_symmetry_Int_Tables_number   1
_chemical_formula_structural   Mn3OF8
_chemical_formula_sum   'Mn12 O4 F32'
_cell_volume   624.71714080
_cell_formula_units_Z   4
loop_
 _symmetry_equiv_pos_site_id
 _symmetry_equiv_pos_as_xyz
  1  'x, y, z'
loop_
 _atom_site_type_symbol
 _atom_site_label
 _atom_site_symmetry_multiplicity
 _atom_site_fract_x
 _atom_site_fract_y
 _atom_site_fract_z
 _atom_site_occupancy
  Mn  Mn0  1  0.006751  0.979114  0.002834  1
  Mn  Mn1  1  0.003604  0.976129  0.752368  1
  Mn  Mn2  1  0.969281  0.023552  0.252879  1
  Mn  Mn3  1  0.017556  0.013722  0.502727  1
  Mn  Mn4  1  0.359791  0.318480  0.330513  1
  Mn  Mn5  1  0.325749  0.356685  0.830584  1
  Mn  Mn6  1  0.329650  0.310960  0.580498  1
  Mn  Mn7  1  0.322643  0.354804  0.080831  1
  Mn  Mn8  1  0.684326  0.670571  0.416294  1
  Mn  Mn9  1  0.662541  0.667277  0.916582  1
  Mn  Mn10  1  0.649294  0.688484  0.166922  1
  Mn  Mn11  1  0.662683  0.647495  0.666356  1
  O  O12  1  0.295265  0.043126  0.542034  1
  O  O13  1  0.043922  0.672213  0.042739  1
  O  O14  1  0.289502  0.660764  0.791279  1
  O  O15  1  0.661348  0.052289  0.291972  1
  F  F16  1  0.060909  0.283394  0.294016  1
  F  F17  1  0.068883  0.284291  0.793800  1
  F  F18  1  0.010954  0.406980  0.123295  1
  F  F19  1  0.015346  0.373682  0.622289  1
  F  F20  1  0.267732  0.073710  0.042105  1
  F  F21  1  0.397138  0.001571  0.373974  1
  F  F22  1  0.401216  0.000928  0.875648  1
  F  F23  1  0.067058  0.651433  0.543212  1
  F  F24  1  0.282813  0.654264  0.293177  1
  F  F25  1  0.595438  0.021316  0.125099  1
  F  F26  1  0.605725  0.991010  0.623720  1
  F  F27  1  0.660288  0.059762  0.794143  1
  F  F28  1  0.364493  0.731016  0.457126  1
  F  F29  1  0.321568  0.730084  0.961049  1
  F  F30  1  0.394960  0.624913  0.122921  1
  F  F31  1  0.401005  0.583133  0.625629  1
  F  F32  1  0.604587  0.382789  0.372748  1
  F  F33  1  0.598792  0.397925  0.874999  1
  F  F34  1  0.661132  0.277591  0.040772  1
  F  F35  1  0.658299  0.279343  0.543801  1
  F  F36  1  0.292602  0.955876  0.211079  1
  F  F37  1  0.318339  0.930940  0.709299  1
  F  F38  1  0.731555  0.309686  0.709447  1
  F  F39  1  0.701076  0.361914  0.207127  1
  F  F40  1  0.929556  0.329034  0.957082  1
  F  F41  1  0.957187  0.346906  0.457698  1
  F  F42  1  0.764127  0.948515  0.459926  1
  F  F43  1  0.728901  0.926552  0.956518  1
  F  F44  1  0.006949  0.597451  0.373931  1
  F  F45  1  0.014987  0.595375  0.871643  1
  F  F46  1  0.919546  0.710296  0.706388  1
  F  F47  1  0.912929  0.742653  0.208925  1
