# generated using pymatgen
data_Pr3SiAgS7
_symmetry_space_group_name_H-M   'P 1'
_cell_length_a   10.37726730
_cell_length_b   10.37713175
_cell_length_c   5.80916816
_cell_angle_alpha   90.00002634
_cell_angle_beta   90.00000215
_cell_angle_gamma   120.00363976
_symmetry_Int_Tables_number   1
_chemical_formula_structural   Pr3SiAgS7
_chemical_formula_sum   'Pr6 Si2 Ag2 S14'
_cell_volume   541.73760646
_cell_formula_units_Z   2
loop_
 _symmetry_equiv_pos_site_id
 _symmetry_equiv_pos_as_xyz
  1  'x, y, z'
loop_
 _atom_site_type_symbol
 _atom_site_label
 _atom_site_symmetry_multiplicity
 _atom_site_fract_x
 _atom_site_fract_y
 _atom_site_fract_z
 _atom_site_occupancy
  Pr  Pr0  1  0.125454  0.360001  0.246764  1
  Pr  Pr1  1  0.874548  0.640000  0.746762  1
  Pr  Pr2  1  0.640011  0.765440  0.246774  1
  Pr  Pr3  1  0.234549  0.874561  0.246779  1
  Pr  Pr4  1  0.765452  0.125439  0.746778  1
  Pr  Pr5  1  0.359990  0.234561  0.746773  1
  Si  Si6  1  0.333330  0.666668  0.660922  1
  Si  Si7  1  0.666670  0.333332  0.160922  1
  Ag  Ag8  1  0.000011  0.000010  0.309972  1
  Ag  Ag9  1  0.999989  0.999989  0.809973  1
  S  S10  1  0.333337  0.666677  0.025628  1
  S  S11  1  0.666663  0.333324  0.525628  1
  S  S12  1  0.410040  0.525967  0.517016  1
  S  S13  1  0.589960  0.474034  0.017016  1
  S  S14  1  0.474039  0.884083  0.516989  1
  S  S15  1  0.115912  0.589943  0.517010  1
  S  S16  1  0.884088  0.410057  0.017010  1
  S  S17  1  0.525961  0.115917  0.016989  1
  S  S18  1  0.092589  0.268165  0.762734  1
  S  S19  1  0.907412  0.731834  0.262736  1
  S  S20  1  0.731823  0.824404  0.762701  1
  S  S21  1  0.175580  0.907430  0.762708  1
  S  S22  1  0.824421  0.092570  0.262708  1
  S  S23  1  0.268177  0.175597  0.262700  1
