# generated using pymatgen
data_Cs2CoSe2
_symmetry_space_group_name_H-M   'P 1'
_cell_length_a   6.64562381
_cell_length_b   7.55896565
_cell_length_c   8.80683646
_cell_angle_alpha   115.41383768
_cell_angle_beta   112.16648576
_cell_angle_gamma   90.00000000
_symmetry_Int_Tables_number   1
_chemical_formula_structural   Cs2CoSe2
_chemical_formula_sum   'Cs4 Co2 Se4'
_cell_volume   363.05973767
_cell_formula_units_Z   2
loop_
 _symmetry_equiv_pos_site_id
 _symmetry_equiv_pos_as_xyz
  1  'x, y, z'
loop_
 _atom_site_type_symbol
 _atom_site_label
 _atom_site_symmetry_multiplicity
 _atom_site_fract_x
 _atom_site_fract_y
 _atom_site_fract_z
 _atom_site_occupancy
  Co  Co0  1  0.750000  0.000000  0.000000  1
  Co  Co1  1  0.250000  0.000000  0.000000  1
  Se  Se2  1  0.591292  0.255236  0.182584  1
  Se  Se3  1  0.908708  0.072652  0.817416  1
  Se  Se4  1  0.091292  0.927348  0.182584  1
  Se  Se5  1  0.408708  0.744764  0.817416  1
  Cs  Cs6  1  0.645843  0.818978  0.291685  1
  Cs  Cs7  1  0.354157  0.181022  0.708315  1
  Cs  Cs8  1  0.854157  0.527293  0.708315  1
  Cs  Cs9  1  0.145843  0.472707  0.291685  1
