# generated using pymatgen
data_Ba3NaTaO6
_symmetry_space_group_name_H-M   'P 1'
_cell_length_a   7.23648093
_cell_length_b   7.23648093
_cell_length_c   7.23648094
_cell_angle_alpha   91.90242556
_cell_angle_beta   91.90242550
_cell_angle_gamma   91.90242553
_symmetry_Int_Tables_number   1
_chemical_formula_structural   Ba3NaTaO6
_chemical_formula_sum   'Ba6 Na2 Ta2 O12'
_cell_volume   378.30945739
_cell_formula_units_Z   2
loop_
 _symmetry_equiv_pos_site_id
 _symmetry_equiv_pos_as_xyz
  1  'x, y, z'
loop_
 _atom_site_type_symbol
 _atom_site_label
 _atom_site_symmetry_multiplicity
 _atom_site_fract_x
 _atom_site_fract_y
 _atom_site_fract_z
 _atom_site_occupancy
  O  O0  1  0.234064  0.550571  0.422795  1
  O  O1  1  0.550571  0.422795  0.234064  1
  O  O2  1  0.422795  0.234064  0.550571  1
  O  O3  1  0.077205  0.949429  0.265936  1
  O  O4  1  0.949429  0.265936  0.077205  1
  O  O5  1  0.265936  0.077205  0.949429  1
  O  O6  1  0.765936  0.449429  0.577205  1
  O  O7  1  0.449429  0.577205  0.765936  1
  O  O8  1  0.577205  0.765936  0.449429  1
  O  O9  1  0.922795  0.050571  0.734064  1
  O  O10  1  0.734064  0.922795  0.050571  1
  O  O11  1  0.050571  0.734064  0.922795  1
  Na  Na12  1  0.250000  0.250000  0.250000  1
  Na  Na13  1  0.750000  0.750000  0.750000  1
  Ba  Ba14  1  0.250000  0.899074  0.600926  1
  Ba  Ba15  1  0.899074  0.600926  0.250000  1
  Ba  Ba16  1  0.399074  0.750000  0.100926  1
  Ba  Ba17  1  0.750000  0.100926  0.399074  1
  Ba  Ba18  1  0.100926  0.399074  0.750000  1
  Ba  Ba19  1  0.600926  0.250000  0.899074  1
  Ta  Ta20  1  0.000000  0.000000  0.000000  1
  Ta  Ta21  1  0.500000  0.500000  0.500000  1
