# generated using pymatgen
data_Fe10O9F11
_symmetry_space_group_name_H-M   'P 1'
_cell_length_a   4.78838947
_cell_length_b   4.79200973
_cell_length_c   15.38027615
_cell_angle_alpha   90.00000000
_cell_angle_beta   90.00000000
_cell_angle_gamma   93.42833702
_symmetry_Int_Tables_number   1
_chemical_formula_structural   Fe10O9F11
_chemical_formula_sum   'Fe10 O9 F11'
_cell_volume   352.28436655
_cell_formula_units_Z   1
loop_
 _symmetry_equiv_pos_site_id
 _symmetry_equiv_pos_as_xyz
  1  'x, y, z'
loop_
 _atom_site_type_symbol
 _atom_site_label
 _atom_site_symmetry_multiplicity
 _atom_site_fract_x
 _atom_site_fract_y
 _atom_site_fract_z
 _atom_site_occupancy
  Fe  Fe0  1  0.993104  0.992908  0.002902  1
  Fe  Fe1  1  0.993104  0.992908  0.197098  1
  Fe  Fe2  1  0.041665  0.022831  0.404898  1
  Fe  Fe3  1  0.989633  0.943685  0.600000  1
  Fe  Fe4  1  0.041665  0.022831  0.795102  1
  Fe  Fe5  1  0.498155  0.498135  0.100000  1
  Fe  Fe6  1  0.472450  0.532044  0.497722  1
  Fe  Fe7  1  0.492606  0.483546  0.289602  1
  Fe  Fe8  1  0.472450  0.532044  0.702278  1
  Fe  Fe9  1  0.492606  0.483546  0.910398  1
  O  O10  1  0.189584  0.807974  0.499641  1
  O  O11  1  0.189584  0.807974  0.700359  1
  O  O12  1  0.296000  0.293507  0.001382  1
  O  O13  1  0.296000  0.293507  0.198618  1
  O  O14  1  0.321383  0.319210  0.399411  1
  O  O15  1  0.321383  0.319210  0.800589  1
  O  O16  1  0.694895  0.691743  0.998802  1
  O  O17  1  0.694895  0.691743  0.201199  1
  O  O18  1  0.676586  0.676814  0.600000  1
  F  F19  1  0.198987  0.790301  0.100000  1
  F  F20  1  0.199593  0.807459  0.305116  1
  F  F21  1  0.199593  0.807459  0.894884  1
  F  F22  1  0.285749  0.296898  0.600000  1
  F  F23  1  0.707799  0.713354  0.399184  1
  F  F24  1  0.707799  0.713354  0.800816  1
  F  F25  1  0.790656  0.197985  0.100000  1
  F  F26  1  0.808910  0.189360  0.501244  1
  F  F27  1  0.812130  0.194158  0.307021  1
  F  F28  1  0.812130  0.194158  0.892979  1
  F  F29  1  0.808910  0.189360  0.698756  1
