# generated using pymatgen
data_Li2Mn3(BO3)3
_symmetry_space_group_name_H-M   'P 1'
_cell_length_a   6.34438750
_cell_length_b   14.26943666
_cell_length_c   8.85077913
_cell_angle_alpha   89.06306834
_cell_angle_beta   110.27305181
_cell_angle_gamma   91.18773504
_symmetry_Int_Tables_number   1
_chemical_formula_structural   Li2Mn3(BO3)3
_chemical_formula_sum   'Li8 Mn12 B12 O36'
_cell_volume   751.43404788
_cell_formula_units_Z   4
loop_
 _symmetry_equiv_pos_site_id
 _symmetry_equiv_pos_as_xyz
  1  'x, y, z'
loop_
 _atom_site_type_symbol
 _atom_site_label
 _atom_site_symmetry_multiplicity
 _atom_site_fract_x
 _atom_site_fract_y
 _atom_site_fract_z
 _atom_site_occupancy
  Li  Li0  1  0.176110  0.146416  0.867518  1
  Li  Li1  1  0.141188  0.491709  0.790668  1
  Li  Li2  1  0.162711  0.859987  0.840281  1
  Li  Li3  1  0.694441  0.152724  0.871004  1
  Li  Li4  1  0.424734  0.361289  0.343505  1
  Li  Li5  1  0.437575  0.651132  0.374245  1
  Li  Li6  1  0.934075  0.649436  0.368922  1
  Li  Li7  1  0.905139  0.990868  0.284484  1
  Mn  Mn8  1  0.076530  0.500986  0.137754  1
  Mn  Mn9  1  0.331885  0.320301  0.675158  1
  Mn  Mn10  1  0.091423  0.810566  0.176027  1
  Mn  Mn11  1  0.105881  0.186373  0.208300  1
  Mn  Mn12  1  0.308569  0.001571  0.626162  1
  Mn  Mn13  1  0.339210  0.678787  0.696460  1
  Mn  Mn14  1  0.833270  0.676629  0.696834  1
  Mn  Mn15  1  0.804279  0.998217  0.633403  1
  Mn  Mn16  1  0.595604  0.169079  0.192630  1
  Mn  Mn17  1  0.589093  0.826007  0.161480  1
  Mn  Mn18  1  0.832356  0.319752  0.668863  1
  Mn  Mn19  1  0.581061  0.500500  0.130143  1
  B  B20  1  0.244276  0.330945  0.999826  1
  B  B21  1  0.014331  0.163440  0.507163  1
  B  B22  1  0.998776  0.831959  0.498570  1
  B  B23  1  0.496748  0.006273  0.987122  1
  B  B24  1  0.247174  0.503123  0.498999  1
  B  B25  1  0.492771  0.170426  0.500326  1
  B  B26  1  0.480742  0.831383  0.493318  1
  B  B27  1  0.764453  0.327073  0.001151  1
  B  B28  1  0.246173  0.664888  0.003950  1
  B  B29  1  0.006355  0.999488  0.004063  1
  B  B30  1  0.748653  0.503365  0.496183  1
  B  B31  1  0.761692  0.669584  0.010532  1
  O  O32  1  0.164864  0.288399  0.852425  1
  O  O33  1  0.065736  0.778963  0.638526  1
  O  O34  1  0.008553  0.256867  0.529637  1
  O  O35  1  0.088010  0.101092  0.638119  1
  O  O36  1  0.158631  0.626341  0.851490  1
  O  O37  1  0.993471  0.929090  0.504522  1
  O  O38  1  0.411221  0.950599  0.851825  1
  O  O39  1  0.303239  0.460610  0.647416  1
  O  O40  1  0.063611  0.949396  0.147616  1
  O  O41  1  0.233341  0.600617  0.485373  1
  O  O42  1  0.483615  0.103704  0.971953  1
  O  O43  1  0.205628  0.450259  0.362050  1
  O  O44  1  0.397262  0.132828  0.344571  1
  O  O45  1  0.308067  0.276339  0.142445  1
  O  O46  1  0.549758  0.762722  0.607107  1
  O  O47  1  0.573361  0.109809  0.631021  1
  O  O48  1  0.655105  0.637624  0.858168  1
  O  O49  1  0.669072  0.295219  0.845492  1
  O  O50  1  0.403750  0.802906  0.331230  1
  O  O51  1  0.488922  0.925169  0.530096  1
  O  O52  1  0.501316  0.266453  0.518173  1
  O  O53  1  0.255572  0.762898  0.020086  1
  O  O54  1  0.322133  0.607811  0.139738  1
  O  O55  1  0.267248  0.427360  0.012677  1
  O  O56  1  0.664438  0.451029  0.357799  1
  O  O57  1  0.999725  0.098273  0.005082  1
  O  O58  1  0.741936  0.601226  0.484879  1
  O  O59  1  0.838424  0.460569  0.644529  1
  O  O60  1  0.595711  0.967212  0.137746  1
  O  O61  1  0.957634  0.953683  0.860509  1
  O  O62  1  0.789478  0.420511  0.038016  1
  O  O63  1  0.834274  0.608518  0.141661  1
  O  O64  1  0.931975  0.789427  0.347687  1
  O  O65  1  0.831629  0.259333  0.125153  1
  O  O66  1  0.945771  0.125690  0.349732  1
  O  O67  1  0.796639  0.767131  0.033218  1
