# generated using pymatgen
data_Na6Co2B4SO16
_symmetry_space_group_name_H-M   'P 1'
_cell_length_a   9.78172721
_cell_length_b   9.78172716
_cell_length_c   9.78172763
_cell_angle_alpha   59.99999946
_cell_angle_beta   60.00000139
_cell_angle_gamma   59.99999981
_symmetry_Int_Tables_number   1
_chemical_formula_structural   Na6Co2B4SO16
_chemical_formula_sum   'Na12 Co4 B8 S2 O32'
_cell_volume   661.80746626
_cell_formula_units_Z   2
loop_
 _symmetry_equiv_pos_site_id
 _symmetry_equiv_pos_as_xyz
  1  'x, y, z'
loop_
 _atom_site_type_symbol
 _atom_site_label
 _atom_site_symmetry_multiplicity
 _atom_site_fract_x
 _atom_site_fract_y
 _atom_site_fract_z
 _atom_site_occupancy
  Na  Na0  1  0.093307  0.656693  0.093307  1
  Na  Na1  1  0.093307  0.093307  0.656693  1
  Na  Na2  1  0.656693  0.093307  0.093307  1
  Na  Na3  1  0.093307  0.656693  0.656693  1
  Na  Na4  1  0.343307  0.906693  0.343307  1
  Na  Na5  1  0.343307  0.343307  0.906693  1
  Na  Na6  1  0.656693  0.656693  0.093307  1
  Na  Na7  1  0.656693  0.093307  0.656693  1
  Na  Na8  1  0.906693  0.343307  0.343307  1
  Na  Na9  1  0.343307  0.906693  0.906693  1
  Na  Na10  1  0.906693  0.343307  0.906693  1
  Na  Na11  1  0.906693  0.906693  0.343307  1
  Co  Co12  1  0.000000  0.500000  0.500000  1
  Co  Co13  1  0.500000  0.500000  0.000000  1
  Co  Co14  1  0.500000  0.000000  0.500000  1
  Co  Co15  1  0.500000  0.500000  0.500000  1
  B  B16  1  0.290776  0.290776  0.290776  1
  B  B17  1  0.290776  0.290776  0.627673  1
  B  B18  1  0.290776  0.627673  0.290776  1
  B  B19  1  0.627673  0.290776  0.290776  1
  B  B20  1  0.372327  0.709224  0.709224  1
  B  B21  1  0.709224  0.372327  0.709224  1
  B  B22  1  0.709224  0.709224  0.372327  1
  B  B23  1  0.709224  0.709224  0.709224  1
  S  S24  1  0.125000  0.125000  0.125000  1
  S  S25  1  0.875000  0.875000  0.875000  1
  O  O26  1  0.062510  0.062510  0.062510  1
  O  O27  1  0.062510  0.312471  0.062510  1
  O  O28  1  0.062510  0.062510  0.312471  1
  O  O29  1  0.312471  0.062510  0.062510  1
  O  O30  1  0.132947  0.409077  0.320845  1
  O  O31  1  0.320845  0.132947  0.409077  1
  O  O32  1  0.132947  0.320845  0.637131  1
  O  O33  1  0.409077  0.320845  0.132947  1
  O  O34  1  0.132947  0.637131  0.409077  1
  O  O35  1  0.320845  0.637131  0.132947  1
  O  O36  1  0.409077  0.132947  0.637131  1
  O  O37  1  0.320845  0.409077  0.637131  1
  O  O38  1  0.637131  0.132947  0.320845  1
  O  O39  1  0.409077  0.637131  0.320845  1
  O  O40  1  0.637131  0.409077  0.132947  1
  O  O41  1  0.362869  0.679155  0.590923  1
  O  O42  1  0.637131  0.320845  0.409077  1
  O  O43  1  0.362869  0.590923  0.867053  1
  O  O44  1  0.590923  0.362869  0.679155  1
  O  O45  1  0.362869  0.867053  0.679155  1
  O  O46  1  0.679155  0.590923  0.362869  1
  O  O47  1  0.590923  0.867053  0.362869  1
  O  O48  1  0.679155  0.362869  0.867053  1
  O  O49  1  0.867053  0.362869  0.590923  1
  O  O50  1  0.590923  0.679155  0.867053  1
  O  O51  1  0.867053  0.679155  0.362869  1
  O  O52  1  0.679155  0.867053  0.590923  1
  O  O53  1  0.867053  0.590923  0.679155  1
  O  O54  1  0.687529  0.937490  0.937490  1
  O  O55  1  0.937490  0.687529  0.937490  1
  O  O56  1  0.937490  0.937490  0.687529  1
  O  O57  1  0.937490  0.937490  0.937490  1
