# generated using pymatgen
data_Ca2SnS4
_symmetry_space_group_name_H-M   'P 1'
_cell_length_a   6.77693381
_cell_length_b   7.13101658
_cell_length_c   15.13909325
_cell_angle_alpha   90.00000000
_cell_angle_beta   99.02923028
_cell_angle_gamma   90.00000000
_symmetry_Int_Tables_number   1
_chemical_formula_structural   Ca2SnS4
_chemical_formula_sum   'Ca8 Sn4 S16'
_cell_volume   722.55237221
_cell_formula_units_Z   4
loop_
 _symmetry_equiv_pos_site_id
 _symmetry_equiv_pos_as_xyz
  1  'x, y, z'
loop_
 _atom_site_type_symbol
 _atom_site_label
 _atom_site_symmetry_multiplicity
 _atom_site_fract_x
 _atom_site_fract_y
 _atom_site_fract_z
 _atom_site_occupancy
  Ca  Ca0  1  0.319782  0.746249  0.524125  1
  Ca  Ca1  1  0.180218  0.246249  0.975875  1
  Ca  Ca2  1  0.680218  0.253751  0.475875  1
  Ca  Ca3  1  0.819782  0.753751  0.024125  1
  Ca  Ca4  1  0.524798  0.829403  0.782191  1
  Ca  Ca5  1  0.975202  0.329403  0.717809  1
  Ca  Ca6  1  0.475202  0.170597  0.217809  1
  Ca  Ca7  1  0.024798  0.670597  0.282191  1
  Sn  Sn8  1  0.849928  0.764544  0.594900  1
  Sn  Sn9  1  0.650072  0.264544  0.905100  1
  Sn  Sn10  1  0.150072  0.235456  0.405100  1
  Sn  Sn11  1  0.349928  0.735456  0.094900  1
  S  S12  1  0.630547  0.507478  0.621098  1
  S  S13  1  0.869453  0.007478  0.878902  1
  S  S14  1  0.369453  0.492522  0.378902  1
  S  S15  1  0.130547  0.992522  0.121098  1
  S  S16  1  0.865475  0.515851  0.871837  1
  S  S17  1  0.634525  0.015851  0.628163  1
  S  S18  1  0.134525  0.484149  0.128163  1
  S  S19  1  0.365475  0.984149  0.371837  1
  S  S20  1  0.159385  0.684143  0.687058  1
  S  S21  1  0.340615  0.184143  0.812942  1
  S  S22  1  0.840615  0.315857  0.312942  1
  S  S23  1  0.659385  0.815857  0.187058  1
  S  S24  1  0.408340  0.717157  0.944429  1
  S  S25  1  0.091660  0.217157  0.555571  1
  S  S26  1  0.591660  0.282843  0.055571  1
  S  S27  1  0.908340  0.782843  0.444429  1
