# generated using pymatgen
data_Li5Mn6(BO3)6
_symmetry_space_group_name_H-M   'P 1'
_cell_length_a   8.25186761
_cell_length_b   12.71197489
_cell_length_c   8.85542019
_cell_angle_alpha   92.37395908
_cell_angle_beta   62.17453761
_cell_angle_gamma   71.03437671
_symmetry_Int_Tables_number   1
_chemical_formula_structural   Li5Mn6(BO3)6
_chemical_formula_sum   'Li10 Mn12 B12 O36'
_cell_volume   755.91264205
_cell_formula_units_Z   2
loop_
 _symmetry_equiv_pos_site_id
 _symmetry_equiv_pos_as_xyz
  1  'x, y, z'
loop_
 _atom_site_type_symbol
 _atom_site_label
 _atom_site_symmetry_multiplicity
 _atom_site_fract_x
 _atom_site_fract_y
 _atom_site_fract_z
 _atom_site_occupancy
  Li  Li0  1  0.083019  0.197598  0.896249  1
  Li  Li1  1  0.217492  0.806967  0.081925  1
  Li  Li2  1  0.323727  0.373870  0.390142  1
  Li  Li3  1  0.076860  0.621533  0.641679  1
  Li  Li4  1  0.583136  0.119430  0.136211  1
  Li  Li5  1  0.324722  0.949135  0.653641  1
  Li  Li6  1  0.836503  0.444456  0.150378  1
  Li  Li7  1  0.451822  0.556894  0.841969  1
  Li  Li8  1  0.707563  0.306691  0.590982  1
  Li  Li9  1  0.833826  0.869132  0.886383  1
  Mn  Mn10  1  0.111746  0.248111  0.247690  1
  Mn  Mn11  1  0.154841  0.844890  0.468242  1
  Mn  Mn12  1  0.414023  0.589543  0.232317  1
  Mn  Mn13  1  0.224597  0.406722  0.784606  1
  Mn  Mn14  1  0.501117  0.160510  0.518255  1
  Mn  Mn15  1  0.366874  0.002184  0.992105  1
  Mn  Mn16  1  0.895247  0.093248  0.725406  1
  Mn  Mn17  1  0.643057  0.341874  0.979657  1
  Mn  Mn18  1  0.971955  0.655620  0.039024  1
  Mn  Mn19  1  0.733748  0.905230  0.289396  1
  Mn  Mn20  1  0.861485  0.501518  0.488873  1
  Mn  Mn21  1  0.615773  0.749063  0.732181  1
  B  B22  1  0.203942  0.459588  0.130165  1
  B  B23  1  0.043565  0.289993  0.622273  1
  B  B24  1  0.309701  0.033425  0.370468  1
  B  B25  1  0.236116  0.751496  0.756104  1
  B  B26  1  0.001556  0.997652  0.995488  1
  B  B27  1  0.497542  0.494687  0.504674  1
  B  B28  1  0.744613  0.256355  0.246471  1
  B  B29  1  0.455153  0.205820  0.877423  1
  B  B30  1  0.543848  0.802405  0.124969  1
  B  B31  1  0.715552  0.951655  0.614469  1
  B  B32  1  0.786086  0.543190  0.875798  1
  B  B33  1  0.965884  0.714613  0.378976  1
  O  O34  1  0.047744  0.423620  0.206850  1
  O  O35  1  0.152958  0.000303  0.465556  1
  O  O36  1  0.328595  0.085261  0.234018  1
  O  O37  1  0.077500  0.340070  0.480532  1
  O  O38  1  0.051400  0.053194  0.856163  1
  O  O39  1  0.129361  0.960183  0.057123  1
  O  O40  1  0.176165  0.265364  0.683369  1
  O  O41  1  0.335125  0.444504  0.191899  1
  O  O42  1  0.449136  0.014753  0.425217  1
  O  O43  1  0.102608  0.703469  0.437463  1
  O  O44  1  0.317074  0.479904  0.569662  1
  O  O45  1  0.067261  0.725328  0.819954  1
  O  O46  1  0.571554  0.234176  0.303225  1
  O  O47  1  0.292543  0.175460  0.960552  1
  O  O48  1  0.380298  0.772629  0.213474  1
  O  O49  1  0.749582  0.995565  0.465427  1
  O  O50  1  0.229817  0.510969  0.988925  1
  O  O51  1  0.486143  0.256098  0.734635  1
  O  O52  1  0.278008  0.810224  0.624645  1
  O  O53  1  0.573946  0.529317  0.350495  1
  O  O54  1  0.817736  0.296572  0.093480  1
  O  O55  1  0.598836  0.472227  0.597199  1
  O  O56  1  0.837783  0.240044  0.342607  1
  O  O57  1  0.356174  0.719707  0.831183  1
  O  O58  1  0.589925  0.185928  0.935757  1
  O  O59  1  0.677121  0.791249  0.183941  1
  O  O60  1  0.825097  0.978111  0.066088  1
  O  O61  1  0.617162  0.518048  0.956222  1
  O  O62  1  0.549172  0.926408  0.704137  1
  O  O63  1  0.875243  0.263769  0.703290  1
  O  O64  1  0.822201  0.673499  0.454611  1
  O  O65  1  0.577493  0.840251  0.973633  1
  O  O66  1  0.983529  0.770025  0.240599  1
  O  O67  1  0.827364  0.589955  0.730859  1
  O  O68  1  0.911378  0.521155  0.945240  1
  O  O69  1  0.854351  0.933479  0.669626  1
