# generated using pymatgen
data_Li4Nb(P2O7)2
_symmetry_space_group_name_H-M   'P 1'
_cell_length_a   10.16698719
_cell_length_b   10.16693082
_cell_length_c   9.20133884
_cell_angle_alpha   89.99999753
_cell_angle_beta   90.00012130
_cell_angle_gamma   90.00004300
_symmetry_Int_Tables_number   1
_chemical_formula_structural   Li4Nb(P2O7)2
_chemical_formula_sum   'Li16 Nb4 P16 O56'
_cell_volume   951.11530171
_cell_formula_units_Z   4
loop_
 _symmetry_equiv_pos_site_id
 _symmetry_equiv_pos_as_xyz
  1  'x, y, z'
loop_
 _atom_site_type_symbol
 _atom_site_label
 _atom_site_symmetry_multiplicity
 _atom_site_fract_x
 _atom_site_fract_y
 _atom_site_fract_z
 _atom_site_occupancy
  Li  Li0  1  0.107324  0.685766  0.401273  1
  Li  Li1  1  0.107327  0.814232  0.901273  1
  Li  Li2  1  0.185766  0.607328  0.098726  1
  Li  Li3  1  0.185765  0.892675  0.598728  1
  Li  Li4  1  0.314234  0.892675  0.098727  1
  Li  Li5  1  0.314235  0.607324  0.598727  1
  Li  Li6  1  0.392671  0.814231  0.401274  1
  Li  Li7  1  0.392672  0.685768  0.901273  1
  Li  Li8  1  0.607324  0.185765  0.598727  1
  Li  Li9  1  0.607325  0.314236  0.098729  1
  Li  Li10  1  0.685766  0.392672  0.401273  1
  Li  Li11  1  0.685767  0.107329  0.901272  1
  Li  Li12  1  0.814232  0.107330  0.401273  1
  Li  Li13  1  0.814231  0.392674  0.901277  1
  Li  Li14  1  0.892676  0.185767  0.098728  1
  Li  Li15  1  0.892673  0.314236  0.598730  1
  Nb  Nb16  1  0.249996  0.250004  0.067750  1
  Nb  Nb17  1  0.249995  0.250000  0.567751  1
  Nb  Nb18  1  0.749999  0.750003  0.432251  1
  Nb  Nb19  1  0.750000  0.750000  0.932250  1
  P  P20  1  0.018231  0.154899  0.822647  1
  P  P21  1  0.018231  0.345098  0.322636  1
  P  P22  1  0.154900  0.481767  0.822646  1
  P  P23  1  0.154898  0.018234  0.322638  1
  P  P24  1  0.345100  0.018232  0.822643  1
  P  P25  1  0.345096  0.481771  0.322636  1
  P  P26  1  0.481768  0.154904  0.322638  1
  P  P27  1  0.481767  0.345101  0.822646  1
  P  P28  1  0.518231  0.654901  0.177353  1
  P  P29  1  0.518232  0.845096  0.677368  1
  P  P30  1  0.654899  0.518232  0.677363  1
  P  P31  1  0.654903  0.981767  0.177358  1
  P  P32  1  0.845099  0.981769  0.677361  1
  P  P33  1  0.845098  0.518234  0.177357  1
  P  P34  1  0.981765  0.654904  0.677369  1
  P  P35  1  0.981764  0.845105  0.177351  1
  O  O36  1  0.009990  0.509990  0.749996  1
  O  O37  1  0.009990  0.990014  0.249998  1
  O  O38  1  0.063672  0.239551  0.692417  1
  O  O39  1  0.063669  0.260458  0.192424  1
  O  O40  1  0.110733  0.792639  0.115144  1
  O  O41  1  0.110730  0.707365  0.615146  1
  O  O42  1  0.123520  0.117543  0.443327  1
  O  O43  1  0.123525  0.382459  0.943321  1
  O  O44  1  0.117540  0.376480  0.443332  1
  O  O45  1  0.117538  0.123524  0.943326  1
  O  O46  1  0.207362  0.610733  0.884851  1
  O  O47  1  0.207363  0.889272  0.384854  1
  O  O48  1  0.239544  0.063675  0.192419  1
  O  O49  1  0.239553  0.436329  0.692416  1
  O  O50  1  0.260449  0.063674  0.692418  1
  O  O51  1  0.260449  0.436336  0.192419  1
  O  O52  1  0.292636  0.889268  0.884851  1
  O  O53  1  0.292636  0.610736  0.384858  1
  O  O54  1  0.382455  0.123526  0.443324  1
  O  O55  1  0.382460  0.376475  0.943321  1
  O  O56  1  0.376472  0.382459  0.443322  1
  O  O57  1  0.376472  0.117542  0.943321  1
  O  O58  1  0.389268  0.792633  0.615146  1
  O  O59  1  0.389267  0.707364  0.115143  1
  O  O60  1  0.436327  0.239550  0.192421  1
  O  O61  1  0.436330  0.260453  0.692417  1
  O  O62  1  0.490008  0.509991  0.249997  1
  O  O63  1  0.490008  0.990012  0.749999  1
  O  O64  1  0.509992  0.009993  0.249998  1
  O  O65  1  0.509988  0.490009  0.749999  1
  O  O66  1  0.563669  0.739550  0.307583  1
  O  O67  1  0.563672  0.760454  0.807577  1
  O  O68  1  0.610730  0.207365  0.384855  1
  O  O69  1  0.610733  0.292637  0.884857  1
  O  O70  1  0.623523  0.617543  0.556678  1
  O  O71  1  0.623527  0.882461  0.056679  1
  O  O72  1  0.617538  0.623526  0.056676  1
  O  O73  1  0.617543  0.876479  0.556673  1
  O  O74  1  0.707362  0.110735  0.115144  1
  O  O75  1  0.707360  0.389265  0.615138  1
  O  O76  1  0.739548  0.936332  0.307583  1
  O  O77  1  0.739545  0.563664  0.807580  1
  O  O78  1  0.760452  0.936331  0.807574  1
  O  O79  1  0.760448  0.563673  0.307587  1
  O  O80  1  0.792635  0.110734  0.615143  1
  O  O81  1  0.792638  0.389266  0.115149  1
  O  O82  1  0.882455  0.623526  0.556672  1
  O  O83  1  0.882461  0.876479  0.056674  1
  O  O84  1  0.876471  0.617541  0.056682  1
  O  O85  1  0.876477  0.882459  0.556673  1
  O  O86  1  0.889269  0.207365  0.884855  1
  O  O87  1  0.889265  0.292636  0.384857  1
  O  O88  1  0.936328  0.739542  0.807581  1
  O  O89  1  0.936324  0.760453  0.307581  1
  O  O90  1  0.990008  0.490013  0.250007  1
  O  O91  1  0.990009  0.009990  0.750000  1
