# generated using pymatgen
data_Na2FeO4
_symmetry_space_group_name_H-M   'P 1'
_cell_length_a   5.51133221
_cell_length_b   6.13780667
_cell_length_c   8.66211957
_cell_angle_alpha   82.55598603
_cell_angle_beta   74.96700131
_cell_angle_gamma   58.67047221
_symmetry_Int_Tables_number   1
_chemical_formula_structural   Na2FeO4
_chemical_formula_sum   'Na4 Fe2 O8'
_cell_volume   241.72225739
_cell_formula_units_Z   2
loop_
 _symmetry_equiv_pos_site_id
 _symmetry_equiv_pos_as_xyz
  1  'x, y, z'
loop_
 _atom_site_type_symbol
 _atom_site_label
 _atom_site_symmetry_multiplicity
 _atom_site_fract_x
 _atom_site_fract_y
 _atom_site_fract_z
 _atom_site_occupancy
  Na  Na0  1  0.309145  0.273931  0.646156  1
  Na  Na1  1  0.023667  0.755691  0.928530  1
  Na  Na2  1  0.976333  0.244309  0.071470  1
  Na  Na3  1  0.690855  0.726069  0.353844  1
  Fe  Fe4  1  0.406334  0.296175  0.244591  1
  Fe  Fe5  1  0.593666  0.703825  0.755409  1
  O  O6  1  0.136148  0.489749  0.152852  1
  O  O7  1  0.277251  0.171848  0.401969  1
  O  O8  1  0.674510  0.054026  0.125307  1
  O  O9  1  0.549810  0.447058  0.296446  1
  O  O10  1  0.450190  0.552942  0.703554  1
  O  O11  1  0.325490  0.945974  0.874693  1
  O  O12  1  0.722749  0.828152  0.598031  1
  O  O13  1  0.863852  0.510251  0.847148  1
