# generated using pymatgen
data_Li2TiCr3O8
_symmetry_space_group_name_H-M   'P 1'
_cell_length_a   8.39505658
_cell_length_b   8.39467719
_cell_length_c   8.40328419
_cell_angle_alpha   89.98213098
_cell_angle_beta   90.00055994
_cell_angle_gamma   90.00070117
_symmetry_Int_Tables_number   1
_chemical_formula_structural   Li2TiCr3O8
_chemical_formula_sum   'Li8 Ti4 Cr12 O32'
_cell_volume   592.21125620
_cell_formula_units_Z   4
loop_
 _symmetry_equiv_pos_site_id
 _symmetry_equiv_pos_as_xyz
  1  'x, y, z'
loop_
 _atom_site_type_symbol
 _atom_site_label
 _atom_site_symmetry_multiplicity
 _atom_site_fract_x
 _atom_site_fract_y
 _atom_site_fract_z
 _atom_site_occupancy
  Li  Li0  1  0.995197  0.996547  0.997584  1
  Li  Li1  1  0.252412  0.253506  0.252938  1
  Li  Li2  1  0.247720  0.745594  0.752579  1
  Li  Li3  1  0.503545  0.003210  0.496071  1
  Li  Li4  1  0.495812  0.503655  0.002270  1
  Li  Li5  1  0.752898  0.246681  0.747278  1
  Li  Li6  1  0.747324  0.754535  0.247223  1
  Li  Li7  1  0.003891  0.496638  0.503722  1
  Ti  Ti8  1  0.124316  0.876130  0.376565  1
  Ti  Ti9  1  0.374951  0.123469  0.876896  1
  Ti  Ti10  1  0.623945  0.623844  0.624037  1
  Ti  Ti11  1  0.874560  0.377170  0.123427  1
  Cr  Cr12  1  0.126902  0.123708  0.626967  1
  Cr  Cr13  1  0.126187  0.373239  0.876536  1
  Cr  Cr14  1  0.123899  0.626672  0.126744  1
  Cr  Cr15  1  0.376348  0.372511  0.626573  1
  Cr  Cr16  1  0.373984  0.626263  0.375528  1
  Cr  Cr17  1  0.373383  0.875482  0.126250  1
  Cr  Cr18  1  0.626747  0.376286  0.373574  1
  Cr  Cr19  1  0.625790  0.126856  0.123828  1
  Cr  Cr20  1  0.623684  0.873851  0.873176  1
  Cr  Cr21  1  0.876373  0.127529  0.373341  1
  Cr  Cr22  1  0.873471  0.873340  0.624093  1
  Cr  Cr23  1  0.873522  0.624543  0.873731  1
  O  O24  1  0.116772  0.109792  0.387446  1
  O  O25  1  0.113587  0.883301  0.609375  1
  O  O26  1  0.108172  0.608620  0.892495  1
  O  O27  1  0.137913  0.134897  0.863028  1
  O  O28  1  0.109304  0.387577  0.116212  1
  O  O29  1  0.140358  0.359414  0.640654  1
  O  O30  1  0.137716  0.637900  0.363819  1
  O  O31  1  0.136081  0.862348  0.138249  1
  O  O32  1  0.364013  0.136280  0.638669  1
  O  O33  1  0.362949  0.360739  0.864193  1
  O  O34  1  0.359881  0.639722  0.139777  1
  O  O35  1  0.390675  0.612390  0.615588  1
  O  O36  1  0.362471  0.863819  0.361857  1
  O  O37  1  0.392433  0.391505  0.391798  1
  O  O38  1  0.385999  0.115587  0.109786  1
  O  O39  1  0.383743  0.889420  0.887120  1
  O  O40  1  0.616560  0.389711  0.612568  1
  O  O41  1  0.613612  0.616146  0.390336  1
  O  O42  1  0.607619  0.891730  0.107887  1
  O  O43  1  0.638059  0.365397  0.137421  1
  O  O44  1  0.609415  0.113058  0.884215  1
  O  O45  1  0.640446  0.140663  0.359563  1
  O  O46  1  0.637475  0.861692  0.635413  1
  O  O47  1  0.635693  0.637298  0.861040  1
  O  O48  1  0.864094  0.363368  0.361754  1
  O  O49  1  0.862692  0.139331  0.136252  1
  O  O50  1  0.859685  0.860374  0.859736  1
  O  O51  1  0.890991  0.887550  0.383915  1
  O  O52  1  0.862226  0.635978  0.637644  1
  O  O53  1  0.892452  0.107966  0.607745  1
  O  O54  1  0.886303  0.384422  0.890554  1
  O  O55  1  0.883748  0.610885  0.113100  1
