# generated using pymatgen
data_Li2MnVP2(HO5)2
_symmetry_space_group_name_H-M   'P 1'
_cell_length_a   5.45308048
_cell_length_b   7.33325714
_cell_length_c   5.21424510
_cell_angle_alpha   109.84686076
_cell_angle_beta   99.39093317
_cell_angle_gamma   104.66937239
_symmetry_Int_Tables_number   1
_chemical_formula_structural   Li2MnVP2(HO5)2
_chemical_formula_sum   'Li2 Mn1 V1 P2 H2 O10'
_cell_volume   182.48301600
_cell_formula_units_Z   1
loop_
 _symmetry_equiv_pos_site_id
 _symmetry_equiv_pos_as_xyz
  1  'x, y, z'
loop_
 _atom_site_type_symbol
 _atom_site_label
 _atom_site_symmetry_multiplicity
 _atom_site_fract_x
 _atom_site_fract_y
 _atom_site_fract_z
 _atom_site_occupancy
  Li  Li0  1  0.397825  0.826060  0.747954  1
  Li  Li1  1  0.602175  0.173940  0.252046  1
  Mn  Mn2  1  0.000000  0.000000  0.000000  1
  V  V3  1  0.000000  0.500000  0.000000  1
  P  P4  1  0.365511  0.232266  0.677547  1
  P  P5  1  0.634489  0.767733  0.322453  1
  H  H6  1  0.064206  0.335802  0.358820  1
  H  H7  1  0.935794  0.664198  0.641180  1
  O  O8  1  0.049983  0.729895  0.839633  1
  O  O9  1  0.201932  0.380329  0.724363  1
  O  O10  1  0.345345  0.652480  0.305835  1
  O  O11  1  0.256118  0.069970  0.365276  1
  O  O12  1  0.356009  0.122774  0.883440  1
  O  O13  1  0.643991  0.877226  0.116560  1
  O  O14  1  0.743882  0.930030  0.634724  1
  O  O15  1  0.654655  0.347520  0.694165  1
  O  O16  1  0.798068  0.619671  0.275637  1
  O  O17  1  0.950017  0.270105  0.160367  1
