# generated using pymatgen
data_Mn7(OF3)3
_symmetry_space_group_name_H-M   'P 1'
_cell_length_a   6.31961714
_cell_length_b   6.36859712
_cell_length_c   6.47183281
_cell_angle_alpha   90.19035670
_cell_angle_beta   89.10617418
_cell_angle_gamma   90.61207801
_symmetry_Int_Tables_number   1
_chemical_formula_structural   Mn7(OF3)3
_chemical_formula_sum   'Mn7 O3 F9'
_cell_volume   260.42462114
_cell_formula_units_Z   1
loop_
 _symmetry_equiv_pos_site_id
 _symmetry_equiv_pos_as_xyz
  1  'x, y, z'
loop_
 _atom_site_type_symbol
 _atom_site_label
 _atom_site_symmetry_multiplicity
 _atom_site_fract_x
 _atom_site_fract_y
 _atom_site_fract_z
 _atom_site_occupancy
  Mn  Mn0  1  0.067290  0.757357  0.563628  1
  Mn  Mn1  1  0.243120  0.455867  0.917012  1
  Mn  Mn2  1  0.436794  0.931098  0.266414  1
  Mn  Mn3  1  0.571220  0.058628  0.761533  1
  Mn  Mn4  1  0.740096  0.578216  0.056189  1
  Mn  Mn5  1  0.952341  0.247564  0.424352  1
  Mn  Mn6  1  0.986271  0.969440  0.024688  1
  O  O7  1  0.027517  0.700067  0.894375  1
  O  O8  1  0.111834  0.973358  0.319067  1
  O  O9  1  0.683998  0.912991  0.042049  1
  F  F10  1  0.173558  0.422420  0.598709  1
  F  F11  1  0.283324  0.103964  0.942919  1
  F  F12  1  0.406646  0.595387  0.167940  1
  F  F13  1  0.411070  0.820069  0.597135  1
  F  F14  1  0.574081  0.391814  0.837405  1
  F  F15  1  0.616127  0.158394  0.433973  1
  F  F16  1  0.846972  0.573052  0.379340  1
  F  F17  1  0.909952  0.061234  0.699929  1
  F  F18  1  0.949373  0.299023  0.080128  1
