# generated using pymatgen
data_LiInP2O7
_symmetry_space_group_name_H-M   'P 1'
_cell_length_a   4.99270164
_cell_length_b   7.14919305
_cell_length_c   8.61293764
_cell_angle_alpha   90.00000000
_cell_angle_beta   90.00000000
_cell_angle_gamma   109.14855713
_symmetry_Int_Tables_number   1
_chemical_formula_structural   LiInP2O7
_chemical_formula_sum   'Li2 In2 P4 O14'
_cell_volume   290.41874488
_cell_formula_units_Z   2
loop_
 _symmetry_equiv_pos_site_id
 _symmetry_equiv_pos_as_xyz
  1  'x, y, z'
loop_
 _atom_site_type_symbol
 _atom_site_label
 _atom_site_symmetry_multiplicity
 _atom_site_fract_x
 _atom_site_fract_y
 _atom_site_fract_z
 _atom_site_occupancy
  Li  Li0  1  0.190890  0.668254  0.391209  1
  Li  Li1  1  0.809110  0.331746  0.891209  1
  O  O2  1  0.206743  0.495947  0.210755  1
  O  O3  1  0.793257  0.504053  0.710755  1
  O  O4  1  0.767813  0.496205  0.414176  1
  O  O5  1  0.232187  0.503795  0.914176  1
  O  O6  1  0.588856  0.762465  0.083395  1
  O  O7  1  0.411144  0.237535  0.583395  1
  O  O8  1  0.053999  0.865603  0.931818  1
  O  O9  1  0.946001  0.134397  0.431818  1
  O  O10  1  0.142266  0.878991  0.543552  1
  O  O11  1  0.857734  0.121009  0.043552  1
  O  O12  1  0.622708  0.923546  0.812005  1
  O  O13  1  0.377292  0.076454  0.312005  1
  O  O14  1  0.398363  0.590665  0.566561  1
  O  O15  1  0.601637  0.409335  0.066561  1
  P  P16  1  0.399703  0.531096  0.067038  1
  P  P17  1  0.600297  0.468904  0.567038  1
  P  P18  1  0.210749  0.079254  0.460815  1
  P  P19  1  0.789251  0.920746  0.960815  1
  In  In20  1  0.785683  0.268135  0.248376  1
  In  In21  1  0.214317  0.731865  0.748376  1
