# generated using pymatgen
data_Rb5Fe3(SO5)6
_symmetry_space_group_name_H-M   'P 1'
_cell_length_a   14.54648886
_cell_length_b   16.16688763
_cell_length_c   12.80243256
_cell_angle_alpha   90.00000000
_cell_angle_beta   93.54186631
_cell_angle_gamma   90.00000000
_symmetry_Int_Tables_number   1
_chemical_formula_structural   Rb5Fe3(SO5)6
_chemical_formula_sum   'Rb20 Fe12 S24 O120'
_cell_volume   3005.01584481
_cell_formula_units_Z   4
loop_
 _symmetry_equiv_pos_site_id
 _symmetry_equiv_pos_as_xyz
  1  'x, y, z'
loop_
 _atom_site_type_symbol
 _atom_site_label
 _atom_site_symmetry_multiplicity
 _atom_site_fract_x
 _atom_site_fract_y
 _atom_site_fract_z
 _atom_site_occupancy
  Rb  Rb0  1  0.475906  0.748341  0.748023  1
  Rb  Rb1  1  0.975906  0.751659  0.248023  1
  Rb  Rb2  1  0.524094  0.251659  0.251977  1
  Rb  Rb3  1  0.024094  0.248341  0.751977  1
  Rb  Rb4  1  0.694038  0.904264  0.924175  1
  Rb  Rb5  1  0.194038  0.595736  0.424175  1
  Rb  Rb6  1  0.305962  0.095736  0.075825  1
  Rb  Rb7  1  0.805962  0.404264  0.575825  1
  Rb  Rb8  1  0.689963  0.607463  0.938591  1
  Rb  Rb9  1  0.189963  0.892537  0.438591  1
  Rb  Rb10  1  0.310037  0.392537  0.061409  1
  Rb  Rb11  1  0.810037  0.107463  0.561409  1
  Rb  Rb12  1  0.631696  0.565397  0.340370  1
  Rb  Rb13  1  0.131696  0.934603  0.840370  1
  Rb  Rb14  1  0.368304  0.434603  0.659630  1
  Rb  Rb15  1  0.868304  0.065397  0.159630  1
  Rb  Rb16  1  0.630951  0.941636  0.342433  1
  Rb  Rb17  1  0.130951  0.558364  0.842433  1
  Rb  Rb18  1  0.369049  0.058364  0.657567  1
  Rb  Rb19  1  0.869049  0.441636  0.157567  1
  Fe  Fe20  1  0.273160  0.749764  0.986644  1
  Fe  Fe21  1  0.773160  0.750236  0.486644  1
  Fe  Fe22  1  0.726840  0.250236  0.013356  1
  Fe  Fe23  1  0.226840  0.249764  0.513356  1
  Fe  Fe24  1  0.403212  0.857761  0.166715  1
  Fe  Fe25  1  0.903212  0.642239  0.666715  1
  Fe  Fe26  1  0.596788  0.142239  0.833285  1
  Fe  Fe27  1  0.096788  0.357761  0.333285  1
  Fe  Fe28  1  0.408144  0.646455  0.167753  1
  Fe  Fe29  1  0.908144  0.853545  0.667753  1
  Fe  Fe30  1  0.591856  0.353545  0.832247  1
  Fe  Fe31  1  0.091856  0.146455  0.332247  1
  S  S32  1  0.181073  0.894907  0.130989  1
  S  S33  1  0.681073  0.605093  0.630989  1
  S  S34  1  0.818927  0.105093  0.869011  1
  S  S35  1  0.318927  0.394907  0.369011  1
  S  S36  1  0.392431  0.915156  0.918152  1
  S  S37  1  0.892431  0.584844  0.418152  1
  S  S38  1  0.607569  0.084844  0.081848  1
  S  S39  1  0.107569  0.415156  0.581848  1
  S  S40  1  0.413951  0.756780  0.386117  1
  S  S41  1  0.913951  0.743220  0.886117  1
  S  S42  1  0.586049  0.243220  0.613883  1
  S  S43  1  0.086049  0.256780  0.113883  1
  S  S44  1  0.587011  0.752290  0.118151  1
  S  S45  1  0.087011  0.747710  0.618151  1
  S  S46  1  0.412989  0.247710  0.881849  1
  S  S47  1  0.912989  0.252290  0.381849  1
  S  S48  1  0.189975  0.605045  0.139532  1
  S  S49  1  0.689975  0.894955  0.639532  1
  S  S50  1  0.810025  0.394955  0.860468  1
  S  S51  1  0.310025  0.105045  0.360468  1
  S  S52  1  0.390420  0.586239  0.920932  1
  S  S53  1  0.890420  0.913761  0.420932  1
  S  S54  1  0.609580  0.413761  0.079068  1
  S  S55  1  0.109580  0.086239  0.579068  1
  O  O56  1  0.184456  0.834374  0.040855  1
  O  O57  1  0.684456  0.665626  0.540855  1
  O  O58  1  0.815544  0.165626  0.959145  1
  O  O59  1  0.315544  0.334374  0.459145  1
  O  O60  1  0.279811  0.919091  0.161616  1
  O  O61  1  0.779811  0.580909  0.661616  1
  O  O62  1  0.720189  0.080909  0.838384  1
  O  O63  1  0.220189  0.419091  0.338384  1
  O  O64  1  0.133458  0.969226  0.090645  1
  O  O65  1  0.633458  0.530774  0.590645  1
  O  O66  1  0.866542  0.030774  0.909355  1
  O  O67  1  0.366542  0.469226  0.409355  1
  O  O68  1  0.138626  0.855723  0.218741  1
  O  O69  1  0.638626  0.644277  0.718741  1
  O  O70  1  0.861374  0.144277  0.781259  1
  O  O71  1  0.361374  0.355723  0.281259  1
  O  O72  1  0.337373  0.836013  0.900771  1
  O  O73  1  0.837373  0.663987  0.400771  1
  O  O74  1  0.662627  0.163987  0.099229  1
  O  O75  1  0.162627  0.336013  0.599229  1
  O  O76  1  0.427137  0.918225  0.031581  1
  O  O77  1  0.927137  0.581775  0.531581  1
  O  O78  1  0.572863  0.081775  0.968419  1
  O  O79  1  0.072863  0.418225  0.468419  1
  O  O80  1  0.331288  0.985893  0.892974  1
  O  O81  1  0.831288  0.514107  0.392974  1
  O  O82  1  0.668712  0.014107  0.107026  1
  O  O83  1  0.168712  0.485893  0.607026  1
  O  O84  1  0.471151  0.911587  0.852363  1
  O  O85  1  0.971151  0.588413  0.352363  1
  O  O86  1  0.528849  0.088413  0.147637  1
  O  O87  1  0.028849  0.411587  0.647637  1
  O  O88  1  0.370615  0.821464  0.311381  1
  O  O89  1  0.870615  0.678536  0.811381  1
  O  O90  1  0.629385  0.178536  0.688619  1
  O  O91  1  0.129385  0.321464  0.188619  1
  O  O92  1  0.436165  0.682561  0.320454  1
  O  O93  1  0.936165  0.817439  0.820454  1
  O  O94  1  0.563835  0.317439  0.679546  1
  O  O95  1  0.063835  0.182561  0.179546  1
  O  O96  1  0.497114  0.788421  0.441471  1
  O  O97  1  0.997114  0.711579  0.941471  1
  O  O98  1  0.502886  0.211579  0.558529  1
  O  O99  1  0.002886  0.288421  0.058529  1
  O  O100  1  0.340134  0.734681  0.456709  1
  O  O101  1  0.840134  0.765319  0.956709  1
  O  O102  1  0.659866  0.265319  0.543291  1
  O  O103  1  0.159866  0.234681  0.043291  1
  O  O104  1  0.537414  0.818392  0.176977  1
  O  O105  1  0.037414  0.681608  0.676977  1
  O  O106  1  0.462586  0.181608  0.823023  1
  O  O107  1  0.962586  0.318392  0.323023  1
  O  O108  1  0.542704  0.669763  0.139288  1
  O  O109  1  0.042704  0.830237  0.639288  1
  O  O110  1  0.457296  0.330237  0.860712  1
  O  O111  1  0.957296  0.169763  0.360712  1
  O  O112  1  0.683787  0.750456  0.161266  1
  O  O113  1  0.183787  0.749544  0.661266  1
  O  O114  1  0.316213  0.249544  0.838734  1
  O  O115  1  0.816213  0.250456  0.338734  1
  O  O116  1  0.581129  0.767798  0.004833  1
  O  O117  1  0.081129  0.732202  0.504833  1
  O  O118  1  0.418871  0.232202  0.995167  1
  O  O119  1  0.918871  0.267798  0.495167  1
  O  O120  1  0.279986  0.611950  0.206764  1
  O  O121  1  0.779986  0.888050  0.706764  1
  O  O122  1  0.720014  0.388050  0.793236  1
  O  O123  1  0.220014  0.111950  0.293236  1
  O  O124  1  0.199915  0.654789  0.040827  1
  O  O125  1  0.699915  0.845211  0.540827  1
  O  O126  1  0.800085  0.345211  0.959173  1
  O  O127  1  0.300085  0.154789  0.459173  1
  O  O128  1  0.173673  0.519273  0.106524  1
  O  O129  1  0.673673  0.980727  0.606524  1
  O  O130  1  0.826327  0.480727  0.893476  1
  O  O131  1  0.326327  0.019273  0.393476  1
  O  O132  1  0.118246  0.639080  0.201606  1
  O  O133  1  0.618246  0.860920  0.701606  1
  O  O134  1  0.881754  0.360920  0.798394  1
  O  O135  1  0.381754  0.139080  0.298394  1
  O  O136  1  0.391485  0.573993  0.038084  1
  O  O137  1  0.891485  0.926007  0.538084  1
  O  O138  1  0.608515  0.426007  0.961916  1
  O  O139  1  0.108515  0.073993  0.461916  1
  O  O140  1  0.342868  0.668615  0.896607  1
  O  O141  1  0.842868  0.831385  0.396607  1
  O  O142  1  0.657132  0.331385  0.103393  1
  O  O143  1  0.157132  0.168615  0.603393  1
  O  O144  1  0.334983  0.519339  0.871186  1
  O  O145  1  0.834983  0.980661  0.371186  1
  O  O146  1  0.665017  0.480661  0.128814  1
  O  O147  1  0.165017  0.019339  0.628814  1
  O  O148  1  0.483429  0.592053  0.884566  1
  O  O149  1  0.983429  0.907947  0.384566  1
  O  O150  1  0.516571  0.407947  0.115434  1
  O  O151  1  0.016571  0.092053  0.615434  1
  O  O152  1  0.362546  0.753998  0.106175  1
  O  O153  1  0.862546  0.746002  0.606175  1
  O  O154  1  0.637454  0.246002  0.893825  1
  O  O155  1  0.137454  0.253998  0.393825  1
  O  O156  1  0.176763  0.746773  0.866846  1
  O  O157  1  0.676763  0.753227  0.366846  1
  O  O158  1  0.823237  0.253227  0.133154  1
  O  O159  1  0.323237  0.246773  0.633154  1
  O  O160  1  0.449700  0.953702  0.238392  1
  O  O161  1  0.949700  0.546298  0.738392  1
  O  O162  1  0.550300  0.046298  0.761608  1
  O  O163  1  0.050300  0.453702  0.261608  1
  O  O164  1  0.453132  0.537155  0.231016  1
  O  O165  1  0.953132  0.962845  0.731016  1
  O  O166  1  0.546868  0.462845  0.768984  1
  O  O167  1  0.046868  0.037155  0.268984  1
  O  O168  1  0.835449  0.639900  0.123846  1
  O  O169  1  0.335449  0.860100  0.623846  1
  O  O170  1  0.164551  0.360100  0.876154  1
  O  O171  1  0.664551  0.139900  0.376154  1
  O  O172  1  0.341693  0.634663  0.620578  1
  O  O173  1  0.841693  0.865337  0.120578  1
  O  O174  1  0.658307  0.365337  0.379422  1
  O  O175  1  0.158307  0.134663  0.879422  1
