# generated using pymatgen
data_RePO5
_symmetry_space_group_name_H-M   'P 1'
_cell_length_a   8.81536486
_cell_length_b   8.81461618
_cell_length_c   5.25805238
_cell_angle_alpha   90.43676290
_cell_angle_beta   89.56593166
_cell_angle_gamma   90.31963354
_symmetry_Int_Tables_number   1
_chemical_formula_structural   RePO5
_chemical_formula_sum   'Re4 P4 O20'
_cell_volume   408.54218333
_cell_formula_units_Z   4
loop_
 _symmetry_equiv_pos_site_id
 _symmetry_equiv_pos_as_xyz
  1  'x, y, z'
loop_
 _atom_site_type_symbol
 _atom_site_label
 _atom_site_symmetry_multiplicity
 _atom_site_fract_x
 _atom_site_fract_y
 _atom_site_fract_z
 _atom_site_occupancy
  Re  Re0  1  0.046068  0.752203  0.238117  1
  Re  Re1  1  0.752251  0.046000  0.261799  1
  Re  Re2  1  0.953879  0.247711  0.761845  1
  Re  Re3  1  0.247783  0.953884  0.738122  1
  P  P4  1  0.163940  0.396259  0.279960  1
  P  P5  1  0.396075  0.163843  0.220098  1
  P  P6  1  0.836134  0.603878  0.720092  1
  P  P7  1  0.603600  0.836018  0.780138  1
  O  O8  1  0.307525  0.066753  0.407503  1
  O  O9  1  0.066665  0.307519  0.092349  1
  O  O10  1  0.692626  0.933436  0.592445  1
  O  O11  1  0.933379  0.692568  0.907367  1
  O  O12  1  0.662801  0.662825  0.749973  1
  O  O13  1  0.337225  0.337281  0.249995  1
  O  O14  1  0.564981  0.177532  0.287910  1
  O  O15  1  0.177451  0.564905  0.212231  1
  O  O16  1  0.435214  0.822521  0.712085  1
  O  O17  1  0.822540  0.435147  0.787873  1
  O  O18  1  0.886358  0.626142  0.441357  1
  O  O19  1  0.626020  0.886315  0.058706  1
  O  O20  1  0.113662  0.373964  0.558626  1
  O  O21  1  0.373880  0.113645  0.941533  1
  O  O22  1  0.915426  0.915439  0.250003  1
  O  O23  1  0.084400  0.084442  0.749971  1
  O  O24  1  0.182514  0.853187  0.024355  1
  O  O25  1  0.853315  0.182476  0.475662  1
  O  O26  1  0.817585  0.146644  0.975678  1
  O  O27  1  0.146704  0.817473  0.524206  1
