# generated using pymatgen
data_Li3Cr2(PO4)3
_symmetry_space_group_name_H-M   'P 1'
_cell_length_a   8.99786593
_cell_length_b   8.37831644
_cell_length_c   8.38618238
_cell_angle_alpha   59.88374026
_cell_angle_beta   89.75074843
_cell_angle_gamma   62.11752585
_symmetry_Int_Tables_number   1
_chemical_formula_structural   Li3Cr2(PO4)3
_chemical_formula_sum   'Li6 Cr4 P6 O24'
_cell_volume   460.93097535
_cell_formula_units_Z   2
loop_
 _symmetry_equiv_pos_site_id
 _symmetry_equiv_pos_as_xyz
  1  'x, y, z'
loop_
 _atom_site_type_symbol
 _atom_site_label
 _atom_site_symmetry_multiplicity
 _atom_site_fract_x
 _atom_site_fract_y
 _atom_site_fract_z
 _atom_site_occupancy
  Li  Li0  1  0.848369  0.814399  0.917862  1
  Li  Li1  1  0.856536  0.408292  0.671510  1
  Li  Li2  1  0.626572  0.187505  0.254390  1
  Li  Li3  1  0.137826  0.942199  0.730815  1
  Li  Li4  1  0.135071  0.601974  0.328130  1
  Li  Li5  1  0.134415  0.187387  0.078790  1
  Cr  Cr6  1  0.955176  0.697147  0.647750  1
  Cr  Cr7  1  0.563909  0.294324  0.853265  1
  Cr  Cr8  1  0.432041  0.712801  0.143549  1
  Cr  Cr9  1  0.041285  0.306756  0.345519  1
  P  P10  1  0.751764  0.497778  0.961776  1
  P  P11  1  0.747014  0.209393  0.539465  1
  P  P12  1  0.747392  0.791651  0.250480  1
  P  P13  1  0.249752  0.212812  0.747357  1
  P  P14  1  0.250953  0.788368  0.463334  1
  P  P15  1  0.243639  0.506104  0.038668  1
  O  O16  1  0.800852  0.665557  0.826522  1
  O  O17  1  0.736866  0.384589  0.867482  1
  O  O18  1  0.899778  0.254370  0.536395  1
  O  O19  1  0.730527  0.134092  0.745943  1
  O  O20  1  0.580243  0.609085  0.000293  1
  O  O21  1  0.798678  0.024453  0.508797  1
  O  O22  1  0.802970  0.700784  0.467964  1
  O  O23  1  0.905453  0.642232  0.206124  1
  O  O24  1  0.908528  0.309754  0.154233  1
  O  O25  1  0.418075  0.197387  0.802417  1
  O  O26  1  0.266965  0.988028  0.875237  1
  O  O27  1  0.575453  0.406779  0.379752  1
  O  O28  1  0.427323  0.589042  0.613478  1
  O  O29  1  0.718663  0.022081  0.127556  1
  O  O30  1  0.582467  0.798270  0.200103  1
  O  O31  1  0.093009  0.698206  0.840548  1
  O  O32  1  0.092232  0.366156  0.789660  1
  O  O33  1  0.193533  0.300528  0.530979  1
  O  O34  1  0.190439  0.976132  0.492967  1
  O  O35  1  0.421092  0.383083  0.012769  1
  O  O36  1  0.266565  0.868538  0.255292  1
  O  O37  1  0.107926  0.728509  0.475942  1
  O  O38  1  0.258535  0.618968  0.132704  1
  O  O39  1  0.192747  0.340239  0.167557  1
