# generated using pymatgen
data_Li3V3P8O29
_symmetry_space_group_name_H-M   'P 1'
_cell_length_a   9.76516310
_cell_length_b   9.76023479
_cell_length_c   14.16811556
_cell_angle_alpha   90.41769846
_cell_angle_beta   90.21421369
_cell_angle_gamma   60.16071939
_symmetry_Int_Tables_number   1
_chemical_formula_structural   Li3V3P8O29
_chemical_formula_sum   'Li6 V6 P16 O58'
_cell_volume   1171.31044232
_cell_formula_units_Z   2
loop_
 _symmetry_equiv_pos_site_id
 _symmetry_equiv_pos_as_xyz
  1  'x, y, z'
loop_
 _atom_site_type_symbol
 _atom_site_label
 _atom_site_symmetry_multiplicity
 _atom_site_fract_x
 _atom_site_fract_y
 _atom_site_fract_z
 _atom_site_occupancy
  Li  Li0  1  0.776467  0.310413  0.056916  1
  Li  Li1  1  0.312992  0.914982  0.059956  1
  Li  Li2  1  0.330758  0.770742  0.557400  1
  Li  Li3  1  0.221511  0.686676  0.943429  1
  Li  Li4  1  0.089179  0.672194  0.441120  1
  Li  Li5  1  0.952082  0.065921  0.501690  1
  V  V6  1  0.568009  0.426993  0.255296  1
  V  V7  1  0.439910  0.561091  0.748176  1
  V  V8  1  0.568560  0.996284  0.749931  1
  V  V9  1  0.437943  0.005112  0.254871  1
  V  V10  1  0.994798  0.566023  0.245751  1
  V  V11  1  0.000027  0.433251  0.747784  1
  P  P12  1  0.913796  0.773027  0.838444  1
  P  P13  1  0.780070  0.916360  0.342128  1
  P  P14  1  0.918819  0.307718  0.343830  1
  P  P15  1  0.659907  0.664859  0.130974  1
  P  P16  1  0.666302  0.666885  0.630554  1
  P  P17  1  0.773807  0.316686  0.841420  1
  P  P18  1  0.692438  0.219024  0.660480  1
  P  P19  1  0.317944  0.911251  0.844270  1
  P  P20  1  0.689865  0.082152  0.155396  1
  P  P21  1  0.317181  0.773029  0.339761  1
  P  P22  1  0.232313  0.677504  0.160215  1
  P  P23  1  0.328549  0.339188  0.370731  1
  P  P24  1  0.332327  0.334225  0.867437  1
  P  P25  1  0.088372  0.685725  0.655935  1
  P  P26  1  0.224336  0.083158  0.661719  1
  P  P27  1  0.087733  0.225679  0.159138  1
  O  O28  1  0.019629  0.764432  0.564360  1
  O  O29  1  0.916276  0.740545  0.334848  1
  O  O30  1  0.762918  0.999683  0.066832  1
  O  O31  1  0.742949  0.913980  0.833974  1
  O  O32  1  0.908230  0.618287  0.820827  1
  O  O33  1  0.812481  0.659845  0.178370  1
  O  O34  1  0.920405  0.464790  0.329202  1
  O  O35  1  0.995266  0.236973  0.073742  1
  O  O36  1  0.916231  0.343035  0.830913  1
  O  O37  1  0.668437  0.813298  0.676004  1
  O  O38  1  0.618998  0.917037  0.328028  1
  O  O39  1  0.812553  0.518877  0.673360  1
  O  O40  1  0.663949  0.661993  0.026336  1
  O  O41  1  0.654349  0.672142  0.525919  1
  O  O42  1  0.663068  0.514509  0.172271  1
  O  O43  1  0.477089  0.903839  0.822795  1
  O  O44  1  0.514367  0.816425  0.173549  1
  O  O45  1  0.743886  0.345619  0.330452  1
  O  O46  1  0.791859  0.201201  0.755644  1
  O  O47  1  0.784278  0.210059  0.576222  1
  O  O48  1  0.758045  0.254447  0.933039  1
  O  O49  1  0.621106  0.477846  0.818248  1
  O  O50  1  0.510577  0.673156  0.671821  1
  O  O51  1  0.661760  0.254605  0.163717  1
  O  O52  1  0.475100  0.616305  0.325639  1
  O  O53  1  0.346648  0.913790  0.333745  1
  O  O54  1  0.796859  0.997270  0.247749  1
  O  O55  1  0.794019  0.994259  0.428260  1
  O  O56  1  0.211286  0.993384  0.579745  1
  O  O57  1  0.653412  0.084346  0.668005  1
  O  O58  1  0.534781  0.380250  0.672713  1
  O  O59  1  0.340914  0.740974  0.836571  1
  O  O60  1  0.481552  0.332224  0.325375  1
  O  O61  1  0.383421  0.519243  0.179297  1
  O  O62  1  0.242764  0.754191  0.071526  1
  O  O63  1  0.234285  0.770533  0.428142  1
  O  O64  1  0.208867  0.792780  0.248962  1
  O  O65  1  0.261000  0.656670  0.664092  1
  O  O66  1  0.475387  0.184460  0.822932  1
  O  O67  1  0.527804  0.090764  0.179752  1
  O  O68  1  0.336815  0.483123  0.824160  1
  O  O69  1  0.327853  0.345347  0.971969  1
  O  O70  1  0.333309  0.341744  0.475183  1
  O  O71  1  0.182521  0.490577  0.330165  1
  O  O72  1  0.384093  0.079454  0.671330  1
  O  O73  1  0.328775  0.189776  0.325300  1
  O  O74  1  0.087303  0.653760  0.166401  1
  O  O75  1  0.995528  0.796850  0.744052  1
  O  O76  1  0.006845  0.765566  0.922901  1
  O  O77  1  0.088825  0.528628  0.671177  1
  O  O78  1  0.182225  0.340979  0.821542  1
  O  O79  1  0.094626  0.380885  0.177899  1
  O  O80  1  0.258508  0.083417  0.161288  1
  O  O81  1  0.248761  0.985725  0.936611  1
  O  O82  1  0.202861  0.007032  0.758562  1
  O  O83  1  0.087796  0.256682  0.665568  1
  O  O84  1  0.990278  0.216527  0.430213  1
  O  O85  1  0.006821  0.202095  0.251846  1
