# generated using pymatgen
data_CsNd2CuSe4
_symmetry_space_group_name_H-M   'P 1'
_cell_length_a   7.78658610
_cell_length_b   7.78658610
_cell_length_c   14.77148844
_cell_angle_alpha   90.00000000
_cell_angle_beta   90.00000000
_cell_angle_gamma   31.82899881
_symmetry_Int_Tables_number   1
_chemical_formula_structural   CsNd2CuSe4
_chemical_formula_sum   'Cs2 Nd4 Cu2 Se8'
_cell_volume   472.33152979
_cell_formula_units_Z   2
loop_
 _symmetry_equiv_pos_site_id
 _symmetry_equiv_pos_as_xyz
  1  'x, y, z'
loop_
 _atom_site_type_symbol
 _atom_site_label
 _atom_site_symmetry_multiplicity
 _atom_site_fract_x
 _atom_site_fract_y
 _atom_site_fract_z
 _atom_site_occupancy
  Cs  Cs0  1  0.106128  0.106128  0.250000  1
  Cs  Cs1  1  0.893872  0.893872  0.750000  1
  Nd  Nd2  1  0.365525  0.365525  0.061634  1
  Nd  Nd3  1  0.634475  0.634475  0.561634  1
  Nd  Nd4  1  0.634475  0.634475  0.938365  1
  Nd  Nd5  1  0.365525  0.365525  0.438365  1
  Cu  Cu6  1  0.835629  0.835629  0.250000  1
  Cu  Cu7  1  0.164372  0.164372  0.750000  1
  Se  Se8  1  0.259652  0.259652  0.611037  1
  Se  Se9  1  0.740348  0.740348  0.111037  1
  Se  Se10  1  0.740348  0.740348  0.388963  1
  Se  Se11  1  0.259652  0.259652  0.888963  1
  Se  Se12  1  0.000000  0.000000  0.000000  1
  Se  Se13  1  0.000000  0.000000  0.500000  1
  Se  Se14  1  0.422787  0.422787  0.250000  1
  Se  Se15  1  0.577213  0.577213  0.750000  1
