# generated using pymatgen
data_Ce3AlCrS7
_symmetry_space_group_name_H-M   'P 1'
_cell_length_a   10.07274381
_cell_length_b   10.02894920
_cell_length_c   6.02874583
_cell_angle_alpha   90.00000000
_cell_angle_beta   90.00000000
_cell_angle_gamma   120.18914829
_symmetry_Int_Tables_number   1
_chemical_formula_structural   Ce3AlCrS7
_chemical_formula_sum   'Ce6 Al2 Cr2 S14'
_cell_volume   526.41700295
_cell_formula_units_Z   2
loop_
 _symmetry_equiv_pos_site_id
 _symmetry_equiv_pos_as_xyz
  1  'x, y, z'
loop_
 _atom_site_type_symbol
 _atom_site_label
 _atom_site_symmetry_multiplicity
 _atom_site_fract_x
 _atom_site_fract_y
 _atom_site_fract_z
 _atom_site_occupancy
  Ce  Ce0  1  0.140819  0.371520  0.243824  1
  Ce  Ce1  1  0.859180  0.628479  0.743823  1
  Ce  Ce2  1  0.628318  0.768649  0.245084  1
  Ce  Ce3  1  0.231015  0.859675  0.244942  1
  Ce  Ce4  1  0.768985  0.140324  0.744944  1
  Ce  Ce5  1  0.371682  0.231351  0.745085  1
  Al  Al6  1  0.333087  0.666481  0.665255  1
  Al  Al7  1  0.666913  0.333520  0.165257  1
  Cr  Cr8  1  0.999884  -0.000031  0.027329  1
  Cr  Cr9  1  0.000115  0.000031  0.527329  1
  S  S10  1  0.333597  0.666396  0.035627  1
  S  S11  1  0.666404  0.333605  0.535625  1
  S  S12  1  0.420659  0.516670  0.516641  1
  S  S13  1  0.579342  0.483330  0.016641  1
  S  S14  1  0.482261  0.904185  0.516201  1
  S  S15  1  0.096278  0.578164  0.517145  1
  S  S16  1  0.903723  0.421837  0.017144  1
  S  S17  1  0.517739  0.095815  0.016201  1
  S  S18  1  0.089255  0.232160  0.783720  1
  S  S19  1  0.910744  0.767840  0.283721  1
  S  S20  1  0.767973  0.857112  0.783807  1
  S  S21  1  0.142340  0.910451  0.784426  1
  S  S22  1  0.857660  0.089549  0.284427  1
  S  S23  1  0.232027  0.142889  0.283806  1
