# generated using pymatgen
data_Hg3(AsO4)2
_symmetry_space_group_name_H-M   'P 1'
_cell_length_a   6.67688442
_cell_length_b   10.37951419
_cell_length_c   12.03452952
_cell_angle_alpha   90.00000000
_cell_angle_beta   90.00000000
_cell_angle_gamma   99.34029864
_symmetry_Int_Tables_number   1
_chemical_formula_structural   Hg3(AsO4)2
_chemical_formula_sum   'Hg12 As8 O32'
_cell_volume   822.96910589
_cell_formula_units_Z   4
loop_
 _symmetry_equiv_pos_site_id
 _symmetry_equiv_pos_as_xyz
  1  'x, y, z'
loop_
 _atom_site_type_symbol
 _atom_site_label
 _atom_site_symmetry_multiplicity
 _atom_site_fract_x
 _atom_site_fract_y
 _atom_site_fract_z
 _atom_site_occupancy
  O  O0  1  0.880496  0.870492  0.554394  1
  O  O1  1  0.619504  0.129508  0.054394  1
  O  O2  1  0.119504  0.129508  0.445606  1
  O  O3  1  0.380496  0.870492  0.945606  1
  O  O4  1  0.319199  0.914023  0.557864  1
  O  O5  1  0.180801  0.085977  0.057864  1
  O  O6  1  0.680801  0.085977  0.442136  1
  O  O7  1  0.819199  0.914023  0.942136  1
  O  O8  1  0.130536  0.779644  0.726821  1
  O  O9  1  0.369464  0.220356  0.226821  1
  O  O10  1  0.869464  0.220356  0.273179  1
  O  O11  1  0.630536  0.779644  0.773179  1
  O  O12  1  0.084688  0.044436  0.708976  1
  O  O13  1  0.415312  0.955564  0.208976  1
  O  O14  1  0.915312  0.955564  0.291024  1
  O  O15  1  0.584688  0.044436  0.791024  1
  O  O16  1  0.818150  0.483830  0.186323  1
  O  O17  1  0.681850  0.516170  0.686323  1
  O  O18  1  0.181850  0.516170  0.813677  1
  O  O19  1  0.318150  0.483830  0.313677  1
  O  O20  1  0.238589  0.547193  0.538694  1
  O  O21  1  0.261411  0.452807  0.038694  1
  O  O22  1  0.761411  0.452807  0.461306  1
  O  O23  1  0.738589  0.547193  0.961306  1
  O  O24  1  0.519217  0.723262  0.417310  1
  O  O25  1  0.980783  0.276738  0.917310  1
  O  O26  1  0.480783  0.276738  0.582690  1
  O  O27  1  0.019217  0.723262  0.082690  1
  O  O28  1  0.132790  0.706345  0.356907  1
  O  O29  1  0.367210  0.293655  0.856907  1
  O  O30  1  0.867210  0.293655  0.643093  1
  O  O31  1  0.632790  0.706345  0.143093  1
  As  As32  1  0.093910  0.901875  0.633044  1
  As  As33  1  0.406090  0.098125  0.133044  1
  As  As34  1  0.906090  0.098125  0.366956  1
  As  As35  1  0.593910  0.901875  0.866956  1
  As  As36  1  0.801265  0.606024  0.094780  1
  As  As37  1  0.698735  0.393976  0.594780  1
  As  As38  1  0.198735  0.393976  0.905220  1
  As  As39  1  0.301265  0.606024  0.405220  1
  Hg  Hg40  1  0.910835  0.658018  0.828851  1
  Hg  Hg41  1  0.589165  0.341982  0.328851  1
  Hg  Hg42  1  0.089165  0.341982  0.171149  1
  Hg  Hg43  1  0.410835  0.658018  0.671149  1
  Hg  Hg44  1  0.324179  0.700960  0.102066  1
  Hg  Hg45  1  0.175821  0.299040  0.602066  1
  Hg  Hg46  1  0.675821  0.299040  0.897934  1
  Hg  Hg47  1  0.824179  0.700960  0.397934  1
  Hg  Hg48  1  0.169754  0.045566  0.881018  1
  Hg  Hg49  1  0.330246  0.954434  0.381018  1
  Hg  Hg50  1  0.830246  0.954434  0.118982  1
  Hg  Hg51  1  0.669754  0.045566  0.618982  1
