# generated using pymatgen
data_Na3(NiO2)2
_symmetry_space_group_name_H-M   'P 1'
_cell_length_a   5.55173636
_cell_length_b   10.06851323
_cell_length_c   8.60744086
_cell_angle_alpha   90.00000000
_cell_angle_beta   90.00000000
_cell_angle_gamma   90.00000000
_symmetry_Int_Tables_number   1
_chemical_formula_structural   Na3(NiO2)2
_chemical_formula_sum   'Na12 Ni8 O16'
_cell_volume   481.13641371
_cell_formula_units_Z   4
loop_
 _symmetry_equiv_pos_site_id
 _symmetry_equiv_pos_as_xyz
  1  'x, y, z'
loop_
 _atom_site_type_symbol
 _atom_site_label
 _atom_site_symmetry_multiplicity
 _atom_site_fract_x
 _atom_site_fract_y
 _atom_site_fract_z
 _atom_site_occupancy
  Na  Na0  1  0.054257  0.096952  0.149227  1
  Na  Na1  1  0.054257  0.403048  0.149227  1
  Na  Na2  1  0.151965  0.250000  0.825346  1
  Na  Na3  1  0.348035  0.750000  0.325346  1
  Na  Na4  1  0.445743  0.903048  0.649227  1
  Na  Na5  1  0.445743  0.596952  0.649227  1
  Na  Na6  1  0.554257  0.096952  0.350773  1
  Na  Na7  1  0.554257  0.403048  0.350773  1
  Na  Na8  1  0.651965  0.250000  0.674654  1
  Na  Na9  1  0.848035  0.750000  0.174654  1
  Na  Na10  1  0.945743  0.596952  0.850773  1
  Na  Na11  1  0.945743  0.903048  0.850773  1
  Ni  Ni12  1  0.059100  0.122518  0.486734  1
  Ni  Ni13  1  0.059100  0.377482  0.486734  1
  Ni  Ni14  1  0.440900  0.877482  0.986734  1
  Ni  Ni15  1  0.440900  0.622518  0.986734  1
  Ni  Ni16  1  0.559100  0.122518  0.013266  1
  Ni  Ni17  1  0.559100  0.377482  0.013266  1
  Ni  Ni18  1  0.940900  0.622518  0.513266  1
  Ni  Ni19  1  0.940900  0.877482  0.513266  1
  O  O20  1  0.109568  0.750000  0.641342  1
  O  O21  1  0.190711  0.533194  0.396274  1
  O  O22  1  0.190711  0.966806  0.396274  1
  O  O23  1  0.221092  0.750000  0.064900  1
  O  O24  1  0.278908  0.250000  0.564900  1
  O  O25  1  0.309289  0.033194  0.896274  1
  O  O26  1  0.309289  0.466806  0.896274  1
  O  O27  1  0.390431  0.250000  0.141342  1
  O  O28  1  0.609568  0.750000  0.858658  1
  O  O29  1  0.690711  0.533194  0.103726  1
  O  O30  1  0.690711  0.966806  0.103726  1
  O  O31  1  0.721092  0.750000  0.435100  1
  O  O32  1  0.778908  0.250000  0.935100  1
  O  O33  1  0.809289  0.033194  0.603726  1
  O  O34  1  0.809289  0.466806  0.603726  1
  O  O35  1  0.890432  0.250000  0.358658  1
