# generated using pymatgen
data_PuCl2
_symmetry_space_group_name_H-M   'P 1'
_cell_length_a   6.83702578
_cell_length_b   6.83683008
_cell_length_c   4.06057234
_cell_angle_alpha   89.99722597
_cell_angle_beta   89.99694503
_cell_angle_gamma   90.03613130
_symmetry_Int_Tables_number   1
_chemical_formula_structural   PuCl2
_chemical_formula_sum   'Pu2 Cl4'
_cell_volume   189.80566428
_cell_formula_units_Z   2
loop_
 _symmetry_equiv_pos_site_id
 _symmetry_equiv_pos_as_xyz
  1  'x, y, z'
loop_
 _atom_site_type_symbol
 _atom_site_label
 _atom_site_symmetry_multiplicity
 _atom_site_fract_x
 _atom_site_fract_y
 _atom_site_fract_z
 _atom_site_occupancy
  Pu  Pu0  1  0.000001  0.999998  0.000000  1
  Pu  Pu1  1  0.500002  0.499999  0.499998  1
  Cl  Cl2  1  0.295122  0.295124  0.000012  1
  Cl  Cl3  1  0.704875  0.704880  -0.000009  1
  Cl  Cl4  1  0.795144  0.204860  0.500001  1
  Cl  Cl5  1  0.204859  0.795141  0.500001  1
