# generated using pymatgen
data_Li3Ni2(PO3)7
_symmetry_space_group_name_H-M   'P 1'
_cell_length_a   6.86712884
_cell_length_b   6.93535646
_cell_length_c   18.50889097
_cell_angle_alpha   86.20658050
_cell_angle_beta   99.95766540
_cell_angle_gamma   111.62389094
_symmetry_Int_Tables_number   1
_chemical_formula_structural   Li3Ni2(PO3)7
_chemical_formula_sum   'Li6 Ni4 P14 O42'
_cell_volume   807.11901308
_cell_formula_units_Z   2
loop_
 _symmetry_equiv_pos_site_id
 _symmetry_equiv_pos_as_xyz
  1  'x, y, z'
loop_
 _atom_site_type_symbol
 _atom_site_label
 _atom_site_symmetry_multiplicity
 _atom_site_fract_x
 _atom_site_fract_y
 _atom_site_fract_z
 _atom_site_occupancy
  Li  Li0  1  0.276293  0.790553  0.755877  1
  Li  Li1  1  0.437221  0.264090  0.550912  1
  Li  Li2  1  0.811481  0.886489  0.875932  1
  Li  Li3  1  0.188519  0.113511  0.124068  1
  Li  Li4  1  0.562779  0.735910  0.449088  1
  Li  Li5  1  0.723707  0.209447  0.244123  1
  Ni  Ni6  1  0.619555  0.827415  0.617472  1
  Ni  Ni7  1  0.331658  0.119868  0.872964  1
  Ni  Ni8  1  0.668342  0.880132  0.127036  1
  Ni  Ni9  1  0.380445  0.172585  0.382528  1
  P  P10  1  0.306766  0.727200  0.974662  1
  P  P11  1  0.203249  0.777607  0.497378  1
  P  P12  1  0.989575  0.674869  0.072663  1
  P  P13  1  0.089540  0.418474  0.398502  1
  P  P14  1  0.051425  0.108687  0.717360  1
  P  P15  1  0.343082  0.839727  0.266873  1
  P  P16  1  0.457953  0.455811  0.748151  1
  P  P17  1  0.542047  0.544189  0.251849  1
  P  P18  1  0.656918  0.160273  0.733127  1
  P  P19  1  0.948575  0.891313  0.282640  1
  P  P20  1  0.910460  0.581526  0.601498  1
  P  P21  1  0.010425  0.325131  0.927337  1
  P  P22  1  0.796751  0.222393  0.502622  1
  P  P23  1  0.693234  0.272800  0.025338  1
  O  O24  1  0.111611  0.763698  0.001907  1
  O  O25  1  0.994475  0.728928  0.532894  1
  O  O26  1  0.317187  0.823160  0.899238  1
  O  O27  1  0.065090  0.641127  0.669731  1
  O  O28  1  0.236985  0.479401  0.968590  1
  O  O29  1  0.053565  0.137382  0.905611  1
  O  O30  1  0.105796  0.647884  0.422189  1
  O  O31  1  0.286323  0.007065  0.482264  1
  O  O32  1  0.088779  0.777154  0.255187  1
  O  O33  1  0.504592  0.791762  0.029900  1
  O  O34  1  0.128601  0.991004  0.780587  1
  O  O35  1  0.251851  0.298975  0.694205  1
  O  O36  1  0.353494  0.684379  0.541783  1
  O  O37  1  0.100484  0.563301  0.124289  1
  O  O38  1  0.318699  0.431076  0.407109  1
  O  O39  1  0.419520  0.416187  0.826000  1
  O  O40  1  0.445728  0.928062  0.343490  1
  O  O41  1  0.428021  0.965745  0.202028  1
  O  O42  1  0.067938  0.016032  0.349228  1
  O  O43  1  0.507280  0.673552  0.718965  1
  O  O44  1  0.353561  0.612902  0.267213  1
  O  O45  1  0.646439  0.387098  0.732787  1
  O  O46  1  0.492720  0.326448  0.281035  1
  O  O47  1  0.932062  0.983968  0.650772  1
  O  O48  1  0.571979  0.034255  0.797972  1
  O  O49  1  0.554272  0.071938  0.656510  1
  O  O50  1  0.580480  0.583813  0.174000  1
  O  O51  1  0.681301  0.568924  0.592891  1
  O  O52  1  0.899516  0.436699  0.875711  1
  O  O53  1  0.646506  0.315621  0.458217  1
  O  O54  1  0.748149  0.701025  0.305795  1
  O  O55  1  0.871399  0.008996  0.219413  1
  O  O56  1  0.495408  0.208238  0.970100  1
  O  O57  1  0.911221  0.222846  0.744813  1
  O  O58  1  0.713677  0.992935  0.517736  1
  O  O59  1  0.894204  0.352116  0.577811  1
  O  O60  1  0.946435  0.862618  0.094389  1
  O  O61  1  0.763015  0.520599  0.031410  1
  O  O62  1  0.934910  0.358873  0.330269  1
  O  O63  1  0.682813  0.176840  0.100762  1
  O  O64  1  0.005525  0.271072  0.467106  1
  O  O65  1  0.888389  0.236302  0.998093  1
