# generated using pymatgen
data_SmCuP2
_symmetry_space_group_name_H-M   'P 1'
_cell_length_a   3.77441521
_cell_length_b   3.77441521
_cell_length_c   10.28788315
_cell_angle_alpha   100.57018508
_cell_angle_beta   100.57018507
_cell_angle_gamma   90.00000004
_symmetry_Int_Tables_number   1
_chemical_formula_structural   SmCuP2
_chemical_formula_sum   'Sm2 Cu2 P4'
_cell_volume   141.54556874
_cell_formula_units_Z   2
loop_
 _symmetry_equiv_pos_site_id
 _symmetry_equiv_pos_as_xyz
  1  'x, y, z'
loop_
 _atom_site_type_symbol
 _atom_site_label
 _atom_site_symmetry_multiplicity
 _atom_site_fract_x
 _atom_site_fract_y
 _atom_site_fract_z
 _atom_site_occupancy
  P  P0  1  0.675374  0.675374  0.350748  1
  P  P1  1  0.324626  0.324626  0.649252  1
  P  P2  1  0.500000  0.000000  0.000000  1
  P  P3  1  0.000000  0.500000  0.000000  1
  Cu  Cu4  1  0.750000  0.250000  0.500000  1
  Cu  Cu5  1  0.250000  0.750000  0.500000  1
  Sm  Sm6  1  0.883446  0.883446  0.766892  1
  Sm  Sm7  1  0.116554  0.116554  0.233108  1
