# generated using pymatgen
data_Li4Fe3OF8
_symmetry_space_group_name_H-M   'P 1'
_cell_length_a   5.76209174
_cell_length_b   24.30000961
_cell_length_c   5.31607766
_cell_angle_alpha   90.00000000
_cell_angle_beta   90.00000000
_cell_angle_gamma   90.00000000
_symmetry_Int_Tables_number   1
_chemical_formula_structural   Li4Fe3OF8
_chemical_formula_sum   'Li16 Fe12 O4 F32'
_cell_volume   744.35126470
_cell_formula_units_Z   4
loop_
 _symmetry_equiv_pos_site_id
 _symmetry_equiv_pos_as_xyz
  1  'x, y, z'
loop_
 _atom_site_type_symbol
 _atom_site_label
 _atom_site_symmetry_multiplicity
 _atom_site_fract_x
 _atom_site_fract_y
 _atom_site_fract_z
 _atom_site_occupancy
  Li  Li0  1  0.238466  0.176114  0.996656  1
  Li  Li1  1  0.238466  0.323886  0.996656  1
  Li  Li2  1  0.248695  0.967826  0.551270  1
  Li  Li3  1  0.248695  0.532174  0.551270  1
  Li  Li4  1  0.251305  0.032174  0.051270  1
  Li  Li5  1  0.251305  0.467826  0.051270  1
  Li  Li6  1  0.261534  0.676114  0.496656  1
  Li  Li7  1  0.261534  0.823886  0.496656  1
  Li  Li8  1  0.629697  0.314339  0.483288  1
  Li  Li9  1  0.629697  0.185661  0.483288  1
  Li  Li10  1  0.754028  0.532898  0.936900  1
  Li  Li11  1  0.754028  0.967102  0.936900  1
  Li  Li12  1  0.745972  0.032898  0.436900  1
  Li  Li13  1  0.745972  0.467102  0.436900  1
  Li  Li14  1  0.870303  0.685661  0.983288  1
  Li  Li15  1  0.870303  0.814339  0.983288  1
  Fe  Fe16  1  0.168758  0.250000  0.467044  1
  Fe  Fe17  1  0.243871  0.611673  0.000053  1
  Fe  Fe18  1  0.243871  0.888327  0.000053  1
  Fe  Fe19  1  0.256129  0.111673  0.500053  1
  Fe  Fe20  1  0.256129  0.388327  0.500053  1
  Fe  Fe21  1  0.331242  0.750000  0.967044  1
  Fe  Fe22  1  0.635336  0.250000  0.990773  1
  Fe  Fe23  1  0.735247  0.607844  0.494730  1
  Fe  Fe24  1  0.735247  0.892156  0.494730  1
  Fe  Fe25  1  0.764753  0.107844  0.994730  1
  Fe  Fe26  1  0.764753  0.392156  0.994730  1
  Fe  Fe27  1  0.864664  0.750000  0.490773  1
  O  O28  1  0.312045  0.316950  0.344615  1
  O  O29  1  0.312045  0.183050  0.344615  1
  O  O30  1  0.187955  0.816950  0.844615  1
  O  O31  1  0.187955  0.683050  0.844615  1
  F  F32  1  0.982722  0.648953  0.290528  1
  F  F33  1  0.982722  0.851047  0.290528  1
  F  F34  1  0.993366  0.572807  0.733554  1
  F  F35  1  0.993366  0.927193  0.733554  1
  F  F36  1  0.194703  0.750000  0.364243  1
  F  F37  1  0.223692  0.539537  0.190685  1
  F  F38  1  0.223692  0.960463  0.190685  1
  F  F39  1  0.276308  0.039537  0.690685  1
  F  F40  1  0.276308  0.460463  0.690685  1
  F  F41  1  0.305297  0.250000  0.864243  1
  F  F42  1  0.506634  0.072807  0.233554  1
  F  F43  1  0.506634  0.427193  0.233554  1
  F  F44  1  0.517278  0.148953  0.790528  1
  F  F45  1  0.517278  0.351047  0.790528  1
  F  F46  1  0.470424  0.859361  0.282954  1
  F  F47  1  0.470424  0.640639  0.282954  1
  F  F48  1  0.494964  0.572678  0.748126  1
  F  F49  1  0.494964  0.927322  0.748126  1
  F  F50  1  0.710431  0.750000  0.125261  1
  F  F51  1  0.727321  0.535927  0.288828  1
  F  F52  1  0.727321  0.964073  0.288828  1
  F  F53  1  0.803291  0.189731  0.184151  1
  F  F54  1  0.803291  0.310269  0.184151  1
  F  F55  1  0.696709  0.689731  0.684151  1
  F  F56  1  0.696709  0.810269  0.684151  1
  F  F57  1  0.772679  0.035927  0.788828  1
  F  F58  1  0.772679  0.464073  0.788828  1
  F  F59  1  0.789569  0.250000  0.625261  1
  F  F60  1  0.005036  0.072678  0.248126  1
  F  F61  1  0.005036  0.427322  0.248126  1
  F  F62  1  0.029576  0.140639  0.782954  1
  F  F63  1  0.029576  0.359361  0.782954  1
