# generated using pymatgen
data_Li3Mn2(PO4)3
_symmetry_space_group_name_H-M   'P 1'
_cell_length_a   9.15604922
_cell_length_b   9.15604922
_cell_length_c   15.10306508
_cell_angle_alpha   82.29035183
_cell_angle_beta   82.18164828
_cell_angle_gamma   123.66413082
_symmetry_Int_Tables_number   1
_chemical_formula_structural   Li3Mn2(PO4)3
_chemical_formula_sum   'Li12 Mn8 P12 O48'
_cell_volume   1009.73403752
_cell_formula_units_Z   4
loop_
 _symmetry_equiv_pos_site_id
 _symmetry_equiv_pos_as_xyz
  1  'x, y, z'
loop_
 _atom_site_type_symbol
 _atom_site_label
 _atom_site_symmetry_multiplicity
 _atom_site_fract_x
 _atom_site_fract_y
 _atom_site_fract_z
 _atom_site_occupancy
  Li  Li0  1  0.160288  0.739560  0.341676  1
  Li  Li1  1  0.008603  0.234191  0.928332  1
  Li  Li2  1  0.110953  0.360953  0.250000  1
  Li  Li3  1  0.662524  0.936936  0.571668  1
  Li  Li4  1  0.581236  0.501964  0.158324  1
  Li  Li5  1  0.500000  0.500000  0.500000  1
  Li  Li6  1  0.418764  0.498036  0.841676  1
  Li  Li7  1  0.337476  0.063064  0.428332  1
  Li  Li8  1  0.889047  0.639047  0.750000  1
  Li  Li9  1  0.991397  0.765809  0.071668  1
  Li  Li10  1  0.839712  0.260440  0.658324  1
  Li  Li11  1  0.500000  0.000000  0.000000  1
  Mn  Mn12  1  0.255602  0.709888  0.530501  1
  Mn  Mn13  1  0.304394  0.794310  0.835076  1
  Mn  Mn14  1  0.129386  0.139470  0.664924  1
  Mn  Mn15  1  0.740389  0.786103  0.969499  1
  Mn  Mn16  1  0.259611  0.213897  0.030501  1
  Mn  Mn17  1  0.870614  0.860530  0.335076  1
  Mn  Mn18  1  0.695606  0.205690  0.164924  1
  Mn  Mn19  1  0.744398  0.290112  0.469499  1
  P  P20  1  0.611446  0.976201  0.367838  1
  P  P21  1  0.255782  0.542972  0.693743  1
  P  P22  1  0.310764  0.593085  0.027241  1
  P  P23  1  0.120326  0.338005  0.472759  1
  P  P24  1  0.736715  0.949525  0.806257  1
  P  P25  1  0.844039  0.979284  0.132162  1
  P  P26  1  0.155961  0.020716  0.867838  1
  P  P27  1  0.263285  0.050475  0.193743  1
  P  P28  1  0.879674  0.661995  0.527241  1
  P  P29  1  0.689236  0.406915  0.972759  1
  P  P30  1  0.744218  0.457028  0.306257  1
  P  P31  1  0.388554  0.023799  0.632162  1
  O  O32  1  0.121517  0.928743  0.290477  1
  O  O33  1  0.175151  0.976696  0.111267  1
  O  O34  1  0.305536  0.990186  0.872045  1
  O  O35  1  0.311300  0.938937  0.551265  1
  O  O36  1  0.063160  0.694906  0.478718  1
  O  O37  1  0.269442  0.864693  0.719780  1
  O  O38  1  0.408137  0.893869  0.384202  1
  O  O39  1  0.077225  0.500506  0.673250  1
  O  O40  1  0.232267  0.673009  0.966746  1
  O  O41  1  0.585359  0.974611  0.807078  1
  O  O42  1  0.198466  0.510302  0.126141  1
  O  O43  1  0.280781  0.588006  0.790477  1
  O  O44  1  0.275979  0.529315  0.482364  1
  O  O45  1  0.412035  0.713582  0.611267  1
  O  O46  1  0.511679  0.758343  0.017636  1
  O  O47  1  0.637770  0.822418  0.372045  1
  O  O48  1  0.136443  0.324608  0.373858  1
  O  O49  1  0.009797  0.137434  0.051265  1
  O  O50  1  0.281689  0.392437  0.692922  1
  O  O51  1  0.326375  0.458121  0.978718  1
  O  O52  1  0.915526  0.010778  0.219780  1
  O  O53  1  0.139756  0.199012  0.533254  1
  O  O54  1  0.778071  0.792339  0.115798  1
  O  O55  1  0.673756  0.750475  0.826750  1
  O  O56  1  0.326244  0.249525  0.173250  1
  O  O57  1  0.221929  0.207661  0.884202  1
  O  O58  1  0.860244  0.800988  0.466746  1
  O  O59  1  0.084474  0.989222  0.780220  1
  O  O60  1  0.673625  0.541879  0.021282  1
  O  O61  1  0.718311  0.607563  0.307078  1
  O  O62  1  0.990203  0.862566  0.948735  1
  O  O63  1  0.863557  0.675392  0.626142  1
  O  O64  1  0.362230  0.177582  0.627955  1
  O  O65  1  0.488321  0.241657  0.982364  1
  O  O66  1  0.587965  0.286418  0.388733  1
  O  O67  1  0.724021  0.470685  0.517636  1
  O  O68  1  0.719219  0.411994  0.209523  1
  O  O69  1  0.801534  0.489698  0.873858  1
  O  O70  1  0.414641  0.025389  0.192922  1
  O  O71  1  0.767733  0.326991  0.033254  1
  O  O72  1  0.922775  0.499494  0.326750  1
  O  O73  1  0.591863  0.106131  0.615798  1
  O  O74  1  0.730558  0.135307  0.280220  1
  O  O75  1  0.936840  0.305094  0.521282  1
  O  O76  1  0.688700  0.061063  0.448735  1
  O  O77  1  0.694464  0.009814  0.127955  1
  O  O78  1  0.824849  0.023304  0.888733  1
  O  O79  1  0.878483  0.071257  0.709523  1
