# generated using pymatgen
data_Li4Co2OF7
_symmetry_space_group_name_H-M   'P 1'
_cell_length_a   5.99784464
_cell_length_b   5.96635717
_cell_length_c   5.87146789
_cell_angle_alpha   60.52471411
_cell_angle_beta   90.00000000
_cell_angle_gamma   119.93339790
_symmetry_Int_Tables_number   1
_chemical_formula_structural   Li4Co2OF7
_chemical_formula_sum   'Li4 Co2 O1 F7'
_cell_volume   149.88739419
_cell_formula_units_Z   1
loop_
 _symmetry_equiv_pos_site_id
 _symmetry_equiv_pos_as_xyz
  1  'x, y, z'
loop_
 _atom_site_type_symbol
 _atom_site_label
 _atom_site_symmetry_multiplicity
 _atom_site_fract_x
 _atom_site_fract_y
 _atom_site_fract_z
 _atom_site_occupancy
  Li  Li0  1  0.004450  0.996600  0.001700  1
  Li  Li1  1  0.249728  0.519096  0.240452  1
  Li  Li2  1  0.629745  0.749704  0.625148  1
  Li  Li3  1  0.116122  0.743112  0.628444  1
  Co  Co4  1  0.637875  0.250294  0.150573  1
  Co  Co5  1  0.637875  0.250294  0.599132  1
  O  O6  1  0.852398  0.241911  0.379044  1
  F  F7  1  0.363600  0.236486  0.381757  1
  F  F8  1  0.854984  0.719775  0.400203  1
  F  F9  1  0.868090  0.260289  0.869855  1
  F  F10  1  0.417076  0.255276  0.872362  1
  F  F11  1  0.854984  0.719775  0.880023  1
  F  F12  1  0.381537  0.778693  0.377237  1
  F  F13  1  0.381537  0.778693  0.844070  1
