# generated using pymatgen
data_GaHO2
_symmetry_space_group_name_H-M   'P 1'
_cell_length_a   13.57149774
_cell_length_b   3.05493987
_cell_length_c   3.82170539
_cell_angle_alpha   90.00000000
_cell_angle_beta   90.00000000
_cell_angle_gamma   90.00000000
_symmetry_Int_Tables_number   1
_chemical_formula_structural   GaHO2
_chemical_formula_sum   'Ga4 H4 O8'
_cell_volume   158.44832410
_cell_formula_units_Z   4
loop_
 _symmetry_equiv_pos_site_id
 _symmetry_equiv_pos_as_xyz
  1  'x, y, z'
loop_
 _atom_site_type_symbol
 _atom_site_label
 _atom_site_symmetry_multiplicity
 _atom_site_fract_x
 _atom_site_fract_y
 _atom_site_fract_z
 _atom_site_occupancy
  Ga  Ga0  1  0.181991  0.750000  0.248069  1
  Ga  Ga1  1  0.318009  0.250000  0.748069  1
  Ga  Ga2  1  0.681991  0.750000  0.251931  1
  Ga  Ga3  1  0.818009  0.250000  0.751931  1
  H  H4  1  0.060188  0.250000  0.506278  1
  H  H5  1  0.439812  0.750000  0.006278  1
  H  H6  1  0.560188  0.250000  0.993722  1
  H  H7  1  0.939812  0.750000  0.493722  1
  O  O8  1  0.086829  0.250000  0.268282  1
  O  O9  1  0.287243  0.250000  0.250354  1
  O  O10  1  0.212757  0.750000  0.750354  1
  O  O11  1  0.413171  0.750000  0.768282  1
  O  O12  1  0.586829  0.250000  0.231718  1
  O  O13  1  0.787243  0.250000  0.249646  1
  O  O14  1  0.712757  0.750000  0.749646  1
  O  O15  1  0.913171  0.750000  0.731718  1
