# generated using pymatgen
data_Tb2Ni12As7
_symmetry_space_group_name_H-M   'P 1'
_cell_length_a   9.35198993
_cell_length_b   9.34936643
_cell_length_c   3.85108413
_cell_angle_alpha   90.00000000
_cell_angle_beta   90.00000000
_cell_angle_gamma   120.00820393
_symmetry_Int_Tables_number   1
_chemical_formula_structural   Tb2Ni12As7
_chemical_formula_sum   'Tb2 Ni12 As7'
_cell_volume   291.58416939
_cell_formula_units_Z   1
loop_
 _symmetry_equiv_pos_site_id
 _symmetry_equiv_pos_as_xyz
  1  'x, y, z'
loop_
 _atom_site_type_symbol
 _atom_site_label
 _atom_site_symmetry_multiplicity
 _atom_site_fract_x
 _atom_site_fract_y
 _atom_site_fract_z
 _atom_site_occupancy
  Tb  Tb0  1  0.333251  0.666664  0.000000  1
  Tb  Tb1  1  0.666762  0.333368  0.499999  1
  Ni  Ni2  1  0.376973  0.424789  0.499999  1
  Ni  Ni3  1  0.575206  0.952161  0.499999  1
  Ni  Ni4  1  0.047820  0.623021  0.499999  1
  Ni  Ni5  1  0.440002  0.055997  0.000000  1
  Ni  Ni6  1  0.944044  0.384010  0.000000  1
  Ni  Ni7  1  0.615988  0.560002  0.000000  1
  Ni  Ni8  1  0.211296  0.095848  0.499999  1
  Ni  Ni9  1  0.904125  0.115441  0.499999  1
  Ni  Ni10  1  0.884526  0.788732  0.499999  1
  Ni  Ni11  1  0.150544  0.279501  0.000000  1
  Ni  Ni12  1  0.720436  0.870990  0.000000  1
  Ni  Ni13  1  0.129107  0.849481  0.000000  1
  As  As14  1  0.000036  0.000067  0.000000  1
  As  As15  1  0.108531  0.406536  0.499999  1
  As  As16  1  0.593461  0.702008  0.499999  1
  As  As17  1  0.297912  0.891421  0.499999  1
  As  As18  1  0.402382  0.284789  0.000000  1
  As  As19  1  0.715211  0.117592  0.000000  1
  As  As20  1  0.882387  0.597580  0.000000  1
