# generated using pymatgen
data_Mn8O13F3
_symmetry_space_group_name_H-M   'P 1'
_cell_length_a   6.70825692
_cell_length_b   5.54541074
_cell_length_c   6.73891597
_cell_angle_alpha   88.44957469
_cell_angle_beta   95.82272820
_cell_angle_gamma   88.59446208
_symmetry_Int_Tables_number   1
_chemical_formula_structural   Mn8O13F3
_chemical_formula_sum   'Mn8 O13 F3'
_cell_volume   249.20945323
_cell_formula_units_Z   1
loop_
 _symmetry_equiv_pos_site_id
 _symmetry_equiv_pos_as_xyz
  1  'x, y, z'
loop_
 _atom_site_type_symbol
 _atom_site_label
 _atom_site_symmetry_multiplicity
 _atom_site_fract_x
 _atom_site_fract_y
 _atom_site_fract_z
 _atom_site_occupancy
  Mn  Mn0  1  0.375048  0.358563  0.139775  1
  Mn  Mn1  1  0.113138  0.636447  0.373880  1
  Mn  Mn2  1  0.880473  0.169076  0.131951  1
  Mn  Mn3  1  0.373357  0.150051  0.620071  1
  Mn  Mn4  1  0.139492  0.859449  0.874745  1
  Mn  Mn5  1  0.638353  0.852110  0.372015  1
  Mn  Mn6  1  0.625611  0.654186  0.875197  1
  Mn  Mn7  1  0.872835  0.354575  0.629961  1
  O  O8  1  0.159373  0.115575  0.080003  1
  O  O9  1  0.168641  0.609309  0.093914  1
  O  O10  1  0.324632  0.389247  0.405291  1
  O  O11  1  0.574744  0.613059  0.156600  1
  O  O12  1  0.076519  0.607089  0.654723  1
  O  O13  1  0.092752  0.109161  0.669529  1
  O  O14  1  0.596096  0.113825  0.171449  1
  O  O15  1  0.404878  0.886009  0.820426  1
  O  O16  1  0.655278  0.105613  0.573303  1
  O  O17  1  0.907502  0.885473  0.323290  1
  O  O18  1  0.921422  0.393909  0.352792  1
  O  O19  1  0.669220  0.610190  0.591007  1
  O  O20  1  0.820750  0.387143  0.903992  1
  F  F21  1  0.342337  0.867093  0.407726  1
  F  F22  1  0.409684  0.379929  0.858350  1
  F  F23  1  0.857867  0.892922  0.920007  1
