# generated using pymatgen
data_Mn6O7F5
_symmetry_space_group_name_H-M   'P 1'
_cell_length_a   4.68352251
_cell_length_b   7.72185167
_cell_length_c   5.62318625
_cell_angle_alpha   93.74091049
_cell_angle_beta   91.47532973
_cell_angle_gamma   89.79728407
_symmetry_Int_Tables_number   1
_chemical_formula_structural   Mn6O7F5
_chemical_formula_sum   'Mn6 O7 F5'
_cell_volume   202.86421593
_cell_formula_units_Z   1
loop_
 _symmetry_equiv_pos_site_id
 _symmetry_equiv_pos_as_xyz
  1  'x, y, z'
loop_
 _atom_site_type_symbol
 _atom_site_label
 _atom_site_symmetry_multiplicity
 _atom_site_fract_x
 _atom_site_fract_y
 _atom_site_fract_z
 _atom_site_occupancy
  Mn  Mn0  1  0.495747  0.999461  0.503770  1
  Mn  Mn1  1  0.486706  0.664919  0.158170  1
  Mn  Mn2  1  0.531335  0.343583  0.833207  1
  Mn  Mn3  1  0.022794  0.661545  0.679095  1
  Mn  Mn4  1  0.953196  0.327814  0.336664  1
  Mn  Mn5  1  0.008746  0.004026  0.997216  1
  O  O6  1  0.804694  0.439242  0.636744  1
  O  O7  1  0.806606  0.104122  0.294527  1
  O  O8  1  0.691323  0.111112  0.794906  1
  O  O9  1  0.694274  0.439262  0.123558  1
  O  O10  1  0.316858  0.561500  0.869040  1
  O  O11  1  0.302945  0.890695  0.209210  1
  O  O12  1  0.190455  0.894329  0.705118  1
  F  F13  1  0.800896  0.768043  0.964670  1
  F  F14  1  0.704156  0.749908  0.459175  1
  F  F15  1  0.296413  0.248760  0.540005  1
  F  F16  1  0.180032  0.546434  0.358816  1
  F  F17  1  0.212823  0.245245  0.036109  1
