# generated using pymatgen
data_Li2Mn3(BO3)3
_symmetry_space_group_name_H-M   'P 1'
_cell_length_a   9.69958850
_cell_length_b   7.87541810
_cell_length_c   5.23711625
_cell_angle_alpha   88.13349346
_cell_angle_beta   103.88329716
_cell_angle_gamma   105.39977063
_symmetry_Int_Tables_number   1
_chemical_formula_structural   Li2Mn3(BO3)3
_chemical_formula_sum   'Li4 Mn6 B6 O18'
_cell_volume   374.21632248
_cell_formula_units_Z   2
loop_
 _symmetry_equiv_pos_site_id
 _symmetry_equiv_pos_as_xyz
  1  'x, y, z'
loop_
 _atom_site_type_symbol
 _atom_site_label
 _atom_site_symmetry_multiplicity
 _atom_site_fract_x
 _atom_site_fract_y
 _atom_site_fract_z
 _atom_site_occupancy
  Li  Li0  1  0.349850  0.311871  0.101792  1
  Li  Li1  1  0.983471  0.354751  0.564921  1
  Li  Li2  1  0.642000  0.668463  0.910346  1
  Li  Li3  1  0.691284  0.998267  0.756195  1
  Mn  Mn4  1  0.168236  0.077943  0.682798  1
  Mn  Mn5  1  0.504783  0.241999  0.644256  1
  Mn  Mn6  1  0.165093  0.588565  0.984077  1
  Mn  Mn7  1  0.828429  0.424677  0.022113  1
  Mn  Mn8  1  0.491218  0.752733  0.343015  1
  Mn  Mn9  1  0.842186  0.913961  0.323878  1
  B  B10  1  0.058173  0.205734  0.123013  1
  B  B11  1  0.612824  0.142084  0.206998  1
  B  B12  1  0.275427  0.460504  0.543935  1
  B  B13  1  0.720702  0.524673  0.459367  1
  B  B14  1  0.400223  0.865241  0.799332  1
  B  B15  1  0.933357  0.801389  0.866702  1
  O  O16  1  0.001698  0.333946  0.966881  1
  O  O17  1  0.012684  0.159749  0.356817  1
  O  O18  1  0.159077  0.137974  0.054774  1
  O  O19  1  0.663590  0.184147  0.973079  1
  O  O20  1  0.660550  0.011854  0.363695  1
  O  O21  1  0.331397  0.332800  0.699535  1
  O  O22  1  0.515727  0.223782  0.263989  1
  O  O23  1  0.173914  0.528966  0.612191  1
  O  O24  1  0.320779  0.507001  0.309729  1
  O  O25  1  0.669912  0.482683  0.693685  1
  O  O26  1  0.817608  0.443014  0.402560  1
  O  O27  1  0.507665  0.800096  0.739569  1
  O  O28  1  0.672835  0.654713  0.302961  1
  O  O29  1  0.356310  0.004343  0.661831  1
  O  O30  1  0.341283  0.802639  0.013214  1
  O  O31  1  0.825698  0.866610  0.926989  1
  O  O32  1  0.991882  0.863656  0.654527  1
  O  O33  1  0.976805  0.662503  0.004568  1
