# generated using pymatgen
data_Li4Co(OF)2
_symmetry_space_group_name_H-M   'P 1'
_cell_length_a   3.80941431
_cell_length_b   5.50512840
_cell_length_c   5.13872616
_cell_angle_alpha   89.20802431
_cell_angle_beta   111.75617580
_cell_angle_gamma   69.75788918
_symmetry_Int_Tables_number   1
_chemical_formula_structural   Li4Co(OF)2
_chemical_formula_sum   'Li4 Co1 O2 F2'
_cell_volume   92.65162668
_cell_formula_units_Z   1
loop_
 _symmetry_equiv_pos_site_id
 _symmetry_equiv_pos_as_xyz
  1  'x, y, z'
loop_
 _atom_site_type_symbol
 _atom_site_label
 _atom_site_symmetry_multiplicity
 _atom_site_fract_x
 _atom_site_fract_y
 _atom_site_fract_z
 _atom_site_occupancy
  Li  Li0  1  0.385525  0.463006  0.234055  1
  Li  Li1  1  0.191673  0.158676  0.542023  1
  Li  Li2  1  0.808327  0.841324  0.457977  1
  Li  Li3  1  0.614475  0.536994  0.765945  1
  Co  Co4  1  0.000000  0.000000  0.000000  1
  O  O5  1  0.730971  0.182114  0.644056  1
  O  O6  1  0.269029  0.817886  0.355944  1
  F  F7  1  0.901363  0.379318  0.182044  1
  F  F8  1  0.098637  0.620682  0.817956  1
