# generated using pymatgen
data_CrCo3O8
_symmetry_space_group_name_H-M   'P 1'
_cell_length_a   5.64230734
_cell_length_b   5.61634662
_cell_length_c   8.83765019
_cell_angle_alpha   89.82665646
_cell_angle_beta   90.08626513
_cell_angle_gamma   119.84791880
_symmetry_Int_Tables_number   1
_chemical_formula_structural   CrCo3O8
_chemical_formula_sum   'Cr2 Co6 O16'
_cell_volume   242.90675892
_cell_formula_units_Z   2
loop_
 _symmetry_equiv_pos_site_id
 _symmetry_equiv_pos_as_xyz
  1  'x, y, z'
loop_
 _atom_site_type_symbol
 _atom_site_label
 _atom_site_symmetry_multiplicity
 _atom_site_fract_x
 _atom_site_fract_y
 _atom_site_fract_z
 _atom_site_occupancy
  Cr  Cr0  1  0.332949  0.665266  0.490143  1
  Cr  Cr1  1  0.667051  0.332318  0.990143  1
  Co  Co2  1  0.169094  0.833774  0.209380  1
  Co  Co3  1  0.168160  0.336571  0.213092  1
  Co  Co4  1  0.664401  0.832428  0.209812  1
  Co  Co5  1  0.335599  0.168026  0.709812  1
  Co  Co6  1  0.830906  0.664679  0.709380  1
  Co  Co7  1  0.831840  0.168413  0.713091  1
  O  O8  1  0.165304  0.836157  0.606973  1
  O  O9  1  0.040803  0.521091  0.334056  1
  O  O10  1  0.331122  0.661888  0.101311  1
  O  O11  1  0.002384  0.005042  0.316055  1
  O  O12  1  0.997616  0.002658  0.816055  1
  O  O13  1  0.167929  0.333014  0.605640  1
  O  O14  1  0.478488  0.957275  0.331903  1
  O  O15  1  0.479787  0.519716  0.333887  1
  O  O16  1  0.331237  0.163706  0.105608  1
  O  O17  1  0.668763  0.832470  0.605608  1
  O  O18  1  0.521512  0.478787  0.831903  1
  O  O19  1  0.520213  0.039929  0.833887  1
  O  O20  1  0.668878  0.330765  0.601311  1
  O  O21  1  0.834696  0.670853  0.106973  1
  O  O22  1  0.959197  0.480288  0.834056  1
  O  O23  1  0.832071  0.165086  0.105640  1
