# generated using pymatgen
data_Rb2TlAu3
_symmetry_space_group_name_H-M   'P 1'
_cell_length_a   5.82730838
_cell_length_b   6.97190951
_cell_length_c   9.29227607
_cell_angle_alpha   90.00034017
_cell_angle_beta   89.99986566
_cell_angle_gamma   90.00013411
_symmetry_Int_Tables_number   1
_chemical_formula_structural   Rb2TlAu3
_chemical_formula_sum   'Rb4 Tl2 Au6'
_cell_volume   377.52163671
_cell_formula_units_Z   2
loop_
 _symmetry_equiv_pos_site_id
 _symmetry_equiv_pos_as_xyz
  1  'x, y, z'
loop_
 _atom_site_type_symbol
 _atom_site_label
 _atom_site_symmetry_multiplicity
 _atom_site_fract_x
 _atom_site_fract_y
 _atom_site_fract_z
 _atom_site_occupancy
  Rb  Rb0  1  0.250002  0.499997  0.132346  1
  Rb  Rb1  1  0.249999  -0.000003  0.368899  1
  Rb  Rb2  1  0.750000  -0.000003  0.631101  1
  Rb  Rb3  1  0.749998  0.500007  0.867653  1
  Tl  Tl4  1  0.750003  0.500001  0.425766  1
  Tl  Tl5  1  0.250000  0.499999  0.574233  1
  Au  Au6  1  0.000001  0.000001  -0.000000  1
  Au  Au7  1  0.500001  0.000000  0.000001  1
  Au  Au8  1  0.749998  0.207461  0.215858  1
  Au  Au9  1  0.750001  0.792537  0.215856  1
  Au  Au10  1  0.250002  0.207463  0.784143  1
  Au  Au11  1  0.249999  0.792538  0.784144  1
