# generated using pymatgen
data_SnH6(NF2)2
_symmetry_space_group_name_H-M   'P 1'
_cell_length_a   7.96300290
_cell_length_b   6.38352953
_cell_length_c   5.24624253
_cell_angle_alpha   90.00000000
_cell_angle_beta   103.36398013
_cell_angle_gamma   90.00000000
_symmetry_Int_Tables_number   1
_chemical_formula_structural   SnH6(NF2)2
_chemical_formula_sum   'Sn2 H12 N4 F8'
_cell_volume   259.45608191
_cell_formula_units_Z   2
loop_
 _symmetry_equiv_pos_site_id
 _symmetry_equiv_pos_as_xyz
  1  'x, y, z'
loop_
 _atom_site_type_symbol
 _atom_site_label
 _atom_site_symmetry_multiplicity
 _atom_site_fract_x
 _atom_site_fract_y
 _atom_site_fract_z
 _atom_site_occupancy
  Sn  Sn0  1  0.500000  0.500000  0.500000  1
  Sn  Sn1  1  0.000000  0.000000  0.000000  1
  H  H2  1  0.571751  0.735179  0.110332  1
  H  H3  1  0.071751  0.764821  0.610332  1
  H  H4  1  0.428249  0.264821  0.889668  1
  H  H5  1  0.928249  0.235179  0.389668  1
  H  H6  1  0.455041  0.877070  0.271016  1
  H  H7  1  0.955041  0.622930  0.771016  1
  H  H8  1  0.544959  0.122930  0.728984  1
  H  H9  1  0.044959  0.377070  0.228984  1
  H  H10  1  0.668772  0.849146  0.396839  1
  H  H11  1  0.168772  0.650854  0.896839  1
  H  H12  1  0.331228  0.150854  0.603161  1
  H  H13  1  0.831228  0.349146  0.103161  1
  N  N14  1  0.558500  0.775935  0.295097  1
  N  N15  1  0.058500  0.724065  0.795097  1
  N  N16  1  0.441500  0.224065  0.704903  1
  N  N17  1  0.941500  0.275935  0.204903  1
  F  F18  1  0.575688  0.312683  0.238844  1
  F  F19  1  0.075688  0.187317  0.738844  1
  F  F20  1  0.424312  0.687317  0.761156  1
  F  F21  1  0.924312  0.812683  0.261156  1
  F  F22  1  0.259011  0.501308  0.267575  1
  F  F23  1  0.759011  0.998692  0.767575  1
  F  F24  1  0.740989  0.498692  0.732425  1
  F  F25  1  0.240989  0.001308  0.232425  1
