# generated using pymatgen
data_Li5Mn4(P2O7)4
_symmetry_space_group_name_H-M   'P 1'
_cell_length_a   9.80000793
_cell_length_b   9.80618281
_cell_length_c   11.27269235
_cell_angle_alpha   90.03810286
_cell_angle_beta   103.03716630
_cell_angle_gamma   89.88423074
_symmetry_Int_Tables_number   1
_chemical_formula_structural   Li5Mn4(P2O7)4
_chemical_formula_sum   'Li10 Mn8 P16 O56'
_cell_volume   1055.38755219
_cell_formula_units_Z   2
loop_
 _symmetry_equiv_pos_site_id
 _symmetry_equiv_pos_as_xyz
  1  'x, y, z'
loop_
 _atom_site_type_symbol
 _atom_site_label
 _atom_site_symmetry_multiplicity
 _atom_site_fract_x
 _atom_site_fract_y
 _atom_site_fract_z
 _atom_site_occupancy
  Li  Li0  1  0.088035  0.108211  0.026505  1
  Li  Li1  1  0.409457  0.608254  0.972965  1
  Li  Li2  1  0.336791  0.922003  0.461127  1
  Li  Li3  1  0.650109  0.063676  0.529313  1
  Li  Li4  1  0.588662  0.394759  0.029505  1
  Li  Li5  1  0.852038  0.586098  0.955083  1
  Li  Li6  1  0.647021  0.090329  0.043205  1
  Li  Li7  1  0.911683  0.894919  0.969690  1
  Li  Li8  1  0.839839  0.579617  0.462640  1
  Li  Li9  1  0.890811  0.280155  0.548168  1
  Mn  Mn10  1  0.198774  0.923945  0.670717  1
  Mn  Mn11  1  0.257225  0.212762  0.823941  1
  Mn  Mn12  1  0.240134  0.712333  0.177076  1
  Mn  Mn13  1  0.300846  0.424389  0.334462  1
  Mn  Mn14  1  0.702930  0.575382  0.672511  1
  Mn  Mn15  1  0.756695  0.284643  0.825015  1
  Mn  Mn16  1  0.739593  0.783572  0.175165  1
  Mn  Mn17  1  0.799666  0.074920  0.326542  1
  P  P18  1  0.027288  0.449832  0.752374  1
  P  P19  1  0.120151  0.710574  0.886644  1
  P  P20  1  0.062186  0.928945  0.240864  1
  P  P21  1  0.125610  0.150569  0.428426  1
  P  P22  1  0.377231  0.641671  0.569670  1
  P  P23  1  0.436739  0.428081  0.757554  1
  P  P24  1  0.520755  0.051039  0.756186  1
  P  P25  1  0.378841  0.211855  0.115678  1
  P  P26  1  0.614804  0.792197  0.891570  1
  P  P27  1  0.472791  0.944454  0.245962  1
  P  P28  1  0.562942  0.570159  0.241313  1
  P  P29  1  0.623046  0.351139  0.424293  1
  P  P30  1  0.878117  0.850622  0.579862  1
  P  P31  1  0.935384  0.071445  0.757494  1
  P  P32  1  0.884663  0.294236  0.109497  1
  P  P33  1  0.974096  0.555133  0.243952  1
  O  O34  1  0.015646  0.420639  0.621059  1
  O  O35  1  0.032881  0.844044  0.569687  1
  O  O36  1  0.083102  0.088244  0.732047  1
  O  O37  1  0.115328  0.347487  0.843892  1
  O  O38  1  0.104325  0.593315  0.783532  1
  O  O39  1  0.177669  0.831141  0.826531  1
  O  O40  1  0.228241  0.657073  0.000547  1
  O  O41  1  0.021410  0.268237  0.077968  1
  O  O42  1  0.120045  0.072111  0.298765  1
  O  O43  1  0.061062  0.935895  0.106656  1
  O  O44  1  0.125086  0.551479  0.214607  1
  O  O45  1  0.188528  0.286391  0.410600  1
  O  O46  1  0.173577  0.820935  0.301699  1
  O  O47  1  0.215734  0.054351  0.525351  1
  O  O48  1  0.289329  0.561511  0.462317  1
  O  O49  1  0.337574  0.309449  0.704189  1
  O  O50  1  0.320580  0.784268  0.582280  1
  O  O51  1  0.365928  0.041234  0.780434  1
  O  O52  1  0.368125  0.566158  0.694950  1
  O  O53  1  0.441498  0.441084  0.891747  1
  O  O54  1  0.478005  0.767888  0.923357  1
  O  O55  1  0.270229  0.160640  0.001318  1
  O  O56  1  0.321915  0.329596  0.180742  1
  O  O57  1  0.398576  0.090099  0.214650  1
  O  O58  1  0.417467  0.587915  0.269838  1
  O  O59  1  0.383023  0.842281  0.157017  1
  O  O60  1  0.521932  0.082306  0.627457  1
  O  O61  1  0.473534  0.346379  0.439467  1
  O  O62  1  0.534996  0.648316  0.567850  1
  O  O63  1  0.484298  0.924712  0.379023  1
  O  O64  1  0.606105  0.143416  0.856616  1
  O  O65  1  0.583779  0.415501  0.727154  1
  O  O66  1  0.591638  0.901966  0.781579  1
  O  O67  1  0.687394  0.672127  0.842683  1
  O  O68  1  0.723110  0.861099  0.002180  1
  O  O69  1  0.518943  0.232411  0.083638  1
  O  O70  1  0.563160  0.566104  0.107509  1
  O  O71  1  0.623331  0.424213  0.294890  1
  O  O72  1  0.621369  0.951771  0.209802  1
  O  O73  1  0.684065  0.209387  0.415489  1
  O  O74  1  0.671579  0.678374  0.303695  1
  O  O75  1  0.724993  0.435752  0.520638  1
  O  O76  1  0.787051  0.937109  0.482241  1
  O  O77  1  0.833092  0.178632  0.687135  1
  O  O78  1  0.824098  0.705575  0.593341  1
  O  O79  1  0.876176  0.465558  0.785012  1
  O  O80  1  0.930568  0.070339  0.890590  1
  O  O81  1  0.877191  0.923088  0.709035  1
  O  O82  1  0.979349  0.728987  0.918102  1
  O  O83  1  0.777596  0.366117  0.002312  1
  O  O84  1  0.811998  0.173832  0.157209  1
  O  O85  1  0.910391  0.404148  0.221438  1
  O  O86  1  0.879842  0.645974  0.142198  1
  O  O87  1  0.916531  0.906745  0.268275  1
  O  O88  1  0.974690  0.162386  0.442265  1
  O  O89  1  0.972322  0.593071  0.370473  1
