# generated using pymatgen
data_PmSi3
_symmetry_space_group_name_H-M   'P 1'
_cell_length_a   6.15847396
_cell_length_b   6.14838619
_cell_length_c   4.62472756
_cell_angle_alpha   90.00000000
_cell_angle_beta   90.00000000
_cell_angle_gamma   119.99967630
_symmetry_Int_Tables_number   1
_chemical_formula_structural   PmSi3
_chemical_formula_sum   'Pm2 Si6'
_cell_volume   151.65350423
_cell_formula_units_Z   2
loop_
 _symmetry_equiv_pos_site_id
 _symmetry_equiv_pos_as_xyz
  1  'x, y, z'
loop_
 _atom_site_type_symbol
 _atom_site_label
 _atom_site_symmetry_multiplicity
 _atom_site_fract_x
 _atom_site_fract_y
 _atom_site_fract_z
 _atom_site_occupancy
  Pm  Pm0  1  0.666540  0.333208  0.250000  1
  Pm  Pm1  1  0.333452  0.666786  0.750001  1
  Si  Si2  1  0.863466  0.136457  0.750001  1
  Si  Si3  1  0.272965  0.136436  0.750001  1
  Si  Si4  1  0.863469  0.727010  0.750001  1
  Si  Si5  1  0.136541  0.863543  0.250000  1
  Si  Si6  1  0.727033  0.863564  0.250000  1
  Si  Si7  1  0.136536  0.272997  0.250000  1
