# generated using pymatgen
data_Co3(OF2)2
_symmetry_space_group_name_H-M   'P 1'
_cell_length_a   4.67668202
_cell_length_b   7.70454049
_cell_length_c   5.62233333
_cell_angle_alpha   92.96486470
_cell_angle_beta   91.77845351
_cell_angle_gamma   88.42473507
_symmetry_Int_Tables_number   1
_chemical_formula_structural   Co3(OF2)2
_chemical_formula_sum   'Co6 O4 F8'
_cell_volume   202.14552516
_cell_formula_units_Z   2
loop_
 _symmetry_equiv_pos_site_id
 _symmetry_equiv_pos_as_xyz
  1  'x, y, z'
loop_
 _atom_site_type_symbol
 _atom_site_label
 _atom_site_symmetry_multiplicity
 _atom_site_fract_x
 _atom_site_fract_y
 _atom_site_fract_z
 _atom_site_occupancy
  Co  Co0  1  0.520595  0.003985  0.491238  1
  Co  Co1  1  0.464289  0.349836  0.815307  1
  Co  Co2  1  0.505212  0.663533  0.171628  1
  Co  Co3  1  0.003561  0.673249  0.659136  1
  Co  Co4  1  0.004158  0.304267  0.353209  1
  Co  Co5  1  0.983575  0.002816  0.010902  1
  O  O6  1  0.796725  0.096410  0.308129  1
  O  O7  1  0.698097  0.770826  0.456267  1
  O  O8  1  0.299308  0.580159  0.873660  1
  O  O9  1  0.316139  0.222976  0.530193  1
  F  F10  1  0.805197  0.431596  0.634495  1
  F  F11  1  0.800340  0.770297  0.955540  1
  F  F12  1  0.693096  0.110108  0.803851  1
  F  F13  1  0.707664  0.429876  0.136737  1
  F  F14  1  0.295796  0.895059  0.199409  1
  F  F15  1  0.199665  0.233611  0.040791  1
  F  F16  1  0.214842  0.908170  0.690469  1
  F  F17  1  0.191742  0.553226  0.369039  1
