# generated using pymatgen
data_Ni3S2
_symmetry_space_group_name_H-M   'P 1'
_cell_length_a   3.21404436
_cell_length_b   6.84835491
_cell_length_c   5.77516771
_cell_angle_alpha   89.99576171
_cell_angle_beta   73.84336848
_cell_angle_gamma   90.00000000
_symmetry_Int_Tables_number   1
_chemical_formula_structural   Ni3S2
_chemical_formula_sum   'Ni6 S4'
_cell_volume   122.09620546
_cell_formula_units_Z   2
loop_
 _symmetry_equiv_pos_site_id
 _symmetry_equiv_pos_as_xyz
  1  'x, y, z'
loop_
 _atom_site_type_symbol
 _atom_site_label
 _atom_site_symmetry_multiplicity
 _atom_site_fract_x
 _atom_site_fract_y
 _atom_site_fract_z
 _atom_site_occupancy
  Ni  Ni0  1  0.462023  0.249978  0.075953  1
  Ni  Ni1  1  0.537977  0.750018  0.924046  1
  Ni  Ni2  1  0.665314  0.433969  0.669373  1
  Ni  Ni3  1  0.334711  0.566055  0.330577  1
  Ni  Ni4  1  0.665298  0.065985  0.669405  1
  Ni  Ni5  1  0.334695  0.933986  0.330609  1
  S  S6  1  0.999972  0.999995  0.000057  1
  S  S7  1  0.260199  0.250016  0.479602  1
  S  S8  1  0.739841  0.749999  0.520319  1
  S  S9  1  0.999970  0.500001  0.000060  1
