# generated using pymatgen
data_SiH21C6N2OF5
_symmetry_space_group_name_H-M   'P 1'
_cell_length_a   7.95850445
_cell_length_b   13.61601991
_cell_length_c   11.14519199
_cell_angle_alpha   90.00000930
_cell_angle_beta   96.63105132
_cell_angle_gamma   90.00000842
_symmetry_Int_Tables_number   1
_chemical_formula_structural   SiH21C6N2OF5
_chemical_formula_sum   'Si4 H84 C24 N8 O4 F20'
_cell_volume   1199.64886499
_cell_formula_units_Z   4
loop_
 _symmetry_equiv_pos_site_id
 _symmetry_equiv_pos_as_xyz
  1  'x, y, z'
loop_
 _atom_site_type_symbol
 _atom_site_label
 _atom_site_symmetry_multiplicity
 _atom_site_fract_x
 _atom_site_fract_y
 _atom_site_fract_z
 _atom_site_occupancy
  Si  Si0  1  0.314850  0.570529  0.808253  1
  Si  Si1  1  0.314850  0.929471  0.308253  1
  Si  Si2  1  0.685150  0.070529  0.691747  1
  Si  Si3  1  0.685150  0.429471  0.191747  1
  H  H4  1  0.024802  0.398560  0.630294  1
  H  H5  1  0.073884  0.455464  0.849126  1
  H  H6  1  0.105780  0.790461  0.894369  1
  H  H7  1  0.098954  0.051949  0.822014  1
  H  H8  1  0.156362  0.517492  0.982240  1
  H  H9  1  0.024802  0.101440  0.130294  1
  H  H10  1  0.073147  0.181177  0.517746  1
  H  H11  1  0.107677  0.617063  0.510515  1
  H  H12  1  0.073884  0.044536  0.349126  1
  H  H13  1  0.105780  0.709539  0.394369  1
  H  H14  1  0.168640  0.284778  0.820813  1
  H  H15  1  0.098954  0.448051  0.322014  1
  H  H16  1  0.229437  0.049300  0.964731  1
  H  H17  1  0.156362  0.982508  0.482240  1
  H  H18  1  0.073147  0.318823  0.017746  1
  H  H19  1  0.228100  0.898342  0.769510  1
  H  H20  1  0.205833  0.107888  0.624134  1
  H  H21  1  0.107677  0.882937  0.010515  1
  H  H22  1  0.237415  0.757920  0.672445  1
  H  H23  1  0.168640  0.215222  0.320813  1
  H  H24  1  0.229437  0.450700  0.464731  1
  H  H25  1  0.262931  0.837805  0.574290  1
  H  H26  1  0.279246  0.224788  0.580487  1
  H  H27  1  0.325794  0.062181  0.826788  1
  H  H28  1  0.228100  0.601658  0.269510  1
  H  H29  1  0.205833  0.392112  0.124134  1
  H  H30  1  0.237415  0.742080  0.172445  1
  H  H31  1  0.347961  0.350549  0.776576  1
  H  H32  1  0.404637  0.405130  0.982900  1
  H  H33  1  0.380061  0.254279  0.885725  1
  H  H34  1  0.262931  0.662195  0.074290  1
  H  H35  1  0.279246  0.275212  0.080487  1
  H  H36  1  0.325794  0.437819  0.326788  1
  H  H37  1  0.412372  0.805547  0.901076  1
  H  H38  1  0.347961  0.149451  0.276576  1
  H  H39  1  0.404637  0.094870  0.482899  1
  H  H40  1  0.380061  0.245721  0.385725  1
  H  H41  1  0.412943  0.601844  0.515885  1
  H  H42  1  0.412372  0.694453  0.401076  1
  H  H43  1  0.503756  0.924490  0.877743  1
  H  H44  1  0.496244  0.424490  0.622257  1
  H  H45  1  0.412943  0.898156  0.015885  1
  H  H46  1  0.587057  0.101844  0.984115  1
  H  H47  1  0.503756  0.575510  0.377743  1
  H  H48  1  0.496244  0.075510  0.122257  1
  H  H49  1  0.587628  0.305547  0.598924  1
  H  H50  1  0.587057  0.398156  0.484115  1
  H  H51  1  0.619939  0.754279  0.614275  1
  H  H52  1  0.595363  0.905130  0.517100  1
  H  H53  1  0.652039  0.850549  0.723424  1
  H  H54  1  0.587628  0.194453  0.098924  1
  H  H55  1  0.674206  0.562181  0.673212  1
  H  H56  1  0.720754  0.724788  0.919513  1
  H  H57  1  0.737069  0.337805  0.925710  1
  H  H58  1  0.619939  0.745721  0.114275  1
  H  H59  1  0.595363  0.594870  0.017101  1
  H  H60  1  0.652039  0.649451  0.223425  1
  H  H61  1  0.762585  0.257920  0.827555  1
  H  H62  1  0.794167  0.607889  0.875866  1
  H  H63  1  0.771900  0.398342  0.730490  1
  H  H64  1  0.674206  0.937819  0.173212  1
  H  H65  1  0.720754  0.775212  0.419513  1
  H  H66  1  0.737069  0.162195  0.425710  1
  H  H67  1  0.770563  0.549300  0.535269  1
  H  H68  1  0.831360  0.784778  0.679187  1
  H  H69  1  0.762585  0.242080  0.327555  1
  H  H70  1  0.892323  0.117063  0.989485  1
  H  H71  1  0.794167  0.892111  0.375866  1
  H  H72  1  0.771900  0.101658  0.230490  1
  H  H73  1  0.926853  0.681177  0.982254  1
  H  H74  1  0.843638  0.017492  0.517760  1
  H  H75  1  0.770563  0.950700  0.035269  1
  H  H76  1  0.901046  0.551949  0.677986  1
  H  H77  1  0.831360  0.715222  0.179187  1
  H  H78  1  0.894220  0.290461  0.605631  1
  H  H79  1  0.926116  0.955464  0.650874  1
  H  H80  1  0.892323  0.382937  0.489485  1
  H  H81  1  0.926853  0.818823  0.482254  1
  H  H82  1  0.975198  0.898560  0.869706  1
  H  H83  1  0.843638  0.482508  0.017760  1
  H  H84  1  0.901046  0.948051  0.177986  1
  H  H85  1  0.894220  0.209539  0.105631  1
  H  H86  1  0.926116  0.544536  0.150874  1
  H  H87  1  0.975198  0.601440  0.369706  1
  C  C88  1  0.095434  0.869145  0.912925  1
  C  C89  1  0.095434  0.630855  0.412925  1
  C  C90  1  0.191657  0.479145  0.902393  1
  C  C91  1  0.221530  0.029158  0.868913  1
  C  C92  1  0.203496  0.160385  0.549846  1
  C  C93  1  0.191657  0.020855  0.402393  1
  C  C94  1  0.295329  0.313563  0.850694  1
  C  C95  1  0.221530  0.470842  0.368913  1
  C  C96  1  0.203496  0.339615  0.049846  1
  C  C97  1  0.295329  0.186437  0.350694  1
  C  C98  1  0.404865  0.884642  0.918360  1
  C  C99  1  0.404865  0.615358  0.418360  1
  C  C100  1  0.595135  0.384642  0.581640  1
  C  C101  1  0.595135  0.115358  0.081640  1
  C  C102  1  0.704671  0.813563  0.649306  1
  C  C103  1  0.796504  0.660385  0.950154  1
  C  C104  1  0.778470  0.529158  0.631087  1
  C  C105  1  0.704671  0.686437  0.149306  1
  C  C106  1  0.808343  0.979145  0.597607  1
  C  C107  1  0.796504  0.839615  0.450154  1
  C  C108  1  0.778470  0.970842  0.131087  1
  C  C109  1  0.808343  0.520855  0.097607  1
  C  C110  1  0.904566  0.369145  0.587075  1
  C  C111  1  0.904566  0.130855  0.087075  1
  N  N112  1  0.236791  0.920216  0.861177  1
  N  N113  1  0.281376  0.386574  0.948697  1
  N  N114  1  0.236791  0.579784  0.361177  1
  N  N115  1  0.281376  0.113426  0.448697  1
  N  N116  1  0.718624  0.886574  0.551303  1
  N  N117  1  0.763209  0.420216  0.638823  1
  N  N118  1  0.718624  0.613426  0.051303  1
  N  N119  1  0.763209  0.079784  0.138823  1
  O  O120  1  0.196982  0.822722  0.641630  1
  O  O121  1  0.196982  0.677278  0.141630  1
  O  O122  1  0.803018  0.322722  0.858370  1
  O  O123  1  0.803018  0.177278  0.358370  1
  F  F124  1  0.131627  0.639570  0.782316  1
  F  F125  1  0.131627  0.860430  0.282316  1
  F  F126  1  0.261984  0.504876  0.675401  1
  F  F127  1  0.376854  0.641672  0.941171  1
  F  F128  1  0.261984  0.995124  0.175401  1
  F  F129  1  0.415190  0.656606  0.727329  1
  F  F130  1  0.376854  0.858328  0.441171  1
  F  F131  1  0.503378  0.506675  0.837123  1
  F  F132  1  0.415190  0.843394  0.227329  1
  F  F133  1  0.496622  0.006675  0.662877  1
  F  F134  1  0.503378  0.993325  0.337123  1
  F  F135  1  0.584810  0.156606  0.772671  1
  F  F136  1  0.496622  0.493325  0.162877  1
  F  F137  1  0.623146  0.141672  0.558829  1
  F  F138  1  0.584810  0.343394  0.272671  1
  F  F139  1  0.738016  0.004876  0.824599  1
  F  F140  1  0.623146  0.358328  0.058829  1
  F  F141  1  0.738016  0.495124  0.324599  1
  F  F142  1  0.868373  0.139570  0.717684  1
  F  F143  1  0.868373  0.360430  0.217684  1
