# generated using pymatgen
data_K2CrH2F8
_symmetry_space_group_name_H-M   'P 1'
_cell_length_a   5.34859489
_cell_length_b   8.10116380
_cell_length_c   8.42657006
_cell_angle_alpha   90.00578969
_cell_angle_beta   92.67195892
_cell_angle_gamma   89.99792160
_symmetry_Int_Tables_number   1
_chemical_formula_structural   K2CrH2F8
_chemical_formula_sum   'K4 Cr2 H4 F16'
_cell_volume   364.72500123
_cell_formula_units_Z   2
loop_
 _symmetry_equiv_pos_site_id
 _symmetry_equiv_pos_as_xyz
  1  'x, y, z'
loop_
 _atom_site_type_symbol
 _atom_site_label
 _atom_site_symmetry_multiplicity
 _atom_site_fract_x
 _atom_site_fract_y
 _atom_site_fract_z
 _atom_site_occupancy
  K  K0  1  0.433861  0.686899  0.218507  1
  K  K1  1  0.566136  0.186830  0.281563  1
  K  K2  1  0.433857  0.813089  0.718493  1
  K  K3  1  0.566109  0.313170  0.781561  1
  Cr  Cr4  1  0.000022  -0.000005  0.999847  1
  Cr  Cr5  1  0.999952  0.499995  0.500003  1
  H  H6  1  0.121812  0.340577  0.049936  1
  H  H7  1  0.878301  0.840545  0.450143  1
  H  H8  1  0.121859  0.159398  0.549932  1
  H  H9  1  0.878273  0.659442  0.950150  1
  F  F10  1  0.905516  0.227716  0.032883  1
  F  F11  1  0.280836  0.401574  0.059653  1
  F  F12  1  0.706482  0.929961  0.080921  1
  F  F13  1  0.150543  0.994749  0.200572  1
  F  F14  1  0.849371  0.494730  0.299298  1
  F  F15  1  0.293617  0.429952  0.419069  1
  F  F16  1  0.719042  0.901597  0.440423  1
  F  F17  1  0.094501  0.727671  0.467095  1
  F  F18  1  0.905482  0.272280  0.532969  1
  F  F19  1  0.280775  0.098430  0.559618  1
  F  F20  1  0.706360  0.570068  0.581040  1
  F  F21  1  0.150567  0.505279  0.700703  1
  F  F22  1  0.849393  0.005274  0.799162  1
  F  F23  1  0.293713  0.070072  0.918983  1
  F  F24  1  0.719074  0.598391  0.940457  1
  F  F25  1  0.094542  0.772313  0.967016  1
