# generated using pymatgen
data_CrH18C5(NO)4
_symmetry_space_group_name_H-M   'P 1'
_cell_length_a   10.90888184
_cell_length_b   10.90888184
_cell_length_c   10.90888184
_cell_angle_alpha   90.00000000
_cell_angle_beta   90.00000000
_cell_angle_gamma   90.00000000
_symmetry_Int_Tables_number   1
_chemical_formula_structural   CrH18C5(NO)4
_chemical_formula_sum   'Cr4 H72 C20 N16 O16'
_cell_volume   1298.19733454
_cell_formula_units_Z   4
loop_
 _symmetry_equiv_pos_site_id
 _symmetry_equiv_pos_as_xyz
  1  'x, y, z'
loop_
 _atom_site_type_symbol
 _atom_site_label
 _atom_site_symmetry_multiplicity
 _atom_site_fract_x
 _atom_site_fract_y
 _atom_site_fract_z
 _atom_site_occupancy
  Cr  Cr0  1  0.502834  0.502834  0.502834  1
  Cr  Cr1  1  0.497166  0.002834  0.997166  1
  Cr  Cr2  1  0.002834  0.997166  0.497166  1
  Cr  Cr3  1  0.997166  0.497166  0.002834  1
  H  H4  1  0.337800  0.735369  0.501040  1
  H  H5  1  0.498960  0.837800  0.764631  1
  H  H6  1  0.235369  0.998960  0.662200  1
  H  H7  1  0.837800  0.764631  0.498960  1
  H  H8  1  0.998960  0.662200  0.235369  1
  H  H9  1  0.735369  0.501040  0.337800  1
  H  H10  1  0.662200  0.235369  0.998960  1
  H  H11  1  0.501040  0.337800  0.735369  1
  H  H12  1  0.764631  0.498960  0.837800  1
  H  H13  1  0.162200  0.264631  0.001040  1
  H  H14  1  0.001040  0.162200  0.264631  1
  H  H15  1  0.264631  0.001040  0.162200  1
  H  H16  1  0.229658  0.856314  0.500413  1
  H  H17  1  0.499587  0.729658  0.643686  1
  H  H18  1  0.356314  0.999587  0.770342  1
  H  H19  1  0.729658  0.643686  0.499587  1
  H  H20  1  0.999587  0.770342  0.356314  1
  H  H21  1  0.856314  0.500413  0.229658  1
  H  H22  1  0.770342  0.356314  0.999587  1
  H  H23  1  0.500413  0.229658  0.856314  1
  H  H24  1  0.643686  0.499587  0.729658  1
  H  H25  1  0.270342  0.143686  0.000413  1
  H  H26  1  0.000413  0.270342  0.143686  1
  H  H27  1  0.143686  0.000413  0.270342  1
  H  H28  1  0.113023  0.291106  0.439737  1
  H  H29  1  0.560263  0.613023  0.208894  1
  H  H30  1  0.791106  0.060263  0.886977  1
  H  H31  1  0.613023  0.208894  0.560263  1
  H  H32  1  0.060263  0.886977  0.791106  1
  H  H33  1  0.291106  0.439737  0.113023  1
  H  H34  1  0.886977  0.791106  0.060263  1
  H  H35  1  0.439737  0.113023  0.291106  1
  H  H36  1  0.208894  0.560263  0.613023  1
  H  H37  1  0.386977  0.708894  0.939737  1
  H  H38  1  0.939737  0.386977  0.708894  1
  H  H39  1  0.708894  0.939737  0.386977  1
  H  H40  1  0.221478  0.418488  0.449041  1
  H  H41  1  0.550959  0.721478  0.081512  1
  H  H42  1  0.918488  0.050959  0.778522  1
  H  H43  1  0.721478  0.081512  0.550959  1
  H  H44  1  0.050959  0.778522  0.918488  1
  H  H45  1  0.418488  0.449041  0.221478  1
  H  H46  1  0.778522  0.918488  0.050959  1
  H  H47  1  0.449041  0.221478  0.418488  1
  H  H48  1  0.081512  0.550959  0.721478  1
  H  H49  1  0.278522  0.581512  0.949041  1
  H  H50  1  0.949041  0.278522  0.581512  1
  H  H51  1  0.581512  0.949041  0.278522  1
  H  H52  1  0.064810  0.444156  0.404145  1
  H  H53  1  0.595855  0.564810  0.055844  1
  H  H54  1  0.944156  0.095855  0.935190  1
  H  H55  1  0.564810  0.055844  0.595855  1
  H  H56  1  0.095855  0.935190  0.944156  1
  H  H57  1  0.444156  0.404145  0.064810  1
  H  H58  1  0.935190  0.944156  0.095855  1
  H  H59  1  0.404145  0.064810  0.444156  1
  H  H60  1  0.055844  0.595855  0.564810  1
  H  H61  1  0.435190  0.555844  0.904145  1
  H  H62  1  0.904145  0.435190  0.555844  1
  H  H63  1  0.555844  0.904145  0.435190  1
  H  H64  1  0.267714  0.354073  0.655203  1
  H  H65  1  0.344797  0.767714  0.145927  1
  H  H66  1  0.854073  0.844797  0.732286  1
  H  H67  1  0.767714  0.145927  0.344797  1
  H  H68  1  0.844797  0.732286  0.854073  1
  H  H69  1  0.354073  0.655203  0.267714  1
  H  H70  1  0.732286  0.854073  0.844797  1
  H  H71  1  0.655203  0.267714  0.354073  1
  H  H72  1  0.145927  0.344797  0.767714  1
  H  H73  1  0.232286  0.645927  0.155203  1
  H  H74  1  0.155203  0.232286  0.645927  1
  H  H75  1  0.645927  0.155203  0.232286  1
  C  C76  1  0.126252  0.388436  0.460775  1
  C  C77  1  0.539225  0.626252  0.111564  1
  C  C78  1  0.888436  0.039225  0.873748  1
  C  C79  1  0.626252  0.111564  0.539225  1
  C  C80  1  0.039225  0.873748  0.888436  1
  C  C81  1  0.388436  0.460775  0.126252  1
  C  C82  1  0.873748  0.888436  0.039225  1
  C  C83  1  0.460775  0.126252  0.388436  1
  C  C84  1  0.111564  0.539225  0.626252  1
  C  C85  1  0.373748  0.611564  0.960775  1
  C  C86  1  0.960775  0.373748  0.611564  1
  C  C87  1  0.611564  0.960775  0.373748  1
  C  C88  1  0.171912  0.328088  0.671912  1
  C  C89  1  0.328088  0.671912  0.171912  1
  C  C90  1  0.828088  0.828088  0.828088  1
  C  C91  1  0.671912  0.171912  0.328088  1
  C  C92  1  0.362986  0.862986  0.637014  1
  C  C93  1  0.862986  0.637014  0.362986  1
  C  C94  1  0.637014  0.362986  0.862986  1
  C  C95  1  0.137014  0.137014  0.137014  1
  N  N96  1  0.092426  0.407574  0.592426  1
  N  N97  1  0.407574  0.592426  0.092426  1
  N  N98  1  0.907574  0.907574  0.907574  1
  N  N99  1  0.592426  0.092426  0.407574  1
  N  N100  1  0.309043  0.818776  0.535755  1
  N  N101  1  0.464245  0.809043  0.681224  1
  N  N102  1  0.318776  0.964245  0.690957  1
  N  N103  1  0.809043  0.681224  0.464245  1
  N  N104  1  0.964245  0.690957  0.318776  1
  N  N105  1  0.818776  0.535755  0.309043  1
  N  N106  1  0.690957  0.318776  0.964245  1
  N  N107  1  0.535755  0.309043  0.818776  1
  N  N108  1  0.681224  0.464245  0.809043  1
  N  N109  1  0.190957  0.181224  0.035755  1
  N  N110  1  0.035755  0.190957  0.181224  1
  N  N111  1  0.181224  0.035755  0.190957  1
  O  O112  1  0.591875  0.591875  0.591875  1
  O  O113  1  0.408125  0.091875  0.908125  1
  O  O114  1  0.091875  0.908125  0.408125  1
  O  O115  1  0.908125  0.408125  0.091875  1
  O  O116  1  0.378870  0.581577  0.461105  1
  O  O117  1  0.538895  0.878870  0.918423  1
  O  O118  1  0.081577  0.038895  0.621130  1
  O  O119  1  0.878870  0.918423  0.538895  1
  O  O120  1  0.038895  0.621130  0.081577  1
  O  O121  1  0.581577  0.461105  0.378870  1
  O  O122  1  0.621130  0.081577  0.038895  1
  O  O123  1  0.461105  0.378870  0.581577  1
  O  O124  1  0.918423  0.538895  0.878870  1
  O  O125  1  0.121130  0.418423  0.961105  1
  O  O126  1  0.961105  0.121130  0.418423  1
  O  O127  1  0.418423  0.961105  0.121130  1
