# generated using pymatgen
data_CrCu(PO4)2
_symmetry_space_group_name_H-M   'P 1'
_cell_length_a   9.92816770
_cell_length_b   5.93776300
_cell_length_c   4.92297903
_cell_angle_alpha   90.00000000
_cell_angle_beta   93.50323651
_cell_angle_gamma   90.00000000
_symmetry_Int_Tables_number   1
_chemical_formula_structural   CrCu(PO4)2
_chemical_formula_sum   'Cr2 Cu2 P4 O16'
_cell_volume   289.67275204
_cell_formula_units_Z   2
loop_
 _symmetry_equiv_pos_site_id
 _symmetry_equiv_pos_as_xyz
  1  'x, y, z'
loop_
 _atom_site_type_symbol
 _atom_site_label
 _atom_site_symmetry_multiplicity
 _atom_site_fract_x
 _atom_site_fract_y
 _atom_site_fract_z
 _atom_site_occupancy
  Cr  Cr0  1  0.219620  0.750000  0.462965  1
  Cr  Cr1  1  0.780380  0.250000  0.537035  1
  Cu  Cu2  1  0.292862  0.250000  0.887672  1
  Cu  Cu3  1  0.707138  0.750000  0.112328  1
  P  P4  1  0.097619  0.250000  0.407333  1
  P  P5  1  0.400685  0.750000  0.928666  1
  P  P6  1  0.599315  0.250000  0.071334  1
  P  P7  1  0.902381  0.750000  0.592667  1
  O  O8  1  0.054726  0.750000  0.665012  1
  O  O9  1  0.119630  0.250000  0.724827  1
  O  O10  1  0.166358  0.039149  0.285207  1
  O  O11  1  0.166358  0.460851  0.285207  1
  O  O12  1  0.327250  0.946606  0.757038  1
  O  O13  1  0.327250  0.553394  0.757038  1
  O  O14  1  0.377250  0.750000  0.228788  1
  O  O15  1  0.448294  0.250000  0.125138  1
  O  O16  1  0.551706  0.750000  0.874862  1
  O  O17  1  0.622750  0.250000  0.771212  1
  O  O18  1  0.672750  0.053394  0.242962  1
  O  O19  1  0.672750  0.446606  0.242962  1
  O  O20  1  0.833642  0.539149  0.714793  1
  O  O21  1  0.833642  0.960851  0.714793  1
  O  O22  1  0.880370  0.750000  0.275173  1
  O  O23  1  0.945274  0.250000  0.334988  1
