# generated using pymatgen
data_V4O7F5
_symmetry_space_group_name_H-M   'P 1'
_cell_length_a   5.29807815
_cell_length_b   7.13414530
_cell_length_c   5.44320481
_cell_angle_alpha   92.21313105
_cell_angle_beta   90.00000000
_cell_angle_gamma   90.00000000
_symmetry_Int_Tables_number   1
_chemical_formula_structural   V4O7F5
_chemical_formula_sum   'V4 O7 F5'
_cell_volume   205.58476186
_cell_formula_units_Z   1
loop_
 _symmetry_equiv_pos_site_id
 _symmetry_equiv_pos_as_xyz
  1  'x, y, z'
loop_
 _atom_site_type_symbol
 _atom_site_label
 _atom_site_symmetry_multiplicity
 _atom_site_fract_x
 _atom_site_fract_y
 _atom_site_fract_z
 _atom_site_occupancy
  V  V0  1  0.534415  0.495500  0.465787  1
  V  V1  1  0.534415  0.004500  0.534213  1
  V  V2  1  0.018621  0.495394  0.955999  1
  V  V3  1  0.018621  0.004606  0.044001  1
  O  O4  1  0.924424  0.250000  0.000000  1
  O  O5  1  0.787045  0.547272  0.305439  1
  O  O6  1  0.787045  0.952728  0.694561  1
  O  O7  1  0.577306  0.250000  0.500000  1
  O  O8  1  0.199163  0.040037  0.287310  1
  O  O9  1  0.199163  0.459963  0.712690  1
  O  O10  1  0.056239  0.750000  0.000000  1
  F  F11  1  0.696167  0.956090  0.206363  1
  F  F12  1  0.696167  0.543910  0.793637  1
  F  F13  1  0.391933  0.750000  0.500000  1
  F  F14  1  0.289638  0.457051  0.202120  1
  F  F15  1  0.289638  0.042949  0.797880  1
