# generated using pymatgen
data_Li5Co2O2F5
_symmetry_space_group_name_H-M   'P 1'
_cell_length_a   2.94834522
_cell_length_b   2.94834522
_cell_length_c   14.62900403
_cell_angle_alpha   95.78354321
_cell_angle_beta   84.21645679
_cell_angle_gamma   90.00000000
_symmetry_Int_Tables_number   1
_chemical_formula_structural   Li5Co2O2F5
_chemical_formula_sum   'Li5 Co2 O2 F5'
_cell_volume   125.86816394
_cell_formula_units_Z   1
loop_
 _symmetry_equiv_pos_site_id
 _symmetry_equiv_pos_as_xyz
  1  'x, y, z'
loop_
 _atom_site_type_symbol
 _atom_site_label
 _atom_site_symmetry_multiplicity
 _atom_site_fract_x
 _atom_site_fract_y
 _atom_site_fract_z
 _atom_site_occupancy
  Li  Li0  1  0.004067  0.995933  0.991867  1
  Li  Li1  1  0.281648  0.718352  0.436705  1
  Li  Li2  1  0.711631  0.288369  0.576737  1
  Li  Li3  1  0.142857  0.857143  0.714286  1
  Li  Li4  1  0.574083  0.425917  0.851834  1
  Co  Co5  1  0.424172  0.575828  0.151655  1
  Co  Co6  1  0.861542  0.138458  0.276916  1
  O  O7  1  0.932606  0.067394  0.134788  1
  O  O8  1  0.353109  0.646891  0.293784  1
  F  F9  1  0.504434  0.495566  0.991131  1
  F  F10  1  0.781280  0.218720  0.437440  1
  F  F11  1  0.211791  0.788209  0.576419  1
  F  F12  1  0.642857  0.357143  0.714286  1
  F  F13  1  0.073923  0.926077  0.852152  1
