# generated using pymatgen
data_Li2Si6Ni2O15
_symmetry_space_group_name_H-M   'P 1'
_cell_length_a   11.36358678
_cell_length_b   11.36358678
_cell_length_c   10.20796643
_cell_angle_alpha   90.00000000
_cell_angle_beta   90.00000000
_cell_angle_gamma   79.32945752
_symmetry_Int_Tables_number   1
_chemical_formula_structural   Li2Si6Ni2O15
_chemical_formula_sum   'Li8 Si24 Ni8 O60'
_cell_volume   1295.37241606
_cell_formula_units_Z   4
loop_
 _symmetry_equiv_pos_site_id
 _symmetry_equiv_pos_as_xyz
  1  'x, y, z'
loop_
 _atom_site_type_symbol
 _atom_site_label
 _atom_site_symmetry_multiplicity
 _atom_site_fract_x
 _atom_site_fract_y
 _atom_site_fract_z
 _atom_site_occupancy
  Li  Li0  1  0.994140  0.494140  0.750000  1
  Li  Li1  1  0.505860  0.005860  0.250000  1
  Li  Li2  1  0.609183  0.609183  0.744435  1
  Li  Li3  1  0.109183  0.109183  0.755565  1
  Li  Li4  1  0.890817  0.890817  0.244435  1
  Li  Li5  1  0.390817  0.390817  0.255565  1
  Li  Li6  1  0.494140  0.994140  0.750000  1
  Li  Li7  1  0.005860  0.505860  0.250000  1
  Si  Si8  1  0.179309  0.963624  0.191103  1
  Si  Si9  1  0.036376  0.820691  0.808897  1
  Si  Si10  1  0.200030  0.418866  0.456342  1
  Si  Si11  1  0.081134  0.299970  0.956342  1
  Si  Si12  1  0.581134  0.799970  0.543658  1
  Si  Si13  1  0.700030  0.918866  0.043658  1
  Si  Si14  1  0.320691  0.536376  0.691103  1
  Si  Si15  1  0.463624  0.679309  0.308897  1
  Si  Si16  1  0.523126  0.737031  0.009620  1
  Si  Si17  1  0.023126  0.237031  0.490380  1
  Si  Si18  1  0.762969  0.976874  0.509620  1
  Si  Si19  1  0.262969  0.476874  0.990380  1
  Si  Si20  1  0.976874  0.762969  0.509620  1
  Si  Si21  1  0.237031  0.023126  0.490380  1
  Si  Si22  1  0.476874  0.262969  0.990380  1
  Si  Si23  1  0.737031  0.523126  0.009620  1
  Si  Si24  1  0.679309  0.463624  0.308897  1
  Si  Si25  1  0.536376  0.320691  0.691103  1
  Si  Si26  1  0.418866  0.200030  0.456342  1
  Si  Si27  1  0.299970  0.081134  0.956342  1
  Si  Si28  1  0.799970  0.581134  0.543658  1
  Si  Si29  1  0.918866  0.700030  0.043658  1
  Si  Si30  1  0.963624  0.179309  0.191103  1
  Si  Si31  1  0.820691  0.036376  0.808897  1
  Ni  Ni32  1  0.243901  0.756099  0.000000  1
  Ni  Ni33  1  0.161283  0.661283  0.250000  1
  Ni  Ni34  1  0.338717  0.838717  0.750000  1
  Ni  Ni35  1  0.256099  0.743901  0.500000  1
  Ni  Ni36  1  0.743901  0.256099  0.500000  1
  Ni  Ni37  1  0.838717  0.338717  0.750000  1
  Ni  Ni38  1  0.661283  0.161283  0.250000  1
  Ni  Ni39  1  0.756099  0.243901  0.000000  1
  O  O40  1  0.231762  0.991948  0.334385  1
  O  O41  1  0.008052  0.768238  0.665615  1
  O  O42  1  0.171727  0.826038  0.164122  1
  O  O43  1  0.173962  0.828273  0.835878  1
  O  O44  1  0.096571  0.744403  0.423513  1
  O  O45  1  0.255597  0.903429  0.576487  1
  O  O46  1  0.244403  0.596571  0.076487  1
  O  O47  1  0.403429  0.755597  0.923513  1
  O  O48  1  0.328273  0.673962  0.664122  1
  O  O49  1  0.326038  0.671727  0.335878  1
  O  O50  1  0.158531  0.492430  0.325729  1
  O  O51  1  0.007570  0.341469  0.825729  1
  O  O52  1  0.658531  0.992430  0.174271  1
  O  O53  1  0.507570  0.841469  0.674271  1
  O  O54  1  0.003951  0.272536  0.084660  1
  O  O55  1  0.227464  0.496049  0.584660  1
  O  O56  1  0.727464  0.996049  0.915340  1
  O  O57  1  0.503951  0.772536  0.415340  1
  O  O58  1  0.155875  0.400411  0.009819  1
  O  O59  1  0.099589  0.344125  0.509819  1
  O  O60  1  0.655875  0.900411  0.490181  1
  O  O61  1  0.599589  0.844125  0.990181  1
  O  O62  1  0.268238  0.508052  0.834385  1
  O  O63  1  0.491948  0.731762  0.165615  1
  O  O64  1  0.956811  0.956811  0.823561  1
  O  O65  1  0.611441  0.611441  0.957437  1
  O  O66  1  0.327214  0.327214  0.416665  1
  O  O67  1  0.043189  0.043189  0.176439  1
  O  O68  1  0.172786  0.172786  0.916665  1
  O  O69  1  0.111441  0.111441  0.542563  1
  O  O70  1  0.456811  0.456811  0.676439  1
  O  O71  1  0.388559  0.388559  0.042563  1
  O  O72  1  0.543189  0.543189  0.323561  1
  O  O73  1  0.672786  0.672786  0.583335  1
  O  O74  1  0.827214  0.827214  0.083335  1
  O  O75  1  0.888559  0.888559  0.457437  1
  O  O76  1  0.731762  0.491948  0.165615  1
  O  O77  1  0.508052  0.268238  0.834385  1
  O  O78  1  0.844125  0.599589  0.990181  1
  O  O79  1  0.400411  0.155875  0.009819  1
  O  O80  1  0.344125  0.099589  0.509819  1
  O  O81  1  0.900411  0.655875  0.490181  1
  O  O82  1  0.272536  0.003951  0.084660  1
  O  O83  1  0.496049  0.227464  0.584660  1
  O  O84  1  0.996049  0.727464  0.915340  1
  O  O85  1  0.772536  0.503951  0.415340  1
  O  O86  1  0.492430  0.158531  0.325729  1
  O  O87  1  0.341469  0.007570  0.825729  1
  O  O88  1  0.841469  0.507570  0.674271  1
  O  O89  1  0.992430  0.658531  0.174271  1
  O  O90  1  0.671727  0.326038  0.335878  1
  O  O91  1  0.673962  0.328273  0.664122  1
  O  O92  1  0.755597  0.403429  0.923513  1
  O  O93  1  0.596571  0.244403  0.076487  1
  O  O94  1  0.744403  0.096571  0.423513  1
  O  O95  1  0.903429  0.255597  0.576487  1
  O  O96  1  0.826038  0.171727  0.164122  1
  O  O97  1  0.828273  0.173962  0.835878  1
  O  O98  1  0.991948  0.231762  0.334385  1
  O  O99  1  0.768238  0.008052  0.665615  1
