# generated using pymatgen
data_La(ZnAs)3
_symmetry_space_group_name_H-M   'P 1'
_cell_length_a   12.71351101
_cell_length_b   4.14864592
_cell_length_c   11.53498265
_cell_angle_alpha   90.00000000
_cell_angle_beta   90.00000000
_cell_angle_gamma   90.00000000
_symmetry_Int_Tables_number   1
_chemical_formula_structural   La(ZnAs)3
_chemical_formula_sum   'La4 Zn12 As12'
_cell_volume   608.39945902
_cell_formula_units_Z   4
loop_
 _symmetry_equiv_pos_site_id
 _symmetry_equiv_pos_as_xyz
  1  'x, y, z'
loop_
 _atom_site_type_symbol
 _atom_site_label
 _atom_site_symmetry_multiplicity
 _atom_site_fract_x
 _atom_site_fract_y
 _atom_site_fract_z
 _atom_site_occupancy
  La  La0  1  0.334758  0.249999  0.946002  1
  La  La1  1  0.165243  0.750000  0.446002  1
  La  La2  1  0.834757  0.249999  0.553998  1
  La  La3  1  0.665243  0.750000  0.053998  1
  Zn  Zn4  1  0.454195  0.249999  0.234866  1
  Zn  Zn5  1  0.045804  0.750000  0.734866  1
  Zn  Zn6  1  0.954194  0.249999  0.265135  1
  Zn  Zn7  1  0.545805  0.750000  0.765135  1
  Zn  Zn8  1  0.272298  0.249999  0.655749  1
  Zn  Zn9  1  0.227702  0.750000  0.155749  1
  Zn  Zn10  1  0.772298  0.249999  0.844251  1
  Zn  Zn11  1  0.727702  0.750000  0.344251  1
  Zn  Zn12  1  0.065463  0.249999  0.037689  1
  Zn  Zn13  1  0.434536  0.750000  0.537689  1
  Zn  Zn14  1  0.565464  0.249999  0.462312  1
  Zn  Zn15  1  0.934536  0.750000  0.962312  1
  As  As16  1  0.359966  0.249999  0.433142  1
  As  As17  1  0.140034  0.750000  0.933143  1
  As  As18  1  0.859966  0.249999  0.066858  1
  As  As19  1  0.640035  0.750000  0.566857  1
  As  As20  1  0.151978  0.249999  0.240491  1
  As  As21  1  0.348022  0.750000  0.740492  1
  As  As22  1  0.651978  0.249999  0.259508  1
  As  As23  1  0.848022  0.750000  0.759508  1
  As  As24  1  0.079140  0.249999  0.616058  1
  As  As25  1  0.420860  0.750000  0.116058  1
  As  As26  1  0.579140  0.249999  0.883942  1
  As  As27  1  0.920859  0.750000  0.383942  1
