# generated using pymatgen
data_Li5Mn6(BO3)6
_symmetry_space_group_name_H-M   'P 1'
_cell_length_a   8.23440244
_cell_length_b   8.25139479
_cell_length_c   6.37353530
_cell_angle_alpha   90.00000000
_cell_angle_beta   90.00000000
_cell_angle_gamma   60.69108928
_symmetry_Int_Tables_number   1
_chemical_formula_structural   Li5Mn6(BO3)6
_chemical_formula_sum   'Li5 Mn6 B6 O18'
_cell_volume   377.61820648
_cell_formula_units_Z   1
loop_
 _symmetry_equiv_pos_site_id
 _symmetry_equiv_pos_as_xyz
  1  'x, y, z'
loop_
 _atom_site_type_symbol
 _atom_site_label
 _atom_site_symmetry_multiplicity
 _atom_site_fract_x
 _atom_site_fract_y
 _atom_site_fract_z
 _atom_site_occupancy
  Li  Li0  1  0.019440  0.281761  0.250000  1
  Li  Li1  1  0.016310  0.283309  0.750000  1
  Li  Li2  1  0.278011  0.702204  0.750000  1
  Li  Li3  1  0.698570  0.021548  0.250000  1
  Li  Li4  1  0.699894  0.016800  0.750000  1
  Mn  Mn5  1  0.631487  0.381747  0.002263  1
  Mn  Mn6  1  0.631487  0.381747  0.497737  1
  Mn  Mn7  1  0.367423  0.978004  0.003096  1
  Mn  Mn8  1  0.367423  0.978004  0.496904  1
  Mn  Mn9  1  0.999634  0.638230  0.002037  1
  Mn  Mn10  1  0.999634  0.638230  0.497962  1
  B  B11  1  0.333481  0.328054  0.750000  1
  B  B12  1  0.339145  0.322970  0.250000  1
  B  B13  1  0.667937  0.665436  0.750000  1
  B  B14  1  0.992706  0.007690  0.506091  1
  B  B15  1  0.992706  0.007690  0.993909  1
  B  B16  1  0.675444  0.667249  0.250000  1
  O  O17  1  0.076270  0.120346  0.998995  1
  O  O18  1  0.076270  0.120346  0.501005  1
  O  O19  1  0.140867  0.439399  0.750000  1
  O  O20  1  0.148050  0.438832  0.250000  1
  O  O21  1  0.413021  0.131437  0.250000  1
  O  O22  1  0.415671  0.136171  0.750000  1
  O  O23  1  0.101459  0.818287  0.520104  1
  O  O24  1  0.101459  0.818287  0.979896  1
  O  O25  1  0.442520  0.415238  0.750000  1
  O  O26  1  0.462144  0.392154  0.250000  1
  O  O27  1  0.798230  0.091158  0.999288  1
  O  O28  1  0.798230  0.091158  0.500712  1
  O  O29  1  0.474327  0.775264  0.750000  1
  O  O30  1  0.485383  0.778183  0.250000  1
  O  O31  1  0.744461  0.471438  0.750000  1
  O  O32  1  0.751636  0.473175  0.250000  1
  O  O33  1  0.782439  0.743929  0.750000  1
  O  O34  1  0.793213  0.744475  0.250000  1
