# generated using pymatgen
data_Tm2S2O
_symmetry_space_group_name_H-M   'P 1'
_cell_length_a   6.79789576
_cell_length_b   6.79725219
_cell_length_c   8.18507813
_cell_angle_alpha   90.00000000
_cell_angle_beta   99.51247901
_cell_angle_gamma   90.00000000
_symmetry_Int_Tables_number   1
_chemical_formula_structural   Tm2S2O
_chemical_formula_sum   'Tm8 S8 O4'
_cell_volume   373.00750271
_cell_formula_units_Z   4
loop_
 _symmetry_equiv_pos_site_id
 _symmetry_equiv_pos_as_xyz
  1  'x, y, z'
loop_
 _atom_site_type_symbol
 _atom_site_label
 _atom_site_symmetry_multiplicity
 _atom_site_fract_x
 _atom_site_fract_y
 _atom_site_fract_z
 _atom_site_occupancy
  O  O0  1  0.149990  0.586983  0.616715  1
  O  O1  1  0.350010  0.086983  0.383285  1
  O  O2  1  0.850010  0.413017  0.383285  1
  O  O3  1  0.649990  0.913017  0.616715  1
  S  S4  1  0.469510  0.777420  0.925295  1
  S  S5  1  0.030490  0.277420  0.074705  1
  S  S6  1  0.530490  0.222580  0.074705  1
  S  S7  1  0.969510  0.722580  0.925295  1
  S  S8  1  0.918983  0.869048  0.318437  1
  S  S9  1  0.581017  0.369048  0.681563  1
  S  S10  1  0.081017  0.130952  0.681563  1
  S  S11  1  0.418983  0.630952  0.318437  1
  Tm  Tm12  1  0.750793  0.053334  0.861113  1
  Tm  Tm13  1  0.749207  0.553334  0.138887  1
  Tm  Tm14  1  0.249207  0.946666  0.138887  1
  Tm  Tm15  1  0.250793  0.446666  0.861113  1
  Tm  Tm16  1  0.675559  0.146008  0.425064  1
  Tm  Tm17  1  0.824441  0.646008  0.574936  1
  Tm  Tm18  1  0.324441  0.853992  0.574936  1
  Tm  Tm19  1  0.175559  0.353992  0.425064  1
