# generated using pymatgen
data_LiMnPO4
_symmetry_space_group_name_H-M   'P 1'
_cell_length_a   8.83498453
_cell_length_b   8.83471736
_cell_length_c   8.19649521
_cell_angle_alpha   89.99719786
_cell_angle_beta   90.00328206
_cell_angle_gamma   120.00151160
_symmetry_Int_Tables_number   1
_chemical_formula_structural   LiMnPO4
_chemical_formula_sum   'Li6 Mn6 P6 O24'
_cell_volume   554.05216830
_cell_formula_units_Z   6
loop_
 _symmetry_equiv_pos_site_id
 _symmetry_equiv_pos_as_xyz
  1  'x, y, z'
loop_
 _atom_site_type_symbol
 _atom_site_label
 _atom_site_symmetry_multiplicity
 _atom_site_fract_x
 _atom_site_fract_y
 _atom_site_fract_z
 _atom_site_occupancy
  Li  Li0  1  0.333329  0.666659  0.173197  1
  Li  Li1  1  0.333297  0.666696  0.688789  1
  Li  Li2  1  0.999996  0.999989  0.107006  1
  Li  Li3  1  0.000008  0.999996  0.607019  1
  Li  Li4  1  0.666661  0.333308  0.673202  1
  Li  Li5  1  0.666619  0.333322  0.188767  1
  Mn  Mn6  1  0.027507  0.686308  0.402886  1
  Mn  Mn7  1  0.313674  0.341204  0.402951  1
  Mn  Mn8  1  0.658770  0.972460  0.402929  1
  Mn  Mn9  1  0.341229  0.027551  0.902932  1
  Mn  Mn10  1  0.686306  0.658793  0.902855  1
  Mn  Mn11  1  0.972476  0.313679  0.902916  1
  P  P12  1  0.040183  0.684962  0.014847  1
  P  P13  1  0.315046  0.355292  0.014897  1
  P  P14  1  0.644764  0.959665  0.014906  1
  P  P15  1  0.355288  0.040340  0.514939  1
  P  P16  1  0.685164  0.644732  0.514913  1
  P  P17  1  0.959522  0.314849  0.514945  1
  O  O18  1  0.151157  0.930597  0.516041  1
  O  O19  1  0.147960  0.729537  0.176369  1
  O  O20  1  0.174653  0.754514  0.872838  1
  O  O21  1  0.091404  0.513833  0.505348  1
  O  O22  1  0.422367  0.908606  0.505354  1
  O  O23  1  0.069397  0.220572  0.516076  1
  O  O24  1  0.245510  0.420166  0.872891  1
  O  O25  1  0.270480  0.418425  0.176417  1
  O  O26  1  0.220574  0.151202  0.016065  1
  O  O27  1  0.581573  0.852055  0.176373  1
  O  O28  1  0.579851  0.825403  0.872876  1
  O  O29  1  0.486188  0.577598  0.505354  1
  O  O30  1  0.513705  0.422398  0.005357  1
  O  O31  1  0.420125  0.174624  0.372891  1
  O  O32  1  0.418392  0.147900  0.676369  1
  O  O33  1  0.779429  0.848790  0.516059  1
  O  O34  1  0.729516  0.581575  0.676278  1
  O  O35  1  0.754462  0.579873  0.372863  1
  O  O36  1  0.930628  0.779419  0.016019  1
  O  O37  1  0.577617  0.091392  0.005382  1
  O  O38  1  0.908689  0.486316  0.005330  1
  O  O39  1  0.825390  0.245522  0.372910  1
  O  O40  1  0.852101  0.270497  0.676319  1
  O  O41  1  0.848795  0.069380  0.016066  1
