# generated using pymatgen
data_Li4CrP2O9
_symmetry_space_group_name_H-M   'P 1'
_cell_length_a   14.74933845
_cell_length_b   14.40646015
_cell_length_c   6.73252972
_cell_angle_alpha   90.00000000
_cell_angle_beta   90.00000000
_cell_angle_gamma   90.00000000
_symmetry_Int_Tables_number   1
_chemical_formula_structural   Li4CrP2O9
_chemical_formula_sum   'Li32 Cr8 P16 O72'
_cell_volume   1430.56667151
_cell_formula_units_Z   8
loop_
 _symmetry_equiv_pos_site_id
 _symmetry_equiv_pos_as_xyz
  1  'x, y, z'
loop_
 _atom_site_type_symbol
 _atom_site_label
 _atom_site_symmetry_multiplicity
 _atom_site_fract_x
 _atom_site_fract_y
 _atom_site_fract_z
 _atom_site_occupancy
  Li  Li0  1  0.003841  0.002578  0.778415  1
  Li  Li1  1  0.003841  0.497422  0.278415  1
  Li  Li2  1  0.024891  0.247241  0.245070  1
  Li  Li3  1  0.024891  0.252759  0.745070  1
  Li  Li4  1  0.123077  0.628730  0.001154  1
  Li  Li5  1  0.123077  0.871270  0.501154  1
  Li  Li6  1  0.227796  0.019053  0.197984  1
  Li  Li7  1  0.227796  0.480947  0.697984  1
  Li  Li8  1  0.272204  0.519053  0.197984  1
  Li  Li9  1  0.272204  0.980947  0.697984  1
  Li  Li10  1  0.376923  0.128730  0.001154  1
  Li  Li11  1  0.376923  0.371270  0.501154  1
  Li  Li12  1  0.475109  0.747241  0.245070  1
  Li  Li13  1  0.475109  0.752759  0.745070  1
  Li  Li14  1  0.496159  0.502578  0.778415  1
  Li  Li15  1  0.496159  0.997422  0.278415  1
  Li  Li16  1  0.503841  0.002578  0.721585  1
  Li  Li17  1  0.503841  0.497422  0.221585  1
  Li  Li18  1  0.524891  0.247241  0.254930  1
  Li  Li19  1  0.524891  0.252759  0.754930  1
  Li  Li20  1  0.623077  0.628730  0.498846  1
  Li  Li21  1  0.623077  0.871270  0.998846  1
  Li  Li22  1  0.727796  0.019053  0.302016  1
  Li  Li23  1  0.727796  0.480947  0.802016  1
  Li  Li24  1  0.772204  0.519053  0.302016  1
  Li  Li25  1  0.772204  0.980947  0.802016  1
  Li  Li26  1  0.876923  0.128730  0.498846  1
  Li  Li27  1  0.876923  0.371270  0.998846  1
  Li  Li28  1  0.975109  0.747241  0.254930  1
  Li  Li29  1  0.975109  0.752759  0.754930  1
  Li  Li30  1  0.996159  0.502578  0.721585  1
  Li  Li31  1  0.996159  0.997422  0.221585  1
  Cr  Cr32  1  0.233192  0.246389  0.752436  1
  Cr  Cr33  1  0.233192  0.253611  0.252436  1
  Cr  Cr34  1  0.266808  0.746389  0.752436  1
  Cr  Cr35  1  0.266808  0.753611  0.252436  1
  Cr  Cr36  1  0.733192  0.246389  0.747564  1
  Cr  Cr37  1  0.733192  0.253611  0.247564  1
  Cr  Cr38  1  0.766808  0.746389  0.747564  1
  Cr  Cr39  1  0.766808  0.753611  0.247564  1
  P  P40  1  0.113001  0.104082  0.497602  1
  P  P41  1  0.113001  0.395918  0.997602  1
  P  P42  1  0.117561  0.638226  0.501710  1
  P  P43  1  0.117561  0.861774  0.001710  1
  P  P44  1  0.382439  0.138226  0.501710  1
  P  P45  1  0.382439  0.361774  0.001710  1
  P  P46  1  0.386999  0.604082  0.497602  1
  P  P47  1  0.386999  0.895918  0.997602  1
  P  P48  1  0.613001  0.104082  0.002398  1
  P  P49  1  0.613001  0.395918  0.502398  1
  P  P50  1  0.617561  0.638226  0.998290  1
  P  P51  1  0.617561  0.861774  0.498290  1
  P  P52  1  0.882439  0.138226  0.998290  1
  P  P53  1  0.882439  0.361774  0.498290  1
  P  P54  1  0.886999  0.604082  0.002398  1
  P  P55  1  0.886999  0.895918  0.502398  1
  O  O56  1  0.009979  0.088633  0.497907  1
  O  O57  1  0.009979  0.411367  0.997907  1
  O  O58  1  0.043715  0.786206  0.005667  1
  O  O59  1  0.043715  0.713794  0.505667  1
  O  O60  1  0.082774  0.537485  0.505462  1
  O  O61  1  0.082774  0.962515  0.005462  1
  O  O62  1  0.132229  0.165502  0.685981  1
  O  O63  1  0.132229  0.334498  0.185981  1
  O  O64  1  0.135278  0.160055  0.304306  1
  O  O65  1  0.135278  0.339945  0.804306  1
  O  O66  1  0.169879  0.013957  0.498757  1
  O  O67  1  0.169879  0.486043  0.998757  1
  O  O68  1  0.175634  0.648812  0.306173  1
  O  O69  1  0.175634  0.851188  0.806173  1
  O  O70  1  0.178160  0.645970  0.693745  1
  O  O71  1  0.178160  0.854030  0.193745  1
  O  O72  1  0.247184  0.205794  0.002037  1
  O  O73  1  0.247184  0.294206  0.502037  1
  O  O74  1  0.252816  0.705794  0.002037  1
  O  O75  1  0.252816  0.794206  0.502037  1
  O  O76  1  0.321840  0.145970  0.693745  1
  O  O77  1  0.321840  0.354030  0.193745  1
  O  O78  1  0.324366  0.148812  0.306173  1
  O  O79  1  0.324366  0.351188  0.806173  1
  O  O80  1  0.330121  0.513957  0.498757  1
  O  O81  1  0.330121  0.986043  0.998757  1
  O  O82  1  0.364722  0.660055  0.304306  1
  O  O83  1  0.364722  0.839945  0.804306  1
  O  O84  1  0.367771  0.665502  0.685981  1
  O  O85  1  0.367771  0.834498  0.185981  1
  O  O86  1  0.417226  0.037485  0.505462  1
  O  O87  1  0.417226  0.462515  0.005462  1
  O  O88  1  0.456285  0.213794  0.505667  1
  O  O89  1  0.456285  0.286206  0.005667  1
  O  O90  1  0.490021  0.588633  0.497907  1
  O  O91  1  0.490021  0.911367  0.997907  1
  O  O92  1  0.509979  0.088633  0.002093  1
  O  O93  1  0.509979  0.411367  0.502093  1
  O  O94  1  0.543715  0.713794  0.994333  1
  O  O95  1  0.543715  0.786206  0.494333  1
  O  O96  1  0.582774  0.537485  0.994538  1
  O  O97  1  0.582774  0.962515  0.494538  1
  O  O98  1  0.632229  0.165502  0.814019  1
  O  O99  1  0.632229  0.334498  0.314019  1
  O  O100  1  0.635278  0.160055  0.195694  1
  O  O101  1  0.635278  0.339945  0.695694  1
  O  O102  1  0.669879  0.013957  0.001243  1
  O  O103  1  0.669879  0.486043  0.501243  1
  O  O104  1  0.675634  0.648812  0.193827  1
  O  O105  1  0.675634  0.851188  0.693827  1
  O  O106  1  0.678160  0.645970  0.806255  1
  O  O107  1  0.678160  0.854030  0.306255  1
  O  O108  1  0.747184  0.205794  0.497963  1
  O  O109  1  0.747184  0.294206  0.997963  1
  O  O110  1  0.752816  0.705794  0.497963  1
  O  O111  1  0.752816  0.794206  0.997963  1
  O  O112  1  0.821840  0.145970  0.806255  1
  O  O113  1  0.821840  0.354030  0.306255  1
  O  O114  1  0.824366  0.148812  0.193827  1
  O  O115  1  0.824366  0.351188  0.693827  1
  O  O116  1  0.830121  0.513957  0.001243  1
  O  O117  1  0.830121  0.986043  0.501243  1
  O  O118  1  0.864722  0.660055  0.195694  1
  O  O119  1  0.864722  0.839945  0.695694  1
  O  O120  1  0.867771  0.665502  0.814019  1
  O  O121  1  0.867771  0.834498  0.314019  1
  O  O122  1  0.917226  0.037485  0.994538  1
  O  O123  1  0.917226  0.462515  0.494538  1
  O  O124  1  0.956285  0.213794  0.994333  1
  O  O125  1  0.956285  0.286206  0.494333  1
  O  O126  1  0.990021  0.588633  0.002093  1
  O  O127  1  0.990021  0.911367  0.502093  1
