# generated using pymatgen
data_Ba4Sb2O9
_symmetry_space_group_name_H-M   'P 1'
_cell_length_a   6.10408280
_cell_length_b   6.10408208
_cell_length_c   17.06238050
_cell_angle_alpha   90.00000000
_cell_angle_beta   90.00000000
_cell_angle_gamma   120.00000389
_symmetry_Int_Tables_number   1
_chemical_formula_structural   Ba4Sb2O9
_chemical_formula_sum   'Ba8 Sb4 O18'
_cell_volume   550.56806694
_cell_formula_units_Z   2
loop_
 _symmetry_equiv_pos_site_id
 _symmetry_equiv_pos_as_xyz
  1  'x, y, z'
loop_
 _atom_site_type_symbol
 _atom_site_label
 _atom_site_symmetry_multiplicity
 _atom_site_fract_x
 _atom_site_fract_y
 _atom_site_fract_z
 _atom_site_occupancy
  Ba  Ba0  1  0.666667  0.333333  0.871555  1
  Ba  Ba1  1  0.333333  0.666667  0.128445  1
  Ba  Ba2  1  0.333333  0.666667  0.371555  1
  Ba  Ba3  1  0.666667  0.333333  0.628445  1
  Ba  Ba4  1  0.000000  0.000000  0.500000  1
  Ba  Ba5  1  0.000000  0.000000  0.000000  1
  Ba  Ba6  1  0.000000  0.000000  0.750000  1
  Ba  Ba7  1  0.000000  0.000000  0.250000  1
  Sb  Sb8  1  0.333333  0.666667  0.663036  1
  Sb  Sb9  1  0.666667  0.333333  0.336964  1
  Sb  Sb10  1  0.666667  0.333333  0.163036  1
  Sb  Sb11  1  0.333333  0.666667  0.836964  1
  O  O12  1  0.171759  0.342287  0.889845  1
  O  O13  1  0.828241  0.657713  0.110155  1
  O  O14  1  0.657713  0.829472  0.889845  1
  O  O15  1  0.342287  0.170528  0.110155  1
  O  O16  1  0.170528  0.828241  0.889845  1
  O  O17  1  0.829472  0.171759  0.110155  1
  O  O18  1  0.828241  0.657713  0.389846  1
  O  O19  1  0.171759  0.342287  0.610155  1
  O  O20  1  0.342287  0.170528  0.389846  1
  O  O21  1  0.657713  0.829472  0.610155  1
  O  O22  1  0.829472  0.171759  0.389846  1
  O  O23  1  0.170528  0.828241  0.610155  1
  O  O24  1  0.520022  0.039386  0.250000  1
  O  O25  1  0.479978  0.960614  0.750000  1
  O  O26  1  0.960614  0.480636  0.250000  1
  O  O27  1  0.039386  0.519364  0.750000  1
  O  O28  1  0.519364  0.479978  0.250000  1
  O  O29  1  0.480636  0.520022  0.750000  1
