# generated using pymatgen
data_TiH8(NF3)2
_symmetry_space_group_name_H-M   'P 1'
_cell_length_a   5.82425081
_cell_length_b   5.82319544
_cell_length_c   4.88648105
_cell_angle_alpha   89.99685722
_cell_angle_beta   89.99308670
_cell_angle_gamma   119.99820401
_symmetry_Int_Tables_number   1
_chemical_formula_structural   TiH8(NF3)2
_chemical_formula_sum   'Ti1 H8 N2 F6'
_cell_volume   143.52783637
_cell_formula_units_Z   1
loop_
 _symmetry_equiv_pos_site_id
 _symmetry_equiv_pos_as_xyz
  1  'x, y, z'
loop_
 _atom_site_type_symbol
 _atom_site_label
 _atom_site_symmetry_multiplicity
 _atom_site_fract_x
 _atom_site_fract_y
 _atom_site_fract_z
 _atom_site_occupancy
  Ti  Ti0  1  0.999999  0.000001  0.000001  1
  H  H1  1  0.141254  0.570620  0.235812  1
  H  H2  1  0.430139  0.859939  0.237376  1
  H  H3  1  0.430213  0.570115  0.237325  1
  H  H4  1  0.668227  0.334118  0.482834  1
  H  H5  1  0.331773  0.665881  0.517202  1
  H  H6  1  0.569785  0.429884  0.762678  1
  H  H7  1  0.569852  0.140042  0.762633  1
  H  H8  1  0.858754  0.429382  0.764194  1
  N  N9  1  0.332273  0.666275  0.305797  1
  N  N10  1  0.667730  0.333742  0.694148  1
  F  F11  1  0.843248  0.156391  0.216520  1
  F  F12  1  0.843254  0.686864  0.216514  1
  F  F13  1  0.312229  0.156117  0.217215  1
  F  F14  1  0.687775  0.843896  0.782786  1
  F  F15  1  0.156745  0.313136  0.783486  1
  F  F16  1  0.156749  0.843608  0.783487  1
