# generated using pymatgen
data_Mn6O5F7
_symmetry_space_group_name_H-M   'P 1'
_cell_length_a   4.67736015
_cell_length_b   5.74669351
_cell_length_c   15.67342379
_cell_angle_alpha   90.03079296
_cell_angle_beta   89.38467256
_cell_angle_gamma   88.34778865
_symmetry_Int_Tables_number   1
_chemical_formula_structural   Mn6O5F7
_chemical_formula_sum   'Mn12 O10 F14'
_cell_volume   421.09194008
_cell_formula_units_Z   2
loop_
 _symmetry_equiv_pos_site_id
 _symmetry_equiv_pos_as_xyz
  1  'x, y, z'
loop_
 _atom_site_type_symbol
 _atom_site_label
 _atom_site_symmetry_multiplicity
 _atom_site_fract_x
 _atom_site_fract_y
 _atom_site_fract_z
 _atom_site_occupancy
  Mn  Mn0  1  0.014864  0.176336  0.419373  1
  Mn  Mn1  1  0.019982  0.845019  0.243031  1
  Mn  Mn2  1  0.034282  0.166783  0.081337  1
  Mn  Mn3  1  0.004468  0.149755  0.740797  1
  Mn  Mn4  1  0.024166  0.857125  0.576941  1
  Mn  Mn5  1  0.020756  0.860594  0.911271  1
  Mn  Mn6  1  0.484696  0.339320  0.588733  1
  Mn  Mn7  1  0.503602  0.326890  0.928393  1
  Mn  Mn8  1  0.510740  0.352303  0.252813  1
  Mn  Mn9  1  0.489944  0.640813  0.085032  1
  Mn  Mn10  1  0.496091  0.641264  0.422399  1
  Mn  Mn11  1  0.497347  0.647234  0.752181  1
  O  O12  1  0.212922  0.106779  0.633930  1
  O  O13  1  0.220137  0.116605  0.972440  1
  O  O14  1  0.235504  0.886937  0.134045  1
  O  O15  1  0.224500  0.891026  0.470303  1
  O  O16  1  0.227165  0.887347  0.798434  1
  O  O17  1  0.288650  0.394310  0.148155  1
  O  O18  1  0.282713  0.401045  0.483033  1
  O  O19  1  0.724992  0.381841  0.030615  1
  O  O20  1  0.722264  0.387825  0.362307  1
  O  O21  1  0.705439  0.372842  0.694521  1
  F  F22  1  0.234726  0.115822  0.304613  1
  F  F23  1  0.259081  0.608942  0.309616  1
  F  F24  1  0.252049  0.607628  0.646493  1
  F  F25  1  0.267611  0.385045  0.817473  1
  F  F26  1  0.254343  0.613175  0.972956  1
  F  F27  1  0.737430  0.617907  0.197869  1
  F  F28  1  0.751578  0.621373  0.534532  1
  F  F29  1  0.728851  0.615099  0.863823  1
  F  F30  1  0.782788  0.126996  0.189509  1
  F  F31  1  0.748015  0.119881  0.523683  1
  F  F32  1  0.757622  0.878852  0.357111  1
  F  F33  1  0.751899  0.871616  0.021983  1
  F  F34  1  0.767071  0.120078  0.848827  1
  F  F35  1  0.761710  0.867593  0.681426  1
