# generated using pymatgen
data_KNpCuS3
_symmetry_space_group_name_H-M   'P 1'
_cell_length_a   3.97502892
_cell_length_b   7.25251362
_cell_length_c   10.19044161
_cell_angle_alpha   90.00000000
_cell_angle_beta   90.00000000
_cell_angle_gamma   74.09489883
_symmetry_Int_Tables_number   1
_chemical_formula_structural   KNpCuS3
_chemical_formula_sum   'K2 Np2 Cu2 S6'
_cell_volume   282.53295057
_cell_formula_units_Z   2
loop_
 _symmetry_equiv_pos_site_id
 _symmetry_equiv_pos_as_xyz
  1  'x, y, z'
loop_
 _atom_site_type_symbol
 _atom_site_label
 _atom_site_symmetry_multiplicity
 _atom_site_fract_x
 _atom_site_fract_y
 _atom_site_fract_z
 _atom_site_occupancy
  K  K0  1  0.742987  0.514026  0.250000  1
  K  K1  1  0.257013  0.485974  0.750000  1
  Np  Np2  1  0.000000  0.000000  0.000000  1
  Np  Np3  1  0.000000  0.000000  0.500000  1
  Cu  Cu4  1  0.465795  0.068412  0.250000  1
  Cu  Cu5  1  0.534206  0.931589  0.750000  1
  S  S6  1  0.376450  0.247102  0.060687  1
  S  S7  1  0.060979  0.878042  0.250000  1
  S  S8  1  0.376450  0.247102  0.439312  1
  S  S9  1  0.623550  0.752899  0.560687  1
  S  S10  1  0.939021  0.121959  0.750000  1
  S  S11  1  0.623550  0.752899  0.939313  1
