# generated using pymatgen
data_AcCd3
_symmetry_space_group_name_H-M   'P 1'
_cell_length_a   7.19970450
_cell_length_b   7.19997820
_cell_length_c   5.11608972
_cell_angle_alpha   89.99541802
_cell_angle_beta   90.00444181
_cell_angle_gamma   119.99687012
_symmetry_Int_Tables_number   1
_chemical_formula_structural   AcCd3
_chemical_formula_sum   'Ac2 Cd6'
_cell_volume   229.68272484
_cell_formula_units_Z   2
loop_
 _symmetry_equiv_pos_site_id
 _symmetry_equiv_pos_as_xyz
  1  'x, y, z'
loop_
 _atom_site_type_symbol
 _atom_site_label
 _atom_site_symmetry_multiplicity
 _atom_site_fract_x
 _atom_site_fract_y
 _atom_site_fract_z
 _atom_site_occupancy
  Ac  Ac0  1  0.333352  0.666687  0.750013  1
  Ac  Ac1  1  0.666646  0.333312  0.249986  1
  Cd  Cd2  1  0.150082  0.300198  0.250025  1
  Cd  Cd3  1  0.699852  0.849933  0.250021  1
  Cd  Cd4  1  0.150056  0.849930  0.249974  1
  Cd  Cd5  1  0.849920  0.699801  0.749975  1
  Cd  Cd6  1  0.300148  0.150064  0.749977  1
  Cd  Cd7  1  0.849945  0.150072  0.750026  1
