# generated using pymatgen
data_LiNi4(PO4)3
_symmetry_space_group_name_H-M   'P 1'
_cell_length_a   8.51123756
_cell_length_b   8.51123756
_cell_length_c   6.42161335
_cell_angle_alpha   72.75747380
_cell_angle_beta   107.24252620
_cell_angle_gamma   86.04341653
_symmetry_Int_Tables_number   1
_chemical_formula_structural   LiNi4(PO4)3
_chemical_formula_sum   'Li2 Ni8 P6 O24'
_cell_volume   417.99456152
_cell_formula_units_Z   2
loop_
 _symmetry_equiv_pos_site_id
 _symmetry_equiv_pos_as_xyz
  1  'x, y, z'
loop_
 _atom_site_type_symbol
 _atom_site_label
 _atom_site_symmetry_multiplicity
 _atom_site_fract_x
 _atom_site_fract_y
 _atom_site_fract_z
 _atom_site_occupancy
  Li  Li0  1  0.016505  0.020973  0.748794  1
  Li  Li1  1  0.979027  0.983495  0.248794  1
  Ni  Ni2  1  0.054970  0.625223  0.630759  1
  Ni  Ni3  1  0.374777  0.945030  0.130759  1
  Ni  Ni4  1  0.738430  0.736357  0.752524  1
  Ni  Ni5  1  0.498754  0.517338  0.523127  1
  Ni  Ni6  1  0.263643  0.261570  0.252524  1
  Ni  Ni7  1  0.482662  0.501246  0.023127  1
  Ni  Ni8  1  0.624276  0.058315  0.865327  1
  Ni  Ni9  1  0.941685  0.375724  0.365327  1
  P  P10  1  0.334707  0.877218  0.627865  1
  P  P11  1  0.122782  0.665294  0.127865  1
  P  P12  1  0.297379  0.299099  0.750787  1
  P  P13  1  0.700901  0.702621  0.250787  1
  P  P14  1  0.878404  0.338032  0.869346  1
  P  P15  1  0.661968  0.121596  0.369346  1
  O  O16  1  0.399343  0.954218  0.819713  1
  O  O17  1  0.153838  0.845327  0.600346  1
  O  O18  1  0.045782  0.600657  0.319713  1
  O  O19  1  0.154673  0.846162  0.100346  1
  O  O20  1  0.668713  0.994898  0.604395  1
  O  O21  1  0.464206  0.710424  0.696052  1
  O  O22  1  0.278123  0.477081  0.773685  1
  O  O23  1  0.005101  0.331287  0.104395  1
  O  O24  1  0.266380  0.185177  0.967039  1
  O  O25  1  0.185903  0.268168  0.532659  1
  O  O26  1  0.289576  0.535794  0.196052  1
  O  O27  1  0.522919  0.721877  0.273685  1
  O  O28  1  0.476511  0.285987  0.732204  1
  O  O29  1  0.717841  0.471827  0.804702  1
  O  O30  1  0.814823  0.733620  0.467039  1
  O  O31  1  0.731832  0.814097  0.032659  1
  O  O32  1  0.996726  0.669773  0.894508  1
  O  O33  1  0.714013  0.523489  0.232204  1
  O  O34  1  0.528173  0.282159  0.304702  1
  O  O35  1  0.330227  0.003274  0.394508  1
  O  O36  1  0.843229  0.157784  0.897145  1
  O  O37  1  0.957111  0.398067  0.678246  1
  O  O38  1  0.842216  0.156771  0.397145  1
  O  O39  1  0.601933  0.042889  0.178246  1
