# generated using pymatgen
data_Li3V3P8O29
_symmetry_space_group_name_H-M   'P 1'
_cell_length_a   9.78427750
_cell_length_b   9.80646529
_cell_length_c   14.30669689
_cell_angle_alpha   90.00395238
_cell_angle_beta   89.36225042
_cell_angle_gamma   59.89644218
_symmetry_Int_Tables_number   1
_chemical_formula_structural   Li3V3P8O29
_chemical_formula_sum   'Li6 V6 P16 O58'
_cell_volume   1187.46536484
_cell_formula_units_Z   2
loop_
 _symmetry_equiv_pos_site_id
 _symmetry_equiv_pos_as_xyz
  1  'x, y, z'
loop_
 _atom_site_type_symbol
 _atom_site_label
 _atom_site_symmetry_multiplicity
 _atom_site_fract_x
 _atom_site_fract_y
 _atom_site_fract_z
 _atom_site_occupancy
  Li  Li0  1  0.227527  0.080843  0.438920  1
  Li  Li1  1  0.227317  0.691588  0.938841  1
  Li  Li2  1  0.779252  0.305075  0.057944  1
  Li  Li3  1  0.908055  0.318197  0.557724  1
  Li  Li4  1  0.779875  0.915600  0.557744  1
  Li  Li5  1  0.908385  0.773412  0.057434  1
  V  V6  1  0.004039  0.565090  0.254098  1
  V  V7  1  0.435397  0.994236  0.241580  1
  V  V8  1  0.435444  0.570971  0.741307  1
  V  V9  1  0.563096  0.433905  0.255217  1
  V  V10  1  0.563073  0.003208  0.755291  1
  V  V11  1  0.004299  0.430617  0.754205  1
  P  P12  1  0.086479  0.230513  0.160094  1
  P  P13  1  0.232563  0.087402  0.658015  1
  P  P14  1  0.086573  0.682672  0.660164  1
  P  P15  1  0.332735  0.326883  0.369204  1
  P  P16  1  0.332418  0.340736  0.869361  1
  P  P17  1  0.232219  0.680268  0.158200  1
  P  P18  1  0.310581  0.774187  0.339637  1
  P  P19  1  0.686332  0.087345  0.162641  1
  P  P20  1  0.310771  0.915040  0.839390  1
  P  P21  1  0.686269  0.226420  0.662661  1
  P  P22  1  0.763194  0.322164  0.842082  1
  P  P23  1  0.674875  0.658424  0.130546  1
  P  P24  1  0.675102  0.667016  0.630291  1
  P  P25  1  0.911328  0.319111  0.341022  1
  P  P26  1  0.763639  0.914454  0.342077  1
  P  P27  1  0.911378  0.769691  0.841034  1
  O  O28  1  0.993333  0.247201  0.430588  1
  O  O29  1  0.084231  0.255750  0.666188  1
  O  O30  1  0.213945  0.992173  0.743753  1
  O  O31  1  0.231103  0.001411  0.925173  1
  O  O32  1  0.093135  0.383398  0.177400  1
  O  O33  1  0.257856  0.087919  0.164977  1
  O  O34  1  0.183407  0.339635  0.824072  1
  O  O35  1  0.093386  0.523048  0.677387  1
  O  O36  1  0.993496  0.759482  0.930555  1
  O  O37  1  0.084201  0.659865  0.166311  1
  O  O38  1  0.332630  0.178811  0.328615  1
  O  O39  1  0.183545  0.476155  0.323729  1
  O  O40  1  0.383547  0.095845  0.681318  1
  O  O41  1  0.325084  0.334242  0.472454  1
  O  O42  1  0.324912  0.340668  0.972634  1
  O  O43  1  0.523137  0.095495  0.176283  1
  O  O44  1  0.331690  0.488964  0.828709  1
  O  O45  1  0.480116  0.187876  0.825186  1
  O  O46  1  0.257926  0.653767  0.665135  1
  O  O47  1  0.213543  0.794044  0.244032  1
  O  O48  1  0.240027  0.744368  0.066029  1
  O  O49  1  0.231539  0.766748  0.425500  1
  O  O50  1  0.383421  0.520762  0.181329  1
  O  O51  1  0.480211  0.332156  0.325147  1
  O  O52  1  0.659634  0.083393  0.662155  1
  O  O53  1  0.338111  0.744010  0.833275  1
  O  O54  1  0.523411  0.381968  0.676072  1
  O  O55  1  0.240815  0.015302  0.565851  1
  O  O56  1  0.757282  0.984876  0.434092  1
  O  O57  1  0.475250  0.618544  0.321052  1
  O  O58  1  0.660102  0.256912  0.162053  1
  O  O59  1  0.780698  0.015746  0.258950  1
  O  O60  1  0.338062  0.917732  0.333496  1
  O  O61  1  0.522907  0.666349  0.674487  1
  O  O62  1  0.612690  0.480392  0.818562  1
  O  O63  1  0.758397  0.257500  0.934142  1
  O  O64  1  0.775824  0.233398  0.580607  1
  O  O65  1  0.780378  0.203627  0.759069  1
  O  O66  1  0.743284  0.343029  0.333026  1
  O  O67  1  0.522815  0.811350  0.174422  1
  O  O68  1  0.475524  0.905804  0.820962  1
  O  O69  1  0.670286  0.512143  0.171815  1
  O  O70  1  0.673197  0.662862  0.526693  1
  O  O71  1  0.674019  0.663920  0.026934  1
  O  O72  1  0.613548  0.906166  0.318214  1
  O  O73  1  0.821294  0.515925  0.670424  1
  O  O74  1  0.670635  0.817889  0.671522  1
  O  O75  1  0.907999  0.346153  0.827370  1
  O  O76  1  0.009020  0.205399  0.255746  1
  O  O77  1  0.994227  0.235271  0.078317  1
  O  O78  1  0.901832  0.480156  0.323091  1
  O  O79  1  0.821348  0.662752  0.170832  1
  O  O80  1  0.743278  0.913925  0.833207  1
  O  O81  1  0.902279  0.617951  0.823057  1
  O  O82  1  0.775620  0.990450  0.080588  1
  O  O83  1  0.909247  0.745871  0.327828  1
  O  O84  1  0.994764  0.770425  0.578330  1
  O  O85  1  0.008739  0.785699  0.755620  1
