# generated using pymatgen
data_Li2MnVP2(HO5)2
_symmetry_space_group_name_H-M   'P 1'
_cell_length_a   5.43588240
_cell_length_b   10.31921937
_cell_length_c   10.17675714
_cell_angle_alpha   79.30605158
_cell_angle_beta   79.28685922
_cell_angle_gamma   83.13669361
_symmetry_Int_Tables_number   1
_chemical_formula_structural   Li2MnVP2(HO5)2
_chemical_formula_sum   'Li6 Mn3 V3 P6 H6 O30'
_cell_volume   549.02379265
_cell_formula_units_Z   3
loop_
 _symmetry_equiv_pos_site_id
 _symmetry_equiv_pos_as_xyz
  1  'x, y, z'
loop_
 _atom_site_type_symbol
 _atom_site_label
 _atom_site_symmetry_multiplicity
 _atom_site_fract_x
 _atom_site_fract_y
 _atom_site_fract_z
 _atom_site_occupancy
  Li  Li0  1  0.792303  0.634338  0.808460  1
  Li  Li1  1  0.874535  0.699054  0.524584  1
  Li  Li2  1  0.541630  0.033826  0.856389  1
  Li  Li3  1  0.457573  0.965802  0.144076  1
  Li  Li4  1  0.124065  0.301361  0.475097  1
  Li  Li5  1  0.209479  0.366297  0.191145  1
  Mn  Mn6  1  0.831964  0.667441  0.167644  1
  Mn  Mn7  1  0.666437  0.332326  0.333568  1
  Mn  Mn8  1  0.332895  0.666910  0.666514  1
  V  V9  1  0.499741  0.999666  0.500035  1
  V  V10  1  0.170195  0.333859  0.831682  1
  V  V11  1  0.000785  0.999699  0.999822  1
  P  P12  1  0.939195  0.929181  0.696246  1
  P  P13  1  0.728827  0.404578  0.636756  1
  P  P14  1  0.394540  0.737325  0.971177  1
  P  P15  1  0.608947  0.261931  0.029469  1
  P  P16  1  0.268577  0.595759  0.362097  1
  P  P17  1  0.061210  0.071023  0.303882  1
  H  H18  1  0.825851  0.894575  0.233793  1
  H  H19  1  0.836162  0.436744  0.102881  1
  H  H20  1  0.503032  0.769731  0.435520  1
  H  H21  1  0.496966  0.229443  0.564010  1
  H  H22  1  0.163512  0.563643  0.897792  1
  H  H23  1  0.174144  0.105621  0.766680  1
  O  O24  1  0.891664  0.925360  0.851562  1
  O  O25  1  0.985833  0.786386  0.663635  1
  O  O26  1  0.976930  0.334702  0.681161  1
  O  O27  1  0.833137  0.345185  0.963707  1
  O  O28  1  0.835595  0.988621  0.369697  1
  O  O29  1  0.689698  0.999085  0.652065  1
  O  O30  1  0.804424  0.872753  0.145784  1
  O  O31  1  0.663408  0.118099  0.996094  1
  O  O32  1  0.679947  0.547018  0.670630  1
  O  O33  1  0.775378  0.408875  0.481208  1
  O  O34  1  0.857736  0.457677  0.191557  1
  O  O35  1  0.448529  0.742825  0.815470  1
  O  O36  1  0.526212  0.792498  0.523360  1
  O  O37  1  0.502966  0.321893  0.702128  1
  O  O38  1  0.649802  0.672732  0.015911  1
  O  O39  1  0.359936  0.329467  0.984869  1
  O  O40  1  0.487937  0.681020  0.299661  1
  O  O41  1  0.473184  0.207413  0.476294  1
  O  O42  1  0.558974  0.255952  0.185155  1
  O  O43  1  0.139796  0.541525  0.809848  1
  O  O44  1  0.216547  0.591247  0.518158  1
  O  O45  1  0.318049  0.453793  0.328895  1
  O  O46  1  0.337318  0.881213  0.003900  1
  O  O47  1  0.194161  0.128639  0.854099  1
  O  O48  1  0.310732  0.000694  0.347910  1
  O  O49  1  0.164815  0.011221  0.630359  1
  O  O50  1  0.176532  0.651777  0.034250  1
  O  O51  1  0.013806  0.663872  0.318176  1
  O  O52  1  0.015427  0.213237  0.336802  1
  O  O53  1  0.108959  0.075084  0.148334  1
