# generated using pymatgen
data_LiMnP2O7
_symmetry_space_group_name_H-M   'P 1'
_cell_length_a   9.74321323
_cell_length_b   9.70019871
_cell_length_c   11.18617197
_cell_angle_alpha   89.50920403
_cell_angle_beta   101.02405270
_cell_angle_gamma   90.44555079
_symmetry_Int_Tables_number   1
_chemical_formula_structural   LiMnP2O7
_chemical_formula_sum   'Li8 Mn8 P16 O56'
_cell_volume   1037.65026384
_cell_formula_units_Z   8
loop_
 _symmetry_equiv_pos_site_id
 _symmetry_equiv_pos_as_xyz
  1  'x, y, z'
loop_
 _atom_site_type_symbol
 _atom_site_label
 _atom_site_symmetry_multiplicity
 _atom_site_fract_x
 _atom_site_fract_y
 _atom_site_fract_z
 _atom_site_occupancy
  Li  Li0  1  0.413117  0.597534  0.979042  1
  Li  Li1  1  0.333302  0.914411  0.457877  1
  Li  Li2  1  0.389988  0.216805  0.548723  1
  Li  Li3  1  0.843672  0.585595  0.956503  1
  Li  Li4  1  0.644974  0.102938  0.047514  1
  Li  Li5  1  0.916154  0.902555  0.975703  1
  Li  Li6  1  0.837216  0.581421  0.462664  1
  Li  Li7  1  0.890275  0.284527  0.547490  1
  Mn  Mn8  1  0.202115  0.926741  0.675850  1
  Mn  Mn9  1  0.270555  0.217274  0.838940  1
  Mn  Mn10  1  0.221547  0.723869  0.167648  1
  Mn  Mn11  1  0.308370  0.429191  0.331033  1
  Mn  Mn12  1  0.699275  0.573534  0.673593  1
  Mn  Mn13  1  0.778119  0.277040  0.839959  1
  Mn  Mn14  1  0.717287  0.778080  0.165842  1
  Mn  Mn15  1  0.807545  0.067789  0.331602  1
  P  P16  1  0.028108  0.445238  0.753514  1
  P  P17  1  0.116368  0.709045  0.885957  1
  P  P18  1  0.065148  0.930264  0.242503  1
  P  P19  1  0.130355  0.154749  0.421335  1
  P  P20  1  0.377347  0.642174  0.571818  1
  P  P21  1  0.433793  0.426085  0.758982  1
  P  P22  1  0.525960  0.054403  0.755675  1
  P  P23  1  0.379964  0.212376  0.116998  1
  P  P24  1  0.612243  0.791819  0.888919  1
  P  P25  1  0.466412  0.940285  0.242488  1
  P  P26  1  0.566492  0.569247  0.242136  1
  P  P27  1  0.631963  0.340272  0.417964  1
  P  P28  1  0.877897  0.855409  0.578300  1
  P  P29  1  0.930734  0.077198  0.757799  1
  P  P30  1  0.890597  0.287962  0.115907  1
  P  P31  1  0.966294  0.561113  0.239038  1
  O  O32  1  0.016682  0.422736  0.620872  1
  O  O33  1  0.035875  0.849430  0.575665  1
  O  O34  1  0.078534  0.087941  0.730924  1
  O  O35  1  0.109685  0.341716  0.843180  1
  O  O36  1  0.104473  0.590909  0.784578  1
  O  O37  1  0.179157  0.830884  0.827055  1
  O  O38  1  0.222938  0.657307  0.999673  1
  O  O39  1  0.028399  0.257466  0.086065  1
  O  O40  1  0.124110  0.077465  0.292487  1
  O  O41  1  0.067607  0.913158  0.109608  1
  O  O42  1  0.113955  0.559447  0.202695  1
  O  O43  1  0.200285  0.292763  0.406497  1
  O  O44  1  0.171029  0.822967  0.310964  1
  O  O45  1  0.225379  0.066231  0.519354  1
  O  O46  1  0.295523  0.560952  0.464930  1
  O  O47  1  0.343525  0.303468  0.697671  1
  O  O48  1  0.321453  0.785716  0.586540  1
  O  O49  1  0.371587  0.041511  0.786096  1
  O  O50  1  0.362904  0.563518  0.696560  1
  O  O51  1  0.421585  0.426727  0.890670  1
  O  O52  1  0.471724  0.764703  0.916878  1
  O  O53  1  0.271064  0.163556  0.004252  1
  O  O54  1  0.318852  0.330055  0.182334  1
  O  O55  1  0.390287  0.086093  0.214281  1
  O  O56  1  0.417388  0.579152  0.271207  1
  O  O57  1  0.379823  0.837138  0.153301  1
  O  O58  1  0.524410  0.087543  0.625787  1
  O  O59  1  0.482966  0.328664  0.439325  1
  O  O60  1  0.536751  0.648664  0.570343  1
  O  O61  1  0.477936  0.914284  0.374451  1
  O  O62  1  0.610823  0.150756  0.853671  1
  O  O63  1  0.584870  0.420119  0.730258  1
  O  O64  1  0.599114  0.906657  0.782297  1
  O  O65  1  0.687332  0.672046  0.840748  1
  O  O66  1  0.717657  0.858461  0.001291  1
  O  O67  1  0.521704  0.235061  0.087772  1
  O  O68  1  0.572596  0.588013  0.109450  1
  O  O69  1  0.626782  0.422201  0.289857  1
  O  O70  1  0.613812  0.949629  0.200626  1
  O  O71  1  0.695229  0.200480  0.399415  1
  O  O72  1  0.670453  0.679762  0.309929  1
  O  O73  1  0.729724  0.425051  0.514554  1
  O  O74  1  0.796723  0.932265  0.468642  1
  O  O75  1  0.835873  0.196691  0.694563  1
  O  O76  1  0.821932  0.708443  0.595975  1
  O  O77  1  0.875061  0.460206  0.790944  1
  O  O78  1  0.911006  0.078512  0.888811  1
  O  O79  1  0.861557  0.935374  0.700413  1
  O  O80  1  0.973474  0.729808  0.915355  1
  O  O81  1  0.782750  0.347764  0.002888  1
  O  O82  1  0.813366  0.168742  0.172769  1
  O  O83  1  0.901651  0.407952  0.217006  1
  O  O84  1  0.871215  0.652863  0.141239  1
  O  O85  1  0.914462  0.919070  0.271120  1
  O  O86  1  0.980955  0.168358  0.440535  1
  O  O87  1  0.968829  0.594977  0.368001  1
