# generated using pymatgen
data_Sb2S2O
_symmetry_space_group_name_H-M   'P 1'
_cell_length_a   4.06163864
_cell_length_b   10.77341945
_cell_length_c   5.95504510
_cell_angle_alpha   102.41601245
_cell_angle_beta   109.90362676
_cell_angle_gamma   100.88336184
_symmetry_Int_Tables_number   1
_chemical_formula_structural   Sb2S2O
_chemical_formula_sum   'Sb4 S4 O2'
_cell_volume   229.33681200
_cell_formula_units_Z   2
loop_
 _symmetry_equiv_pos_site_id
 _symmetry_equiv_pos_as_xyz
  1  'x, y, z'
loop_
 _atom_site_type_symbol
 _atom_site_label
 _atom_site_symmetry_multiplicity
 _atom_site_fract_x
 _atom_site_fract_y
 _atom_site_fract_z
 _atom_site_occupancy
  Sb  Sb0  1  0.344022  0.635764  0.050130  1
  Sb  Sb1  1  0.661360  0.364455  0.956671  1
  Sb  Sb2  1  0.270503  0.883908  0.655458  1
  Sb  Sb3  1  0.734884  0.116310  0.351342  1
  S  S4  1  0.078379  0.915691  0.238857  1
  S  S5  1  0.927005  0.084528  0.767946  1
  S  S6  1  0.613944  0.701985  0.524588  1
  S  S7  1  0.391440  0.298234  0.482212  1
  O  O8  1  0.822658  0.568478  0.074842  1
  O  O9  1  0.182722  0.431739  0.931960  1
