# generated using pymatgen
data_Ag7PSe6
_symmetry_space_group_name_H-M   'P 1'
_cell_length_a   10.96378268
_cell_length_b   10.96378268
_cell_length_c   10.96378268
_cell_angle_alpha   90.00000000
_cell_angle_beta   90.00000000
_cell_angle_gamma   90.00000000
_symmetry_Int_Tables_number   1
_chemical_formula_structural   Ag7PSe6
_chemical_formula_sum   'Ag28 P4 Se24'
_cell_volume   1317.89635124
_cell_formula_units_Z   4
loop_
 _symmetry_equiv_pos_site_id
 _symmetry_equiv_pos_as_xyz
  1  'x, y, z'
loop_
 _atom_site_type_symbol
 _atom_site_label
 _atom_site_symmetry_multiplicity
 _atom_site_fract_x
 _atom_site_fract_y
 _atom_site_fract_z
 _atom_site_occupancy
  P  P0  1  0.745423  0.745423  0.745423  1
  P  P1  1  0.754577  0.254577  0.245423  1
  P  P2  1  0.245423  0.754577  0.254577  1
  P  P3  1  0.254577  0.245423  0.754577  1
  Se  Se4  1  0.865363  0.865363  0.865363  1
  Se  Se5  1  0.634637  0.134637  0.365362  1
  Se  Se6  1  0.365362  0.634637  0.134637  1
  Se  Se7  1  0.134637  0.365362  0.634637  1
  Se  Se8  1  0.360801  0.367656  0.880052  1
  Se  Se9  1  0.880052  0.360801  0.367656  1
  Se  Se10  1  0.367656  0.880052  0.360801  1
  Se  Se11  1  0.132344  0.119948  0.860801  1
  Se  Se12  1  0.380052  0.139199  0.632344  1
  Se  Se13  1  0.632344  0.380052  0.139199  1
  Se  Se14  1  0.619948  0.639199  0.867656  1
  Se  Se15  1  0.119948  0.860801  0.132344  1
  Se  Se16  1  0.867656  0.619948  0.639199  1
  Se  Se17  1  0.860801  0.132344  0.119948  1
  Se  Se18  1  0.639199  0.867656  0.619948  1
  Se  Se19  1  0.139199  0.632344  0.380052  1
  Se  Se20  1  0.211730  0.211730  0.211730  1
  Se  Se21  1  0.288270  0.788270  0.711730  1
  Se  Se22  1  0.711730  0.288270  0.788270  1
  Se  Se23  1  0.788270  0.711730  0.288270  1
  Se  Se24  1  0.479306  0.479306  0.479306  1
  Se  Se25  1  0.020694  0.520694  0.979306  1
  Se  Se26  1  0.979306  0.020694  0.520694  1
  Se  Se27  1  0.520694  0.979306  0.020694  1
  Ag  Ag28  1  0.070073  0.892966  0.727794  1
  Ag  Ag29  1  0.727794  0.070073  0.892966  1
  Ag  Ag30  1  0.892966  0.727794  0.070073  1
  Ag  Ag31  1  0.607034  0.272206  0.570073  1
  Ag  Ag32  1  0.227794  0.429927  0.107034  1
  Ag  Ag33  1  0.107034  0.227794  0.429927  1
  Ag  Ag34  1  0.772206  0.929927  0.392966  1
  Ag  Ag35  1  0.272206  0.570073  0.607034  1
  Ag  Ag36  1  0.392966  0.772206  0.929927  1
  Ag  Ag37  1  0.570073  0.607034  0.272206  1
  Ag  Ag38  1  0.929927  0.392966  0.772206  1
  Ag  Ag39  1  0.429927  0.107034  0.227794  1
  Ag  Ag40  1  0.010407  0.018415  0.278973  1
  Ag  Ag41  1  0.278973  0.010407  0.018415  1
  Ag  Ag42  1  0.018415  0.278973  0.010407  1
  Ag  Ag43  1  0.481585  0.721027  0.510407  1
  Ag  Ag44  1  0.778973  0.489593  0.981585  1
  Ag  Ag45  1  0.981585  0.778973  0.489593  1
  Ag  Ag46  1  0.221027  0.989593  0.518415  1
  Ag  Ag47  1  0.721027  0.510407  0.481585  1
  Ag  Ag48  1  0.518415  0.221027  0.989593  1
  Ag  Ag49  1  0.510407  0.481585  0.721027  1
  Ag  Ag50  1  0.989593  0.518415  0.221027  1
  Ag  Ag51  1  0.489593  0.981585  0.778973  1
  Ag  Ag52  1  0.344750  0.344750  0.344750  1
  Ag  Ag53  1  0.155250  0.655250  0.844750  1
  Ag  Ag54  1  0.844750  0.155250  0.655250  1
  Ag  Ag55  1  0.655250  0.844750  0.155250  1
