# generated using pymatgen
data_LiMn2(BO3)2
_symmetry_space_group_name_H-M   'P 1'
_cell_length_a   5.81930278
_cell_length_b   9.23018551
_cell_length_c   9.87394219
_cell_angle_alpha   99.67094827
_cell_angle_beta   80.64460604
_cell_angle_gamma   104.58473057
_symmetry_Int_Tables_number   1
_chemical_formula_structural   LiMn2(BO3)2
_chemical_formula_sum   'Li4 Mn8 B8 O24'
_cell_volume   501.94121977
_cell_formula_units_Z   4
loop_
 _symmetry_equiv_pos_site_id
 _symmetry_equiv_pos_as_xyz
  1  'x, y, z'
loop_
 _atom_site_type_symbol
 _atom_site_label
 _atom_site_symmetry_multiplicity
 _atom_site_fract_x
 _atom_site_fract_y
 _atom_site_fract_z
 _atom_site_occupancy
  Li  Li0  1  0.464856  0.807453  0.864662  1
  Li  Li1  1  0.035144  0.192547  0.635338  1
  Li  Li2  1  0.307262  0.691189  0.384092  1
  Li  Li3  1  0.192739  0.308811  0.115908  1
  Mn  Mn4  1  0.860578  0.408531  0.888229  1
  Mn  Mn5  1  0.874423  0.098753  0.374033  1
  Mn  Mn6  1  0.405395  0.130331  0.854125  1
  Mn  Mn7  1  0.639422  0.591469  0.611771  1
  Mn  Mn8  1  0.370413  0.357434  0.375283  1
  Mn  Mn9  1  0.625577  0.901247  0.125967  1
  Mn  Mn10  1  0.094605  0.869669  0.645875  1
  Mn  Mn11  1  0.129587  0.642566  0.124717  1
  B  B12  1  0.865915  0.054796  0.876851  1
  B  B13  1  0.905163  0.443306  0.357472  1
  B  B14  1  0.385949  0.471589  0.868864  1
  B  B15  1  0.634085  0.945204  0.623149  1
  B  B16  1  0.346280  0.026682  0.398875  1
  B  B17  1  0.594837  0.556694  0.142528  1
  B  B18  1  0.114051  0.528411  0.631136  1
  B  B19  1  0.153721  0.973318  0.101125  1
  O  O20  1  0.748654  0.172789  0.901772  1
  O  O21  1  0.980781  0.639508  0.659100  1
  O  O22  1  0.725079  0.078211  0.570655  1
  O  O23  1  0.003232  0.578708  0.310976  1
  O  O24  1  0.774921  0.921789  0.929345  1
  O  O25  1  0.694682  0.425339  0.451935  1
  O  O26  1  0.948611  0.945905  0.198952  1
  O  O27  1  0.519219  0.360492  0.840900  1
  O  O28  1  0.751346  0.827211  0.598228  1
  O  O29  1  0.551389  0.054095  0.301048  1
  O  O30  1  0.805318  0.574661  0.048065  1
  O  O31  1  0.459091  0.599824  0.808623  1
  O  O32  1  0.496768  0.421292  0.189024  1
  O  O33  1  0.180214  0.446667  0.967707  1
  O  O34  1  0.426196  0.927298  0.721538  1
  O  O35  1  0.219050  0.143263  0.435893  1
  O  O36  1  0.483214  0.678866  0.179083  1
  O  O37  1  0.073804  0.072702  0.778462  1
  O  O38  1  0.319786  0.553333  0.532293  1
  O  O39  1  0.228786  0.105481  0.049011  1
  O  O40  1  0.040909  0.400176  0.691377  1
  O  O41  1  0.271214  0.894519  0.450989  1
  O  O42  1  0.016786  0.321134  0.320917  1
  O  O43  1  0.280950  0.856737  0.064107  1
