# generated using pymatgen
data_Li2VF4
_symmetry_space_group_name_H-M   'P 1'
_cell_length_a   5.23473601
_cell_length_b   6.29673300
_cell_length_c   9.82807222
_cell_angle_alpha   90.00000000
_cell_angle_beta   90.35329945
_cell_angle_gamma   90.00000000
_symmetry_Int_Tables_number   1
_chemical_formula_structural   Li2VF4
_chemical_formula_sum   'Li8 V4 F16'
_cell_volume   323.94415341
_cell_formula_units_Z   4
loop_
 _symmetry_equiv_pos_site_id
 _symmetry_equiv_pos_as_xyz
  1  'x, y, z'
loop_
 _atom_site_type_symbol
 _atom_site_label
 _atom_site_symmetry_multiplicity
 _atom_site_fract_x
 _atom_site_fract_y
 _atom_site_fract_z
 _atom_site_occupancy
  Li  Li0  1  0.247894  0.092541  0.138927  1
  Li  Li1  1  0.252106  0.592541  0.361073  1
  Li  Li2  1  0.265077  0.087738  0.458593  1
  Li  Li3  1  0.234923  0.587738  0.041407  1
  Li  Li4  1  0.765077  0.412262  0.958593  1
  Li  Li5  1  0.734923  0.912262  0.541407  1
  Li  Li6  1  0.747894  0.407459  0.638927  1
  Li  Li7  1  0.752106  0.907459  0.861073  1
  V  V8  1  0.253636  0.673817  0.744777  1
  V  V9  1  0.246364  0.173817  0.755223  1
  V  V10  1  0.753636  0.826183  0.244777  1
  V  V11  1  0.746364  0.326183  0.255223  1
  F  F12  1  0.054856  0.344723  0.116275  1
  F  F13  1  0.107251  0.819540  0.147366  1
  F  F14  1  0.092421  0.929717  0.626931  1
  F  F15  1  0.106697  0.418417  0.629067  1
  F  F16  1  0.392749  0.319540  0.352634  1
  F  F17  1  0.445144  0.844723  0.383725  1
  F  F18  1  0.592421  0.570283  0.126931  1
  F  F19  1  0.393303  0.918417  0.870933  1
  F  F20  1  0.606697  0.081583  0.129067  1
  F  F21  1  0.407579  0.429717  0.873069  1
  F  F22  1  0.554856  0.155277  0.616275  1
  F  F23  1  0.607251  0.680460  0.647366  1
  F  F24  1  0.893303  0.581583  0.370933  1
  F  F25  1  0.907579  0.070283  0.373069  1
  F  F26  1  0.892749  0.180460  0.852634  1
  F  F27  1  0.945144  0.655277  0.883725  1
