# generated using pymatgen
data_Li3Fe3(WO6)2
_symmetry_space_group_name_H-M   'P 1'
_cell_length_a   9.03901668
_cell_length_b   12.56147272
_cell_length_c   9.34298724
_cell_angle_alpha   90.00000000
_cell_angle_beta   90.00000000
_cell_angle_gamma   91.63799977
_symmetry_Int_Tables_number   1
_chemical_formula_structural   Li3Fe3(WO6)2
_chemical_formula_sum   'Li12 Fe12 W8 O48'
_cell_volume   1060.40069632
_cell_formula_units_Z   4
loop_
 _symmetry_equiv_pos_site_id
 _symmetry_equiv_pos_as_xyz
  1  'x, y, z'
loop_
 _atom_site_type_symbol
 _atom_site_label
 _atom_site_symmetry_multiplicity
 _atom_site_fract_x
 _atom_site_fract_y
 _atom_site_fract_z
 _atom_site_occupancy
  Li  Li0  1  0.066175  0.701378  0.087047  1
  Li  Li1  1  0.069322  0.347470  0.515128  1
  Li  Li2  1  0.182861  0.182286  0.778850  1
  Li  Li3  1  0.317139  0.317714  0.278850  1
  Li  Li4  1  0.433825  0.798622  0.587047  1
  Li  Li5  1  0.430678  0.152530  0.015128  1
  Li  Li6  1  0.569322  0.847470  0.984872  1
  Li  Li7  1  0.566175  0.201378  0.412953  1
  Li  Li8  1  0.682861  0.682286  0.721150  1
  Li  Li9  1  0.817139  0.817714  0.221150  1
  Li  Li10  1  0.930678  0.652530  0.484872  1
  Li  Li11  1  0.933825  0.298622  0.912953  1
  Fe  Fe12  1  0.030059  0.486827  0.245919  1
  Fe  Fe13  1  0.114968  0.850907  0.382170  1
  Fe  Fe14  1  0.109361  0.132734  0.121322  1
  Fe  Fe15  1  0.385032  0.649093  0.882170  1
  Fe  Fe16  1  0.390639  0.367266  0.621322  1
  Fe  Fe17  1  0.469941  0.013173  0.745919  1
  Fe  Fe18  1  0.530059  0.986827  0.254081  1
  Fe  Fe19  1  0.609361  0.632734  0.378678  1
  Fe  Fe20  1  0.614968  0.350907  0.117830  1
  Fe  Fe21  1  0.890639  0.867266  0.878678  1
  Fe  Fe22  1  0.885032  0.149093  0.617830  1
  Fe  Fe23  1  0.969941  0.513173  0.754081  1
  W  W24  1  0.253339  0.889129  0.018112  1
  W  W25  1  0.246661  0.610871  0.518112  1
  W  W26  1  0.753339  0.389129  0.481888  1
  W  W27  1  0.746661  0.110871  0.981888  1
  W  W28  1  0.250794  0.377935  0.971344  1
  W  W29  1  0.249206  0.122065  0.471344  1
  W  W30  1  0.750794  0.877935  0.528656  1
  W  W31  1  0.749206  0.622065  0.028656  1
  O  O32  1  0.070268  0.430372  0.890258  1
  O  O33  1  0.089709  0.911278  0.895432  1
  O  O34  1  0.070765  0.617332  0.645443  1
  O  O35  1  0.084855  0.194000  0.575927  1
  O  O36  1  0.101546  0.600515  0.364133  1
  O  O37  1  0.125362  0.849890  0.179189  1
  O  O38  1  0.144954  0.996119  0.429613  1
  O  O39  1  0.128830  0.241565  0.982409  1
  O  O40  1  0.181675  0.188552  0.295481  1
  O  O41  1  0.192947  0.418010  0.163590  1
  O  O42  1  0.248340  0.766372  0.482864  1
  O  O43  1  0.251660  0.733628  0.982864  1
  O  O44  1  0.262659  0.042950  0.054761  1
  O  O45  1  0.237341  0.457050  0.554761  1
  O  O46  1  0.307053  0.081990  0.663590  1
  O  O47  1  0.318325  0.311448  0.795481  1
  O  O48  1  0.355046  0.503881  0.929613  1
  O  O49  1  0.371170  0.258435  0.482409  1
  O  O50  1  0.374638  0.650110  0.679189  1
  O  O51  1  0.398454  0.899485  0.864133  1
  O  O52  1  0.429235  0.882668  0.145443  1
  O  O53  1  0.410291  0.588722  0.395432  1
  O  O54  1  0.415145  0.306000  0.075927  1
  O  O55  1  0.429732  0.069628  0.390258  1
  O  O56  1  0.570268  0.930372  0.609742  1
  O  O57  1  0.584855  0.694000  0.924073  1
  O  O58  1  0.589709  0.411278  0.604568  1
  O  O59  1  0.570765  0.117333  0.854557  1
  O  O60  1  0.601546  0.100515  0.135867  1
  O  O61  1  0.625362  0.349890  0.320811  1
  O  O62  1  0.628830  0.741565  0.517591  1
  O  O63  1  0.644954  0.496119  0.070387  1
  O  O64  1  0.681675  0.688552  0.204519  1
  O  O65  1  0.692947  0.918010  0.336410  1
  O  O66  1  0.762659  0.542950  0.445239  1
  O  O67  1  0.737341  0.957050  0.945239  1
  O  O68  1  0.748340  0.266372  0.017136  1
  O  O69  1  0.751660  0.233628  0.517136  1
  O  O70  1  0.807053  0.581990  0.836410  1
  O  O71  1  0.818325  0.811448  0.704519  1
  O  O72  1  0.871170  0.758435  0.017591  1
  O  O73  1  0.855046  0.003881  0.570387  1
  O  O74  1  0.874638  0.150110  0.820811  1
  O  O75  1  0.898454  0.399485  0.635867  1
  O  O76  1  0.915145  0.806000  0.424073  1
  O  O77  1  0.929235  0.382667  0.354557  1
  O  O78  1  0.910291  0.088722  0.104568  1
  O  O79  1  0.929732  0.569628  0.109742  1
