# generated using pymatgen
data_H7SIO10
_symmetry_space_group_name_H-M   'P 1'
_cell_length_a   9.21659093
_cell_length_b   14.05960719
_cell_length_c   14.05957816
_cell_angle_alpha   96.16731182
_cell_angle_beta   109.13339324
_cell_angle_gamma   70.86648570
_symmetry_Int_Tables_number   1
_chemical_formula_structural   H7SIO10
_chemical_formula_sum   'H56 S8 I8 O80'
_cell_volume   1626.13525724
_cell_formula_units_Z   8
loop_
 _symmetry_equiv_pos_site_id
 _symmetry_equiv_pos_as_xyz
  1  'x, y, z'
loop_
 _atom_site_type_symbol
 _atom_site_label
 _atom_site_symmetry_multiplicity
 _atom_site_fract_x
 _atom_site_fract_y
 _atom_site_fract_z
 _atom_site_occupancy
  H  H0  1  0.859563  0.100994  0.011739  1
  H  H1  1  0.295102  0.125222  0.023564  1
  H  H2  1  0.295973  0.125279  0.191643  1
  H  H3  1  0.822674  0.117823  0.199679  1
  H  H4  1  0.771539  0.023564  0.374779  1
  H  H5  1  0.440497  0.300321  0.117823  1
  H  H6  1  0.347824  0.011739  0.399006  1
  H  H7  1  0.921251  0.308357  0.125279  1
  H  H8  1  0.604330  0.191643  0.374721  1
  H  H9  1  0.460557  0.488261  0.100994  1
  H  H10  1  0.122994  0.199678  0.382177  1
  H  H11  1  0.920324  0.476436  0.125222  1
  H  H12  1  0.240818  0.382177  0.300321  1
  H  H13  1  0.729608  0.374721  0.308357  1
  H  H14  1  0.980279  0.625939  0.052917  1
  H  H15  1  0.946699  0.125940  0.552918  1
  H  H16  1  0.293806  0.713862  0.066077  1
  H  H17  1  0.558408  0.213862  0.566077  1
  H  H18  1  0.324824  0.175686  0.625698  1
  H  H19  1  0.625188  0.675686  0.125698  1
  H  H20  1  0.896760  0.374778  0.476436  1
  H  H21  1  0.492332  0.566077  0.286138  1
  H  H22  1  0.727729  0.066076  0.786138  1
  H  H23  1  0.448818  0.399006  0.488261  1
  H  H24  1  0.893782  0.552917  0.374061  1
  H  H25  1  0.427361  0.052918  0.874061  1
  H  H26  1  0.999490  0.125698  0.824314  1
  H  H27  1  0.199126  0.625698  0.324314  1
  H  H28  1  0.800874  0.374302  0.675686  1
  H  H29  1  0.000510  0.874302  0.175686  1
  H  H30  1  0.106218  0.447083  0.625939  1
  H  H31  1  0.572639  0.947082  0.125939  1
  H  H32  1  0.551182  0.600994  0.511739  1
  H  H33  1  0.272271  0.933924  0.213862  1
  H  H34  1  0.507668  0.433923  0.713862  1
  H  H35  1  0.103240  0.625222  0.523564  1
  H  H36  1  0.675176  0.824314  0.374302  1
  H  H37  1  0.374812  0.324314  0.874302  1
  H  H38  1  0.706194  0.286138  0.933923  1
  H  H39  1  0.441592  0.786138  0.433923  1
  H  H40  1  0.019721  0.374061  0.947083  1
  H  H41  1  0.053301  0.874060  0.447082  1
  H  H42  1  0.270392  0.625279  0.691643  1
  H  H43  1  0.759182  0.617823  0.699679  1
  H  H44  1  0.079676  0.523564  0.874778  1
  H  H45  1  0.877006  0.800322  0.617823  1
  H  H46  1  0.539443  0.511739  0.899006  1
  H  H47  1  0.395670  0.808357  0.625279  1
  H  H48  1  0.078749  0.691643  0.874721  1
  H  H49  1  0.652176  0.988261  0.600994  1
  H  H50  1  0.559503  0.699679  0.882177  1
  H  H51  1  0.228461  0.976436  0.625221  1
  H  H52  1  0.177326  0.882177  0.800321  1
  H  H53  1  0.704027  0.874721  0.808357  1
  H  H54  1  0.704898  0.874778  0.976436  1
  H  H55  1  0.140437  0.899006  0.988261  1
  S  S56  1  0.556597  0.180311  0.030446  1
  S  S57  1  0.026142  0.030448  0.319689  1
  S  S58  1  0.236906  0.469551  0.180315  1
  S  S59  1  0.206458  0.319686  0.469548  1
  S  S60  1  0.793542  0.680314  0.530452  1
  S  S61  1  0.763094  0.530449  0.819685  1
  S  S62  1  0.973858  0.969552  0.680311  1
  S  S63  1  0.443403  0.819689  0.969554  1
  I  I64  1  0.483923  0.014992  0.712217  1
  I  I65  1  0.713302  0.514987  0.212223  1
  I  I66  1  0.998913  0.787788  0.014988  1
  I  I67  1  0.728284  0.287789  0.514995  1
  I  I68  1  0.271716  0.712211  0.485005  1
  I  I69  1  0.001087  0.212212  0.985012  1
  I  I70  1  0.516077  0.985008  0.287783  1
  I  I71  1  0.286698  0.485013  0.787777  1
  O  O72  1  0.721638  0.110401  0.071955  1
  O  O73  1  0.213913  0.128568  0.059080  1
  O  O74  1  0.964786  0.234120  0.113363  1
  O  O75  1  0.511340  0.228190  0.127404  1
  O  O76  1  0.351423  0.113363  0.265881  1
  O  O77  1  0.883932  0.127403  0.271810  1
  O  O78  1  0.654837  0.059078  0.371432  1
  O  O79  1  0.149687  0.071956  0.389599  1
  O  O80  1  0.332043  0.428046  0.110400  1
  O  O81  1  0.842484  0.440923  0.128568  1
  O  O82  1  0.239530  0.372595  0.228190  1
  O  O83  1  0.698904  0.386635  0.234121  1
  O  O84  1  0.542740  0.035464  0.600320  1
  O  O85  1  0.522115  0.535467  0.100321  1
  O  O86  1  0.112124  0.271810  0.372597  1
  O  O87  1  0.585541  0.265879  0.386636  1
  O  O88  1  0.037926  0.023316  0.627420  1
  O  O89  1  0.066180  0.523315  0.127420  1
  O  O90  1  0.912536  0.679842  0.000018  1
  O  O91  1  0.907639  0.179842  0.500017  1
  O  O92  1  0.341319  0.238532  0.530809  1
  O  O93  1  0.450961  0.738534  0.030807  1
  O  O94  1  0.678201  0.196071  0.581881  1
  O  O95  1  0.207608  0.696070  0.081881  1
  O  O96  1  0.310509  0.530807  0.261466  1
  O  O97  1  0.920150  0.030806  0.761465  1
  O  O98  1  0.783407  0.371431  0.440922  1
  O  O99  1  0.260088  0.389600  0.428047  1
  O  O100  1  0.727598  0.638076  0.178078  1
  O  O101  1  0.312402  0.138075  0.678078  1
  O  O102  1  0.412519  0.000017  0.820157  1
  O  O103  1  0.907621  0.500018  0.320158  1
  O  O104  1  0.625728  0.081881  0.803929  1
  O  O105  1  0.596319  0.581881  0.303929  1
  O  O106  1  0.089492  0.372580  0.523316  1
  O  O107  1  0.561239  0.872580  0.023315  1
  O  O108  1  0.557582  0.399679  0.535466  1
  O  O109  1  0.078207  0.899678  0.035467  1
  O  O110  1  0.950478  0.821924  0.138076  1
  O  O111  1  0.865672  0.321925  0.638075  1
  O  O112  1  0.134328  0.678075  0.361925  1
  O  O113  1  0.049522  0.178076  0.861924  1
  O  O114  1  0.442418  0.600321  0.464534  1
  O  O115  1  0.921793  0.100322  0.964533  1
  O  O116  1  0.910508  0.627420  0.476684  1
  O  O117  1  0.438761  0.127420  0.976685  1
  O  O118  1  0.374272  0.918119  0.196071  1
  O  O119  1  0.403681  0.418119  0.696071  1
  O  O120  1  0.587481  -0.000017  0.179843  1
  O  O121  1  0.092379  0.499982  0.679842  1
  O  O122  1  0.687598  0.861925  0.321922  1
  O  O123  1  0.272402  0.361924  0.821922  1
  O  O124  1  0.739912  0.610400  0.571953  1
  O  O125  1  0.216593  0.628569  0.559078  1
  O  O126  1  0.079850  0.969194  0.238535  1
  O  O127  1  0.689491  0.469193  0.738534  1
  O  O128  1  0.321799  0.803929  0.418119  1
  O  O129  1  0.792392  0.303930  0.918119  1
  O  O130  1  0.658681  0.761468  0.469191  1
  O  O131  1  0.549039  0.261466  0.969193  1
  O  O132  1  0.087464  0.320158  -0.000018  1
  O  O133  1  0.092361  0.820158  0.499983  1
  O  O134  1  0.962074  0.976684  0.372580  1
  O  O135  1  0.933820  0.476685  0.872580  1
  O  O136  1  0.414459  0.734121  0.613364  1
  O  O137  1  0.887876  0.728190  0.627403  1
  O  O138  1  0.457260  0.964536  0.399680  1
  O  O139  1  0.477885  0.464533  0.899679  1
  O  O140  1  0.301096  0.613365  0.765879  1
  O  O141  1  0.760470  0.627405  0.771810  1
  O  O142  1  0.157516  0.559077  0.871432  1
  O  O143  1  0.667957  0.571954  0.889600  1
  O  O144  1  0.850313  0.928044  0.610401  1
  O  O145  1  0.345163  0.940923  0.628568  1
  O  O146  1  0.116068  0.872597  0.728190  1
  O  O147  1  0.648577  0.886637  0.734119  1
  O  O148  1  0.488660  0.771810  0.872596  1
  O  O149  1  0.035214  0.765880  0.886637  1
  O  O150  1  0.786087  0.871432  0.940921  1
  O  O151  1  0.278362  0.889599  0.928045  1
