# generated using pymatgen
data_Eu2SiO5
_symmetry_space_group_name_H-M   'P 1'
_cell_length_a   8.20122099
_cell_length_b   8.20122099
_cell_length_c   10.74820218
_cell_angle_alpha   61.24069145
_cell_angle_beta   118.75930855
_cell_angle_gamma   129.78423656
_symmetry_Int_Tables_number   1
_chemical_formula_structural   Eu2SiO5
_chemical_formula_sum   'Eu8 Si4 O20'
_cell_volume   470.63001462
_cell_formula_units_Z   4
loop_
 _symmetry_equiv_pos_site_id
 _symmetry_equiv_pos_as_xyz
  1  'x, y, z'
loop_
 _atom_site_type_symbol
 _atom_site_label
 _atom_site_symmetry_multiplicity
 _atom_site_fract_x
 _atom_site_fract_y
 _atom_site_fract_z
 _atom_site_occupancy
  Eu  Eu0  1  0.235684  0.523616  0.664073  1
  Eu  Eu1  1  0.787162  0.709208  0.965844  1
  Eu  Eu2  1  0.709208  0.787162  0.534156  1
  Eu  Eu3  1  0.476384  0.764316  0.164073  1
  Eu  Eu4  1  0.523616  0.235684  0.835927  1
  Eu  Eu5  1  0.290792  0.212838  0.465844  1
  Eu  Eu6  1  0.212838  0.290792  0.034156  1
  Eu  Eu7  1  0.764316  0.476384  0.335927  1
  Si  Si8  1  0.090499  0.728053  0.806591  1
  Si  Si9  1  0.271947  0.909501  0.306591  1
  Si  Si10  1  0.728053  0.090499  0.693409  1
  Si  Si11  1  0.909501  0.271947  0.193409  1
  O  O12  1  0.265008  0.864030  0.934089  1
  O  O13  1  0.088407  0.903015  0.643825  1
  O  O14  1  0.148258  0.560169  0.823399  1
  O  O15  1  0.135970  0.734992  0.434089  1
  O  O16  1  0.096985  0.911593  0.143825  1
  O  O17  1  0.596109  0.838088  0.679034  1
  O  O18  1  0.439831  0.851742  0.323399  1
  O  O19  1  0.422029  0.387823  0.895835  1
  O  O20  1  0.387823  0.422029  0.604165  1
  O  O21  1  0.838088  0.596109  0.820966  1
  O  O22  1  0.161912  0.403891  0.179034  1
  O  O23  1  0.612178  0.577971  0.395835  1
  O  O24  1  0.577971  0.612178  0.104165  1
  O  O25  1  0.560169  0.148258  0.676601  1
  O  O26  1  0.403891  0.161912  0.320966  1
  O  O27  1  0.903015  0.088407  0.856175  1
  O  O28  1  0.864030  0.265008  0.565911  1
  O  O29  1  0.851742  0.439831  0.176601  1
  O  O30  1  0.911593  0.096985  0.356175  1
  O  O31  1  0.734992  0.135970  0.065911  1
