# generated using pymatgen
data_CoS2
_symmetry_space_group_name_H-M   'P 1'
_cell_length_a   5.44437742
_cell_length_b   5.56848400
_cell_length_c   5.53947722
_cell_angle_alpha   90.00000000
_cell_angle_beta   89.98720362
_cell_angle_gamma   90.00000000
_symmetry_Int_Tables_number   1
_chemical_formula_structural   CoS2
_chemical_formula_sum   'Co4 S8'
_cell_volume   167.93993117
_cell_formula_units_Z   4
loop_
 _symmetry_equiv_pos_site_id
 _symmetry_equiv_pos_as_xyz
  1  'x, y, z'
loop_
 _atom_site_type_symbol
 _atom_site_label
 _atom_site_symmetry_multiplicity
 _atom_site_fract_x
 _atom_site_fract_y
 _atom_site_fract_z
 _atom_site_occupancy
  Co  Co0  1  0.000000  0.500000  0.500000  1
  Co  Co1  1  0.000000  0.000000  0.000000  1
  Co  Co2  1  0.500000  0.500000  0.000000  1
  Co  Co3  1  0.500000  0.000000  0.500000  1
  S  S4  1  0.386853  0.388045  0.388735  1
  S  S5  1  0.386853  0.111955  0.888735  1
  S  S6  1  0.886893  0.112176  0.611543  1
  S  S7  1  0.113107  0.612176  0.888457  1
  S  S8  1  0.613147  0.888045  0.111265  1
  S  S9  1  0.113107  0.887824  0.388457  1
  S  S10  1  0.886893  0.387824  0.111543  1
  S  S11  1  0.613147  0.611955  0.611265  1
