# generated using pymatgen
data_Co6OF11
_symmetry_space_group_name_H-M   'P 1'
_cell_length_a   7.46449151
_cell_length_b   5.69865305
_cell_length_c   5.69865305
_cell_angle_alpha   71.45846376
_cell_angle_beta   72.83207971
_cell_angle_gamma   72.83207971
_symmetry_Int_Tables_number   1
_chemical_formula_structural   Co6OF11
_chemical_formula_sum   'Co6 O1 F11'
_cell_volume   214.09306191
_cell_formula_units_Z   1
loop_
 _symmetry_equiv_pos_site_id
 _symmetry_equiv_pos_as_xyz
  1  'x, y, z'
loop_
 _atom_site_type_symbol
 _atom_site_label
 _atom_site_symmetry_multiplicity
 _atom_site_fract_x
 _atom_site_fract_y
 _atom_site_fract_z
 _atom_site_occupancy
  Co  Co0  1  0.842189  0.648809  0.668595  1
  Co  Co1  1  0.333705  0.664095  0.671760  1
  Co  Co2  1  0.666295  0.328240  0.335905  1
  Co  Co3  1  0.157811  0.331405  0.351191  1
  Co  Co4  1  0.500000  0.997721  0.002279  1
  Co  Co5  1  0.000000  0.021865  0.978135  1
  O  O6  1  0.000000  0.312997  0.687003  1
  F  F7  1  0.328964  0.362433  0.981920  1
  F  F8  1  0.671036  0.018080  0.637567  1
  F  F9  1  0.630594  0.565163  0.564407  1
  F  F10  1  0.299614  0.897261  0.901501  1
  F  F11  1  0.964745  0.231793  0.229196  1
  F  F12  1  0.369406  0.435593  0.434837  1
  F  F13  1  0.035255  0.770804  0.768207  1
  F  F14  1  0.700386  0.098499  0.102739  1
  F  F15  1  0.330475  0.973460  0.368206  1
  F  F16  1  0.669525  0.631794  0.026540  1
  F  F17  1  0.000000  0.709985  0.290015  1
