# generated using pymatgen
data_LiMn3(BO3)3
_symmetry_space_group_name_H-M   'P 1'
_cell_length_a   5.78512772
_cell_length_b   5.33488366
_cell_length_c   12.45207719
_cell_angle_alpha   75.50759900
_cell_angle_beta   92.44586295
_cell_angle_gamma   88.52120085
_symmetry_Int_Tables_number   1
_chemical_formula_structural   LiMn3(BO3)3
_chemical_formula_sum   'Li2 Mn6 B6 O18'
_cell_volume   371.47636404
_cell_formula_units_Z   2
loop_
 _symmetry_equiv_pos_site_id
 _symmetry_equiv_pos_as_xyz
  1  'x, y, z'
loop_
 _atom_site_type_symbol
 _atom_site_label
 _atom_site_symmetry_multiplicity
 _atom_site_fract_x
 _atom_site_fract_y
 _atom_site_fract_z
 _atom_site_occupancy
  Li  Li0  1  0.188857  0.091599  0.483227  1
  Li  Li1  1  0.856442  0.418536  0.818246  1
  Mn  Mn2  1  0.035286  0.948942  0.715171  1
  Mn  Mn3  1  0.308142  0.732214  0.950322  1
  Mn  Mn4  1  0.365133  0.625783  0.372273  1
  Mn  Mn5  1  0.636757  0.392252  0.607100  1
  Mn  Mn6  1  0.679777  0.256265  0.054661  1
  Mn  Mn7  1  0.959532  0.052693  0.282076  1
  B  B8  1  0.143803  0.519247  0.608437  1
  B  B9  1  0.185602  0.144880  0.057547  1
  B  B10  1  0.466152  0.192396  0.276418  1
  B  B11  1  0.538084  0.808827  0.729404  1
  B  B12  1  0.804759  0.858410  0.937518  1
  B  B13  1  0.866352  0.482028  0.391033  1
  O  O14  1  0.027984  0.654782  0.336928  1
  O  O15  1  0.004609  0.240119  0.110107  1
  O  O16  1  0.132698  0.781531  0.599432  1
  O  O17  1  0.202096  0.888856  0.061531  1
  O  O18  1  0.285720  0.415303  0.540702  1
  O  O19  1  0.330275  0.020438  0.348902  1
  O  O20  1  0.348389  0.320475  0.007660  1
  O  O21  1  0.352482  0.903176  0.780727  1
  O  O22  1  0.453143  0.451175  0.265005  1
  O  O23  1  0.570075  0.554663  0.736539  1
  O  O24  1  0.613973  0.092730  0.209678  1
  O  O25  1  0.642649  0.684924  0.987720  1
  O  O26  1  0.697472  0.992726  0.680694  1
  O  O27  1  0.682549  0.590617  0.437843  1
  O  O28  1  0.790864  0.117480  0.930390  1
  O  O29  1  0.893198  0.222065  0.407675  1
  O  O30  1  0.979910  0.749824  0.883841  1
  O  O31  1  0.004445  0.352875  0.681016  1
