# generated using pymatgen
data_Mg3TcH7
_symmetry_space_group_name_H-M   'P 1'
_cell_length_a   4.82387365
_cell_length_b   4.82390419
_cell_length_c   10.54317145
_cell_angle_alpha   90.00000000
_cell_angle_beta   90.00000000
_cell_angle_gamma   120.00182637
_symmetry_Int_Tables_number   1
_chemical_formula_structural   Mg3TcH7
_chemical_formula_sum   'Mg6 Tc2 H14'
_cell_volume   212.46554185
_cell_formula_units_Z   2
loop_
 _symmetry_equiv_pos_site_id
 _symmetry_equiv_pos_as_xyz
  1  'x, y, z'
loop_
 _atom_site_type_symbol
 _atom_site_label
 _atom_site_symmetry_multiplicity
 _atom_site_fract_x
 _atom_site_fract_y
 _atom_site_fract_z
 _atom_site_occupancy
  Mg  Mg0  1  0.333328  0.666631  0.068389  1
  Mg  Mg1  1  0.000005  0.000002  0.250000  1
  Mg  Mg2  1  0.333328  0.666631  0.431611  1
  Mg  Mg3  1  0.666671  0.333369  0.568389  1
  Mg  Mg4  1  0.999994  0.999998  0.750000  1
  Mg  Mg5  1  0.666671  0.333369  0.931611  1
  Tc  Tc6  1  0.000000  0.000000  0.000000  1
  Tc  Tc7  1  0.000000  0.000000  0.500000  1
  H  H8  1  0.337783  0.168887  0.098170  1
  H  H9  1  0.831103  0.168887  0.098167  1
  H  H10  1  0.831103  0.662212  0.098170  1
  H  H11  1  0.333309  0.666617  0.250000  1
  H  H12  1  0.831103  0.662212  0.401829  1
  H  H13  1  0.337783  0.168887  0.401830  1
  H  H14  1  0.831103  0.168887  0.401833  1
  H  H15  1  0.168896  0.831113  0.598167  1
  H  H16  1  0.662218  0.831113  0.598170  1
  H  H17  1  0.168896  0.337788  0.598171  1
  H  H18  1  0.666690  0.333383  0.750000  1
  H  H19  1  0.168896  0.337788  0.901829  1
  H  H20  1  0.168896  0.831113  0.901833  1
  H  H21  1  0.662218  0.831113  0.901830  1
