# generated using pymatgen
data_Li8CoNi9O20
_symmetry_space_group_name_H-M   'P 1'
_cell_length_a   2.84018042
_cell_length_b   11.65338742
_cell_length_c   21.14847922
_cell_angle_alpha   83.05194270
_cell_angle_beta   90.00000000
_cell_angle_gamma   90.00000000
_symmetry_Int_Tables_number   1
_chemical_formula_structural   Li8CoNi9O20
_chemical_formula_sum   'Li16 Co2 Ni18 O40'
_cell_volume   694.82610713
_cell_formula_units_Z   2
loop_
 _symmetry_equiv_pos_site_id
 _symmetry_equiv_pos_as_xyz
  1  'x, y, z'
loop_
 _atom_site_type_symbol
 _atom_site_label
 _atom_site_symmetry_multiplicity
 _atom_site_fract_x
 _atom_site_fract_y
 _atom_site_fract_z
 _atom_site_occupancy
  Li  Li0  1  0.000000  0.460999  0.208220  1
  Li  Li1  1  0.000000  0.063184  0.808974  1
  Li  Li2  1  0.000000  0.560004  0.809185  1
  Li  Li3  1  0.000000  0.347719  0.599418  1
  Li  Li4  1  0.000000  0.852176  0.599715  1
  Li  Li5  1  0.000000  0.642799  0.393362  1
  Li  Li6  1  0.000000  0.948544  0.200426  1
  Li  Li7  1  0.000000  0.240647  0.990201  1
  Li  Li8  1  0.000000  0.739785  0.994349  1
  Li  Li9  1  0.500000  0.950902  0.698567  1
  Li  Li10  1  0.500000  0.451596  0.702837  1
  Li  Li11  1  0.500000  0.751281  0.500069  1
  Li  Li12  1  0.500000  0.058473  0.308068  1
  Li  Li13  1  0.500000  0.850336  0.099685  1
  Li  Li14  1  0.500000  0.349221  0.100986  1
  Li  Li15  1  0.500000  0.239826  0.490603  1
  Co  Co16  1  0.000000  0.097801  0.601082  1
  Co  Co17  1  0.500000  0.599645  0.099432  1
  Ni  Ni18  1  0.000000  0.796782  0.803885  1
  Ni  Ni19  1  0.000000  0.500333  0.997781  1
  Ni  Ni20  1  0.000000  0.299005  0.801008  1
  Ni  Ni21  1  0.000000  0.602705  0.598203  1
  Ni  Ni22  1  0.000000  0.897469  0.399535  1
  Ni  Ni23  1  0.000000  0.200734  0.200212  1
  Ni  Ni24  1  0.000000  0.003486  0.998084  1
  Ni  Ni25  1  0.000000  0.402945  0.399069  1
  Ni  Ni26  1  0.000000  0.698828  0.201220  1
  Ni  Ni27  1  0.500000  0.998934  0.499832  1
  Ni  Ni28  1  0.500000  0.296791  0.301342  1
  Ni  Ni29  1  0.500000  0.397408  0.900343  1
  Ni  Ni30  1  0.500000  0.701730  0.699814  1
  Ni  Ni31  1  0.500000  0.500079  0.499584  1
  Ni  Ni32  1  0.500000  0.803001  0.299249  1
  Ni  Ni33  1  0.500000  0.095269  0.101933  1
  Ni  Ni34  1  0.500000  0.900188  0.900589  1
  Ni  Ni35  1  0.500000  0.202894  0.696987  1
  O  O36  1  0.000000  0.614777  0.497865  1
  O  O37  1  0.000000  0.386418  0.501200  1
  O  O38  1  0.000000  0.882018  0.498569  1
  O  O39  1  0.000000  0.912003  0.299659  1
  O  O40  1  0.000000  0.976627  0.100858  1
  O  O41  1  0.000000  0.504250  0.901194  1
  O  O42  1  0.000000  0.006391  0.899701  1
  O  O43  1  0.000000  0.793838  0.902009  1
  O  O44  1  0.000000  0.084944  0.693093  1
  O  O45  1  0.000000  0.112078  0.511116  1
  O  O46  1  0.000000  0.405340  0.301271  1
  O  O47  1  0.000000  0.187513  0.291450  1
  O  O48  1  0.000000  0.696894  0.299430  1
  O  O49  1  0.000000  0.488715  0.099093  1
  O  O50  1  0.000000  0.711661  0.099283  1
  O  O51  1  0.000000  0.291937  0.898762  1
  O  O52  1  0.000000  0.321542  0.697882  1
  O  O53  1  0.000000  0.815072  0.700518  1
  O  O54  1  0.000000  0.588490  0.698415  1
  O  O55  1  0.000000  0.213942  0.108943  1
  O  O56  1  0.500000  0.381076  0.991335  1
  O  O57  1  0.500000  0.415061  0.809610  1
  O  O58  1  0.500000  0.490360  0.592090  1
  O  O59  1  0.500000  0.111411  0.005554  1
  O  O60  1  0.500000  0.891169  0.991173  1
  O  O61  1  0.500000  0.909479  0.809874  1
  O  O62  1  0.500000  0.689134  0.796426  1
  O  O63  1  0.500000  0.186194  0.787815  1
  O  O64  1  0.500000  0.987144  0.600433  1
  O  O65  1  0.500000  0.210587  0.604769  1
  O  O66  1  0.500000  0.004883  0.401554  1
  O  O67  1  0.500000  0.512174  0.408828  1
  O  O68  1  0.500000  0.295070  0.398291  1
  O  O69  1  0.500000  0.584301  0.188050  1
  O  O70  1  0.500000  0.614741  0.011007  1
  O  O71  1  0.500000  0.714213  0.599362  1
  O  O72  1  0.500000  0.786302  0.391107  1
  O  O73  1  0.500000  0.818598  0.209171  1
  O  O74  1  0.500000  0.309526  0.199377  1
  O  O75  1  0.500000  0.090414  0.202156  1
