# generated using pymatgen
data_Ba5Ru2O11
_symmetry_space_group_name_H-M   'P 1'
_cell_length_a   6.05838425
_cell_length_b   6.07543155
_cell_length_c   18.27009760
_cell_angle_alpha   90.46765122
_cell_angle_beta   89.76490036
_cell_angle_gamma   120.09447918
_symmetry_Int_Tables_number   1
_chemical_formula_structural   Ba5Ru2O11
_chemical_formula_sum   'Ba10 Ru4 O22'
_cell_volume   581.80403416
_cell_formula_units_Z   2
loop_
 _symmetry_equiv_pos_site_id
 _symmetry_equiv_pos_as_xyz
  1  'x, y, z'
loop_
 _atom_site_type_symbol
 _atom_site_label
 _atom_site_symmetry_multiplicity
 _atom_site_fract_x
 _atom_site_fract_y
 _atom_site_fract_z
 _atom_site_occupancy
  Ba  Ba0  1  0.330562  0.659654  0.016636  1
  Ba  Ba1  1  0.332462  0.666382  0.250008  1
  Ba  Ba2  1  0.001193  0.002553  0.139458  1
  Ba  Ba3  1  0.001198  0.998705  0.360545  1
  Ba  Ba4  1  0.998781  0.001349  0.639454  1
  Ba  Ba5  1  0.998790  0.997510  0.860545  1
  Ba  Ba6  1  0.330562  0.670902  0.483367  1
  Ba  Ba7  1  0.669440  0.329079  0.516641  1
  Ba  Ba8  1  0.669412  0.340351  0.983365  1
  Ba  Ba9  1  0.667547  0.333909  0.750007  1
  Ru  Ru10  1  0.333859  0.667430  0.673175  1
  Ru  Ru11  1  0.333794  0.666397  0.826830  1
  Ru  Ru12  1  0.666185  0.333619  0.173188  1
  Ru  Ru13  1  0.666174  0.332576  0.326812  1
  O  O14  1  0.071371  0.928682  0.500735  1
  O  O15  1  0.021813  0.510790  0.880838  1
  O  O16  1  0.021930  0.510743  0.619141  1
  O  O17  1  0.186798  0.814425  0.750519  1
  O  O18  1  0.487725  0.975077  0.884614  1
  O  O19  1  0.186909  0.372380  0.749472  1
  O  O20  1  0.071336  0.142647  0.999266  1
  O  O21  1  0.489404  0.977473  0.619301  1
  O  O22  1  0.629862  0.814983  0.750007  1
  O  O23  1  0.488113  0.512943  0.615401  1
  O  O24  1  0.489509  0.512054  0.880695  1
  O  O25  1  0.510460  0.487938  0.119292  1
  O  O26  1  0.511827  0.486916  0.384622  1
  O  O27  1  0.370125  0.184922  0.249996  1
  O  O28  1  0.813019  0.627629  0.250527  1
  O  O29  1  0.928669  0.857342  0.000730  1
  O  O30  1  0.512267  0.024911  0.115388  1
  O  O31  1  0.510860  0.022486  0.380684  1
  O  O32  1  0.813230  0.185634  0.249471  1
  O  O33  1  0.978147  0.489377  0.380843  1
  O  O34  1  0.978185  0.489229  0.119161  1
  O  O35  1  0.928687  0.071302  0.499266  1
