# generated using pymatgen
data_Sc3Si3Ni
_symmetry_space_group_name_H-M   'P 1'
_cell_length_a   3.98181279
_cell_length_b   5.30280268
_cell_length_c   12.19269074
_cell_angle_alpha   84.37694054
_cell_angle_beta   80.60226979
_cell_angle_gamma   67.94823156
_symmetry_Int_Tables_number   1
_chemical_formula_structural   Sc3Si3Ni
_chemical_formula_sum   'Sc6 Si6 Ni2'
_cell_volume   235.22042088
_cell_formula_units_Z   2
loop_
 _symmetry_equiv_pos_site_id
 _symmetry_equiv_pos_as_xyz
  1  'x, y, z'
loop_
 _atom_site_type_symbol
 _atom_site_label
 _atom_site_symmetry_multiplicity
 _atom_site_fract_x
 _atom_site_fract_y
 _atom_site_fract_z
 _atom_site_occupancy
  Si  Si0  1  0.961338  0.840768  0.236556  1
  Si  Si1  1  0.867354  0.719573  0.545718  1
  Si  Si2  1  0.132646  0.280427  0.454282  1
  Si  Si3  1  0.117811  0.840053  0.924326  1
  Si  Si4  1  0.038662  0.159232  0.763444  1
  Si  Si5  1  0.882189  0.159947  0.075674  1
  Sc  Sc6  1  0.600782  0.719342  0.079094  1
  Sc  Sc7  1  0.475103  0.671130  0.378665  1
  Sc  Sc8  1  0.742684  0.740990  0.773642  1
  Sc  Sc9  1  0.524897  0.328870  0.621335  1
  Sc  Sc10  1  0.399218  0.280658  0.920906  1
  Sc  Sc11  1  0.257316  0.259010  0.226358  1
  Ni  Ni12  1  0.243391  0.917632  0.595587  1
  Ni  Ni13  1  0.756609  0.082368  0.404413  1
