# generated using pymatgen
data_LiCoPO4
_symmetry_space_group_name_H-M   'P 1'
_cell_length_a   10.57721243
_cell_length_b   10.57721266
_cell_length_c   12.35876534
_cell_angle_alpha   90.00000000
_cell_angle_beta   90.00000000
_cell_angle_gamma   120.00000236
_symmetry_Int_Tables_number   1
_chemical_formula_structural   LiCoPO4
_chemical_formula_sum   'Li12 Co12 P12 O48'
_cell_volume   1197.42458480
_cell_formula_units_Z   12
loop_
 _symmetry_equiv_pos_site_id
 _symmetry_equiv_pos_as_xyz
  1  'x, y, z'
loop_
 _atom_site_type_symbol
 _atom_site_label
 _atom_site_symmetry_multiplicity
 _atom_site_fract_x
 _atom_site_fract_y
 _atom_site_fract_z
 _atom_site_occupancy
  Li  Li0  1  0.000000  0.500000  0.005603  1
  Li  Li1  1  0.000000  0.500000  0.661064  1
  Li  Li2  1  0.000000  0.500000  0.333333  1
  Li  Li3  1  0.000000  0.000000  0.166667  1
  Li  Li4  1  0.000000  0.000000  0.500000  1
  Li  Li5  1  0.000000  0.000000  0.833333  1
  Li  Li6  1  0.500000  0.500000  0.338936  1
  Li  Li7  1  0.500000  0.500000  0.666667  1
  Li  Li8  1  0.500000  0.500000  0.994397  1
  Li  Li9  1  0.500000  0.000000  0.327731  1
  Li  Li10  1  0.500000  0.000000  0.000000  1
  Li  Li11  1  0.500000  0.000000  0.672269  1
  Co  Co12  1  1.000000  0.749459  0.833333  1
  Co  Co13  1  0.000000  0.250541  0.833333  1
  Co  Co14  1  0.249438  0.750562  0.166667  1
  Co  Co15  1  0.249438  0.498876  0.500000  1
  Co  Co16  1  0.501124  0.750562  0.833333  1
  Co  Co17  1  0.250541  0.250541  0.166667  1
  Co  Co18  1  0.250541  0.000000  0.500000  1
  Co  Co19  1  0.749459  0.749459  0.166667  1
  Co  Co20  1  0.498876  0.249438  0.833333  1
  Co  Co21  1  0.750562  0.501124  0.500000  1
  Co  Co22  1  0.750562  0.249438  0.166667  1
  Co  Co23  1  0.749459  1.000000  0.500000  1
  P  P24  1  0.000000  0.755412  0.333333  1
  P  P25  1  0.247923  0.752077  0.666667  1
  P  P26  1  0.000000  0.244588  0.333333  1
  P  P27  1  0.247923  0.495846  0.000000  1
  P  P28  1  0.244588  0.244588  0.666667  1
  P  P29  1  0.504154  0.752077  0.333333  1
  P  P30  1  0.244588  0.000000  0.000000  1
  P  P31  1  0.495846  0.247923  0.333333  1
  P  P32  1  0.755412  0.755412  0.666667  1
  P  P33  1  0.752077  0.504154  0.000000  1
  P  P34  1  0.752077  0.247923  0.666667  1
  P  P35  1  0.755412  0.000000  0.000000  1
  O  O36  1  0.067216  0.877280  0.420625  1
  O  O37  1  0.122720  0.932784  0.912708  1
  O  O38  1  0.103623  0.698105  0.730809  1
  O  O39  1  0.111036  0.716950  0.282337  1
  O  O40  1  0.283050  0.888964  0.050997  1
  O  O41  1  0.301895  0.896377  0.602524  1
  O  O42  1  0.202282  0.618817  0.591835  1
  O  O43  1  0.103623  0.405518  0.935857  1
  O  O44  1  0.202282  0.583465  0.074831  1
  O  O45  1  0.111036  0.394085  0.384330  1
  O  O46  1  0.067216  0.189935  0.246041  1
  O  O47  1  0.381183  0.797718  0.741498  1
  O  O48  1  0.416535  0.797718  0.258502  1
  O  O49  1  0.122720  0.189935  0.753959  1
  O  O50  1  0.283050  0.394085  0.615670  1
  O  O51  1  0.381183  0.583465  0.925169  1
  O  O52  1  0.301895  0.405518  0.064143  1
  O  O53  1  0.416535  0.618817  0.408165  1
  O  O54  1  0.189935  0.122720  0.579375  1
  O  O55  1  0.189935  0.067216  0.087292  1
  O  O56  1  0.594482  0.896377  0.397476  1
  O  O57  1  0.605915  0.888964  0.949003  1
  O  O58  1  0.605915  0.716950  0.717663  1
  O  O59  1  0.405518  0.301895  0.269191  1
  O  O60  1  0.594482  0.698105  0.269191  1
  O  O61  1  0.394085  0.283050  0.717663  1
  O  O62  1  0.394085  0.111036  0.949003  1
  O  O63  1  0.405518  0.103623  0.397476  1
  O  O64  1  0.810065  0.932784  0.087292  1
  O  O65  1  0.810065  0.877280  0.579375  1
  O  O66  1  0.583465  0.381183  0.408165  1
  O  O67  1  0.698105  0.594482  0.064143  1
  O  O68  1  0.618817  0.416535  0.925169  1
  O  O69  1  0.716950  0.605915  0.615670  1
  O  O70  1  0.877280  0.810065  0.753959  1
  O  O71  1  0.583465  0.202282  0.258502  1
  O  O72  1  0.618817  0.202282  0.741498  1
  O  O73  1  0.932784  0.810065  0.246041  1
  O  O74  1  0.888964  0.605915  0.384330  1
  O  O75  1  0.797718  0.416535  0.074831  1
  O  O76  1  0.896377  0.594482  0.935857  1
  O  O77  1  0.797718  0.381183  0.591835  1
  O  O78  1  0.698105  0.103623  0.602524  1
  O  O79  1  0.716950  0.111036  0.050997  1
  O  O80  1  0.888964  0.283050  0.282337  1
  O  O81  1  0.896377  0.301895  0.730809  1
  O  O82  1  0.877280  0.067216  0.912708  1
  O  O83  1  0.932784  0.122720  0.420625  1
