# generated using pymatgen
data_Ca6Sn5S16
_symmetry_space_group_name_H-M   'P 1'
_cell_length_a   5.00236030
_cell_length_b   5.00236030
_cell_length_c   26.85353194
_cell_angle_alpha   95.34735465
_cell_angle_beta   95.34735465
_cell_angle_gamma   90.00178401
_symmetry_Int_Tables_number   1
_chemical_formula_structural   Ca6Sn5S16
_chemical_formula_sum   'Ca6 Sn5 S16'
_cell_volume   666.11042269
_cell_formula_units_Z   1
loop_
 _symmetry_equiv_pos_site_id
 _symmetry_equiv_pos_as_xyz
  1  'x, y, z'
loop_
 _atom_site_type_symbol
 _atom_site_label
 _atom_site_symmetry_multiplicity
 _atom_site_fract_x
 _atom_site_fract_y
 _atom_site_fract_z
 _atom_site_occupancy
  Ca  Ca0  1  0.545726  0.545726  0.091459  1
  Ca  Ca1  1  0.454274  0.454274  0.908541  1
  Ca  Ca2  1  0.631850  0.631850  0.263692  1
  Ca  Ca3  1  0.368150  0.368150  0.736308  1
  Ca  Ca4  1  0.713157  0.713157  0.426322  1
  Ca  Ca5  1  0.286843  0.286843  0.573678  1
  Sn  Sn6  1  0.000000  0.000000  0.000000  1
  Sn  Sn7  1  0.094443  0.094443  0.188948  1
  Sn  Sn8  1  0.905557  0.905557  0.811052  1
  Sn  Sn9  1  0.190945  0.190945  0.381758  1
  Sn  Sn10  1  0.809055  0.809055  0.618242  1
  S  S11  1  0.046552  0.046552  0.093072  1
  S  S12  1  0.953448  0.953448  0.906928  1
  S  S13  1  0.139879  0.139879  0.279736  1
  S  S14  1  0.860121  0.860121  0.720264  1
  S  S15  1  0.235314  0.235314  0.470634  1
  S  S16  1  0.764686  0.764686  0.529366  1
  S  S17  1  0.680245  0.180243  0.360526  1
  S  S18  1  0.819757  0.319755  0.639474  1
  S  S19  1  0.319755  0.819757  0.639474  1
  S  S20  1  0.180243  0.680245  0.360526  1
  S  S21  1  0.589981  0.089974  0.179915  1
  S  S22  1  0.910026  0.410019  0.820085  1
  S  S23  1  0.410019  0.910026  0.820085  1
  S  S24  1  0.089974  0.589981  0.179915  1
  S  S25  1  0.500000  0.000000  0.000000  1
  S  S26  1  0.000000  0.500000  0.000000  1
