# generated using pymatgen
data_Li4VF6
_symmetry_space_group_name_H-M   'P 1'
_cell_length_a   5.29732788
_cell_length_b   5.49930578
_cell_length_c   11.38887074
_cell_angle_alpha   97.93056087
_cell_angle_beta   76.55140869
_cell_angle_gamma   61.20782007
_symmetry_Int_Tables_number   1
_chemical_formula_structural   Li4VF6
_chemical_formula_sum   'Li8 V2 F12'
_cell_volume   270.35026179
_cell_formula_units_Z   2
loop_
 _symmetry_equiv_pos_site_id
 _symmetry_equiv_pos_as_xyz
  1  'x, y, z'
loop_
 _atom_site_type_symbol
 _atom_site_label
 _atom_site_symmetry_multiplicity
 _atom_site_fract_x
 _atom_site_fract_y
 _atom_site_fract_z
 _atom_site_occupancy
  Li  Li0  1  0.197110  0.803383  0.074724  1
  Li  Li1  1  0.832247  0.535806  0.174970  1
  Li  Li2  1  0.478051  0.357457  0.304414  1
  Li  Li3  1  0.360055  0.857507  0.804393  1
  Li  Li4  1  0.804308  0.651315  0.446699  1
  Li  Li5  1  0.424780  0.303362  0.574729  1
  Li  Li6  1  0.597679  0.151343  0.946679  1
  Li  Li7  1  0.956986  0.035794  0.674964  1
  V  V8  1  0.011562  0.030779  0.352903  1
  V  V9  1  0.104790  0.530807  0.852910  1
  F  F10  1  0.152646  0.462151  0.030747  1
  F  F11  1  0.407878  0.648187  0.212862  1
  F  F12  1  0.801821  0.804807  0.307830  1
  F  F13  1  0.015334  0.941125  0.947378  1
  F  F14  1  0.183624  0.294037  0.403121  1
  F  F15  1  0.185713  0.669047  0.696861  1
  F  F16  1  0.854486  0.962124  0.530738  1
  F  F17  1  0.596239  0.441080  0.447357  1
  F  F18  1  0.948254  0.169070  0.196865  1
  F  F19  1  0.619196  0.794088  0.903099  1
  F  F20  1  0.231093  0.148193  0.712816  1
  F  F21  1  0.585569  0.304840  0.807803  1
