# generated using pymatgen
data_Rb2MnTe2
_symmetry_space_group_name_H-M   'P 1'
_cell_length_a   7.15694562
_cell_length_b   7.73871826
_cell_length_c   9.09730141
_cell_angle_alpha   115.17158039
_cell_angle_beta   113.16344518
_cell_angle_gamma   89.99999997
_symmetry_Int_Tables_number   1
_chemical_formula_structural   Rb2MnTe2
_chemical_formula_sum   'Rb4 Mn2 Te4'
_cell_volume   410.68882485
_cell_formula_units_Z   2
loop_
 _symmetry_equiv_pos_site_id
 _symmetry_equiv_pos_as_xyz
  1  'x, y, z'
loop_
 _atom_site_type_symbol
 _atom_site_label
 _atom_site_symmetry_multiplicity
 _atom_site_fract_x
 _atom_site_fract_y
 _atom_site_fract_z
 _atom_site_occupancy
  Mn  Mn0  1  0.750000  0.000000  0.000000  1
  Mn  Mn1  1  0.250000  0.000000  0.000000  1
  Rb  Rb2  1  0.143663  0.467680  0.287326  1
  Rb  Rb3  1  0.643663  0.819646  0.287326  1
  Rb  Rb4  1  0.856337  0.532320  0.712674  1
  Rb  Rb5  1  0.356337  0.180354  0.712674  1
  Te  Te6  1  0.896504  0.085017  0.793007  1
  Te  Te7  1  0.103496  0.914983  0.206993  1
  Te  Te8  1  0.603496  0.292010  0.206993  1
  Te  Te9  1  0.396504  0.707990  0.793007  1
