# generated using pymatgen
data_LiFe4(BO3)4
_symmetry_space_group_name_H-M   'P 1'
_cell_length_a   5.31194336
_cell_length_b   9.04522182
_cell_length_c   11.43746176
_cell_angle_alpha   113.41202668
_cell_angle_beta   76.84118132
_cell_angle_gamma   89.83212876
_symmetry_Int_Tables_number   1
_chemical_formula_structural   LiFe4(BO3)4
_chemical_formula_sum   'Li2 Fe8 B8 O24'
_cell_volume   488.37004669
_cell_formula_units_Z   2
loop_
 _symmetry_equiv_pos_site_id
 _symmetry_equiv_pos_as_xyz
  1  'x, y, z'
loop_
 _atom_site_type_symbol
 _atom_site_label
 _atom_site_symmetry_multiplicity
 _atom_site_fract_x
 _atom_site_fract_y
 _atom_site_fract_z
 _atom_site_occupancy
  Li  Li0  1  0.184672  0.161676  0.336065  1
  Li  Li1  1  0.933863  0.426330  0.842141  1
  Fe  Fe2  1  0.405855  0.272010  0.873280  1
  Fe  Fe3  1  0.092081  0.232553  0.121086  1
  Fe  Fe4  1  0.835252  0.140981  0.623736  1
  Fe  Fe5  1  0.654219  0.352289  0.374962  1
  Fe  Fe6  1  0.352175  0.646170  0.622262  1
  Fe  Fe7  1  0.150353  0.842389  0.370921  1
  Fe  Fe8  1  0.904009  0.778020  0.871922  1
  Fe  Fe9  1  0.599562  0.724673  0.121026  1
  B  B10  1  0.639495  0.015124  0.369647  1
  B  B11  1  0.902980  0.105683  0.872471  1
  B  B12  1  0.149776  0.514348  0.373911  1
  B  B13  1  0.390873  0.607263  0.871449  1
  B  B14  1  0.848173  0.486555  0.632509  1
  B  B15  1  0.604852  0.391392  0.119963  1
  B  B16  1  0.350168  0.978353  0.618319  1
  B  B17  1  0.096744  0.892795  0.126443  1
  O  O18  1  0.106970  0.152063  0.930435  1
  O  O19  1  0.468001  0.121128  0.660041  1
  O  O20  1  0.169716  0.042315  0.148607  1
  O  O21  1  0.516937  0.147142  0.373319  1
  O  O22  1  0.874077  0.023801  0.412538  1
  O  O23  1  0.814635  0.206365  0.818587  1
  O  O24  1  0.274266  0.474964  0.870728  1
  O  O25  1  0.061029  0.361080  0.324237  1
  O  O26  1  0.723689  0.301071  0.169303  1
  O  O27  1  0.639436  0.486751  0.580586  1
  O  O28  1  0.933429  0.351235  0.644434  1
  O  O29  1  0.383147  0.344349  0.077637  1
  O  O30  1  0.625555  0.641520  0.914525  1
  O  O31  1  0.350015  0.529486  0.435480  1
  O  O32  1  0.287251  0.715584  0.830381  1
  O  O33  1  0.971400  0.628244  0.677100  1
  O  O34  1  0.712301  0.524066  0.107553  1
  O  O35  1  0.219565  0.791063  0.167865  1
  O  O36  1  0.134348  0.977485  0.564510  1
  O  O37  1  0.442074  0.846286  0.627669  1
  O  O38  1  0.045084  0.643720  0.361191  1
  O  O39  1  0.790835  0.968694  0.865883  1
  O  O40  1  0.539805  0.862983  0.322704  1
  O  O41  1  0.889827  0.837842  0.068254  1
