# generated using pymatgen
data_LaHg3
_symmetry_space_group_name_H-M   'P 1'
_cell_length_a   6.94391887
_cell_length_b   6.94453852
_cell_length_c   5.12080924
_cell_angle_alpha   90.00000000
_cell_angle_beta   90.00000000
_cell_angle_gamma   119.98710613
_symmetry_Int_Tables_number   1
_chemical_formula_structural   LaHg3
_chemical_formula_sum   'La2 Hg6'
_cell_volume   213.88172118
_cell_formula_units_Z   2
loop_
 _symmetry_equiv_pos_site_id
 _symmetry_equiv_pos_as_xyz
  1  'x, y, z'
loop_
 _atom_site_type_symbol
 _atom_site_label
 _atom_site_symmetry_multiplicity
 _atom_site_fract_x
 _atom_site_fract_y
 _atom_site_fract_z
 _atom_site_occupancy
  La  La0  1  0.666709  0.333285  0.250000  1
  La  La1  1  0.333329  0.666720  0.750000  1
  Hg  Hg2  1  0.837794  0.162185  0.750000  1
  Hg  Hg3  1  0.324440  0.162229  0.750000  1
  Hg  Hg4  1  0.837758  0.675552  0.750000  1
  Hg  Hg5  1  0.162194  0.837797  0.250000  1
  Hg  Hg6  1  0.675553  0.837775  0.250000  1
  Hg  Hg7  1  0.162222  0.324451  0.250000  1
