# generated using pymatgen
data_Ba2Tb2Mn4O11
_symmetry_space_group_name_H-M   'P 1'
_cell_length_a   9.61076861
_cell_length_b   7.67398233
_cell_length_c   15.56691533
_cell_angle_alpha   90.00000000
_cell_angle_beta   35.91692559
_cell_angle_gamma   113.53059712
_symmetry_Int_Tables_number   1
_chemical_formula_structural   Ba2Tb2Mn4O11
_chemical_formula_sum   'Ba4 Tb4 Mn8 O22'
_cell_volume   493.44681379
_cell_formula_units_Z   2
loop_
 _symmetry_equiv_pos_site_id
 _symmetry_equiv_pos_as_xyz
  1  'x, y, z'
loop_
 _atom_site_type_symbol
 _atom_site_label
 _atom_site_symmetry_multiplicity
 _atom_site_fract_x
 _atom_site_fract_y
 _atom_site_fract_z
 _atom_site_occupancy
  Tb  Tb0  1  0.552397  0.776198  0.727350  1
  Tb  Tb1  1  0.447603  0.223802  0.272650  1
  Tb  Tb2  1  0.447603  0.723802  0.279747  1
  Tb  Tb3  1  0.552397  0.276198  0.720253  1
  Ba  Ba4  1  0.496428  0.748214  0.002861  1
  Ba  Ba5  1  0.503572  0.251786  0.997139  1
  Ba  Ba6  1  0.503572  0.751786  0.499289  1
  Ba  Ba7  1  0.496428  0.248214  0.500711  1
  Mn  Mn8  1  0.000000  0.750000  0.114242  1
  Mn  Mn9  1  0.000000  0.750000  0.885758  1
  Mn  Mn10  1  0.000000  0.250000  0.885758  1
  Mn  Mn11  1  0.000000  0.250000  0.114242  1
  Mn  Mn12  1  0.000000  0.750000  0.375652  1
  Mn  Mn13  1  0.000000  0.750000  0.624348  1
  Mn  Mn14  1  0.000000  0.250000  0.624348  1
  Mn  Mn15  1  0.000000  0.250000  0.375652  1
  O  O16  1  0.463941  0.015906  0.867554  1
  O  O17  1  0.536059  0.551965  0.132446  1
  O  O18  1  0.536059  0.484094  0.331496  1
  O  O19  1  0.463941  0.948035  0.668504  1
  O  O20  1  0.536059  0.984094  0.132446  1
  O  O21  1  0.463941  0.448035  0.867554  1
  O  O22  1  0.463941  0.515906  0.668504  1
  O  O23  1  0.536059  0.051965  0.331496  1
  O  O24  1  0.000000  0.750000  0.251354  1
  O  O25  1  0.000000  0.750000  0.748646  1
  O  O26  1  0.000000  0.250000  0.748646  1
  O  O27  1  0.000000  0.250000  0.251354  1
  O  O28  1  0.088314  0.544157  0.047060  1
  O  O29  1  0.911686  0.455843  0.952940  1
  O  O30  1  0.911686  0.955843  0.135374  1
  O  O31  1  0.088314  0.044157  0.864626  1
  O  O32  1  0.940899  0.470450  0.415048  1
  O  O33  1  0.059101  0.529550  0.584952  1
  O  O34  1  0.059101  0.029550  0.355947  1
  O  O35  1  0.940899  0.970450  0.644053  1
  O  O36  1  0.000000  0.750000  0.500000  1
  O  O37  1  0.000000  0.250000  0.500000  1
