# generated using pymatgen
data_Li7Mn8(BO3)8
_symmetry_space_group_name_H-M   'P 1'
_cell_length_a   5.28573154
_cell_length_b   9.10311573
_cell_length_c   11.65780193
_cell_angle_alpha   66.81668836
_cell_angle_beta   78.73138376
_cell_angle_gamma   90.47015152
_symmetry_Int_Tables_number   1
_chemical_formula_structural   Li7Mn8(BO3)8
_chemical_formula_sum   'Li7 Mn8 B8 O24'
_cell_volume   503.43832393
_cell_formula_units_Z   1
loop_
 _symmetry_equiv_pos_site_id
 _symmetry_equiv_pos_as_xyz
  1  'x, y, z'
loop_
 _atom_site_type_symbol
 _atom_site_label
 _atom_site_symmetry_multiplicity
 _atom_site_fract_x
 _atom_site_fract_y
 _atom_site_fract_z
 _atom_site_occupancy
  Li  Li0  1  0.131309  0.287954  0.414775  1
  Li  Li1  1  0.328174  0.150893  0.665305  1
  Li  Li2  1  0.572881  0.436129  0.162996  1
  Li  Li3  1  0.074413  0.930982  0.167300  1
  Li  Li4  1  0.390923  0.539140  0.915056  1
  Li  Li5  1  0.638113  0.791964  0.406936  1
  Li  Li6  1  0.829278  0.648471  0.673667  1
  Mn  Mn7  1  0.087866  0.273451  0.128129  1
  Mn  Mn8  1  0.645256  0.145507  0.380262  1
  Mn  Mn9  1  0.385150  0.212467  0.884889  1
  Mn  Mn10  1  0.146617  0.640902  0.383050  1
  Mn  Mn11  1  0.845640  0.343208  0.639062  1
  Mn  Mn12  1  0.597313  0.785432  0.127759  1
  Mn  Mn13  1  0.346902  0.838120  0.626666  1
  Mn  Mn14  1  0.908738  0.745779  0.880037  1
  B  B15  1  0.593882  0.110211  0.131294  1
  B  B16  1  0.853125  0.016644  0.629847  1
  B  B17  1  0.114625  0.618291  0.117851  1
  B  B18  1  0.647934  0.482794  0.373338  1
  B  B19  1  0.360654  0.514265  0.622799  1
  B  B20  1  0.894431  0.399868  0.875554  1
  B  B21  1  0.143290  0.982603  0.374715  1
  B  B22  1  0.393285  0.879805  0.870563  1
  O  O23  1  0.354072  0.114356  0.095218  1
  O  O24  1  0.053750  0.135241  0.342063  1
  O  O25  1  0.013506  0.148399  0.607275  1
  O  O26  1  0.677828  0.231814  0.164787  1
  O  O27  1  0.615111  0.032068  0.594383  1
  O  O28  1  0.255587  0.495830  0.109150  1
  O  O29  1  0.279242  0.016945  0.849570  1
  O  O30  1  0.506387  0.366293  0.357177  1
  O  O31  1  0.190886  0.723692  0.166698  1
  O  O32  1  0.436268  0.359509  0.661227  1
  O  O33  1  0.879367  0.641237  0.072567  1
  O  O34  1  0.115048  0.545336  0.593637  1
  O  O35  1  0.876973  0.450449  0.416954  1
  O  O36  1  0.128465  0.377012  0.917194  1
  O  O37  1  0.560523  0.636548  0.339007  1
  O  O38  1  0.785802  0.289705  0.839792  1
  O  O39  1  0.007451  0.862236  0.362011  1
  O  O40  1  0.525505  0.643155  0.608437  1
  O  O41  1  0.741746  0.986131  0.137359  1
  O  O42  1  0.771958  0.538460  0.865349  1
  O  O43  1  0.371930  0.952218  0.420743  1
  O  O44  1  0.292888  0.757728  0.839349  1
  O  O45  1  0.933830  0.859224  0.686876  1
  O  O46  1  0.608487  0.847600  0.925356  1
