# generated using pymatgen
data_Mn2OF3
_symmetry_space_group_name_H-M   'P 1'
_cell_length_a   4.76908839
_cell_length_b   11.04172597
_cell_length_c   5.70959957
_cell_angle_alpha   82.82142690
_cell_angle_beta   90.00000000
_cell_angle_gamma   90.00000000
_symmetry_Int_Tables_number   1
_chemical_formula_structural   Mn2OF3
_chemical_formula_sum   'Mn8 O4 F12'
_cell_volume   298.30488078
_cell_formula_units_Z   4
loop_
 _symmetry_equiv_pos_site_id
 _symmetry_equiv_pos_as_xyz
  1  'x, y, z'
loop_
 _atom_site_type_symbol
 _atom_site_label
 _atom_site_symmetry_multiplicity
 _atom_site_fract_x
 _atom_site_fract_y
 _atom_site_fract_z
 _atom_site_occupancy
  Mn  Mn0  1  0.500000  0.000000  0.500000  1
  Mn  Mn1  1  0.500000  0.500000  0.000000  1
  Mn  Mn2  1  0.532338  0.733268  0.260230  1
  Mn  Mn3  1  0.467662  0.266732  0.739770  1
  Mn  Mn4  1  0.032338  0.766732  0.739770  1
  Mn  Mn5  1  0.000000  0.500000  0.500000  1
  Mn  Mn6  1  0.967662  0.233268  0.260230  1
  Mn  Mn7  1  0.000000  0.000000  0.000000  1
  O  O8  1  0.796659  0.061860  0.264003  1
  O  O9  1  0.703341  0.561860  0.264003  1
  O  O10  1  0.296659  0.438140  0.735997  1
  O  O11  1  0.203341  0.938140  0.735997  1
  F  F12  1  0.800639  0.586740  0.763309  1
  F  F13  1  0.815550  0.326050  0.535519  1
  F  F14  1  0.807107  0.831427  0.025878  1
  F  F15  1  0.684450  0.826050  0.535519  1
  F  F16  1  0.699361  0.086740  0.763309  1
  F  F17  1  0.692893  0.331427  0.025878  1
  F  F18  1  0.315550  0.173950  0.464481  1
  F  F19  1  0.300639  0.913260  0.236691  1
  F  F20  1  0.307107  0.668573  0.974122  1
  F  F21  1  0.192893  0.168573  0.974122  1
  F  F22  1  0.184450  0.673950  0.464481  1
  F  F23  1  0.199361  0.413260  0.236691  1
