# generated using pymatgen
data_Na7V2O6
_symmetry_space_group_name_H-M   'P 1'
_cell_length_a   5.83243517
_cell_length_b   8.16193175
_cell_length_c   10.69702027
_cell_angle_alpha   76.37890607
_cell_angle_beta   90.00000003
_cell_angle_gamma   69.06583726
_symmetry_Int_Tables_number   1
_chemical_formula_structural   Na7V2O6
_chemical_formula_sum   'Na14 V4 O12'
_cell_volume   460.24052300
_cell_formula_units_Z   2
loop_
 _symmetry_equiv_pos_site_id
 _symmetry_equiv_pos_as_xyz
  1  'x, y, z'
loop_
 _atom_site_type_symbol
 _atom_site_label
 _atom_site_symmetry_multiplicity
 _atom_site_fract_x
 _atom_site_fract_y
 _atom_site_fract_z
 _atom_site_occupancy
  Na  Na0  1  0.697169  0.877081  0.649979  1
  Na  Na1  1  0.576029  0.661871  0.906425  1
  Na  Na2  1  0.425750  0.877081  0.149979  1
  Na  Na3  1  0.187993  0.546955  0.807644  1
  Na  Na4  1  0.762100  0.661871  0.406425  1
  Na  Na5  1  0.734948  0.453045  0.692356  1
  Na  Na6  1  0.265052  0.546955  0.307644  1
  Na  Na7  1  0.237900  0.338129  0.593575  1
  Na  Na8  1  0.812007  0.453045  0.192356  1
  Na  Na9  1  0.574250  0.122919  0.850021  1
  Na  Na10  1  0.423971  0.338129  0.093575  1
  Na  Na11  1  0.078041  0.000000  0.750000  1
  Na  Na12  1  0.302831  0.122919  0.350021  1
  Na  Na13  1  0.921959  1.000000  0.250000  1
  V  V14  1  0.229098  0.763409  0.535522  1
  V  V15  1  0.007493  0.763409  0.035522  1
  V  V16  1  0.992507  0.236591  0.964478  1
  V  V17  1  0.770902  0.236591  0.464478  1
  O  O18  1  0.858189  0.813788  0.874536  1
  O  O19  1  0.394179  0.751737  0.689481  1
  O  O20  1  0.328024  0.813788  0.374536  1
  O  O21  1  0.009084  0.647677  0.584227  1
  O  O22  1  0.854084  0.751737  0.189481  1
  O  O23  1  0.656762  0.352323  0.915773  1
  O  O24  1  0.343238  0.647677  0.084227  1
  O  O25  1  0.145916  0.248263  0.810519  1
  O  O26  1  0.990916  0.352323  0.415773  1
  O  O27  1  0.671976  0.186212  0.625464  1
  O  O28  1  0.605821  0.248263  0.310519  1
  O  O29  1  0.141811  0.186212  0.125464  1
