# generated using pymatgen
data_Ti3O5
_symmetry_space_group_name_H-M   'P 1'
_cell_length_a   3.79649257
_cell_length_b   5.29929508
_cell_length_c   10.07120822
_cell_angle_alpha   90.00000000
_cell_angle_beta   90.00000000
_cell_angle_gamma   110.99014207
_symmetry_Int_Tables_number   1
_chemical_formula_structural   Ti3O5
_chemical_formula_sum   'Ti6 O10'
_cell_volume   189.17452198
_cell_formula_units_Z   2
loop_
 _symmetry_equiv_pos_site_id
 _symmetry_equiv_pos_as_xyz
  1  'x, y, z'
loop_
 _atom_site_type_symbol
 _atom_site_label
 _atom_site_symmetry_multiplicity
 _atom_site_fract_x
 _atom_site_fract_y
 _atom_site_fract_z
 _atom_site_occupancy
  O  O0  1  0.267483  0.534965  0.750000  1
  O  O1  1  0.732517  0.465035  0.250000  1
  O  O2  1  0.551483  0.102965  0.877313  1
  O  O3  1  0.448517  0.897035  0.122687  1
  O  O4  1  0.448517  0.897035  0.377313  1
  O  O5  1  0.551483  0.102965  0.622687  1
  O  O6  1  0.182928  0.365857  0.430980  1
  O  O7  1  0.817072  0.634143  0.569020  1
  O  O8  1  0.817072  0.634143  0.930980  1
  O  O9  1  0.182928  0.365857  0.069020  1
  Ti  Ti10  1  0.301712  0.603423  0.250000  1
  Ti  Ti11  1  0.698288  0.396577  0.750000  1
  Ti  Ti12  1  0.630602  0.261204  0.057277  1
  Ti  Ti13  1  0.369398  0.738796  0.942723  1
  Ti  Ti14  1  0.369398  0.738796  0.557277  1
  Ti  Ti15  1  0.630602  0.261204  0.442723  1
