# generated using pymatgen
data_LiFe4(BO3)4
_symmetry_space_group_name_H-M   'P 1'
_cell_length_a   5.23888296
_cell_length_b   5.26686487
_cell_length_c   20.11006102
_cell_angle_alpha   89.51946319
_cell_angle_beta   90.06612261
_cell_angle_gamma   61.05736919
_symmetry_Int_Tables_number   1
_chemical_formula_structural   LiFe4(BO3)4
_chemical_formula_sum   'Li2 Fe8 B8 O24'
_cell_volume   485.55820427
_cell_formula_units_Z   2
loop_
 _symmetry_equiv_pos_site_id
 _symmetry_equiv_pos_as_xyz
  1  'x, y, z'
loop_
 _atom_site_type_symbol
 _atom_site_label
 _atom_site_symmetry_multiplicity
 _atom_site_fract_x
 _atom_site_fract_y
 _atom_site_fract_z
 _atom_site_occupancy
  Li  Li0  1  0.335146  0.642466  0.171360  1
  Li  Li1  1  0.655288  0.345541  0.549912  1
  Fe  Fe2  1  0.994547  0.675484  0.810749  1
  Fe  Fe3  1  0.001189  0.672422  0.310135  1
  Fe  Fe4  1  0.671786  0.997037  0.934938  1
  Fe  Fe5  1  0.675261  0.993989  0.435733  1
  Fe  Fe6  1  0.316688  0.996923  0.561531  1
  Fe  Fe7  1  0.321728  0.018800  0.061473  1
  Fe  Fe8  1  0.005679  0.331848  0.684912  1
  Fe  Fe9  1  0.994117  0.314249  0.188123  1
  B  B10  1  0.999498  0.339599  0.935828  1
  B  B11  1  0.002363  0.337847  0.436843  1
  B  B12  1  0.333793  0.006919  0.811342  1
  B  B13  1  0.341370  0.003500  0.311822  1
  B  B14  1  0.660356  -0.000371  0.685855  1
  B  B15  1  0.663719  0.994774  0.186041  1
  B  B16  1  0.998376  0.664925  0.560084  1
  B  B17  1  0.989489  0.669466  0.062475  1
  O  O18  1  0.119444  0.273852  0.785649  1
  O  O19  1  0.120064  0.271722  0.290150  1
  O  O20  1  0.266745  0.123538  0.962048  1
  O  O21  1  0.987705  0.596792  0.912325  1
  O  O22  1  0.273434  0.116142  0.456573  1
  O  O23  1  0.980299  0.598363  0.412996  1
  O  O24  1  0.593873  0.991120  0.835264  1
  O  O25  1  0.262410  0.652615  0.560237  1
  O  O26  1  0.605399  0.985068  0.333619  1
  O  O27  1  0.213788  0.726535  0.073399  1
  O  O28  1  0.291748  0.773242  0.813303  1
  O  O29  1  0.305736  0.763959  0.309342  1
  O  O30  1  0.714615  0.225246  0.678377  1
  O  O31  1  0.650039  0.258153  0.184889  1
  O  O32  1  0.765175  0.296811  0.933923  1
  O  O33  1  0.395633  0.024354  0.665506  1
  O  O34  1  0.759791  0.304991  0.444818  1
  O  O35  1  0.424845  0.965870  0.162754  1
  O  O36  1  0.967626  0.426734  0.582884  1
  O  O37  1  0.016426  0.404950  0.082714  1
  O  O38  1  0.743998  0.912745  0.537271  1
  O  O39  1  0.727158  0.878250  0.033994  1
  O  O40  1  0.872221  0.733158  0.712744  1
  O  O41  1  0.913788  0.742960  0.209098  1
