# generated using pymatgen
data_Li7V16(PO4)24
_symmetry_space_group_name_H-M   'P 1'
_cell_length_a   8.45287548
_cell_length_b   8.69657975
_cell_length_c   23.65688846
_cell_angle_alpha   89.99142291
_cell_angle_beta   89.02642559
_cell_angle_gamma   89.97678846
_symmetry_Int_Tables_number   1
_chemical_formula_structural   Li7V16(PO4)24
_chemical_formula_sum   'Li7 V16 P24 O96'
_cell_volume   1738.79281783
_cell_formula_units_Z   1
loop_
 _symmetry_equiv_pos_site_id
 _symmetry_equiv_pos_as_xyz
  1  'x, y, z'
loop_
 _atom_site_type_symbol
 _atom_site_label
 _atom_site_symmetry_multiplicity
 _atom_site_fract_x
 _atom_site_fract_y
 _atom_site_fract_z
 _atom_site_occupancy
  Li  Li0  1  0.194187  0.717126  0.911488  1
  Li  Li1  1  0.304313  0.217243  0.338687  1
  Li  Li2  1  0.305543  0.217240  0.838810  1
  Li  Li3  1  0.693213  0.782068  0.161429  1
  Li  Li4  1  0.694092  0.782671  0.661160  1
  Li  Li5  1  0.806257  0.282701  0.088941  1
  Li  Li6  1  0.804098  0.281836  0.588173  1
  V  V7  1  0.245167  0.968812  0.192969  1
  V  V8  1  0.254553  0.469497  0.058074  1
  V  V9  1  0.248760  0.540320  0.309267  1
  V  V10  1  0.250136  0.027710  0.443084  1
  V  V11  1  0.245250  0.969044  0.692459  1
  V  V12  1  0.252526  0.469365  0.557093  1
  V  V13  1  0.248798  0.536615  0.806643  1
  V  V14  1  0.250774  0.036748  0.943844  1
  V  V15  1  0.749175  0.963418  0.056650  1
  V  V16  1  0.750869  0.463188  0.193722  1
  V  V17  1  0.747789  0.531081  0.441499  1
  V  V18  1  0.756513  0.032081  0.307267  1
  V  V19  1  0.750107  0.963028  0.556491  1
  V  V20  1  0.750618  0.463206  0.693594  1
  V  V21  1  0.745359  0.531057  0.942661  1
  V  V22  1  0.754549  0.030786  0.807649  1
  P  P23  1  0.035821  0.251392  0.253933  1
  P  P24  1  0.033641  0.250000  0.753765  1
  P  P25  1  0.108718  0.117015  0.074506  1
  P  P26  1  0.113135  0.387825  0.428928  1
  P  P27  1  0.107909  0.117716  0.574104  1
  P  P28  1  0.113261  0.388863  0.929313  1
  P  P29  1  0.390378  0.615995  0.177125  1
  P  P30  1  0.388476  0.886081  0.320840  1
  P  P31  1  0.391654  0.617223  0.675625  1
  P  P32  1  0.387177  0.888794  0.820926  1
  P  P33  1  0.468586  0.748753  0.495987  1
  P  P34  1  0.466431  0.750089  0.996268  1
  P  P35  1  0.533660  0.250129  0.003924  1
  P  P36  1  0.532271  0.250995  0.503271  1
  P  P37  1  0.612972  0.111611  0.179205  1
  P  P38  1  0.607926  0.382701  0.324451  1
  P  P39  1  0.613189  0.111168  0.679017  1
  P  P40  1  0.608335  0.383005  0.824257  1
  P  P41  1  0.886889  0.611171  0.071057  1
  P  P42  1  0.893696  0.882282  0.426008  1
  P  P43  1  0.886352  0.610622  0.570854  1
  P  P44  1  0.891913  0.882958  0.925831  1
  P  P45  1  0.966951  0.749710  0.246405  1
  P  P46  1  0.966224  0.749824  0.746151  1
  O  O47  1  0.065535  0.827337  0.198975  1
  O  O48  1  0.062365  0.603928  0.055145  1
  O  O49  1  0.065661  0.826825  0.698798  1
  O  O50  1  0.071988  0.923466  0.415530  1
  O  O51  1  0.061396  0.635482  0.281377  1
  O  O52  1  0.062324  0.602934  0.555217  1
  O  O53  1  0.069879  0.912978  0.914156  1
  O  O54  1  0.061145  0.633380  0.780674  1
  O  O55  1  0.110081  0.135648  0.211667  1
  O  O56  1  0.109813  0.136519  0.711379  1
  O  O57  1  0.127163  0.293236  0.080619  1
  O  O58  1  0.146206  0.070744  0.011816  1
  O  O59  1  0.165171  0.222743  0.409266  1
  O  O60  1  0.126125  0.293279  0.580747  1
  O  O61  1  0.145357  0.071781  0.511121  1
  O  O62  1  0.149453  0.500633  0.379976  1
  O  O63  1  0.163272  0.227064  0.907704  1
  O  O64  1  0.151075  0.509349  0.881413  1
  O  O65  1  0.174859  0.332585  0.283543  1
  O  O66  1  0.172317  0.332191  0.784283  1
  O  O67  1  0.215488  0.024039  0.112852  1
  O  O68  1  0.214248  0.023847  0.612495  1
  O  O69  1  0.219551  0.429995  0.478865  1
  O  O70  1  0.220430  0.432353  0.978514  1
  O  O71  1  0.278577  0.932523  0.272667  1
  O  O72  1  0.285595  0.524628  0.137089  1
  O  O73  1  0.279558  0.931681  0.771382  1
  O  O74  1  0.286130  0.523935  0.636104  1
  O  O75  1  0.333294  0.844624  0.467015  1
  O  O76  1  0.327666  0.832464  0.965570  1
  O  O77  1  0.348866  0.006622  0.369622  1
  O  O78  1  0.351210  0.568828  0.238793  1
  O  O79  1  0.371367  0.792722  0.170327  1
  O  O80  1  0.348764  0.723120  0.340764  1
  O  O81  1  0.349257  0.009178  0.868409  1
  O  O82  1  0.353080  0.570083  0.737698  1
  O  O83  1  0.372508  0.793335  0.669038  1
  O  O84  1  0.337074  0.726633  0.842201  1
  O  O85  1  0.390745  0.636744  0.038373  1
  O  O86  1  0.387058  0.638865  0.537200  1
  O  O87  1  0.437496  0.103168  0.194992  1
  O  O88  1  0.430219  0.135939  0.468625  1
  O  O89  1  0.431152  0.411575  0.336700  1
  O  O90  1  0.434430  0.326953  0.051051  1
  O  O91  1  0.437279  0.103535  0.694610  1
  O  O92  1  0.438781  0.133797  0.969265  1
  O  O93  1  0.430108  0.412807  0.835581  1
  O  O94  1  0.434001  0.327684  0.550679  1
  O  O95  1  0.565237  0.673527  0.448366  1
  O  O96  1  0.568916  0.586766  0.165284  1
  O  O97  1  0.561468  0.866980  0.030577  1
  O  O98  1  0.563931  0.901914  0.305221  1
  O  O99  1  0.565721  0.673170  0.948825  1
  O  O100  1  0.569471  0.587077  0.664086  1
  O  O101  1  0.565343  0.861487  0.531232  1
  O  O102  1  0.562855  0.896150  0.805007  1
  O  O103  1  0.607890  0.362446  0.461051  1
  O  O104  1  0.609993  0.363737  0.961513  1
  O  O105  1  0.662391  0.273695  0.157619  1
  O  O106  1  0.629799  0.207156  0.331356  1
  O  O107  1  0.646521  0.429710  0.262471  1
  O  O108  1  0.650832  0.990936  0.131510  1
  O  O109  1  0.663004  0.272900  0.657417  1
  O  O110  1  0.627812  0.206819  0.830571  1
  O  O111  1  0.645982  0.429468  0.761643  1
  O  O112  1  0.651499  0.991025  0.631091  1
  O  O113  1  0.672620  0.167820  0.034348  1
  O  O114  1  0.669314  0.164999  0.533309  1
  O  O115  1  0.715580  0.476873  0.363414  1
  O  O116  1  0.721848  0.069605  0.228277  1
  O  O117  1  0.714757  0.476019  0.862670  1
  O  O118  1  0.720754  0.067580  0.728157  1
  O  O119  1  0.778995  0.568263  0.021680  1
  O  O120  1  0.780014  0.567678  0.520955  1
  O  O121  1  0.789197  0.976798  0.387577  1
  O  O122  1  0.785012  0.975805  0.887059  1
  O  O123  1  0.828111  0.667495  0.215903  1
  O  O124  1  0.827494  0.667503  0.715524  1
  O  O125  1  0.848715  0.490971  0.118641  1
  O  O126  1  0.836591  0.773296  0.092393  1
  O  O127  1  0.847639  0.489924  0.618254  1
  O  O128  1  0.855620  0.927129  0.488740  1
  O  O129  1  0.875154  0.707956  0.419063  1
  O  O130  1  0.837414  0.772321  0.592483  1
  O  O131  1  0.854177  0.929508  0.988105  1
  O  O132  1  0.872548  0.706671  0.919335  1
  O  O133  1  0.889563  0.864915  0.288114  1
  O  O134  1  0.890281  0.863162  0.788378  1
  O  O135  1  0.938936  0.366040  0.219070  1
  O  O136  1  0.930339  0.086879  0.085701  1
  O  O137  1  0.937218  0.394485  0.445189  1
  O  O138  1  0.938709  0.366426  0.719201  1
  O  O139  1  0.929819  0.087577  0.585427  1
  O  O140  1  0.935715  0.173555  0.301123  1
  O  O141  1  0.937322  0.396302  0.944868  1
  O  O142  1  0.934465  0.172566  0.800925  1
