# generated using pymatgen
data_NaSi2BH2O7
_symmetry_space_group_name_H-M   'P 1'
_cell_length_a   9.46263340
_cell_length_b   7.05820994
_cell_length_c   5.30110819
_cell_angle_alpha   90.00000000
_cell_angle_beta   83.99697437
_cell_angle_gamma   90.00000000
_symmetry_Int_Tables_number   1
_chemical_formula_structural   NaSi2BH2O7
_chemical_formula_sum   'Na2 Si4 B2 H4 O14'
_cell_volume   352.11554008
_cell_formula_units_Z   2
loop_
 _symmetry_equiv_pos_site_id
 _symmetry_equiv_pos_as_xyz
  1  'x, y, z'
loop_
 _atom_site_type_symbol
 _atom_site_label
 _atom_site_symmetry_multiplicity
 _atom_site_fract_x
 _atom_site_fract_y
 _atom_site_fract_z
 _atom_site_occupancy
  Na  Na0  1  0.529152  0.558779  0.953512  1
  Na  Na1  1  0.470848  0.058779  0.046488  1
  Si  Si2  1  0.878001  0.901899  0.795373  1
  Si  Si3  1  0.121999  0.401899  0.204627  1
  Si  Si4  1  0.938447  0.472670  0.740212  1
  Si  Si5  1  0.061553  0.972670  0.259788  1
  B  B6  1  0.702169  0.199428  0.765010  1
  B  B7  1  0.297831  0.699428  0.234990  1
  H  H8  1  0.703495  0.329702  0.224005  1
  H  H9  1  0.296505  0.829702  0.775995  1
  H  H10  1  0.419487  0.819383  0.554748  1
  H  H11  1  0.580513  0.319383  0.445252  1
  O  O12  1  0.851664  0.672737  0.785115  1
  O  O13  1  0.148336  0.172737  0.214885  1
  O  O14  1  0.942806  0.956179  0.059529  1
  O  O15  1  0.057194  0.456179  0.940471  1
  O  O16  1  0.828503  0.300099  0.791948  1
  O  O17  1  0.171497  0.800099  0.208052  1
  O  O18  1  0.721731  1.000333  0.789447  1
  O  O19  1  0.278269  0.500332  0.210553  1
  O  O20  1  0.012342  0.465028  0.448847  1
  O  O21  1  0.987658  0.965028  0.551153  1
  O  O22  1  0.600284  0.331935  0.253059  1
  O  O23  1  0.399716  0.831935  0.746941  1
  O  O24  1  0.421735  0.775949  0.266530  1
  O  O25  1  0.578265  0.275949  0.733470  1
