# generated using pymatgen
data_NiS2
_symmetry_space_group_name_H-M   'P 1'
_cell_length_a   4.48929109
_cell_length_b   6.55675553
_cell_length_c   6.17952092
_cell_angle_alpha   90.00000000
_cell_angle_beta   89.98122104
_cell_angle_gamma   90.00000000
_symmetry_Int_Tables_number   1
_chemical_formula_structural   NiS2
_chemical_formula_sum   'Ni4 S8'
_cell_volume   181.89532675
_cell_formula_units_Z   4
loop_
 _symmetry_equiv_pos_site_id
 _symmetry_equiv_pos_as_xyz
  1  'x, y, z'
loop_
 _atom_site_type_symbol
 _atom_site_label
 _atom_site_symmetry_multiplicity
 _atom_site_fract_x
 _atom_site_fract_y
 _atom_site_fract_z
 _atom_site_occupancy
  Ni  Ni0  1  0.000000  0.859362  0.750000  1
  Ni  Ni1  1  0.000000  0.140638  0.250000  1
  Ni  Ni2  1  0.500000  0.640209  0.250000  1
  Ni  Ni3  1  0.500000  0.359791  0.750000  1
  S  S4  1  0.308742  0.911995  0.454799  1
  S  S5  1  0.691258  0.911995  0.045201  1
  S  S6  1  0.808693  0.587966  0.545197  1
  S  S7  1  0.808693  0.412034  0.045197  1
  S  S8  1  0.691258  0.088005  0.545201  1
  S  S9  1  0.308742  0.088005  0.954799  1
  S  S10  1  0.191307  0.412034  0.454803  1
  S  S11  1  0.191307  0.587966  0.954803  1
