# generated using pymatgen
data_Li8Mn7Fe(BO3)8
_symmetry_space_group_name_H-M   'P 1'
_cell_length_a   6.06063390
_cell_length_b   9.90853963
_cell_length_c   9.75859373
_cell_angle_alpha   64.07586831
_cell_angle_beta   78.09653526
_cell_angle_gamma   78.77326083
_symmetry_Int_Tables_number   1
_chemical_formula_structural   Li8Mn7Fe(BO3)8
_chemical_formula_sum   'Li8 Mn7 Fe1 B8 O24'
_cell_volume   512.07042209
_cell_formula_units_Z   1
loop_
 _symmetry_equiv_pos_site_id
 _symmetry_equiv_pos_as_xyz
  1  'x, y, z'
loop_
 _atom_site_type_symbol
 _atom_site_label
 _atom_site_symmetry_multiplicity
 _atom_site_fract_x
 _atom_site_fract_y
 _atom_site_fract_z
 _atom_site_occupancy
  Li  Li0  1  0.953866  0.184201  0.533624  1
  Li  Li1  1  0.952619  0.683565  0.032303  1
  Li  Li2  1  0.546760  0.814604  0.966390  1
  Li  Li3  1  0.454214  0.684521  0.533767  1
  Li  Li4  1  0.546387  0.315402  0.466800  1
  Li  Li5  1  0.453667  0.184350  0.033440  1
  Li  Li6  1  0.046932  0.316584  0.966860  1
  Li  Li7  1  0.045963  0.815282  0.467260  1
  Mn  Mn8  1  0.685678  0.375066  0.706820  1
  Mn  Mn9  1  0.686088  0.874002  0.206239  1
  Mn  Mn10  1  0.814173  0.125979  0.293260  1
  Mn  Mn11  1  0.185764  0.873081  0.707274  1
  Mn  Mn12  1  0.313745  0.125694  0.794173  1
  Mn  Mn13  1  0.313984  0.625981  0.293311  1
  Mn  Mn14  1  0.186625  0.374431  0.205726  1
  Fe  Fe15  1  0.815030  0.626984  0.789977  1
  B  B16  1  0.664915  0.962072  0.634063  1
  B  B17  1  0.833566  0.036334  0.867289  1
  B  B18  1  0.833419  0.536150  0.367572  1
  B  B19  1  0.667189  0.464268  0.130630  1
  B  B20  1  0.335458  0.536904  0.867419  1
  B  B21  1  0.165105  0.465258  0.633315  1
  B  B22  1  0.166319  0.963744  0.132606  1
  B  B23  1  0.333356  0.036387  0.367506  1
  O  O24  1  0.825129  0.893093  0.983784  1
  O  O25  1  0.984564  0.438701  0.754406  1
  O  O26  1  0.985557  0.934734  0.253592  1
  O  O27  1  0.836704  0.844197  0.638510  1
  O  O28  1  0.824887  0.393033  0.484490  1
  O  O29  1  0.483953  0.935191  0.753910  1
  O  O30  1  0.841139  0.348311  0.135000  1
  O  O31  1  0.659988  0.151825  0.864500  1
  O  O32  1  0.659429  0.651376  0.364998  1
  O  O33  1  0.516665  0.566051  0.746645  1
  O  O34  1  0.676786  0.104613  0.517006  1
  O  O35  1  0.676156  0.606092  0.012601  1
  O  O36  1  0.327025  0.393122  0.983325  1
  O  O37  1  0.324320  0.893135  0.484182  1
  O  O38  1  0.486758  0.436063  0.252144  1
  O  O39  1  0.337072  0.348821  0.636264  1
  O  O40  1  0.340519  0.848769  0.134787  1
  O  O41  1  0.160663  0.651106  0.865328  1
  O  O42  1  0.514529  0.064830  0.246959  1
  O  O43  1  0.174567  0.607666  0.515453  1
  O  O44  1  0.159801  0.151722  0.364847  1
  O  O45  1  0.014644  0.064713  0.746569  1
  O  O46  1  0.014255  0.564804  0.246759  1
  O  O47  1  0.174067  0.107192  0.016315  1
