# generated using pymatgen
data_LiCuF4
_symmetry_space_group_name_H-M   'P 1'
_cell_length_a   3.84941800
_cell_length_b   7.71143969
_cell_length_c   10.69894100
_cell_angle_alpha   81.18201798
_cell_angle_beta   79.61796918
_cell_angle_gamma   75.55377890
_symmetry_Int_Tables_number   1
_chemical_formula_structural   LiCuF4
_chemical_formula_sum   'Li4 Cu4 F16'
_cell_volume   300.55338510
_cell_formula_units_Z   4
loop_
 _symmetry_equiv_pos_site_id
 _symmetry_equiv_pos_as_xyz
  1  'x, y, z'
loop_
 _atom_site_type_symbol
 _atom_site_label
 _atom_site_symmetry_multiplicity
 _atom_site_fract_x
 _atom_site_fract_y
 _atom_site_fract_z
 _atom_site_occupancy
  Li  Li0  1  0.802209  0.228911  0.167344  1
  Li  Li1  1  0.342698  0.972105  0.342332  1
  Li  Li2  1  0.654665  0.028522  0.662053  1
  Li  Li3  1  0.194135  0.778100  0.833123  1
  Cu  Cu4  1  0.963920  0.204099  0.867544  1
  Cu  Cu5  1  0.862806  0.635954  0.639264  1
  Cu  Cu6  1  0.137774  0.363245  0.360974  1
  Cu  Cu7  1  0.035164  0.796909  0.132623  1
  F  F8  1  0.926850  0.408587  0.737800  1
  F  F9  1  0.893585  0.951894  0.261371  1
  F  F10  1  0.804926  0.857553  0.534108  1
  F  F11  1  0.720056  0.776555  0.783084  1
  F  F12  1  0.828363  0.347602  0.995256  1
  F  F13  1  0.478346  0.189044  0.853625  1
  F  F14  1  0.651592  0.353075  0.343621  1
  F  F15  1  0.348708  0.647243  0.656011  1
  F  F16  1  0.525413  0.806929  0.142161  1
  F  F17  1  0.170131  0.656515  0.002719  1
  F  F18  1  0.281013  0.219770  0.218501  1
  F  F19  1  0.194387  0.143682  0.467758  1
  F  F20  1  0.997744  0.002977  0.001248  1
  F  F21  1  0.107578  0.043508  0.740659  1
  F  F22  1  -0.000028  0.501582  0.499096  1
  F  F23  1  0.077965  0.585636  0.257725  1
