# generated using pymatgen
data_Na3(Pt3O4)4
_symmetry_space_group_name_H-M   'P 1'
_cell_length_a   8.12459738
_cell_length_b   8.12459738
_cell_length_c   8.12459738
_cell_angle_alpha   60.00000000
_cell_angle_beta   60.00000000
_cell_angle_gamma   90.00000000
_symmetry_Int_Tables_number   1
_chemical_formula_structural   Na3(Pt3O4)4
_chemical_formula_sum   'Na3 Pt12 O16'
_cell_volume   379.21940024
_cell_formula_units_Z   1
loop_
 _symmetry_equiv_pos_site_id
 _symmetry_equiv_pos_as_xyz
  1  'x, y, z'
loop_
 _atom_site_type_symbol
 _atom_site_label
 _atom_site_symmetry_multiplicity
 _atom_site_fract_x
 _atom_site_fract_y
 _atom_site_fract_z
 _atom_site_occupancy
  Na  Na0  1  0.500000  0.500000  0.000000  1
  Na  Na1  1  0.750000  0.250000  0.500000  1
  Na  Na2  1  0.250000  0.750000  0.500000  1
  Pt  Pt3  1  0.372223  0.124771  0.000000  1
  Pt  Pt4  1  0.124771  0.372223  0.000000  1
  Pt  Pt5  1  0.124771  0.124771  0.503006  1
  Pt  Pt6  1  0.627777  0.124771  0.247452  1
  Pt  Pt7  1  0.124771  0.627777  0.247452  1
  Pt  Pt8  1  0.372223  0.372223  0.503006  1
  Pt  Pt9  1  0.875229  0.627777  0.000000  1
  Pt  Pt10  1  0.627777  0.875229  0.000000  1
  Pt  Pt11  1  0.627777  0.627777  0.496994  1
  Pt  Pt12  1  0.875229  0.372223  0.752548  1
  Pt  Pt13  1  0.372223  0.875229  0.752548  1
  Pt  Pt14  1  0.875229  0.875229  0.496994  1
  O  O15  1  0.126545  0.375515  0.248970  1
  O  O16  1  0.375515  0.126545  0.248970  1
  O  O17  1  0.870609  0.129391  0.258783  1
  O  O18  1  0.375515  0.624485  0.248970  1
  O  O19  1  0.388174  0.129391  0.741217  1
  O  O20  1  0.129391  0.388174  0.741217  1
  O  O21  1  0.129391  0.870609  0.258783  1
  O  O22  1  0.624485  0.375515  0.248970  1
  O  O23  1  0.611826  0.870609  0.258783  1
  O  O24  1  0.870609  0.129391  0.741217  1
  O  O25  1  0.870609  0.611826  0.258783  1
  O  O26  1  0.624485  0.375515  0.751030  1
  O  O27  1  0.375515  0.624485  0.751030  1
  O  O28  1  0.129391  0.870609  0.741217  1
  O  O29  1  0.873455  0.624485  0.751030  1
  O  O30  1  0.624485  0.873455  0.751030  1
