# generated using pymatgen
data_Li3Mn3NiO8
_symmetry_space_group_name_H-M   'P 1'
_cell_length_a   10.54241471
_cell_length_b   10.20709451
_cell_length_c   14.60940522
_cell_angle_alpha   19.31613252
_cell_angle_beta   19.24777357
_cell_angle_gamma   33.40086991
_symmetry_Int_Tables_number   1
_chemical_formula_structural   Li3Mn3NiO8
_chemical_formula_sum   'Li3 Mn3 Ni1 O8'
_cell_volume   146.98132375
_cell_formula_units_Z   1
loop_
 _symmetry_equiv_pos_site_id
 _symmetry_equiv_pos_as_xyz
  1  'x, y, z'
loop_
 _atom_site_type_symbol
 _atom_site_label
 _atom_site_symmetry_multiplicity
 _atom_site_fract_x
 _atom_site_fract_y
 _atom_site_fract_z
 _atom_site_occupancy
  Li  Li0  1  0.999999  0.499976  0.500012  1
  Li  Li1  1  0.499994  0.999983  0.500015  1
  Li  Li2  1  0.499988  0.499980  0.500026  1
  Mn  Mn3  1  0.000061  0.499998  0.999969  1
  Mn  Mn4  1  0.499991  0.000050  -0.000020  1
  Mn  Mn5  1  0.499971  0.499986  0.000037  1
  Ni  Ni6  1  0.999958  0.999934  0.000084  1
  O  O7  1  0.961758  0.000005  0.279208  1
  O  O8  1  0.029995  0.484419  0.255942  1
  O  O9  1  0.495883  0.999988  0.262985  1
  O  O10  1  0.038303  0.000102  0.720672  1
  O  O11  1  0.545602  0.515600  0.224759  1
  O  O12  1  0.970033  0.515591  0.744017  1
  O  O13  1  0.504127  0.000014  0.737002  1
  O  O14  1  0.454338  0.484374  0.775294  1
