# generated using pymatgen
data_Rb2CoS2
_symmetry_space_group_name_H-M   'P 1'
_cell_length_a   6.16699281
_cell_length_b   7.02783478
_cell_length_c   8.10836037
_cell_angle_alpha   115.68159820
_cell_angle_beta   112.35140285
_cell_angle_gamma   89.99999999
_symmetry_Int_Tables_number   1
_chemical_formula_structural   Rb2CoS2
_chemical_formula_sum   'Rb4 Co2 S4'
_cell_volume   287.12928585
_cell_formula_units_Z   2
loop_
 _symmetry_equiv_pos_site_id
 _symmetry_equiv_pos_as_xyz
  1  'x, y, z'
loop_
 _atom_site_type_symbol
 _atom_site_label
 _atom_site_symmetry_multiplicity
 _atom_site_fract_x
 _atom_site_fract_y
 _atom_site_fract_z
 _atom_site_occupancy
  S  S0  1  0.405173  0.735122  0.810347  1
  S  S1  1  0.594827  0.264878  0.189653  1
  S  S2  1  0.094827  0.924775  0.189653  1
  S  S3  1  0.905173  0.075225  0.810347  1
  Co  Co4  1  0.250000  0.000000  0.000000  1
  Co  Co5  1  0.750000  0.000000  0.000000  1
  Rb  Rb6  1  0.646790  0.814933  0.293580  1
  Rb  Rb7  1  0.353210  0.185067  0.706420  1
  Rb  Rb8  1  0.853210  0.521353  0.706420  1
  Rb  Rb9  1  0.146790  0.478647  0.293580  1
