# generated using pymatgen
data_Cs2KU2(Si2O7)2
_symmetry_space_group_name_H-M   'P 1'
_cell_length_a   7.32104512
_cell_length_b   7.32104512
_cell_length_c   7.64594237
_cell_angle_alpha   90.00000000
_cell_angle_beta   90.00000000
_cell_angle_gamma   71.50982825
_symmetry_Int_Tables_number   1
_chemical_formula_structural   Cs2KU2(Si2O7)2
_chemical_formula_sum   'Cs2 K1 U2 Si4 O14'
_cell_volume   388.65001585
_cell_formula_units_Z   1
loop_
 _symmetry_equiv_pos_site_id
 _symmetry_equiv_pos_as_xyz
  1  'x, y, z'
loop_
 _atom_site_type_symbol
 _atom_site_label
 _atom_site_symmetry_multiplicity
 _atom_site_fract_x
 _atom_site_fract_y
 _atom_site_fract_z
 _atom_site_occupancy
  Cs  Cs0  1  0.220827  0.220827  0.000000  1
  Cs  Cs1  1  0.779174  0.779174  0.000000  1
  K  K2  1  0.000000  0.000000  0.500000  1
  U  U3  1  0.000001  0.500001  0.500000  1
  U  U4  1  0.500001  0.000001  0.500000  1
  Si  Si5  1  0.691035  0.308965  0.207060  1
  Si  Si6  1  0.308965  0.691035  0.207060  1
  Si  Si7  1  0.691035  0.308965  0.792940  1
  Si  Si8  1  0.308965  0.691035  0.792940  1
  O  O9  1  0.246949  0.246949  0.500000  1
  O  O10  1  0.500000  0.500000  0.792076  1
  O  O11  1  0.500000  0.500000  0.207923  1
  O  O12  1  0.753052  0.753052  0.500000  1
  O  O13  1  0.873061  0.355867  0.704871  1
  O  O14  1  0.126938  0.644132  0.704871  1
  O  O15  1  0.644132  0.126938  0.295127  1
  O  O16  1  0.355867  0.873061  0.295127  1
  O  O17  1  0.126938  0.644132  0.295127  1
  O  O18  1  0.873061  0.355867  0.295127  1
  O  O19  1  0.355867  0.873061  0.704871  1
  O  O20  1  0.644132  0.126938  0.704871  1
  O  O21  1  0.251426  0.748573  0.000000  1
  O  O22  1  0.748573  0.251426  0.000000  1
