# generated using pymatgen
data_Mn3OF5
_symmetry_space_group_name_H-M   'P 1'
_cell_length_a   4.95099172
_cell_length_b   14.80539431
_cell_length_c   3.22193770
_cell_angle_alpha   90.00000000
_cell_angle_beta   90.00000000
_cell_angle_gamma   92.49276706
_symmetry_Int_Tables_number   1
_chemical_formula_structural   Mn3OF5
_chemical_formula_sum   'Mn6 O2 F10'
_cell_volume   235.94900917
_cell_formula_units_Z   2
loop_
 _symmetry_equiv_pos_site_id
 _symmetry_equiv_pos_as_xyz
  1  'x, y, z'
loop_
 _atom_site_type_symbol
 _atom_site_label
 _atom_site_symmetry_multiplicity
 _atom_site_fract_x
 _atom_site_fract_y
 _atom_site_fract_z
 _atom_site_occupancy
  Mn  Mn0  1  0.000000  0.000000  0.000000  1
  Mn  Mn1  1  0.984208  0.327787  0.000000  1
  Mn  Mn2  1  0.015792  0.672213  0.000000  1
  Mn  Mn3  1  0.523860  0.174743  0.500000  1
  Mn  Mn4  1  0.500000  0.500000  0.500000  1
  Mn  Mn5  1  0.476140  0.825257  0.500000  1
  O  O6  1  0.302906  0.766519  0.000000  1
  O  O7  1  0.697094  0.233481  0.000000  1
  F  F8  1  0.188092  0.268270  0.500000  1
  F  F9  1  0.195645  0.599128  0.500000  1
  F  F10  1  0.200535  0.937914  0.500000  1
  F  F11  1  0.318968  0.107087  0.000000  1
  F  F12  1  0.292738  0.430911  0.000000  1
  F  F13  1  0.707262  0.569089  0.000000  1
  F  F14  1  0.681032  0.892913  0.000000  1
  F  F15  1  0.799465  0.062086  0.500000  1
  F  F16  1  0.804355  0.400872  0.500000  1
  F  F17  1  0.811908  0.731730  0.500000  1
