# generated using pymatgen
data_CrFe(PO4)2
_symmetry_space_group_name_H-M   'P 1'
_cell_length_a   9.96540353
_cell_length_b   5.84836325
_cell_length_c   4.83731203
_cell_angle_alpha   90.00000000
_cell_angle_beta   91.01495139
_cell_angle_gamma   90.00000000
_symmetry_Int_Tables_number   1
_chemical_formula_structural   CrFe(PO4)2
_chemical_formula_sum   'Cr2 Fe2 P4 O16'
_cell_volume   281.88060067
_cell_formula_units_Z   2
loop_
 _symmetry_equiv_pos_site_id
 _symmetry_equiv_pos_as_xyz
  1  'x, y, z'
loop_
 _atom_site_type_symbol
 _atom_site_label
 _atom_site_symmetry_multiplicity
 _atom_site_fract_x
 _atom_site_fract_y
 _atom_site_fract_z
 _atom_site_occupancy
  Cr  Cr0  1  0.227908  0.750000  0.471705  1
  Cr  Cr1  1  0.772092  0.250000  0.528295  1
  Fe  Fe2  1  0.270681  0.250000  0.968643  1
  Fe  Fe3  1  0.729319  0.750000  0.031357  1
  P  P4  1  0.092309  0.250000  0.409576  1
  P  P5  1  0.404515  0.750000  0.919667  1
  P  P6  1  0.595485  0.250000  0.080333  1
  P  P7  1  0.907691  0.750000  0.590424  1
  O  O8  1  0.056152  0.750000  0.669820  1
  O  O9  1  0.115321  0.250000  0.722816  1
  O  O10  1  0.169005  0.044953  0.266039  1
  O  O11  1  0.169005  0.455047  0.266039  1
  O  O12  1  0.327278  0.953445  0.767261  1
  O  O13  1  0.327278  0.546555  0.767261  1
  O  O14  1  0.386386  0.750000  0.231180  1
  O  O15  1  0.446807  0.250000  0.151869  1
  O  O16  1  0.553193  0.750000  0.848131  1
  O  O17  1  0.613614  0.250000  0.768820  1
  O  O18  1  0.672722  0.046555  0.232739  1
  O  O19  1  0.672722  0.453445  0.232739  1
  O  O20  1  0.830995  0.544953  0.733961  1
  O  O21  1  0.830995  0.955047  0.733961  1
  O  O22  1  0.884679  0.750000  0.277184  1
  O  O23  1  0.943848  0.250000  0.330180  1
