# generated using pymatgen
data_K2Si4O9
_symmetry_space_group_name_H-M   'P 1'
_cell_length_a   6.70507625
_cell_length_b   6.70507625
_cell_length_c   9.63649341
_cell_angle_alpha   90.00000000
_cell_angle_beta   90.00000000
_cell_angle_gamma   120.00000004
_symmetry_Int_Tables_number   1
_chemical_formula_structural   K2Si4O9
_chemical_formula_sum   'K4 Si8 O18'
_cell_volume   375.19505197
_cell_formula_units_Z   2
loop_
 _symmetry_equiv_pos_site_id
 _symmetry_equiv_pos_as_xyz
  1  'x, y, z'
loop_
 _atom_site_type_symbol
 _atom_site_label
 _atom_site_symmetry_multiplicity
 _atom_site_fract_x
 _atom_site_fract_y
 _atom_site_fract_z
 _atom_site_occupancy
  O  O0  1  0.233148  0.207202  0.394068  1
  O  O1  1  0.025945  0.233148  0.894068  1
  O  O2  1  0.207202  0.974055  0.894068  1
  O  O3  1  0.792798  0.025945  0.394068  1
  O  O4  1  0.974055  0.766852  0.394068  1
  O  O5  1  0.766852  0.792798  0.894068  1
  O  O6  1  0.766852  0.792798  0.605932  1
  O  O7  1  0.974055  0.766852  0.105932  1
  O  O8  1  0.792798  0.025945  0.105932  1
  O  O9  1  0.207202  0.974055  0.605932  1
  O  O10  1  0.025945  0.233148  0.605932  1
  O  O11  1  0.233148  0.207202  0.105932  1
  O  O12  1  0.493135  0.073313  0.250000  1
  O  O13  1  0.419822  0.493135  0.750000  1
  O  O14  1  0.073313  0.580178  0.750000  1
  O  O15  1  0.926687  0.419822  0.250000  1
  O  O16  1  0.580178  0.506865  0.250000  1
  O  O17  1  0.506865  0.926687  0.750000  1
  Si  Si18  1  0.634257  0.768181  0.750000  1
  Si  Si19  1  0.866076  0.634257  0.250000  1
  Si  Si20  1  0.768181  0.133924  0.250000  1
  Si  Si21  1  0.231819  0.866076  0.750000  1
  Si  Si22  1  0.133924  0.365743  0.750000  1
  Si  Si23  1  0.365743  0.231819  0.250000  1
  Si  Si24  1  0.000000  0.000000  0.500000  1
  Si  Si25  1  0.000000  0.000000  0.000000  1
  K  K26  1  0.333333  0.666667  0.441556  1
  K  K27  1  0.666667  0.333333  0.941556  1
  K  K28  1  0.666667  0.333333  0.558444  1
  K  K29  1  0.333333  0.666667  0.058444  1
