# generated using pymatgen
data_NiP6(WO8)3
_symmetry_space_group_name_H-M   'P 1'
_cell_length_a   8.92356927
_cell_length_b   8.92356919
_cell_length_c   8.92356956
_cell_angle_alpha   58.78011603
_cell_angle_beta   58.78011771
_cell_angle_gamma   58.78011461
_symmetry_Int_Tables_number   1
_chemical_formula_structural   NiP6(WO8)3
_chemical_formula_sum   'Ni1 P6 W3 O24'
_cell_volume   488.45990966
_cell_formula_units_Z   1
loop_
 _symmetry_equiv_pos_site_id
 _symmetry_equiv_pos_as_xyz
  1  'x, y, z'
loop_
 _atom_site_type_symbol
 _atom_site_label
 _atom_site_symmetry_multiplicity
 _atom_site_fract_x
 _atom_site_fract_y
 _atom_site_fract_z
 _atom_site_occupancy
  Ni  Ni0  1  0.858639  0.858639  0.858639  1
  P  P1  1  0.034633  0.751673  0.469877  1
  P  P2  1  0.469877  0.034633  0.751673  1
  P  P3  1  0.751673  0.469877  0.034633  1
  P  P4  1  0.245562  0.539996  0.962889  1
  P  P5  1  0.539996  0.962889  0.245562  1
  P  P6  1  0.962889  0.245562  0.539996  1
  W  W7  1  0.141843  0.141843  0.141843  1
  W  W8  1  0.356385  0.356385  0.356385  1
  W  W9  1  0.641813  0.641813  0.641813  1
  O  O10  1  0.124884  0.297057  0.498865  1
  O  O11  1  0.297057  0.498865  0.124884  1
  O  O12  1  0.056367  0.923142  0.287205  1
  O  O13  1  0.498865  0.124884  0.297057  1
  O  O14  1  0.210219  0.583576  0.424726  1
  O  O15  1  0.013720  0.769976  0.636091  1
  O  O16  1  0.287205  0.056367  0.923142  1
  O  O17  1  0.424726  0.210219  0.583576  1
  O  O18  1  0.583576  0.424726  0.210219  1
  O  O19  1  0.225989  0.363859  0.987706  1
  O  O20  1  0.083316  0.713167  0.942100  1
  O  O21  1  0.363859  0.987706  0.225989  1
  O  O22  1  0.636091  0.013720  0.769976  1
  O  O23  1  0.923142  0.287205  0.056367  1
  O  O24  1  0.769976  0.636091  0.013720  1
  O  O25  1  0.430317  0.558291  0.786499  1
  O  O26  1  0.558291  0.786499  0.430317  1
  O  O27  1  0.713167  0.942100  0.083316  1
  O  O28  1  0.987706  0.225989  0.363859  1
  O  O29  1  0.786499  0.430317  0.558291  1
  O  O30  1  0.499627  0.858768  0.721223  1
  O  O31  1  0.942100  0.083316  0.713167  1
  O  O32  1  0.721223  0.499627  0.858768  1
  O  O33  1  0.858768  0.721223  0.499627  1
