# generated using pymatgen
data_Er2Si5Ru3
_symmetry_space_group_name_H-M   'P 1'
_cell_length_a   5.58310198
_cell_length_b   8.22664147
_cell_length_c   8.22664147
_cell_angle_alpha   71.38573355
_cell_angle_beta   70.16390553
_cell_angle_gamma   70.16390560
_symmetry_Int_Tables_number   1
_chemical_formula_structural   Er2Si5Ru3
_chemical_formula_sum   'Er4 Si10 Ru6'
_cell_volume   325.33211415
_cell_formula_units_Z   2
loop_
 _symmetry_equiv_pos_site_id
 _symmetry_equiv_pos_as_xyz
  1  'x, y, z'
loop_
 _atom_site_type_symbol
 _atom_site_label
 _atom_site_symmetry_multiplicity
 _atom_site_fract_x
 _atom_site_fract_y
 _atom_site_fract_z
 _atom_site_occupancy
  Si  Si0  1  0.250000  0.000000  0.000000  1
  Si  Si1  1  0.750000  0.000000  0.000000  1
  Si  Si2  1  0.957208  0.292792  0.292792  1
  Si  Si3  1  0.542792  0.707208  0.707208  1
  Si  Si4  1  0.042792  0.707208  0.707208  1
  Si  Si5  1  0.457208  0.292792  0.292792  1
  Si  Si6  1  0.404972  0.425022  0.765034  1
  Si  Si7  1  0.904972  0.765034  0.425022  1
  Si  Si8  1  0.095028  0.234966  0.574978  1
  Si  Si9  1  0.595028  0.574978  0.234966  1
  Ru  Ru10  1  0.853402  0.054361  0.238835  1
  Ru  Ru11  1  0.750000  0.500000  0.500000  1
  Ru  Ru12  1  0.353402  0.238835  0.054361  1
  Ru  Ru13  1  0.646598  0.761165  0.945639  1
  Ru  Ru14  1  0.146598  0.945639  0.761165  1
  Ru  Ru15  1  0.250000  0.500000  0.500000  1
  Er  Er16  1  0.135947  0.631736  0.096371  1
  Er  Er17  1  0.864053  0.368264  0.903629  1
  Er  Er18  1  0.364053  0.903629  0.368264  1
  Er  Er19  1  0.635947  0.096371  0.631736  1
