# generated using pymatgen
data_Li3VF5
_symmetry_space_group_name_H-M   'P 1'
_cell_length_a   6.63363485
_cell_length_b   8.10678097
_cell_length_c   7.88906751
_cell_angle_alpha   90.00000000
_cell_angle_beta   90.00000000
_cell_angle_gamma   90.00000000
_symmetry_Int_Tables_number   1
_chemical_formula_structural   Li3VF5
_chemical_formula_sum   'Li12 V4 F20'
_cell_volume   424.25373448
_cell_formula_units_Z   4
loop_
 _symmetry_equiv_pos_site_id
 _symmetry_equiv_pos_as_xyz
  1  'x, y, z'
loop_
 _atom_site_type_symbol
 _atom_site_label
 _atom_site_symmetry_multiplicity
 _atom_site_fract_x
 _atom_site_fract_y
 _atom_site_fract_z
 _atom_site_occupancy
  Li  Li0  1  0.016404  0.772024  0.073706  1
  Li  Li1  1  0.016404  0.772024  0.426294  1
  Li  Li2  1  0.208322  0.472243  0.750000  1
  Li  Li3  1  0.291678  0.972243  0.250000  1
  Li  Li4  1  0.483596  0.272024  0.573706  1
  Li  Li5  1  0.483596  0.272024  0.926294  1
  Li  Li6  1  0.516404  0.727976  0.073706  1
  Li  Li7  1  0.516404  0.727976  0.426294  1
  Li  Li8  1  0.708322  0.027757  0.750000  1
  Li  Li9  1  0.791678  0.527757  0.250000  1
  Li  Li10  1  0.983596  0.227976  0.926294  1
  Li  Li11  1  0.983596  0.227976  0.573706  1
  V  V12  1  0.229177  0.397887  0.250000  1
  V  V13  1  0.270823  0.897887  0.750000  1
  V  V14  1  0.729177  0.102113  0.250000  1
  V  V15  1  0.770823  0.602113  0.750000  1
  F  F16  1  0.006164  0.044379  0.750000  1
  F  F17  1  0.073614  0.621515  0.250000  1
  F  F18  1  0.079996  0.687658  0.750000  1
  F  F19  1  0.222876  0.359017  0.516623  1
  F  F20  1  0.222876  0.359017  0.983377  1
  F  F21  1  0.277124  0.859017  0.016623  1
  F  F22  1  0.277124  0.859017  0.483377  1
  F  F23  1  0.420004  0.187658  0.250000  1
  F  F24  1  0.426386  0.121515  0.750000  1
  F  F25  1  0.493836  0.544379  0.250000  1
  F  F26  1  0.506164  0.455621  0.750000  1
  F  F27  1  0.573614  0.878485  0.250000  1
  F  F28  1  0.579996  0.812342  0.750000  1
  F  F29  1  0.722876  0.140983  0.516623  1
  F  F30  1  0.722876  0.140983  0.983377  1
  F  F31  1  0.777124  0.640983  0.016623  1
  F  F32  1  0.777124  0.640983  0.483377  1
  F  F33  1  0.920004  0.312342  0.250000  1
  F  F34  1  0.926386  0.378485  0.750000  1
  F  F35  1  0.993836  0.955621  0.250000  1
