# generated using pymatgen
data_LiNi(PO3)4
_symmetry_space_group_name_H-M   'P 1'
_cell_length_a   7.54325322
_cell_length_b   9.09041680
_cell_length_c   14.25597859
_cell_angle_alpha   90.00000000
_cell_angle_beta   95.09258723
_cell_angle_gamma   90.00000000
_symmetry_Int_Tables_number   1
_chemical_formula_structural   LiNi(PO3)4
_chemical_formula_sum   'Li4 Ni4 P16 O48'
_cell_volume   973.69238290
_cell_formula_units_Z   4
loop_
 _symmetry_equiv_pos_site_id
 _symmetry_equiv_pos_as_xyz
  1  'x, y, z'
loop_
 _atom_site_type_symbol
 _atom_site_label
 _atom_site_symmetry_multiplicity
 _atom_site_fract_x
 _atom_site_fract_y
 _atom_site_fract_z
 _atom_site_occupancy
  Li  Li0  1  0.019974  0.579038  0.918920  1
  Li  Li1  1  0.480026  0.079038  0.581080  1
  Li  Li2  1  0.519974  0.920962  0.418920  1
  Li  Li3  1  0.980026  0.420962  0.081080  1
  Ni  Ni4  1  0.002261  0.636750  0.353162  1
  Ni  Ni5  1  0.502261  0.863250  0.853162  1
  Ni  Ni6  1  0.497739  0.136750  0.146838  1
  Ni  Ni7  1  0.997739  0.363250  0.646838  1
  P  P8  1  0.059485  0.287293  0.427823  1
  P  P9  1  0.120427  0.054214  0.777352  1
  P  P10  1  0.181476  0.235085  0.953550  1
  P  P11  1  0.229249  0.063038  0.303463  1
  P  P12  1  0.318524  0.735085  0.546450  1
  P  P13  1  0.379573  0.554214  0.722648  1
  P  P14  1  0.270751  0.563038  0.196537  1
  P  P15  1  0.559485  0.212707  0.927823  1
  P  P16  1  0.440515  0.787293  0.072177  1
  P  P17  1  0.729249  0.436962  0.803463  1
  P  P18  1  0.620427  0.445786  0.277352  1
  P  P19  1  0.681476  0.264915  0.453550  1
  P  P20  1  0.770751  0.936962  0.696537  1
  P  P21  1  0.818524  0.764915  0.046450  1
  P  P22  1  0.879573  0.945786  0.222648  1
  P  P23  1  0.940515  0.712707  0.572177  1
  O  O24  1  0.071417  0.372811  0.958068  1
  O  O25  1  0.079107  0.126897  0.877293  1
  O  O26  1  0.049621  0.054823  0.235689  1
  O  O27  1  0.105050  0.301138  0.532146  1
  O  O28  1  0.118139  0.162741  0.698517  1
  O  O29  1  0.138965  0.778033  0.595952  1
  O  O30  1  0.089046  0.423325  0.371591  1
  O  O31  1  0.218819  0.458190  0.709121  1
  O  O32  1  0.174227  0.153242  0.394200  1
  O  O33  1  0.140213  0.655796  0.244337  1
  O  O34  1  0.281181  0.958190  0.790879  1
  O  O35  1  0.298879  0.917434  0.338538  1
  O  O36  1  0.271827  0.654734  0.455493  1
  O  O37  1  0.361035  0.278033  0.904048  1
  O  O38  1  0.381861  0.662741  0.801483  1
  O  O39  1  0.394950  0.801138  0.967854  1
  O  O40  1  0.228173  0.154734  0.044507  1
  O  O41  1  0.201121  0.417434  0.161462  1
  O  O42  1  0.420893  0.626897  0.622707  1
  O  O43  1  0.359787  0.155796  0.255663  1
  O  O44  1  0.428583  0.872811  0.541932  1
  O  O45  1  0.325773  0.653242  0.105800  1
  O  O46  1  0.549621  0.445177  0.735689  1
  O  O47  1  0.410954  0.923325  0.128409  1
  O  O48  1  0.589046  0.076675  0.871591  1
  O  O49  1  0.450379  0.554823  0.264311  1
  O  O50  1  0.674227  0.346758  0.894200  1
  O  O51  1  0.571417  0.127189  0.458068  1
  O  O52  1  0.640213  0.844204  0.744337  1
  O  O53  1  0.579107  0.373103  0.377293  1
  O  O54  1  0.798879  0.582566  0.838538  1
  O  O55  1  0.771827  0.845266  0.955493  1
  O  O56  1  0.605050  0.198862  0.032146  1
  O  O57  1  0.618139  0.337259  0.198517  1
  O  O58  1  0.638965  0.721967  0.095952  1
  O  O59  1  0.728173  0.345266  0.544507  1
  O  O60  1  0.701121  0.082566  0.661462  1
  O  O61  1  0.718819  0.041810  0.209121  1
  O  O62  1  0.859787  0.344204  0.755663  1
  O  O63  1  0.825773  0.846758  0.605800  1
  O  O64  1  0.781181  0.541810  0.290879  1
  O  O65  1  0.910954  0.576675  0.628409  1
  O  O66  1  0.861035  0.221967  0.404048  1
  O  O67  1  0.881861  0.837259  0.301483  1
  O  O68  1  0.894950  0.698862  0.467854  1
  O  O69  1  0.950379  0.945177  0.764311  1
  O  O70  1  0.920893  0.873103  0.122707  1
  O  O71  1  0.928583  0.627189  0.041932  1
