# generated using pymatgen
data_Ba4(PtO3)3
_symmetry_space_group_name_H-M   'P 1'
_cell_length_a   10.29635809
_cell_length_b   10.28029549
_cell_length_c   8.75712223
_cell_angle_alpha   89.94060946
_cell_angle_beta   89.82478013
_cell_angle_gamma   120.57228734
_symmetry_Int_Tables_number   1
_chemical_formula_structural   Ba4(PtO3)3
_chemical_formula_sum   'Ba12 Pt9 O27'
_cell_volume   798.07520293
_cell_formula_units_Z   3
loop_
 _symmetry_equiv_pos_site_id
 _symmetry_equiv_pos_as_xyz
  1  'x, y, z'
loop_
 _atom_site_type_symbol
 _atom_site_label
 _atom_site_symmetry_multiplicity
 _atom_site_fract_x
 _atom_site_fract_y
 _atom_site_fract_z
 _atom_site_occupancy
  Ba  Ba0  1  0.310375  0.974602  0.247952  1
  Ba  Ba1  1  0.653593  0.987939  0.000521  1
  Ba  Ba2  1  0.668420  0.990825  0.498771  1
  Ba  Ba3  1  0.015765  0.321971  0.244634  1
  Ba  Ba4  1  0.672593  0.685835  0.250172  1
  Ba  Ba5  1  0.355152  0.353170  0.499513  1
  Ba  Ba6  1  0.372736  0.370486  0.000765  1
  Ba  Ba7  1  0.681586  0.676676  0.750649  1
  Ba  Ba8  1  0.333654  0.020522  0.752266  1
  Ba  Ba9  1  0.992744  0.663388  0.500174  1
  Ba  Ba10  1  0.988843  0.638114  0.002428  1
  Ba  Ba11  1  0.970548  0.301039  0.752811  1
  Pt  Pt12  1  0.003024  0.005756  0.338909  1
  Pt  Pt13  1  0.253369  0.660439  0.764596  1
  Pt  Pt14  1  0.331864  0.663684  0.102164  1
  Pt  Pt15  1  0.332512  0.662929  0.425741  1
  Pt  Pt16  1  0.078715  0.003826  0.000493  1
  Pt  Pt17  1  0.667708  0.338123  0.573786  1
  Pt  Pt18  1  0.667275  0.335442  0.897393  1
  Pt  Pt19  1  0.665026  0.257524  0.235246  1
  Pt  Pt20  1  0.000594  0.004074  0.662091  1
  O  O21  1  0.158949  0.005917  0.501645  1
  O  O22  1  0.003664  0.855755  0.817137  1
  O  O23  1  0.319899  0.808525  0.949554  1
  O  O24  1  0.323924  0.806894  0.579770  1
  O  O25  1  0.166386  0.650553  0.263762  1
  O  O26  1  0.471632  0.816967  0.262519  1
  O  O27  1  0.182462  0.508822  0.947829  1
  O  O28  1  0.188794  0.511616  0.584461  1
  O  O29  1  0.338174  0.516528  0.262909  1
  O  O30  1  0.507240  0.673462  0.536586  1
  O  O31  1  0.509905  0.678585  0.985805  1
  O  O32  1  0.821547  0.994945  0.772610  1
  O  O33  1  0.151773  0.154713  0.818902  1
  O  O34  1  0.859497  0.857086  0.499772  1
  O  O35  1  0.158200  0.153537  0.182312  1
  O  O36  1  0.001786  0.853987  0.185327  1
  O  O37  1  0.682348  0.513507  0.015414  1
  O  O38  1  0.682470  0.514532  0.460363  1
  O  O39  1  0.521155  0.343033  0.737783  1
  O  O40  1  0.516874  0.195249  0.416257  1
  O  O41  1  0.515240  0.185813  0.053211  1
  O  O42  1  0.822333  0.478075  0.736089  1
  O  O43  1  0.652043  0.172338  0.735992  1
  O  O44  1  0.811826  0.329280  0.419816  1
  O  O45  1  0.811856  0.318948  0.047549  1
  O  O46  1  0.831559  0.006745  0.225099  1
  O  O47  1  0.007574  0.155055  0.500129  1
