# generated using pymatgen
data_Fe2S
_symmetry_space_group_name_H-M   'P 1'
_cell_length_a   3.00335124
_cell_length_b   21.35037443
_cell_length_c   5.11390204
_cell_angle_alpha   122.24109658
_cell_angle_beta   72.92365145
_cell_angle_gamma   89.99999996
_symmetry_Int_Tables_number   1
_chemical_formula_structural   Fe2S
_chemical_formula_sum   'Fe14 S7'
_cell_volume   260.10417782
_cell_formula_units_Z   7
loop_
 _symmetry_equiv_pos_site_id
 _symmetry_equiv_pos_as_xyz
  1  'x, y, z'
loop_
 _atom_site_type_symbol
 _atom_site_label
 _atom_site_symmetry_multiplicity
 _atom_site_fract_x
 _atom_site_fract_y
 _atom_site_fract_z
 _atom_site_occupancy
  Fe  Fe0  1  0.683648  0.851463  0.632706  1
  Fe  Fe1  1  0.761762  0.945081  0.476476  1
  Fe  Fe2  1  0.339030  0.618898  0.321938  1
  Fe  Fe3  1  0.362007  0.743191  0.275985  1
  Fe  Fe4  1  0.091049  0.588218  0.817903  1
  Fe  Fe5  1  0.640266  0.750655  0.719469  1
  Fe  Fe6  1  0.818124  0.446678  0.363752  1
  Fe  Fe7  1  0.052330  0.478054  0.895340  1
  Fe  Fe8  1  0.526021  0.305420  0.947959  1
  Fe  Fe9  1  0.790665  0.329205  0.418670  1
  Fe  Fe10  1  0.251097  0.161100  0.497806  1
  Fe  Fe11  1  0.507403  0.188016  0.985193  1
  Fe  Fe12  1  0.982708  0.012523  0.034585  1
  Fe  Fe13  1  0.205469  0.059037  0.589062  1
  S  S14  1  0.429584  0.943647  0.140832  1
  S  S15  1  0.940852  0.815126  0.118294  1
  S  S16  1  0.628263  0.651747  0.743474  1
  S  S17  1  0.358197  0.509251  0.283606  1
  S  S18  1  0.088092  0.365989  0.823818  1
  S  S19  1  0.802206  0.221157  0.395586  1
  S  S20  1  0.526942  0.075067  0.946116  1
