# generated using pymatgen
data_Li2Ni3(P2O7)2
_symmetry_space_group_name_H-M   'P 1'
_cell_length_a   13.10421775
_cell_length_b   7.26579102
_cell_length_c   6.38359636
_cell_angle_alpha   90.00000000
_cell_angle_beta   85.31540345
_cell_angle_gamma   90.00000000
_symmetry_Int_Tables_number   1
_chemical_formula_structural   Li2Ni3(P2O7)2
_chemical_formula_sum   'Li4 Ni6 P8 O28'
_cell_volume   605.76779420
_cell_formula_units_Z   2
loop_
 _symmetry_equiv_pos_site_id
 _symmetry_equiv_pos_as_xyz
  1  'x, y, z'
loop_
 _atom_site_type_symbol
 _atom_site_label
 _atom_site_symmetry_multiplicity
 _atom_site_fract_x
 _atom_site_fract_y
 _atom_site_fract_z
 _atom_site_occupancy
  Li  Li0  1  0.028953  0.309057  0.462156  1
  Li  Li1  1  0.399666  0.245039  0.931509  1
  Li  Li2  1  0.600334  0.745039  0.068491  1
  Li  Li3  1  0.971047  0.809057  0.537844  1
  Ni  Ni4  1  0.097665  0.011434  0.185311  1
  Ni  Ni5  1  0.275112  0.611910  0.723032  1
  Ni  Ni6  1  0.398550  0.107964  0.421585  1
  Ni  Ni7  1  0.601450  0.607964  0.578415  1
  Ni  Ni8  1  0.724888  0.111910  0.276968  1
  Ni  Ni9  1  0.902335  0.511434  0.814689  1
  P  P10  1  0.114170  0.310486  0.918037  1
  P  P11  1  0.168076  0.985120  0.645609  1
  P  P12  1  0.306508  0.795116  0.140809  1
  P  P13  1  0.420960  0.513495  0.371008  1
  P  P14  1  0.579040  0.013495  0.628992  1
  P  P15  1  0.693492  0.295116  0.859191  1
  P  P16  1  0.831924  0.485120  0.354391  1
  P  P17  1  0.885830  0.810486  0.081963  1
  O  O18  1  0.036632  0.383834  0.772623  1
  O  O19  1  0.078679  0.294055  0.152204  1
  O  O20  1  0.124163  0.083716  0.868347  1
  O  O21  1  0.089638  0.053952  0.495291  1
  O  O22  1  0.158404  0.778478  0.680517  1
  O  O23  1  0.220879  0.388431  0.868181  1
  O  O24  1  0.190786  0.804553  0.160842  1
  O  O25  1  0.276146  0.056693  0.604511  1
  O  O26  1  0.328645  0.657262  0.339046  1
  O  O27  1  0.404845  0.479858  0.609186  1
  O  O28  1  0.354427  0.699509  0.944941  1
  O  O29  1  0.405931  0.337437  0.243021  1
  O  O30  1  0.362021  0.978142  0.172041  1
  O  O31  1  0.523493  0.610897  0.313319  1
  O  O32  1  0.476507  0.110897  0.686681  1
  O  O33  1  0.637979  0.478142  0.827959  1
  O  O34  1  0.594069  0.837437  0.756979  1
  O  O35  1  0.645573  0.199509  0.055059  1
  O  O36  1  0.595155  0.979858  0.390814  1
  O  O37  1  0.671355  0.157262  0.660954  1
  O  O38  1  0.723854  0.556693  0.395489  1
  O  O39  1  0.809214  0.304553  0.839158  1
  O  O40  1  0.779121  0.888431  0.131819  1
  O  O41  1  0.841596  0.278478  0.319483  1
  O  O42  1  0.910362  0.553952  0.504709  1
  O  O43  1  0.875837  0.583716  0.131653  1
  O  O44  1  0.921321  0.794055  0.847796  1
  O  O45  1  0.963368  0.883834  0.227377  1
