# generated using pymatgen
data_Ca2SnS4
_symmetry_space_group_name_H-M   'P 1'
_cell_length_a   6.88313692
_cell_length_b   7.34067742
_cell_length_c   13.55192436
_cell_angle_alpha   89.99999020
_cell_angle_beta   90.00056781
_cell_angle_gamma   90.00001076
_symmetry_Int_Tables_number   1
_chemical_formula_structural   Ca2SnS4
_chemical_formula_sum   'Ca8 Sn4 S16'
_cell_volume   684.73656115
_cell_formula_units_Z   4
loop_
 _symmetry_equiv_pos_site_id
 _symmetry_equiv_pos_as_xyz
  1  'x, y, z'
loop_
 _atom_site_type_symbol
 _atom_site_label
 _atom_site_symmetry_multiplicity
 _atom_site_fract_x
 _atom_site_fract_y
 _atom_site_fract_z
 _atom_site_occupancy
  Ca  Ca0  1  0.488913  0.902645  0.855160  1
  Ca  Ca1  1  0.988913  0.597347  0.144832  1
  Ca  Ca2  1  0.511085  0.402644  0.644839  1
  Ca  Ca3  1  0.011086  0.097345  0.355167  1
  Ca  Ca4  1  0.511076  0.097383  0.144831  1
  Ca  Ca5  1  0.011081  0.402610  0.855163  1
  Ca  Ca6  1  0.488924  0.597382  0.355170  1
  Ca  Ca7  1  0.988920  0.902609  0.644838  1
  Sn  Sn8  1  0.500035  0.000043  0.499972  1
  Sn  Sn9  1  0.000054  0.500010  0.500049  1
  Sn  Sn10  1  0.499965  0.500044  0.000028  1
  Sn  Sn11  1  -0.000054  0.000010  0.999951  1
  S  S12  1  0.310413  0.695846  0.552394  1
  S  S13  1  0.810416  0.804148  0.447605  1
  S  S14  1  0.689587  0.195846  0.947606  1
  S  S15  1  0.189584  0.304148  0.052395  1
  S  S16  1  0.689581  0.304155  0.447599  1
  S  S17  1  0.189581  0.195842  0.552398  1
  S  S18  1  0.310419  0.804155  0.052401  1
  S  S19  1  0.810420  0.695842  0.947601  1
  S  S20  1  0.617549  0.039710  0.673585  1
  S  S21  1  0.117559  0.460272  0.326400  1
  S  S22  1  0.382451  0.539711  0.826415  1
  S  S23  1  0.882441  0.960272  0.173600  1
  S  S24  1  0.382444  0.960296  0.326423  1
  S  S25  1  0.882446  0.539695  0.673567  1
  S  S26  1  0.617556  0.460297  0.173577  1
  S  S27  1  0.117555  0.039695  0.826434  1
