# generated using pymatgen
data_H28RuS2(N3O5)2
_symmetry_space_group_name_H-M   'P 1'
_cell_length_a   6.34372287
_cell_length_b   10.04499632
_cell_length_c   12.62881544
_cell_angle_alpha   90.00000000
_cell_angle_beta   84.46014607
_cell_angle_gamma   90.00000000
_symmetry_Int_Tables_number   1
_chemical_formula_structural   H28RuS2(N3O5)2
_chemical_formula_sum   'H56 Ru2 S4 N12 O20'
_cell_volume   800.98315882
_cell_formula_units_Z   2
loop_
 _symmetry_equiv_pos_site_id
 _symmetry_equiv_pos_as_xyz
  1  'x, y, z'
loop_
 _atom_site_type_symbol
 _atom_site_label
 _atom_site_symmetry_multiplicity
 _atom_site_fract_x
 _atom_site_fract_y
 _atom_site_fract_z
 _atom_site_occupancy
  H  H0  1  0.095965  0.971221  0.201449  1
  H  H1  1  0.047936  0.891029  0.423494  1
  H  H2  1  0.141418  0.708399  0.185576  1
  H  H3  1  0.164809  0.123831  0.167877  1
  H  H4  1  0.149894  0.034522  0.410746  1
  H  H5  1  0.095965  0.528779  0.701449  1
  H  H6  1  0.047936  0.608971  0.923494  1
  H  H7  1  0.141418  0.791601  0.685576  1
  H  H8  1  0.164809  0.376169  0.667877  1
  H  H9  1  0.196766  0.729675  0.449166  1
  H  H10  1  0.149894  0.465478  0.910746  1
  H  H11  1  0.318952  0.997459  0.128172  1
  H  H12  1  0.284143  0.621658  0.357941  1
  H  H13  1  0.340347  0.360451  0.080601  1
  H  H14  1  0.351485  0.503772  0.153562  1
  H  H15  1  0.334552  0.354742  0.214620  1
  H  H16  1  0.196766  0.770325  0.949165  1
  H  H17  1  0.389772  0.732516  0.157557  1
  H  H18  1  0.318952  0.502541  0.628172  1
  H  H19  1  0.284143  0.878342  0.857941  1
  H  H20  1  0.379730  0.623302  0.477328  1
  H  H21  1  0.340347  0.139549  0.580601  1
  H  H22  1  0.351485  0.996228  0.653562  1
  H  H23  1  0.334552  0.145258  0.714620  1
  H  H24  1  0.389772  0.767484  0.657557  1
  H  H25  1  0.433682  0.902347  0.359896  1
  H  H26  1  0.379730  0.876698  0.977328  1
  H  H27  1  0.566318  0.402347  0.140104  1
  H  H28  1  0.433682  0.597653  0.859896  1
  H  H29  1  0.620270  0.123302  0.022672  1
  H  H30  1  0.566318  0.097653  0.640104  1
  H  H31  1  0.610228  0.232516  0.342443  1
  H  H32  1  0.665448  0.854742  0.285380  1
  H  H33  1  0.648515  0.003772  0.346438  1
  H  H34  1  0.659653  0.860451  0.419399  1
  H  H35  1  0.620270  0.376698  0.522672  1
  H  H36  1  0.715857  0.121658  0.142059  1
  H  H37  1  0.681048  0.497459  0.371828  1
  H  H38  1  0.610228  0.267484  0.842443  1
  H  H39  1  0.803234  0.229675  0.050835  1
  H  H40  1  0.665448  0.645258  0.785380  1
  H  H41  1  0.648515  0.496228  0.846438  1
  H  H42  1  0.659653  0.639549  0.919399  1
  H  H43  1  0.715857  0.378342  0.642059  1
  H  H44  1  0.681048  0.002541  0.871828  1
  H  H45  1  0.850106  0.534522  0.089254  1
  H  H46  1  0.803234  0.270325  0.550835  1
  H  H47  1  0.835191  0.623831  0.332123  1
  H  H48  1  0.858582  0.208399  0.314424  1
  H  H49  1  0.952064  0.391029  0.076506  1
  H  H50  1  0.904035  0.471221  0.298551  1
  H  H51  1  0.850106  0.965478  0.589254  1
  H  H52  1  0.835191  0.876169  0.832123  1
  H  H53  1  0.858582  0.291601  0.814424  1
  H  H54  1  0.952064  0.108971  0.576506  1
  H  H55  1  0.904035  0.028779  0.798551  1
  Ru  Ru56  1  0.000000  0.000000  0.000000  1
  Ru  Ru57  1  0.000000  0.500000  0.500000  1
  S  S58  1  0.188400  0.323325  0.421588  1
  S  S59  1  0.188400  0.176675  0.921588  1
  S  S60  1  0.811600  0.823325  0.078412  1
  S  S61  1  0.811600  0.676675  0.578412  1
  N  N62  1  0.164191  0.027815  0.139620  1
  N  N63  1  0.164191  0.472185  0.639620  1
  N  N64  1  0.245481  0.633255  0.438305  1
  N  N65  1  0.245481  0.866745  0.938305  1
  N  N66  1  0.400929  0.403896  0.146822  1
  N  N67  1  0.400929  0.096103  0.646822  1
  N  N68  1  0.599071  0.903896  0.353178  1
  N  N69  1  0.599071  0.596104  0.853178  1
  N  N70  1  0.754519  0.133255  0.061695  1
  N  N71  1  0.754519  0.366745  0.561695  1
  N  N72  1  0.835809  0.527815  0.360380  1
  N  N73  1  0.835809  0.972185  0.860380  1
  O  O74  1  0.118721  0.283872  0.313094  1
  O  O75  1  0.156411  0.943544  0.380254  1
  O  O76  1  0.165334  0.194640  0.489844  1
  O  O77  1  0.118721  0.216128  0.813094  1
  O  O78  1  0.283443  0.667812  0.190035  1
  O  O79  1  0.156411  0.556456  0.880254  1
  O  O80  1  0.165334  0.305360  0.989844  1
  O  O81  1  0.283443  0.832188  0.690035  1
  O  O82  1  0.425805  0.351396  0.403029  1
  O  O83  1  0.574195  0.851396  0.096971  1
  O  O84  1  0.425805  0.148604  0.903029  1
  O  O85  1  0.574195  0.648604  0.596971  1
  O  O86  1  0.716557  0.167812  0.309965  1
  O  O87  1  0.834666  0.694640  0.010156  1
  O  O88  1  0.843589  0.443544  0.119746  1
  O  O89  1  0.716557  0.332188  0.809965  1
  O  O90  1  0.881279  0.783872  0.186906  1
  O  O91  1  0.834666  0.805360  0.510156  1
  O  O92  1  0.843589  0.056456  0.619746  1
  O  O93  1  0.881279  0.716128  0.686906  1
