# generated using pymatgen
data_Li2V3P4(HO4)4
_symmetry_space_group_name_H-M   'P 1'
_cell_length_a   9.15540593
_cell_length_b   8.25067488
_cell_length_c   8.86804665
_cell_angle_alpha   90.00000000
_cell_angle_beta   98.58576420
_cell_angle_gamma   90.00000000
_symmetry_Int_Tables_number   1
_chemical_formula_structural   Li2V3P4(HO4)4
_chemical_formula_sum   'Li4 V6 P8 H8 O32'
_cell_volume   662.36999722
_cell_formula_units_Z   2
loop_
 _symmetry_equiv_pos_site_id
 _symmetry_equiv_pos_as_xyz
  1  'x, y, z'
loop_
 _atom_site_type_symbol
 _atom_site_label
 _atom_site_symmetry_multiplicity
 _atom_site_fract_x
 _atom_site_fract_y
 _atom_site_fract_z
 _atom_site_occupancy
  Li  Li0  1  0.033513  0.332502  0.997290  1
  Li  Li1  1  0.533513  0.167498  0.997290  1
  Li  Li2  1  0.466487  0.832502  0.002710  1
  Li  Li3  1  0.966487  0.667498  0.002710  1
  V  V4  1  0.000000  0.500000  0.500000  1
  V  V5  1  0.004074  0.138756  0.353212  1
  V  V6  1  0.495926  0.638756  0.646788  1
  V  V7  1  0.500000  0.000000  0.500000  1
  V  V8  1  0.504074  0.361244  0.353212  1
  V  V9  1  0.995926  0.861244  0.646788  1
  P  P10  1  0.226901  0.564854  0.822072  1
  P  P11  1  0.204502  0.802141  0.386699  1
  P  P12  1  0.295498  0.302141  0.613301  1
  P  P13  1  0.273099  0.064854  0.177928  1
  P  P14  1  0.726901  0.935146  0.822072  1
  P  P15  1  0.704502  0.697859  0.386699  1
  P  P16  1  0.795498  0.197859  0.613301  1
  P  P17  1  0.773099  0.435146  0.177928  1
  H  H18  1  0.211424  0.998886  0.887576  1
  H  H19  1  0.233713  0.041846  0.722437  1
  H  H20  1  0.266287  0.541846  0.277563  1
  H  H21  1  0.288576  0.498886  0.112424  1
  H  H22  1  0.711424  0.501114  0.887576  1
  H  H23  1  0.733713  0.458154  0.722437  1
  H  H24  1  0.766287  0.958154  0.277563  1
  H  H25  1  0.788576  0.001114  0.112424  1
  O  O26  1  0.119689  0.633248  0.686843  1
  O  O27  1  0.156347  0.004937  0.783110  1
  O  O28  1  0.107407  0.924198  0.454728  1
  O  O29  1  0.147615  0.539031  0.961197  1
  O  O30  1  0.143042  0.291642  0.514904  1
  O  O31  1  0.130929  0.637920  0.348517  1
  O  O32  1  0.128545  0.161878  0.146802  1
  O  O33  1  0.269724  0.379669  0.777738  1
  O  O34  1  0.230276  0.879669  0.222262  1
  O  O35  1  0.371455  0.661878  0.853198  1
  O  O36  1  0.369071  0.137920  0.651483  1
  O  O37  1  0.356958  0.791642  0.485096  1
  O  O38  1  0.352385  0.039031  0.038803  1
  O  O39  1  0.392593  0.424198  0.545272  1
  O  O40  1  0.343653  0.504937  0.216890  1
  O  O41  1  0.380311  0.133248  0.313157  1
  O  O42  1  0.619689  0.866752  0.686843  1
  O  O43  1  0.656347  0.495063  0.783110  1
  O  O44  1  0.607407  0.575802  0.454728  1
  O  O45  1  0.647615  0.960969  0.961197  1
  O  O46  1  0.643042  0.208358  0.514904  1
  O  O47  1  0.630929  0.862080  0.348517  1
  O  O48  1  0.628545  0.338122  0.146802  1
  O  O49  1  0.769724  0.120331  0.777738  1
  O  O50  1  0.730276  0.620331  0.222262  1
  O  O51  1  0.871455  0.838122  0.853198  1
  O  O52  1  0.869071  0.362080  0.651483  1
  O  O53  1  0.856958  0.708358  0.485096  1
  O  O54  1  0.852385  0.460969  0.038803  1
  O  O55  1  0.892593  0.075802  0.545272  1
  O  O56  1  0.843653  0.995063  0.216890  1
  O  O57  1  0.880311  0.366752  0.313157  1
