# generated using pymatgen
data_Nb6Cd(Br8O9)2
_symmetry_space_group_name_H-M   'P 1'
_cell_length_a   14.91411125
_cell_length_b   14.91411125
_cell_length_c   14.91411125
_cell_angle_alpha   60.00000000
_cell_angle_beta   60.00000000
_cell_angle_gamma   60.00000000
_symmetry_Int_Tables_number   1
_chemical_formula_structural   Nb6Cd(Br8O9)2
_chemical_formula_sum   'Nb12 Cd2 Br32 O36'
_cell_volume   2345.72521978
_cell_formula_units_Z   2
loop_
 _symmetry_equiv_pos_site_id
 _symmetry_equiv_pos_as_xyz
  1  'x, y, z'
loop_
 _atom_site_type_symbol
 _atom_site_label
 _atom_site_symmetry_multiplicity
 _atom_site_fract_x
 _atom_site_fract_y
 _atom_site_fract_z
 _atom_site_occupancy
  Nb  Nb0  1  0.024279  0.725721  0.725721  1
  Nb  Nb1  1  0.725721  0.024279  0.024279  1
  Nb  Nb2  1  0.725721  0.725721  0.024279  1
  Nb  Nb3  1  0.024279  0.024279  0.725721  1
  Nb  Nb4  1  0.725721  0.024279  0.725721  1
  Nb  Nb5  1  0.024279  0.725721  0.024279  1
  Nb  Nb6  1  -0.024279  0.274279  0.274279  1
  Nb  Nb7  1  0.274279  -0.024279  -0.024279  1
  Nb  Nb8  1  0.274279  0.274279  -0.024279  1
  Nb  Nb9  1  -0.024279  -0.024279  0.274279  1
  Nb  Nb10  1  0.274279  -0.024279  0.274279  1
  Nb  Nb11  1  -0.024279  0.274279  -0.024279  1
  Cd  Cd12  1  0.625000  0.625000  0.625000  1
  Cd  Cd13  1  0.375000  0.375000  0.375000  1
  Br  Br14  1  0.871718  0.631071  0.871718  1
  Br  Br15  1  0.125493  0.871718  0.631071  1
  Br  Br16  1  0.631071  0.871718  0.125493  1
  Br  Br17  1  0.871718  0.125493  0.871718  1
  Br  Br18  1  0.631071  0.871718  0.871718  1
  Br  Br19  1  0.871718  0.631071  0.125493  1
  Br  Br20  1  0.871718  0.125493  0.631071  1
  Br  Br21  1  0.125493  0.871718  0.871718  1
  Br  Br22  1  0.871718  0.871718  0.631071  1
  Br  Br23  1  0.631071  0.125493  0.871718  1
  Br  Br24  1  0.125493  0.631071  0.871718  1
  Br  Br25  1  0.871718  0.871718  0.125493  1
  Br  Br26  1  0.128282  0.368929  0.128282  1
  Br  Br27  1  0.874507  0.128282  0.368929  1
  Br  Br28  1  0.368929  0.128282  0.874507  1
  Br  Br29  1  0.128282  0.874507  0.128282  1
  Br  Br30  1  0.368929  0.128282  0.128282  1
  Br  Br31  1  0.128282  0.368929  0.874507  1
  Br  Br32  1  0.128282  0.874507  0.368929  1
  Br  Br33  1  0.874507  0.128282  0.128282  1
  Br  Br34  1  0.128282  0.128282  0.368929  1
  Br  Br35  1  0.368929  0.874507  0.128282  1
  Br  Br36  1  0.874507  0.368929  0.128282  1
  Br  Br37  1  0.128282  0.128282  0.874507  1
  Br  Br38  1  0.697874  0.406377  0.697874  1
  Br  Br39  1  0.697874  0.697874  0.406377  1
  Br  Br40  1  0.406377  0.697874  0.697874  1
  Br  Br41  1  0.697874  0.697874  0.697874  1
  Br  Br42  1  0.302126  0.593623  0.302126  1
  Br  Br43  1  0.302126  0.302126  0.593623  1
  Br  Br44  1  0.593623  0.302126  0.302126  1
  Br  Br45  1  0.302126  0.302126  0.302126  1
  O  O46  1  0.105485  0.644515  0.644515  1
  O  O47  1  0.644515  0.105485  0.105485  1
  O  O48  1  0.644515  0.644515  0.105485  1
  O  O49  1  0.105485  0.105485  0.644515  1
  O  O50  1  0.644515  0.105485  0.644515  1
  O  O51  1  0.105485  0.644515  0.105485  1
  O  O52  1  0.894515  0.355485  0.355485  1
  O  O53  1  0.355485  0.894515  0.894515  1
  O  O54  1  0.355485  0.355485  0.894515  1
  O  O55  1  0.894515  0.894515  0.355485  1
  O  O56  1  0.355485  0.894515  0.355485  1
  O  O57  1  0.894515  0.355485  0.894515  1
  O  O58  1  0.559368  0.974812  0.559368  1
  O  O59  1  0.406452  0.559368  0.974812  1
  O  O60  1  0.974812  0.559368  0.406452  1
  O  O61  1  0.559368  0.406452  0.559368  1
  O  O62  1  0.974812  0.559368  0.559368  1
  O  O63  1  0.559368  0.974812  0.406452  1
  O  O64  1  0.559368  0.406452  0.974812  1
  O  O65  1  0.406452  0.559368  0.559368  1
  O  O66  1  0.559368  0.559368  0.974812  1
  O  O67  1  0.974812  0.406452  0.559368  1
  O  O68  1  0.406452  0.974812  0.559368  1
  O  O69  1  0.559368  0.559368  0.406452  1
  O  O70  1  0.440632  0.025188  0.440632  1
  O  O71  1  0.593548  0.440632  0.025188  1
  O  O72  1  0.025188  0.440632  0.593548  1
  O  O73  1  0.440632  0.593548  0.440632  1
  O  O74  1  0.025188  0.440632  0.440632  1
  O  O75  1  0.440632  0.025188  0.593548  1
  O  O76  1  0.440632  0.593548  0.025188  1
  O  O77  1  0.593548  0.440632  0.440632  1
  O  O78  1  0.440632  0.440632  0.025188  1
  O  O79  1  0.025188  0.593548  0.440632  1
  O  O80  1  0.593548  0.025188  0.440632  1
  O  O81  1  0.440632  0.440632  0.593548  1
