# generated using pymatgen
data_Na5InO4
_symmetry_space_group_name_H-M   'P 1'
_cell_length_a   5.53437023
_cell_length_b   7.46468523
_cell_length_c   7.70607860
_cell_angle_alpha   90.00000000
_cell_angle_beta   90.00000000
_cell_angle_gamma   90.00000000
_symmetry_Int_Tables_number   1
_chemical_formula_structural   Na5InO4
_chemical_formula_sum   'Na10 In2 O8'
_cell_volume   318.35607533
_cell_formula_units_Z   2
loop_
 _symmetry_equiv_pos_site_id
 _symmetry_equiv_pos_as_xyz
  1  'x, y, z'
loop_
 _atom_site_type_symbol
 _atom_site_label
 _atom_site_symmetry_multiplicity
 _atom_site_fract_x
 _atom_site_fract_y
 _atom_site_fract_z
 _atom_site_occupancy
  O  O0  1  0.018111  0.250000  0.482668  1
  O  O1  1  0.018111  0.250000  0.017332  1
  O  O2  1  0.422177  0.011680  0.250000  1
  O  O3  1  0.422177  0.488320  0.250000  1
  O  O4  1  0.577823  0.511680  0.750000  1
  O  O5  1  0.577823  0.988320  0.750000  1
  O  O6  1  0.981889  0.750000  0.517332  1
  O  O7  1  0.981889  0.750000  0.982668  1
  Na  Na8  1  0.255336  0.989568  0.944196  1
  Na  Na9  1  0.744664  0.489568  0.055804  1
  Na  Na10  1  0.803569  0.250000  0.750000  1
  Na  Na11  1  0.196431  0.750000  0.250000  1
  Na  Na12  1  0.255336  0.510432  0.944196  1
  Na  Na13  1  0.255336  0.989568  0.555804  1
  Na  Na14  1  0.744664  0.010432  0.055804  1
  Na  Na15  1  0.744664  0.489568  0.444196  1
  Na  Na16  1  0.744664  0.010432  0.444196  1
  Na  Na17  1  0.255336  0.510432  0.555804  1
  In  In18  1  0.221616  0.250000  0.250000  1
  In  In19  1  0.778384  0.750000  0.750000  1
