# generated using pymatgen
data_PuI2
_symmetry_space_group_name_H-M   'P 1'
_cell_length_a   7.79038043
_cell_length_b   7.79409950
_cell_length_c   4.57503997
_cell_angle_alpha   90.15524037
_cell_angle_beta   89.96825918
_cell_angle_gamma   90.15331763
_symmetry_Int_Tables_number   1
_chemical_formula_structural   PuI2
_chemical_formula_sum   'Pu2 I4'
_cell_volume   277.78979702
_cell_formula_units_Z   2
loop_
 _symmetry_equiv_pos_site_id
 _symmetry_equiv_pos_as_xyz
  1  'x, y, z'
loop_
 _atom_site_type_symbol
 _atom_site_label
 _atom_site_symmetry_multiplicity
 _atom_site_fract_x
 _atom_site_fract_y
 _atom_site_fract_z
 _atom_site_occupancy
  Pu  Pu0  1  0.000003  0.000001  0.000004  1
  Pu  Pu1  1  0.500000  0.499998  0.499990  1
  I  I2  1  0.295193  0.295194  0.999863  1
  I  I3  1  0.704806  0.704807  0.000139  1
  I  I4  1  0.795300  0.204696  0.500252  1
  I  I5  1  0.204699  0.795304  0.499756  1
