# generated using pymatgen
data_Li7Fe8(BO3)8
_symmetry_space_group_name_H-M   'P 1'
_cell_length_a   5.23065497
_cell_length_b   9.07743699
_cell_length_c   11.44599852
_cell_angle_alpha   67.63604917
_cell_angle_beta   77.07849789
_cell_angle_gamma   89.95164628
_symmetry_Int_Tables_number   1
_chemical_formula_structural   Li7Fe8(BO3)8
_chemical_formula_sum   'Li7 Fe8 B8 O24'
_cell_volume   487.71934739
_cell_formula_units_Z   1
loop_
 _symmetry_equiv_pos_site_id
 _symmetry_equiv_pos_as_xyz
  1  'x, y, z'
loop_
 _atom_site_type_symbol
 _atom_site_label
 _atom_site_symmetry_multiplicity
 _atom_site_fract_x
 _atom_site_fract_y
 _atom_site_fract_z
 _atom_site_occupancy
  Li  Li0  1  0.966804  0.959156  0.415447  1
  Li  Li1  1  0.704886  0.716875  0.912107  1
  Li  Li2  1  0.513337  0.493072  0.664439  1
  Li  Li3  1  0.730566  0.750384  0.168424  1
  Li  Li4  1  0.208191  0.219406  0.905696  1
  Li  Li5  1  0.015967  0.996487  0.663792  1
  Li  Li6  1  0.232813  0.253185  0.166266  1
  Fe  Fe7  1  0.986834  0.637189  0.381805  1
  Fe  Fe8  1  0.734817  0.063522  0.880340  1
  Fe  Fe9  1  0.506261  0.845155  0.635364  1
  Fe  Fe10  1  0.750271  0.434218  0.132350  1
  Fe  Fe11  1  0.228816  0.559078  0.884647  1
  Fe  Fe12  1  0.479148  0.155979  0.385485  1
  Fe  Fe13  1  0.035754  0.346386  0.624363  1
  Fe  Fe14  1  0.254998  0.936820  0.129159  1
  B  B15  1  0.972118  0.311370  0.374281  1
  B  B16  1  0.730494  0.398602  0.876883  1
  B  B17  1  0.522732  0.182990  0.634183  1
  B  B18  1  0.763304  0.103753  0.125845  1
  B  B19  1  0.490681  0.817656  0.377420  1
  B  B20  1  0.230954  0.896816  0.876675  1
  B  B21  1  0.024669  0.689161  0.622293  1
  B  B22  1  0.268700  0.602267  0.128185  1
  O  O23  1  0.974106  0.894268  0.863395  1
  O  O24  1  0.888749  0.287789  0.847404  1
  O  O25  1  0.830239  0.510722  0.914727  1
  O  O26  1  0.911652  0.828021  0.614756  1
  O  O27  1  0.905778  0.579567  0.583732  1
  O  O28  1  0.766779  0.156523  0.665649  1
  O  O29  1  0.739294  0.338319  0.336407  1
  O  O30  1  0.473316  0.398581  0.863410  1
  O  O31  1  0.395103  0.788319  0.846225  1
  O  O32  1  0.583300  0.926152  0.418322  1
  O  O33  1  0.646427  0.701845  0.357979  1
  O  O34  1  0.326735  0.005508  0.919526  1
  O  O35  1  0.659848  0.982504  0.097125  1
  O  O36  1  0.399615  0.314624  0.639233  1
  O  O37  1  0.403670  0.073948  0.598754  1
  O  O38  1  0.601255  0.208901  0.159837  1
  O  O39  1  0.537612  0.625016  0.110514  1
  O  O40  1  0.258374  0.654985  0.662699  1
  O  O41  1  0.235832  0.823619  0.351471  1
  O  O42  1  0.073054  0.420703  0.416649  1
  O  O43  1  0.104864  0.181674  0.368064  1
  O  O44  1  0.161399  0.487421  0.095733  1
  O  O45  1  0.102566  0.699796  0.177014  1
  O  O46  1  0.033350  0.118952  0.116445  1
