# generated using pymatgen
data_Li3V3P8O29
_symmetry_space_group_name_H-M   'P 1'
_cell_length_a   9.75613670
_cell_length_b   9.77299310
_cell_length_c   14.40892697
_cell_angle_alpha   90.17057651
_cell_angle_beta   90.78228816
_cell_angle_gamma   59.94292493
_symmetry_Int_Tables_number   1
_chemical_formula_structural   Li3V3P8O29
_chemical_formula_sum   'Li6 V6 P16 O58'
_cell_volume   1188.97541798
_cell_formula_units_Z   2
loop_
 _symmetry_equiv_pos_site_id
 _symmetry_equiv_pos_as_xyz
  1  'x, y, z'
loop_
 _atom_site_type_symbol
 _atom_site_label
 _atom_site_symmetry_multiplicity
 _atom_site_fract_x
 _atom_site_fract_y
 _atom_site_fract_z
 _atom_site_occupancy
  Li  Li0  1  0.769848  0.909266  0.548189  1
  Li  Li1  1  0.770606  0.318935  0.056953  1
  Li  Li2  1  0.303604  0.915130  0.059793  1
  Li  Li3  1  0.321324  0.772256  0.557185  1
  Li  Li4  1  0.709218  0.072656  0.944848  1
  Li  Li5  1  0.974740  0.064112  0.500704  1
  V  V6  1  0.563105  0.433846  0.256140  1
  V  V7  1  0.434117  0.563159  0.746996  1
  V  V8  1  0.566996  0.994358  0.748680  1
  V  V9  1  0.431556  0.004432  0.251646  1
  V  V10  1  0.002204  0.563287  0.248216  1
  V  V11  1  0.995697  0.438482  0.748373  1
  P  P12  1  0.918485  0.770629  0.845462  1
  P  P13  1  0.778393  0.909837  0.337045  1
  P  P14  1  0.921661  0.305100  0.340326  1
  P  P15  1  0.661743  0.665733  0.133762  1
  P  P16  1  0.664522  0.669116  0.631232  1
  P  P17  1  0.772842  0.317223  0.838862  1
  P  P18  1  0.693740  0.219137  0.659393  1
  P  P19  1  0.321296  0.906625  0.842621  1
  P  P20  1  0.679565  0.092954  0.159616  1
  P  P21  1  0.311810  0.776009  0.343213  1
  P  P22  1  0.223696  0.686539  0.164452  1
  P  P23  1  0.333595  0.332918  0.366941  1
  P  P24  1  0.337248  0.329236  0.863631  1
  P  P25  1  0.079163  0.695805  0.662062  1
  P  P26  1  0.217664  0.087650  0.665742  1
  P  P27  1  0.083844  0.226552  0.158687  1
  O  O28  1  0.987491  0.797251  0.581961  1
  O  O29  1  0.917001  0.738478  0.328413  1
  O  O30  1  0.749531  0.016079  0.070166  1
  O  O31  1  0.745513  0.917347  0.834460  1
  O  O32  1  0.908801  0.618662  0.821857  1
  O  O33  1  0.813904  0.654906  0.181246  1
  O  O34  1  0.928664  0.458696  0.330184  1
  O  O35  1  0.990613  0.230949  0.075501  1
  O  O36  1  0.916575  0.341314  0.831491  1
  O  O37  1  0.674531  0.813944  0.676070  1
  O  O38  1  0.618275  0.911567  0.323454  1
  O  O39  1  0.808423  0.519167  0.676386  1
  O  O40  1  0.664116  0.661610  0.030711  1
  O  O41  1  0.665115  0.684718  0.528663  1
  O  O42  1  0.655755  0.520214  0.174944  1
  O  O43  1  0.481963  0.897116  0.818926  1
  O  O44  1  0.516648  0.820793  0.172689  1
  O  O45  1  0.744728  0.347405  0.327914  1
  O  O46  1  0.789026  0.199400  0.756521  1
  O  O47  1  0.796151  0.195096  0.579284  1
  O  O48  1  0.759778  0.247842  0.928521  1
  O  O49  1  0.620217  0.478674  0.816997  1
  O  O50  1  0.509872  0.675341  0.666858  1
  O  O51  1  0.659067  0.261302  0.164806  1
  O  O52  1  0.470342  0.617561  0.329592  1
  O  O53  1  0.342950  0.915332  0.326358  1
  O  O54  1  0.793182  0.001079  0.248049  1
  O  O55  1  0.787141  0.983071  0.426149  1
  O  O56  1  0.203756  0.996411  0.586828  1
  O  O57  1  0.653187  0.083193  0.664154  1
  O  O58  1  0.539419  0.382376  0.667981  1
  O  O59  1  0.342588  0.739870  0.824604  1
  O  O60  1  0.485783  0.327557  0.323952  1
  O  O61  1  0.378241  0.526235  0.182294  1
  O  O62  1  0.229195  0.775283  0.083213  1
  O  O63  1  0.237193  0.789738  0.434558  1
  O  O64  1  0.197363  0.788619  0.259308  1
  O  O65  1  0.255242  0.657694  0.660404  1
  O  O66  1  0.484689  0.177621  0.821815  1
  O  O67  1  0.520324  0.100085  0.180247  1
  O  O68  1  0.345521  0.471914  0.815154  1
  O  O69  1  0.348610  0.328871  0.965998  1
  O  O70  1  0.339035  0.327916  0.469555  1
  O  O71  1  0.190237  0.480434  0.321007  1
  O  O72  1  0.380494  0.081345  0.674244  1
  O  O73  1  0.331074  0.185099  0.322039  1
  O  O74  1  0.082859  0.655249  0.166220  1
  O  O75  1  0.010039  0.789964  0.757546  1
  O  O76  1  0.993922  0.770997  0.934082  1
  O  O77  1  0.077434  0.538114  0.672341  1
  O  O78  1  0.186040  0.339001  0.819390  1
  O  O79  1  0.092347  0.379063  0.175801  1
  O  O80  1  0.256220  0.082775  0.159482  1
  O  O81  1  0.262881  0.972983  0.935199  1
  O  O82  1  0.199049  0.015763  0.763024  1
  O  O83  1  0.082878  0.261795  0.667540  1
  O  O84  1  0.994238  0.208417  0.424551  1
  O  O85  1  0.006740  0.199726  0.250210  1
