# generated using pymatgen
data_LiV2(PO4)3
_symmetry_space_group_name_H-M   'P 1'
_cell_length_a   8.87455775
_cell_length_b   8.34909704
_cell_length_c   8.33888151
_cell_angle_alpha   119.90199881
_cell_angle_beta   89.74414854
_cell_angle_gamma   62.36031719
_symmetry_Int_Tables_number   1
_chemical_formula_structural   LiV2(PO4)3
_chemical_formula_sum   'Li2 V4 P6 O24'
_cell_volume   451.58422034
_cell_formula_units_Z   2
loop_
 _symmetry_equiv_pos_site_id
 _symmetry_equiv_pos_as_xyz
  1  'x, y, z'
loop_
 _atom_site_type_symbol
 _atom_site_label
 _atom_site_symmetry_multiplicity
 _atom_site_fract_x
 _atom_site_fract_y
 _atom_site_fract_z
 _atom_site_occupancy
  Li  Li0  1  0.138247  0.940465  0.259912  1
  Li  Li1  1  0.861753  0.059535  0.740088  1
  V  V2  1  0.057295  0.303202  0.655356  1
  V  V3  1  0.570624  0.282378  0.146953  1
  V  V4  1  0.429376  0.717622  0.853047  1
  V  V5  1  0.942705  0.696798  0.344644  1
  P  P6  1  0.248230  0.218840  0.252575  1
  P  P7  1  0.254539  0.498563  0.967339  1
  P  P8  1  0.248899  0.785006  0.535325  1
  P  P9  1  0.751101  0.214994  0.464675  1
  P  P10  1  0.745461  0.501437  0.032661  1
  P  P11  1  0.751770  0.781160  0.747425  1
  O  O12  1  0.105847  0.389176  0.220805  1
  O  O13  1  0.197041  0.290326  0.464775  1
  O  O14  1  0.199218  0.344699  0.822180  1
  O  O15  1  0.102399  0.686578  0.167349  1
  O  O16  1  0.083099  0.762537  0.530488  1
  O  O17  1  0.428957  0.192075  0.201149  1
  O  O18  1  0.279341  0.623013  0.892981  1
  O  O19  1  0.427996  0.362031  0.992082  1
  O  O20  1  0.205531  0.974362  0.511191  1
  O  O21  1  0.271199  0.845183  0.736646  1
  O  O22  1  0.419707  0.577262  0.376017  1
  O  O23  1  0.262702  0.998874  0.116484  1
  O  O24  1  0.737298  0.001126  0.883516  1
  O  O25  1  0.580293  0.422738  0.623983  1
  O  O26  1  0.728801  0.154817  0.263354  1
  O  O27  1  0.794469  0.025638  0.488809  1
  O  O28  1  0.572004  0.637969  0.007918  1
  O  O29  1  0.720659  0.376987  0.107019  1
  O  O30  1  0.571043  0.807925  0.798851  1
  O  O31  1  0.916901  0.237463  0.469512  1
  O  O32  1  0.897601  0.313422  0.832651  1
  O  O33  1  0.800782  0.655301  0.177819  1
  O  O34  1  0.802960  0.709674  0.535225  1
  O  O35  1  0.894153  0.610824  0.779195  1
