# generated using pymatgen
data_Mn6O7F5
_symmetry_space_group_name_H-M   'P 1'
_cell_length_a   4.61286083
_cell_length_b   5.63595998
_cell_length_c   15.37854659
_cell_angle_alpha   89.84544956
_cell_angle_beta   90.39675949
_cell_angle_gamma   90.18876160
_symmetry_Int_Tables_number   1
_chemical_formula_structural   Mn6O7F5
_chemical_formula_sum   'Mn12 O14 F10'
_cell_volume   399.79671552
_cell_formula_units_Z   2
loop_
 _symmetry_equiv_pos_site_id
 _symmetry_equiv_pos_as_xyz
  1  'x, y, z'
loop_
 _atom_site_type_symbol
 _atom_site_label
 _atom_site_symmetry_multiplicity
 _atom_site_fract_x
 _atom_site_fract_y
 _atom_site_fract_z
 _atom_site_occupancy
  Mn  Mn0  1  0.035326  0.175856  0.406024  1
  Mn  Mn1  1  0.022080  0.834429  0.245210  1
  Mn  Mn2  1  0.990415  0.153233  0.079054  1
  Mn  Mn3  1  0.010073  0.169318  0.746755  1
  Mn  Mn4  1  0.982024  0.851152  0.580681  1
  Mn  Mn5  1  0.051053  0.853802  0.913253  1
  Mn  Mn6  1  0.495758  0.347423  0.586300  1
  Mn  Mn7  1  0.487622  0.354010  0.925609  1
  Mn  Mn8  1  0.497696  0.365969  0.255736  1
  Mn  Mn9  1  0.497727  0.653391  0.085614  1
  Mn  Mn10  1  0.517034  0.622877  0.419587  1
  Mn  Mn11  1  0.485621  0.638409  0.756011  1
  O  O12  1  0.237156  0.113984  0.299167  1
  O  O13  1  0.202912  0.110308  0.635488  1
  O  O14  1  0.235388  0.115614  0.971649  1
  O  O15  1  0.208320  0.888540  0.133672  1
  O  O16  1  0.227889  0.891033  0.804497  1
  O  O17  1  0.286345  0.599441  0.314305  1
  O  O18  1  0.290489  0.385891  0.475895  1
  O  O19  1  0.282276  0.395975  0.816845  1
  O  O20  1  0.287155  0.614934  0.976530  1
  O  O21  1  0.716448  0.378758  0.030949  1
  O  O22  1  0.715267  0.616875  0.194954  1
  O  O23  1  0.729255  0.384040  0.358112  1
  O  O24  1  0.728397  0.612081  0.528865  1
  O  O25  1  0.712984  0.385704  0.695445  1
  F  F26  1  0.256637  0.878907  0.467247  1
  F  F27  1  0.243700  0.384755  0.150295  1
  F  F28  1  0.227854  0.619791  0.640985  1
  F  F29  1  0.763508  0.616434  0.868210  1
  F  F30  1  0.740984  0.126791  0.192276  1
  F  F31  1  0.777667  0.105725  0.515394  1
  F  F32  1  0.782491  0.868078  0.360244  1
  F  F33  1  0.777317  0.879835  0.013662  1
  F  F34  1  0.767779  0.128708  0.859640  1
  F  F35  1  0.729355  0.877928  0.695841  1
