# generated using pymatgen
data_NaLi2MnPCO7
_symmetry_space_group_name_H-M   'P 1'
_cell_length_a   8.65608574
_cell_length_b   6.74993290
_cell_length_c   5.01660180
_cell_angle_alpha   90.00000000
_cell_angle_beta   88.10487218
_cell_angle_gamma   90.00000000
_symmetry_Int_Tables_number   1
_chemical_formula_structural   NaLi2MnPCO7
_chemical_formula_sum   'Na2 Li4 Mn2 P2 C2 O14'
_cell_volume   292.94967766
_cell_formula_units_Z   2
loop_
 _symmetry_equiv_pos_site_id
 _symmetry_equiv_pos_as_xyz
  1  'x, y, z'
loop_
 _atom_site_type_symbol
 _atom_site_label
 _atom_site_symmetry_multiplicity
 _atom_site_fract_x
 _atom_site_fract_y
 _atom_site_fract_z
 _atom_site_occupancy
  Na  Na0  1  0.251332  0.999779  0.252128  1
  Na  Na1  1  0.748668  0.499779  0.747872  1
  Li  Li2  1  0.086364  0.253542  0.747780  1
  Li  Li3  1  0.268106  0.476889  0.231094  1
  Li  Li4  1  0.731894  0.976889  0.768906  1
  Li  Li5  1  0.913636  0.753542  0.252220  1
  Mn  Mn6  1  0.354836  0.744370  0.776602  1
  Mn  Mn7  1  0.645164  0.244370  0.223398  1
  P  P8  1  0.404731  0.248952  0.707235  1
  P  P9  1  0.595269  0.748952  0.292765  1
  C  C10  1  0.044126  0.757735  0.728225  1
  C  C11  1  0.955874  0.257735  0.271775  1
  O  O12  1  0.099344  0.277970  0.330430  1
  O  O13  1  0.086813  0.753594  0.975507  1
  O  O14  1  0.147532  0.740073  0.535173  1
  O  O15  1  0.303801  0.064596  0.779250  1
  O  O16  1  0.312535  0.428783  0.823467  1
  O  O17  1  0.420644  0.269325  0.396749  1
  O  O18  1  0.428958  0.734388  0.185838  1
  O  O19  1  0.571042  0.234388  0.814162  1
  O  O20  1  0.579356  0.769325  0.603251  1
  O  O21  1  0.696199  0.564596  0.220750  1
  O  O22  1  0.687465  0.928783  0.176533  1
  O  O23  1  0.852468  0.240073  0.464827  1
  O  O24  1  0.913187  0.253594  0.024493  1
  O  O25  1  0.900656  0.777970  0.669570  1
