# generated using pymatgen
data_Li4Ni7(OF7)2
_symmetry_space_group_name_H-M   'P 1'
_cell_length_a   5.95011737
_cell_length_b   5.95011737
_cell_length_c   10.53896593
_cell_angle_alpha   89.11898913
_cell_angle_beta   73.95460018
_cell_angle_gamma   118.89477440
_symmetry_Int_Tables_number   1
_chemical_formula_structural   Li4Ni7(OF7)2
_chemical_formula_sum   'Li4 Ni7 O2 F14'
_cell_volume   308.98686221
_cell_formula_units_Z   1
loop_
 _symmetry_equiv_pos_site_id
 _symmetry_equiv_pos_as_xyz
  1  'x, y, z'
loop_
 _atom_site_type_symbol
 _atom_site_label
 _atom_site_symmetry_multiplicity
 _atom_site_fract_x
 _atom_site_fract_y
 _atom_site_fract_z
 _atom_site_occupancy
  Li  Li0  1  0.996245  0.990298  0.013457  1
  Li  Li1  1  0.255664  0.641435  0.102901  1
  Li  Li2  1  0.253755  0.134702  0.611543  1
  Li  Li3  1  0.994336  0.483565  0.522099  1
  Ni  Ni4  1  0.626555  0.303170  0.070275  1
  Ni  Ni5  1  0.125000  0.062500  0.312500  1
  Ni  Ni6  1  0.625000  0.062500  0.812500  1
  Ni  Ni7  1  0.625000  0.562500  0.312500  1
  Ni  Ni8  1  0.625000  0.562500  0.812500  1
  Ni  Ni9  1  0.623445  0.821830  0.554725  1
  Ni  Ni10  1  0.125000  0.562500  0.812500  1
  O  O11  1  0.855135  0.426183  0.718683  1
  O  O12  1  0.394865  0.698817  0.906317  1
  F  F13  1  0.885141  0.169003  0.440151  1
  F  F14  1  0.859155  0.450293  0.184848  1
  F  F15  1  0.865402  0.188323  0.946275  1
  F  F16  1  0.382443  0.427995  0.189562  1
  F  F17  1  0.867557  0.697005  0.435438  1
  F  F18  1  0.372002  0.204783  0.423215  1
  F  F19  1  0.877998  0.920217  0.201785  1
  F  F20  1  0.859699  0.665059  0.946075  1
  F  F21  1  0.388866  0.194226  0.946075  1
  F  F22  1  0.390845  0.674707  0.440151  1
  F  F23  1  0.861134  0.930774  0.678925  1
  F  F24  1  0.390301  0.459941  0.678925  1
  F  F25  1  0.364859  0.955997  0.184848  1
  F  F26  1  0.384598  0.936677  0.678725  1
