# generated using pymatgen
data_LiMnP2O7
_symmetry_space_group_name_H-M   'P 1'
_cell_length_a   9.83945290
_cell_length_b   9.73094989
_cell_length_c   11.07438603
_cell_angle_alpha   89.95243995
_cell_angle_beta   100.32974013
_cell_angle_gamma   89.21043606
_symmetry_Int_Tables_number   1
_chemical_formula_structural   LiMnP2O7
_chemical_formula_sum   'Li8 Mn8 P16 O56'
_cell_volume   1043.05087287
_cell_formula_units_Z   8
loop_
 _symmetry_equiv_pos_site_id
 _symmetry_equiv_pos_as_xyz
  1  'x, y, z'
loop_
 _atom_site_type_symbol
 _atom_site_label
 _atom_site_symmetry_multiplicity
 _atom_site_fract_x
 _atom_site_fract_y
 _atom_site_fract_z
 _atom_site_occupancy
  Li  Li0  1  0.119719  0.710019  0.452675  1
  Li  Li1  1  0.088067  0.106122  0.020892  1
  Li  Li2  1  0.416711  0.595636  0.975351  1
  Li  Li3  1  0.391125  0.204481  0.543693  1
  Li  Li4  1  0.649850  0.111094  0.047814  1
  Li  Li5  1  0.909621  0.890174  0.979365  1
  Li  Li6  1  0.827870  0.583109  0.454570  1
  Li  Li7  1  0.889879  0.284179  0.550143  1
  Mn  Mn8  1  0.199328  0.927102  0.665369  1
  Mn  Mn9  1  0.278056  0.225913  0.839153  1
  Mn  Mn10  1  0.227165  0.713114  0.164841  1
  Mn  Mn11  1  0.306549  0.426939  0.335018  1
  Mn  Mn12  1  0.699951  0.576749  0.673262  1
  Mn  Mn13  1  0.765053  0.292104  0.831802  1
  Mn  Mn14  1  0.712638  0.773948  0.163084  1
  Mn  Mn15  1  0.806098  0.071747  0.336012  1
  P  P16  1  0.023925  0.443670  0.751176  1
  P  P17  1  0.120497  0.711204  0.878582  1
  P  P18  1  0.060571  0.931785  0.243742  1
  P  P19  1  0.132592  0.150497  0.432252  1
  P  P20  1  0.378508  0.647429  0.575841  1
  P  P21  1  0.432240  0.422245  0.758594  1
  P  P22  1  0.536965  0.064682  0.762773  1
  P  P23  1  0.380931  0.208801  0.120969  1
  P  P24  1  0.614215  0.791261  0.880975  1
  P  P25  1  0.461301  0.934209  0.247268  1
  P  P26  1  0.563894  0.569573  0.242745  1
  P  P27  1  0.629437  0.347328  0.425503  1
  P  P28  1  0.874021  0.855134  0.563988  1
  P  P29  1  0.939318  0.067730  0.756990  1
  P  P30  1  0.881733  0.290014  0.118955  1
  P  P31  1  0.968027  0.562424  0.236222  1
  O  O32  1  0.014759  0.422753  0.616250  1
  O  O33  1  0.025622  0.845406  0.548439  1
  O  O34  1  0.088074  0.076371  0.727651  1
  O  O35  1  0.105919  0.337297  0.839048  1
  O  O36  1  0.099187  0.587366  0.780361  1
  O  O37  1  0.190147  0.822608  0.811259  1
  O  O38  1  0.228144  0.658348  0.991642  1
  O  O39  1  0.021266  0.253193  0.096434  1
  O  O40  1  0.130709  0.066322  0.306432  1
  O  O41  1  0.064331  0.938188  0.108544  1
  O  O42  1  0.115566  0.552995  0.201090  1
  O  O43  1  0.206817  0.283902  0.414078  1
  O  O44  1  0.151162  0.807489  0.299780  1
  O  O45  1  0.223863  0.068061  0.536555  1
  O  O46  1  0.290877  0.570977  0.466725  1
  O  O47  1  0.337932  0.306536  0.692940  1
  O  O48  1  0.307675  0.785461  0.589668  1
  O  O49  1  0.392109  0.061436  0.803881  1
  O  O50  1  0.367587  0.563884  0.699633  1
  O  O51  1  0.410718  0.419165  0.890337  1
  O  O52  1  0.477777  0.757679  0.911067  1
  O  O53  1  0.270546  0.165581  0.006333  1
  O  O54  1  0.318741  0.328843  0.186048  1
  O  O55  1  0.390036  0.084890  0.218011  1
  O  O56  1  0.414117  0.578441  0.269915  1
  O  O57  1  0.371725  0.838080  0.152574  1
  O  O58  1  0.538086  0.104654  0.633151  1
  O  O59  1  0.482141  0.336609  0.446475  1
  O  O60  1  0.532480  0.653192  0.570576  1
  O  O61  1  0.468525  0.906563  0.379415  1
  O  O62  1  0.635714  0.149432  0.861775  1
  O  O63  1  0.582386  0.410895  0.736781  1
  O  O64  1  0.598849  0.911176  0.779529  1
  O  O65  1  0.691366  0.676072  0.822745  1
  O  O66  1  0.716621  0.850397  0.996081  1
  O  O67  1  0.517799  0.232071  0.086331  1
  O  O68  1  0.571594  0.586792  0.108813  1
  O  O69  1  0.624906  0.423342  0.294278  1
  O  O70  1  0.605585  0.941059  0.199236  1
  O  O71  1  0.700697  0.210254  0.411695  1
  O  O72  1  0.667892  0.677084  0.310220  1
  O  O73  1  0.723169  0.436224  0.522873  1
  O  O74  1  0.783288  0.941072  0.463431  1
  O  O75  1  0.848547  0.192399  0.701062  1
  O  O76  1  0.815626  0.713980  0.581761  1
  O  O77  1  0.870930  0.456269  0.785265  1
  O  O78  1  0.934162  0.058835  0.891877  1
  O  O79  1  0.870612  0.932740  0.692872  1
  O  O80  1  0.984364  0.745673  0.910876  1
  O  O81  1  0.776779  0.338414  0.004648  1
  O  O82  1  0.806924  0.175379  0.182136  1
  O  O83  1  0.896223  0.415072  0.216563  1
  O  O84  1  0.877914  0.664461  0.148991  1
  O  O85  1  0.911720  0.923700  0.272229  1
  O  O86  1  0.982136  0.168486  0.445256  1
  O  O87  1  0.975844  0.590622  0.371157  1
