# generated using pymatgen
data_Cr2S3
_symmetry_space_group_name_H-M   'P 1'
_cell_length_a   5.95376863
_cell_length_b   10.94272260
_cell_length_c   5.95376852
_cell_angle_alpha   90.00000000
_cell_angle_beta   119.99999938
_cell_angle_gamma   90.00000000
_symmetry_Int_Tables_number   1
_chemical_formula_structural   Cr2S3
_chemical_formula_sum   'Cr8 S12'
_cell_volume   335.92314168
_cell_formula_units_Z   4
loop_
 _symmetry_equiv_pos_site_id
 _symmetry_equiv_pos_as_xyz
  1  'x, y, z'
loop_
 _atom_site_type_symbol
 _atom_site_label
 _atom_site_symmetry_multiplicity
 _atom_site_fract_x
 _atom_site_fract_y
 _atom_site_fract_z
 _atom_site_occupancy
  Cr  Cr0  1  0.666667  0.257944  0.333333  1
  Cr  Cr1  1  0.666667  0.988771  0.333333  1
  Cr  Cr2  1  0.000000  0.004553  0.000000  1
  Cr  Cr3  1  0.333333  0.748856  0.666667  1
  Cr  Cr4  1  0.333333  0.494990  0.666667  1
  Cr  Cr5  1  0.666667  0.504830  0.333333  1
  Cr  Cr6  1  0.000000  0.500321  0.000000  1
  Cr  Cr7  1  0.333333  0.005089  0.666667  1
  S  S8  1  0.662538  0.620226  0.992395  1
  S  S9  1  0.986489  0.122104  0.657108  1
  S  S10  1  0.670533  0.379440  0.664268  1
  S  S11  1  0.007605  0.620226  0.670143  1
  S  S12  1  0.342892  0.122104  0.329381  1
  S  S13  1  0.335732  0.379440  0.006265  1
  S  S14  1  0.993735  0.379440  0.329467  1
  S  S15  1  0.326266  0.876445  0.990687  1
  S  S16  1  0.329857  0.620226  0.337462  1
  S  S17  1  0.670619  0.122104  0.013511  1
  S  S18  1  0.009313  0.876445  0.335579  1
  S  S19  1  0.664421  0.876445  0.673734  1
