# generated using pymatgen
data_Cr5S8
_symmetry_space_group_name_H-M   'P 1'
_cell_length_a   6.80617235
_cell_length_b   11.08275975
_cell_length_c   6.72977096
_cell_angle_alpha   91.22713221
_cell_angle_beta   120.37626180
_cell_angle_gamma   90.00000000
_symmetry_Int_Tables_number   1
_chemical_formula_structural   Cr5S8
_chemical_formula_sum   'Cr10 S16'
_cell_volume   437.81314590
_cell_formula_units_Z   2
loop_
 _symmetry_equiv_pos_site_id
 _symmetry_equiv_pos_as_xyz
  1  'x, y, z'
loop_
 _atom_site_type_symbol
 _atom_site_label
 _atom_site_symmetry_multiplicity
 _atom_site_fract_x
 _atom_site_fract_y
 _atom_site_fract_z
 _atom_site_occupancy
  Cr  Cr0  1  0.999298  0.999112  0.998597  1
  Cr  Cr1  1  0.500931  0.495125  0.001862  1
  Cr  Cr2  1  0.013365  0.735884  0.026730  1
  Cr  Cr3  1  0.987298  0.261230  0.974596  1
  Cr  Cr4  1  0.487162  0.764714  0.974323  1
  Cr  Cr5  1  0.506524  0.243648  0.013048  1
  Cr  Cr6  1  0.482400  0.749830  0.499943  1
  Cr  Cr7  1  0.017543  0.749830  0.499943  1
  Cr  Cr8  1  0.523721  0.249343  0.506157  1
  Cr  Cr9  1  0.982436  0.249343  0.506157  1
  S  S10  1  0.161240  0.139751  0.322480  1
  S  S11  1  0.829219  0.381842  0.658439  1
  S  S12  1  0.173406  0.618792  0.346811  1
  S  S13  1  0.660248  0.639524  0.320496  1
  S  S14  1  0.337564  0.360586  0.675128  1
  S  S15  1  0.667728  0.123593  0.335455  1
  S  S16  1  0.326344  0.880982  0.652688  1
  S  S17  1  0.175367  0.627217  0.835123  1
  S  S18  1  0.659756  0.627217  0.835123  1
  S  S19  1  0.831727  0.372599  0.171039  1
  S  S20  1  0.339312  0.372599  0.171039  1
  S  S21  1  0.161273  0.125239  0.832321  1
  S  S22  1  0.671048  0.125239  0.832321  1
  S  S23  1  0.840129  0.873281  0.166232  1
  S  S24  1  0.326103  0.873281  0.166232  1
  S  S25  1  0.838859  0.860200  0.677718  1
