# generated using pymatgen
data_CaSn2S5
_symmetry_space_group_name_H-M   'P 1'
_cell_length_a   10.84292175
_cell_length_b   10.84292175
_cell_length_c   10.84292175
_cell_angle_alpha   60.00000000
_cell_angle_beta   60.00000000
_cell_angle_gamma   60.00000000
_symmetry_Int_Tables_number   1
_chemical_formula_structural   CaSn2S5
_chemical_formula_sum   'Ca4 Sn8 S20'
_cell_volume   901.41332459
_cell_formula_units_Z   4
loop_
 _symmetry_equiv_pos_site_id
 _symmetry_equiv_pos_as_xyz
  1  'x, y, z'
loop_
 _atom_site_type_symbol
 _atom_site_label
 _atom_site_symmetry_multiplicity
 _atom_site_fract_x
 _atom_site_fract_y
 _atom_site_fract_z
 _atom_site_occupancy
  Ca  Ca0  1  0.500000  0.500000  0.000000  1
  Ca  Ca1  1  0.000000  0.500000  0.000000  1
  Ca  Ca2  1  0.500000  0.000000  0.000000  1
  Ca  Ca3  1  0.500000  0.500000  0.500000  1
  Sn  Sn4  1  0.786919  0.786919  0.286919  1
  Sn  Sn5  1  0.139244  0.786919  0.286919  1
  Sn  Sn6  1  0.786919  0.139244  0.286919  1
  Sn  Sn7  1  0.786919  0.786919  0.639244  1
  Sn  Sn8  1  0.213081  0.213081  0.713081  1
  Sn  Sn9  1  0.860756  0.213081  0.713081  1
  Sn  Sn10  1  0.213081  0.860756  0.713081  1
  Sn  Sn11  1  0.213081  0.213081  0.360756  1
  S  S12  1  0.698990  0.698990  0.198990  1
  S  S13  1  0.403031  0.698990  0.198990  1
  S  S14  1  0.698990  0.403031  0.198990  1
  S  S15  1  0.698990  0.698990  0.903031  1
  S  S16  1  0.301010  0.301010  0.801010  1
  S  S17  1  0.596969  0.301010  0.801010  1
  S  S18  1  0.301010  0.596969  0.801010  1
  S  S19  1  0.301010  0.301010  0.096969  1
  S  S20  1  0.689370  0.689370  0.560630  1
  S  S21  1  0.060630  0.060630  0.189370  1
  S  S22  1  0.689370  0.060630  0.560630  1
  S  S23  1  0.060630  0.689370  0.189370  1
  S  S24  1  0.060630  0.689370  0.560630  1
  S  S25  1  0.689370  0.060630  0.189370  1
  S  S26  1  0.310630  0.310630  0.439370  1
  S  S27  1  0.939370  0.939370  0.810630  1
  S  S28  1  0.310630  0.939370  0.439370  1
  S  S29  1  0.939370  0.310630  0.810630  1
  S  S30  1  0.939370  0.310630  0.439370  1
  S  S31  1  0.310630  0.939370  0.810630  1
