# generated using pymatgen
data_Li8VO5F
_symmetry_space_group_name_H-M   'P 1'
_cell_length_a   5.64668713
_cell_length_b   5.64673582
_cell_length_c   10.92071270
_cell_angle_alpha   89.99982574
_cell_angle_beta   90.00112212
_cell_angle_gamma   119.99694851
_symmetry_Int_Tables_number   1
_chemical_formula_structural   Li8VO5F
_chemical_formula_sum   'Li16 V2 O10 F2'
_cell_volume   301.56862932
_cell_formula_units_Z   2
loop_
 _symmetry_equiv_pos_site_id
 _symmetry_equiv_pos_as_xyz
  1  'x, y, z'
loop_
 _atom_site_type_symbol
 _atom_site_label
 _atom_site_symmetry_multiplicity
 _atom_site_fract_x
 _atom_site_fract_y
 _atom_site_fract_z
 _atom_site_occupancy
  Li  Li0  1  0.975868  0.684660  0.772073  1
  Li  Li1  1  0.019726  0.629757  0.121140  1
  Li  Li2  1  0.980302  0.370247  0.621130  1
  Li  Li3  1  0.024118  0.315343  0.272084  1
  Li  Li4  1  0.333188  0.666620  0.413831  1
  Li  Li5  1  0.333478  0.666729  0.924119  1
  Li  Li6  1  0.315541  0.291232  0.772075  1
  Li  Li7  1  0.370190  0.390026  0.121158  1
  Li  Li8  1  0.629832  0.609996  0.621149  1
  Li  Li9  1  0.290984  0.975712  0.272083  1
  Li  Li10  1  0.684458  0.708783  0.272093  1
  Li  Li11  1  0.389950  0.019829  0.621153  1
  Li  Li12  1  0.666787  0.333379  0.913829  1
  Li  Li13  1  0.666492  0.333266  0.424128  1
  Li  Li14  1  0.610018  0.980187  0.121170  1
  Li  Li15  1  0.709020  0.024311  0.772072  1
  V  V16  1  0.000111  0.000047  0.987866  1
  V  V17  1  0.999812  0.999901  0.487878  1
  O  O18  1  0.001878  0.673249  0.947752  1
  O  O19  1  0.998085  0.326749  0.447688  1
  O  O20  1  0.333198  0.666616  0.212257  1
  O  O21  1  0.000224  0.000101  0.675343  1
  O  O22  1  0.999787  0.999901  0.175288  1
  O  O23  1  0.326864  0.328550  0.947771  1
  O  O24  1  0.328424  0.001692  0.447706  1
  O  O25  1  0.673106  0.671454  0.447717  1
  O  O26  1  0.666807  0.333386  0.712393  1
  O  O27  1  0.671560  0.998299  0.947770  1
  F  F28  1  0.333558  0.666712  0.709331  1
  F  F29  1  0.666429  0.333264  0.209212  1
