# generated using pymatgen
data_Rb3InO3
_symmetry_space_group_name_H-M   'P 1'
_cell_length_a   11.57078326
_cell_length_b   7.17845292
_cell_length_c   7.89453781
_cell_angle_alpha   90.00000000
_cell_angle_beta   94.38902394
_cell_angle_gamma   90.00000000
_symmetry_Int_Tables_number   1
_chemical_formula_structural   Rb3InO3
_chemical_formula_sum   'Rb12 In4 O12'
_cell_volume   653.79990721
_cell_formula_units_Z   4
loop_
 _symmetry_equiv_pos_site_id
 _symmetry_equiv_pos_as_xyz
  1  'x, y, z'
loop_
 _atom_site_type_symbol
 _atom_site_label
 _atom_site_symmetry_multiplicity
 _atom_site_fract_x
 _atom_site_fract_y
 _atom_site_fract_z
 _atom_site_occupancy
  Rb  Rb0  1  0.074757  0.319286  0.639924  1
  Rb  Rb1  1  0.154578  0.627028  0.056025  1
  Rb  Rb2  1  0.192450  0.804028  0.631870  1
  Rb  Rb3  1  0.307550  0.304028  0.368130  1
  Rb  Rb4  1  0.345422  0.127028  0.943975  1
  Rb  Rb5  1  0.425243  0.819286  0.360076  1
  Rb  Rb6  1  0.574757  0.180714  0.639924  1
  Rb  Rb7  1  0.654578  0.872972  0.056025  1
  Rb  Rb8  1  0.692450  0.695972  0.631870  1
  Rb  Rb9  1  0.807550  0.195972  0.368130  1
  Rb  Rb10  1  0.845422  0.372972  0.943975  1
  Rb  Rb11  1  0.925243  0.680714  0.360076  1
  In  In12  1  0.066653  0.088775  0.161133  1
  In  In13  1  0.433347  0.588775  0.838867  1
  In  In14  1  0.566653  0.411225  0.161133  1
  In  In15  1  0.933347  0.911225  0.838867  1
  O  O16  1  0.038034  0.353787  0.253724  1
  O  O17  1  0.100141  0.042243  0.897055  1
  O  O18  1  0.189877  0.938222  0.306351  1
  O  O19  1  0.310123  0.438222  0.693649  1
  O  O20  1  0.399859  0.542243  0.102945  1
  O  O21  1  0.461966  0.853787  0.746276  1
  O  O22  1  0.538034  0.146213  0.253724  1
  O  O23  1  0.600141  0.457757  0.897055  1
  O  O24  1  0.689877  0.561778  0.306351  1
  O  O25  1  0.810123  0.061778  0.693649  1
  O  O26  1  0.899859  0.957757  0.102945  1
  O  O27  1  0.961966  0.646213  0.746276  1
