# generated using pymatgen
data_GaPt3
_symmetry_space_group_name_H-M   'P 1'
_cell_length_a   5.58063909
_cell_length_b   5.55535716
_cell_length_c   7.95023308
_cell_angle_alpha   90.10981620
_cell_angle_beta   44.60555441
_cell_angle_gamma   60.42934054
_symmetry_Int_Tables_number   1
_chemical_formula_structural   GaPt3
_chemical_formula_sum   'Ga2 Pt6'
_cell_volume   122.80042192
_cell_formula_units_Z   2
loop_
 _symmetry_equiv_pos_site_id
 _symmetry_equiv_pos_as_xyz
  1  'x, y, z'
loop_
 _atom_site_type_symbol
 _atom_site_label
 _atom_site_symmetry_multiplicity
 _atom_site_fract_x
 _atom_site_fract_y
 _atom_site_fract_z
 _atom_site_occupancy
  Ga  Ga0  1  0.003293  0.497728  0.756326  1
  Ga  Ga1  1  0.995796  0.503317  0.255942  1
  Pt  Pt2  1  0.432388  0.499468  0.289090  1
  Pt  Pt3  1  0.434595  0.065488  0.792477  1
  Pt  Pt4  1  0.565719  0.934025  0.221580  1
  Pt  Pt5  1  0.568233  0.499917  0.724916  1
  Pt  Pt6  1  0.992042  0.003786  0.260868  1
  Pt  Pt7  1  0.007942  0.996274  0.753923  1
