# generated using pymatgen
data_RbMnP3HO10
_symmetry_space_group_name_H-M   'P 1'
_cell_length_a   7.55150297
_cell_length_b   7.55152853
_cell_length_c   8.66597039
_cell_angle_alpha   77.22684069
_cell_angle_beta   102.77263715
_cell_angle_gamma   108.47748753
_symmetry_Int_Tables_number   1
_chemical_formula_structural   RbMnP3HO10
_chemical_formula_sum   'Rb2 Mn2 P6 H2 O20'
_cell_volume   450.97252280
_cell_formula_units_Z   2
loop_
 _symmetry_equiv_pos_site_id
 _symmetry_equiv_pos_as_xyz
  1  'x, y, z'
loop_
 _atom_site_type_symbol
 _atom_site_label
 _atom_site_symmetry_multiplicity
 _atom_site_fract_x
 _atom_site_fract_y
 _atom_site_fract_z
 _atom_site_occupancy
  Rb  Rb0  1  0.640986  0.082121  0.279293  1
  Rb  Rb1  1  0.082121  0.640989  0.720706  1
  Mn  Mn2  1  0.200059  0.200059  0.499993  1
  Mn  Mn3  1  0.712090  0.712091  0.999998  1
  P  P4  1  0.079893  0.531840  0.191593  1
  P  P5  1  0.531843  0.079891  0.808415  1
  P  P6  1  0.077207  0.904629  0.237005  1
  P  P7  1  0.904633  0.077210  0.762992  1
  P  P8  1  0.462364  0.504012  0.266000  1
  P  P9  1  0.504006  0.462360  0.733998  1
  H  H10  1  0.609816  0.609811  0.500005  1
  H  H11  1  0.120978  0.120971  0.000008  1
  O  O12  1  0.201081  0.036649  0.115989  1
  O  O13  1  0.036645  0.201081  0.884015  1
  O  O14  1  0.108093  0.970732  0.398105  1
  O  O15  1  0.970735  0.108102  0.601893  1
  O  O16  1  0.864477  0.853363  0.169037  1
  O  O17  1  0.853367  0.864475  0.830959  1
  O  O18  1  0.137941  0.709238  0.288517  1
  O  O19  1  0.709234  0.137934  0.711487  1
  O  O20  1  0.946582  0.564043  0.038604  1
  O  O21  1  0.564039  0.946582  0.961397  1
  O  O22  1  0.026522  0.354004  0.310571  1
  O  O23  1  0.353998  0.026522  0.689428  1
  O  O24  1  0.280206  0.547305  0.142096  1
  O  O25  1  0.547306  0.280205  0.857906  1
  O  O26  1  0.403339  0.306867  0.368413  1
  O  O27  1  0.306862  0.403337  0.631586  1
  O  O28  1  0.597835  0.500349  0.159602  1
  O  O29  1  0.500351  0.597834  0.840395  1
  O  O30  1  0.541447  0.664945  0.365697  1
  O  O31  1  0.664942  0.541444  0.634300  1
