# generated using pymatgen
data_Li12Mn5V3(PO4)12
_symmetry_space_group_name_H-M   'P 1'
_cell_length_a   8.67749358
_cell_length_b   12.31973881
_cell_length_c   8.69191890
_cell_angle_alpha   89.77469209
_cell_angle_beta   90.02971571
_cell_angle_gamma   91.79644349
_symmetry_Int_Tables_number   1
_chemical_formula_structural   Li12Mn5V3(PO4)12
_chemical_formula_sum   'Li12 Mn5 V3 P12 O48'
_cell_volume   928.74089893
_cell_formula_units_Z   1
loop_
 _symmetry_equiv_pos_site_id
 _symmetry_equiv_pos_as_xyz
  1  'x, y, z'
loop_
 _atom_site_type_symbol
 _atom_site_label
 _atom_site_symmetry_multiplicity
 _atom_site_fract_x
 _atom_site_fract_y
 _atom_site_fract_z
 _atom_site_occupancy
  Li  Li0  1  0.076937  0.697178  0.080461  1
  Li  Li1  1  0.081778  0.761504  0.697459  1
  Li  Li2  1  0.208163  0.175205  0.783230  1
  Li  Li3  1  0.291218  0.325808  0.280499  1
  Li  Li4  1  0.415495  0.739034  0.194056  1
  Li  Li5  1  0.425012  0.802793  0.582386  1
  Li  Li6  1  0.577121  0.197688  0.419008  1
  Li  Li7  1  0.582882  0.263171  0.803834  1
  Li  Li8  1  0.708209  0.674947  0.716953  1
  Li  Li9  1  0.792710  0.827077  0.216556  1
  Li  Li10  1  0.912772  0.238180  0.305027  1
  Li  Li11  1  0.922780  0.301422  0.920094  1
  Mn  Mn12  1  0.252314  0.896704  0.034575  1
  Mn  Mn13  1  0.252365  0.390787  0.959418  1
  Mn  Mn14  1  0.752781  0.890759  0.540956  1
  Mn  Mn15  1  0.746479  0.104180  0.964845  1
  Mn  Mn16  1  0.751460  0.396506  0.465963  1
  V  V17  1  0.247540  0.608433  0.530944  1
  V  V18  1  0.247490  0.111137  0.459825  1
  V  V19  1  0.747204  0.610046  0.037736  1
  P  P20  1  0.036280  0.493852  0.250760  1
  P  P21  1  0.105196  0.852278  0.382930  1
  P  P22  1  0.101625  0.152371  0.103226  1
  P  P23  1  0.396918  0.351245  0.600592  1
  P  P24  1  0.396248  0.642873  0.883605  1
  P  P25  1  0.460451  0.007132  0.748082  1
  P  P26  1  0.537120  0.994730  0.248201  1
  P  P27  1  0.603939  0.355519  0.117180  1
  P  P28  1  0.604222  0.653412  0.396103  1
  P  P29  1  0.899523  0.847311  0.898561  1
  P  P30  1  0.895976  0.141985  0.616718  1
  P  P31  1  0.960926  0.507020  0.752121  1
  O  O32  1  0.044409  0.433941  0.868210  1
  O  O33  1  0.080394  0.851482  0.888406  1
  O  O34  1  0.068096  0.596541  0.681845  1
  O  O35  1  0.071450  0.165295  0.594343  1
  O  O36  1  0.105712  0.572974  0.369518  1
  O  O37  1  0.144140  0.820270  0.212319  1
  O  O38  1  0.148839  0.971285  0.410798  1
  O  O39  1  0.142537  0.244170  0.982023  1
  O  O40  1  0.156823  0.187546  0.266843  1
  O  O41  1  0.168632  0.433163  0.175944  1
  O  O42  1  0.170601  0.049116  0.046571  1
  O  O43  1  0.195929  0.781317  0.500206  1
  O  O44  1  0.302896  0.706810  0.002966  1
  O  O45  1  0.328347  0.456776  0.549670  1
  O  O46  1  0.329069  0.068142  0.667906  1
  O  O47  1  0.345092  0.309446  0.761445  1
  O  O48  1  0.364281  0.519646  0.901673  1
  O  O49  1  0.358289  0.678109  0.714289  1
  O  O50  1  0.356697  0.261510  0.477975  1
  O  O51  1  0.391369  0.926946  0.866908  1
  O  O52  1  0.429121  0.903732  0.177961  1
  O  O53  1  0.424730  0.650616  0.387537  1
  O  O54  1  0.429172  0.331463  0.098854  1
  O  O55  1  0.450724  0.065786  0.364964  1
  O  O56  1  0.545243  0.934788  0.633172  1
  O  O57  1  0.571377  0.667237  0.904917  1
  O  O58  1  0.578219  0.354050  0.610509  1
  O  O59  1  0.567568  0.098609  0.817799  1
  O  O60  1  0.601703  0.077719  0.129204  1
  O  O61  1  0.643149  0.745402  0.518216  1
  O  O62  1  0.643122  0.321711  0.287626  1
  O  O63  1  0.644012  0.476512  0.093907  1
  O  O64  1  0.657928  0.689240  0.232612  1
  O  O65  1  0.669202  0.933951  0.323907  1
  O  O66  1  0.673636  0.550259  0.454313  1
  O  O67  1  0.696912  0.291237  0.997403  1
  O  O68  1  0.802294  0.206960  0.498243  1
  O  O69  1  0.828720  0.950854  0.953527  1
  O  O70  1  0.827768  0.567210  0.832695  1
  O  O71  1  0.847162  0.807443  0.737274  1
  O  O72  1  0.860520  0.756018  0.020344  1
  O  O73  1  0.863661  0.019194  0.599049  1
  O  O74  1  0.858748  0.177782  0.786346  1
  O  O75  1  0.890832  0.426866  0.633106  1
  O  O76  1  0.929795  0.829919  0.401796  1
  O  O77  1  0.927819  0.403212  0.323135  1
  O  O78  1  0.921138  0.150090  0.114508  1
  O  O79  1  0.950991  0.565368  0.135318  1
