# generated using pymatgen
data_Li3Ti2VO6
_symmetry_space_group_name_H-M   'P 1'
_cell_length_a   15.87550686
_cell_length_b   10.15398345
_cell_length_c   10.15398340
_cell_angle_alpha   16.71698711
_cell_angle_beta   16.06497498
_cell_angle_gamma   16.06497806
_symmetry_Int_Tables_number   1
_chemical_formula_structural   Li3Ti2VO6
_chemical_formula_sum   'Li3 Ti2 V1 O6'
_cell_volume   112.05517312
_cell_formula_units_Z   1
loop_
 _symmetry_equiv_pos_site_id
 _symmetry_equiv_pos_as_xyz
  1  'x, y, z'
loop_
 _atom_site_type_symbol
 _atom_site_label
 _atom_site_symmetry_multiplicity
 _atom_site_fract_x
 _atom_site_fract_y
 _atom_site_fract_z
 _atom_site_occupancy
  Li  Li0  1  0.166667  0.500000  0.500000  1
  Li  Li1  1  0.506293  0.493971  0.493971  1
  Li  Li2  1  0.827041  0.506029  0.506029  1
  Ti  Ti3  1  0.030295  0.977185  0.977185  1
  Ti  Ti4  1  0.303038  0.022815  0.022815  1
  V  V5  1  0.666667  0.000000  0.000000  1
  O  O6  1  0.239193  0.259528  0.259528  1
  O  O7  1  0.575719  0.264295  0.264295  1
  O  O8  1  0.094141  0.740472  0.740472  1
  O  O9  1  0.917478  0.250927  0.250927  1
  O  O10  1  0.415855  0.749073  0.749073  1
  O  O11  1  0.757614  0.735705  0.735705  1
