# generated using pymatgen
data_VCl4
_symmetry_space_group_name_H-M   'P 1'
_cell_length_a   9.48743009
_cell_length_b   6.38220541
_cell_length_c   11.69914701
_cell_angle_alpha   90.00000000
_cell_angle_beta   117.12101711
_cell_angle_gamma   90.00000000
_symmetry_Int_Tables_number   1
_chemical_formula_structural   VCl4
_chemical_formula_sum   'V4 Cl16'
_cell_volume   630.50109261
_cell_formula_units_Z   4
loop_
 _symmetry_equiv_pos_site_id
 _symmetry_equiv_pos_as_xyz
  1  'x, y, z'
loop_
 _atom_site_type_symbol
 _atom_site_label
 _atom_site_symmetry_multiplicity
 _atom_site_fract_x
 _atom_site_fract_y
 _atom_site_fract_z
 _atom_site_occupancy
  V  V0  1  0.803930  0.838671  0.615526  1
  V  V1  1  0.196071  0.838671  0.884474  1
  V  V2  1  0.196269  0.161463  0.385022  1
  V  V3  1  0.803731  0.161463  0.114978  1
  Cl  Cl4  1  0.051047  0.741250  0.646500  1
  Cl  Cl5  1  0.948953  0.741250  0.853500  1
  Cl  Cl6  1  0.050495  0.259048  0.146107  1
  Cl  Cl7  1  0.949506  0.259048  0.353895  1
  Cl  Cl8  1  0.803365  0.172158  0.626030  1
  Cl  Cl9  1  0.196636  0.172158  0.873970  1
  Cl  Cl10  1  0.196632  0.827822  0.374086  1
  Cl  Cl11  1  0.803369  0.827822  0.125915  1
  Cl  Cl12  1  0.703345  0.777173  0.409949  1
  Cl  Cl13  1  0.296654  0.777173  0.090050  1
  Cl  Cl14  1  0.297605  0.221815  0.590688  1
  Cl  Cl15  1  0.702395  0.221815  0.909312  1
  Cl  Cl16  1  0.603233  0.712132  0.636702  1
  Cl  Cl17  1  0.396767  0.712132  0.863298  1
  Cl  Cl18  1  0.396456  0.288466  0.363387  1
  Cl  Cl19  1  0.603544  0.288466  0.136613  1
