# generated using pymatgen
data_Ti3Co2P6WO24
_symmetry_space_group_name_H-M   'P 1'
_cell_length_a   8.64581002
_cell_length_b   8.70901269
_cell_length_c   8.70901294
_cell_angle_alpha   59.99999707
_cell_angle_beta   59.75787968
_cell_angle_gamma   59.75788450
_symmetry_Int_Tables_number   1
_chemical_formula_structural   Ti3Co2P6WO24
_chemical_formula_sum   'Ti3 Co2 P6 W1 O24'
_cell_volume   461.98668523
_cell_formula_units_Z   1
loop_
 _symmetry_equiv_pos_site_id
 _symmetry_equiv_pos_as_xyz
  1  'x, y, z'
loop_
 _atom_site_type_symbol
 _atom_site_label
 _atom_site_symmetry_multiplicity
 _atom_site_fract_x
 _atom_site_fract_y
 _atom_site_fract_z
 _atom_site_occupancy
  Ti  Ti0  1  0.068016  0.643995  0.643995  1
  Ti  Ti1  1  0.427778  0.857408  0.857408  1
  Ti  Ti2  1  0.931151  0.356283  0.356283  1
  Co  Co3  1  0.014476  0.995175  0.995175  1
  Co  Co4  1  0.498275  0.500575  0.500575  1
  P  P5  1  0.246980  0.252258  0.546036  1
  P  P6  1  0.246980  0.954727  0.252258  1
  P  P7  1  0.246980  0.546036  0.954727  1
  P  P8  1  0.751453  0.462098  0.042480  1
  P  P9  1  0.751453  0.042480  0.743969  1
  P  P10  1  0.751453  0.743969  0.462098  1
  W  W11  1  0.581867  0.139378  0.139378  1
  O  O12  1  0.069632  0.119479  0.313567  1
  O  O13  1  0.069632  0.497322  0.119479  1
  O  O14  1  0.069632  0.313567  0.497322  1
  O  O15  1  0.227766  0.090582  0.740286  1
  O  O16  1  0.430113  0.192082  0.394806  1
  O  O17  1  0.254879  0.415722  0.566714  1
  O  O18  1  0.227766  0.941366  0.090582  1
  O  O19  1  0.254879  0.762685  0.415722  1
  O  O20  1  0.569766  0.619675  0.999306  1
  O  O21  1  0.254879  0.566714  0.762685  1
  O  O22  1  0.783746  0.267394  0.050212  1
  O  O23  1  0.569766  0.999306  0.811252  1
  O  O24  1  0.430113  0.982999  0.192082  1
  O  O25  1  0.227766  0.740286  0.941366  1
  O  O26  1  0.732347  0.450336  0.235565  1
  O  O27  1  0.430113  0.394806  0.982999  1
  O  O28  1  0.732347  0.235565  0.581754  1
  O  O29  1  0.783746  0.050212  0.898647  1
  O  O30  1  0.732347  0.581754  0.450336  1
  O  O31  1  0.569766  0.811252  0.619675  1
  O  O32  1  0.783746  0.898647  0.267394  1
  O  O33  1  0.926130  0.676058  0.514395  1
  O  O34  1  0.926130  0.514395  0.883417  1
  O  O35  1  0.926130  0.883417  0.676058  1
