# generated using pymatgen
data_Li5Mn6(BO3)6
_symmetry_space_group_name_H-M   'P 1'
_cell_length_a   8.33426733
_cell_length_b   14.58509865
_cell_length_c   6.36997466
_cell_angle_alpha   77.38653054
_cell_angle_beta   90.00000118
_cell_angle_gamma   90.15371797
_symmetry_Int_Tables_number   1
_chemical_formula_structural   Li5Mn6(BO3)6
_chemical_formula_sum   'Li10 Mn12 B12 O36'
_cell_volume   755.61888621
_cell_formula_units_Z   2
loop_
 _symmetry_equiv_pos_site_id
 _symmetry_equiv_pos_as_xyz
  1  'x, y, z'
loop_
 _atom_site_type_symbol
 _atom_site_label
 _atom_site_symmetry_multiplicity
 _atom_site_fract_x
 _atom_site_fract_y
 _atom_site_fract_z
 _atom_site_occupancy
  Li  Li0  1  0.288567  0.990516  0.254742  1
  Li  Li1  1  0.336054  0.358791  0.070605  1
  Li  Li2  1  0.342539  0.359326  0.570337  1
  Li  Li3  1  0.368591  0.650582  0.924710  1
  Li  Li4  1  0.366455  0.650250  0.424874  1
  Li  Li5  1  0.787572  0.490443  0.504779  1
  Li  Li6  1  0.837990  0.859706  0.820148  1
  Li  Li7  1  0.841347  0.858177  0.320912  1
  Li  Li8  1  0.865969  0.149641  0.675180  1
  Li  Li9  1  0.868931  0.151081  0.174459  1
  Mn  Mn10  1  0.125503  0.506472  0.749001  1
  Mn  Mn11  1  0.125503  0.506472  0.244528  1
  Mn  Mn12  1  0.180804  0.819075  0.592550  1
  Mn  Mn13  1  0.180804  0.819075  0.088375  1
  Mn  Mn14  1  0.194068  0.172804  0.417800  1
  Mn  Mn15  1  0.194068  0.172804  0.909397  1
  Mn  Mn16  1  0.625585  0.006566  0.994891  1
  Mn  Mn17  1  0.625585  0.006566  0.498543  1
  Mn  Mn18  1  0.680463  0.319016  0.843130  1
  Mn  Mn19  1  0.680463  0.319016  0.337853  1
  Mn  Mn20  1  0.694757  0.672418  0.666917  1
  Mn  Mn21  1  0.694757  0.672418  0.160664  1
  B  B22  1  0.001660  0.667066  0.416467  1
  B  B23  1  0.004543  0.671112  0.914444  1
  B  B24  1  0.001912  0.332410  0.583795  1
  B  B25  1  0.008473  0.329469  0.085266  1
  B  B26  1  0.492458  0.500202  0.255176  1
  B  B27  1  0.492458  0.500202  0.744622  1
  B  B28  1  0.502861  0.831112  0.334444  1
  B  B29  1  0.502968  0.166979  0.166511  1
  B  B30  1  0.502809  0.171151  0.664424  1
  B  B31  1  0.508051  0.830642  0.834679  1
  B  B32  1  0.992344  0.000097  0.494428  1
  B  B33  1  0.992344  0.000097  0.005475  1
  O  O34  1  0.011259  0.430370  0.534815  1
  O  O35  1  0.019378  0.763686  0.368157  1
  O  O36  1  0.024232  0.768689  0.865655  1
  O  O37  1  0.037616  0.425000  0.037500  1
  O  O38  1  0.136888  0.608856  0.445572  1
  O  O39  1  0.139443  0.612496  0.943751  1
  O  O40  1  0.139258  0.268868  0.115566  1
  O  O41  1  0.141518  0.960000  0.040004  1
  O  O42  1  0.141518  0.960000  0.499996  1
  O  O43  1  0.140007  0.278663  0.610669  1
  O  O44  1  0.350619  0.790734  0.354633  1
  O  O45  1  0.351143  0.132366  0.683818  1
  O  O46  1  0.352261  0.124690  0.187656  1
  O  O47  1  0.354455  0.793097  0.853451  1
  O  O48  1  0.353953  0.444506  0.277533  1
  O  O49  1  0.353953  0.444506  0.777961  1
  O  O50  1  0.477862  0.598239  0.201964  1
  O  O51  1  0.477862  0.598239  0.699797  1
  O  O52  1  0.513952  0.929027  0.285486  1
  O  O53  1  0.519926  0.264069  0.117966  1
  O  O54  1  0.524203  0.268231  0.615884  1
  O  O55  1  0.535445  0.926380  0.786810  1
  O  O56  1  0.636673  0.111711  0.694145  1
  O  O57  1  0.639144  0.109353  0.195323  1
  O  O58  1  0.639336  0.775859  0.362071  1
  O  O59  1  0.640481  0.771428  0.864286  1
  O  O60  1  0.641720  0.460072  0.288427  1
  O  O61  1  0.641720  0.460072  0.751500  1
  O  O62  1  0.849679  0.625298  0.437352  1
  O  O63  1  0.854057  0.631380  0.934310  1
  O  O64  1  0.851516  0.290454  0.604773  1
  O  O65  1  0.853389  0.293263  0.103369  1
  O  O66  1  0.853776  0.944387  0.527241  1
  O  O67  1  0.853776  0.944387  0.028374  1
  O  O68  1  0.977581  0.098100  0.950327  1
  O  O69  1  0.977581  0.098100  0.451572  1
