# generated using pymatgen
data_SrCaI4
_symmetry_space_group_name_H-M   'P 1'
_cell_length_a   8.25070740
_cell_length_b   8.18174328
_cell_length_c   17.03590385
_cell_angle_alpha   90.00000000
_cell_angle_beta   106.30185464
_cell_angle_gamma   90.00000000
_symmetry_Int_Tables_number   1
_chemical_formula_structural   SrCaI4
_chemical_formula_sum   'Sr4 Ca4 I16'
_cell_volume   1103.77675431
_cell_formula_units_Z   4
loop_
 _symmetry_equiv_pos_site_id
 _symmetry_equiv_pos_as_xyz
  1  'x, y, z'
loop_
 _atom_site_type_symbol
 _atom_site_label
 _atom_site_symmetry_multiplicity
 _atom_site_fract_x
 _atom_site_fract_y
 _atom_site_fract_z
 _atom_site_occupancy
  Sr  Sr0  1  0.279596  0.950084  0.841269  1
  Sr  Sr1  1  0.279596  0.549916  0.341269  1
  Sr  Sr2  1  0.720404  0.450084  0.658731  1
  Sr  Sr3  1  0.720404  0.049916  0.158731  1
  Ca  Ca4  1  0.199302  0.646955  0.597283  1
  Ca  Ca5  1  0.199302  0.853045  0.097283  1
  Ca  Ca6  1  0.800698  0.146955  0.902717  1
  Ca  Ca7  1  0.800698  0.353045  0.402717  1
  I  I8  1  0.959961  0.807148  0.680654  1
  I  I9  1  0.959961  0.692852  0.180654  1
  I  I10  1  0.036616  0.303136  0.580606  1
  I  I11  1  0.036616  0.196864  0.080606  1
  I  I12  1  0.469486  0.628045  0.765519  1
  I  I13  1  0.483357  0.736419  0.520498  1
  I  I14  1  0.469486  0.871955  0.265519  1
  I  I15  1  0.516643  0.236419  0.979502  1
  I  I16  1  0.483357  0.763581  0.020498  1
  I  I17  1  0.530514  0.128045  0.734481  1
  I  I18  1  0.516643  0.263581  0.479502  1
  I  I19  1  0.530514  0.371955  0.234481  1
  I  I20  1  0.963384  0.803136  0.919394  1
  I  I21  1  0.963384  0.696864  0.419394  1
  I  I22  1  0.040039  0.307148  0.819346  1
  I  I23  1  0.040039  0.192852  0.319346  1
