# generated using pymatgen
data_Li5NiP3O11
_symmetry_space_group_name_H-M   'P 1'
_cell_length_a   5.33976559
_cell_length_b   8.40437464
_cell_length_c   9.56395722
_cell_angle_alpha   95.95724960
_cell_angle_beta   88.55218754
_cell_angle_gamma   94.08520844
_symmetry_Int_Tables_number   1
_chemical_formula_structural   Li5NiP3O11
_chemical_formula_sum   'Li10 Ni2 P6 O22'
_cell_volume   425.73382940
_cell_formula_units_Z   2
loop_
 _symmetry_equiv_pos_site_id
 _symmetry_equiv_pos_as_xyz
  1  'x, y, z'
loop_
 _atom_site_type_symbol
 _atom_site_label
 _atom_site_symmetry_multiplicity
 _atom_site_fract_x
 _atom_site_fract_y
 _atom_site_fract_z
 _atom_site_occupancy
  Li  Li0  1  0.223456  0.673197  0.343384  1
  Li  Li1  1  0.279090  0.366242  0.827844  1
  Li  Li2  1  0.320608  0.617766  0.682806  1
  Li  Li3  1  0.179396  0.379399  0.154295  1
  Li  Li4  1  0.513498  0.998437  0.840040  1
  Li  Li5  1  0.486502  0.001563  0.159960  1
  Li  Li6  1  0.820604  0.620601  0.845705  1
  Li  Li7  1  0.679392  0.382234  0.317194  1
  Li  Li8  1  0.720910  0.633758  0.172156  1
  Li  Li9  1  0.776544  0.326803  0.656616  1
  Ni  Ni10  1  0.000000  0.000000  0.000000  1
  Ni  Ni11  1  0.500000  0.000000  0.500000  1
  P  P12  1  0.029898  0.043311  0.313949  1
  P  P13  1  0.224525  0.703953  0.015745  1
  P  P14  1  0.267962  0.326884  0.476782  1
  P  P15  1  0.732038  0.673116  0.523218  1
  P  P16  1  0.775475  0.296047  0.984255  1
  P  P17  1  0.970102  0.956689  0.686051  1
  O  O18  1  0.960086  0.761915  0.066470  1
  O  O19  1  0.039421  0.194308  0.433992  1
  O  O20  1  0.113498  0.118525  0.178403  1
  O  O21  1  0.192071  0.593277  0.875566  1
  O  O22  1  0.176834  0.402519  0.618870  1
  O  O23  1  0.244775  0.022205  0.683505  1
  O  O24  1  0.230295  0.931772  0.346992  1
  O  O25  1  0.300287  0.435333  0.357497  1
  O  O26  1  0.342604  0.617045  0.130372  1
  O  O27  1  0.381942  0.860902  0.987126  1
  O  O28  1  0.487085  0.759440  0.518206  1
  O  O29  1  0.512915  0.240560  0.481794  1
  O  O30  1  0.618058  0.139098  0.012874  1
  O  O31  1  0.657396  0.382955  0.869628  1
  O  O32  1  0.699713  0.564667  0.642503  1
  O  O33  1  0.769705  0.068228  0.653008  1
  O  O34  1  0.755225  0.977795  0.316495  1
  O  O35  1  0.823166  0.597481  0.381130  1
  O  O36  1  0.807929  0.406723  0.124434  1
  O  O37  1  0.886502  0.881475  0.821597  1
  O  O38  1  0.960579  0.805692  0.566008  1
  O  O39  1  0.039914  0.238085  0.933530  1
