# generated using pymatgen
data_LiFe(SiO3)2
_symmetry_space_group_name_H-M   'P 1'
_cell_length_a   7.76939795
_cell_length_b   7.76939795
_cell_length_c   9.97611728
_cell_angle_alpha   90.00000000
_cell_angle_beta   90.00000000
_cell_angle_gamma   86.74789312
_symmetry_Int_Tables_number   1
_chemical_formula_structural   LiFe(SiO3)2
_chemical_formula_sum   'Li4 Fe4 Si8 O24'
_cell_volume   601.22401734
_cell_formula_units_Z   4
loop_
 _symmetry_equiv_pos_site_id
 _symmetry_equiv_pos_as_xyz
  1  'x, y, z'
loop_
 _atom_site_type_symbol
 _atom_site_label
 _atom_site_symmetry_multiplicity
 _atom_site_fract_x
 _atom_site_fract_y
 _atom_site_fract_z
 _atom_site_occupancy
  Li  Li0  1  0.100285  0.100285  0.500000  1
  Li  Li1  1  0.399019  0.600981  0.250000  1
  Li  Li2  1  0.600981  0.399019  0.750000  1
  Li  Li3  1  0.899715  0.899715  0.000000  1
  Fe  Fe4  1  0.153536  0.337966  0.794421  1
  Fe  Fe5  1  0.337966  0.153536  0.205579  1
  Fe  Fe6  1  0.662034  0.846464  0.705579  1
  Fe  Fe7  1  0.846464  0.662034  0.294421  1
  Si  Si8  1  0.071160  0.928840  0.750000  1
  Si  Si9  1  0.144139  0.632611  0.547114  1
  Si  Si10  1  0.367389  0.855861  0.952886  1
  Si  Si11  1  0.453058  0.453058  0.000000  1
  Si  Si12  1  0.546942  0.546942  0.500000  1
  Si  Si13  1  0.632611  0.144139  0.452886  1
  Si  Si14  1  0.855861  0.367389  0.047114  1
  Si  Si15  1  0.928840  0.071160  0.250000  1
  O  O16  1  0.996137  0.370174  0.929518  1
  O  O17  1  0.106192  0.126796  0.706119  1
  O  O18  1  0.104671  0.499275  0.664027  1
  O  O19  1  0.137605  0.830958  0.610289  1
  O  O20  1  0.169042  0.862395  0.889711  1
  O  O21  1  0.126796  0.106192  0.293881  1
  O  O22  1  0.336589  0.588093  0.478025  1
  O  O23  1  0.380803  0.379920  0.858538  1
  O  O24  1  0.379920  0.380803  0.141462  1
  O  O25  1  0.370174  0.996137  0.070482  1
  O  O26  1  0.411907  0.663411  0.021975  1
  O  O27  1  0.500725  0.895329  0.835973  1
  O  O28  1  0.499275  0.104671  0.335973  1
  O  O29  1  0.588093  0.336589  0.521975  1
  O  O30  1  0.629826  0.003863  0.570482  1
  O  O31  1  0.620080  0.619197  0.641462  1
  O  O32  1  0.619197  0.620080  0.358538  1
  O  O33  1  0.663411  0.411907  0.978025  1
  O  O34  1  0.873204  0.893808  0.793881  1
  O  O35  1  0.830958  0.137605  0.389711  1
  O  O36  1  0.862395  0.169042  0.110289  1
  O  O37  1  0.895329  0.500725  0.164027  1
  O  O38  1  0.893808  0.873204  0.206119  1
  O  O39  1  0.003863  0.629826  0.429518  1
