# generated using pymatgen
data_Li8MnFe7(PO4)8
_symmetry_space_group_name_H-M   'P 1'
_cell_length_a   4.75597760
_cell_length_b   10.45837641
_cell_length_c   12.18012046
_cell_angle_alpha   90.00000000
_cell_angle_beta   90.00000000
_cell_angle_gamma   90.03498464
_symmetry_Int_Tables_number   1
_chemical_formula_structural   Li8MnFe7(PO4)8
_chemical_formula_sum   'Li8 Mn1 Fe7 P8 O32'
_cell_volume   605.83669075
_cell_formula_units_Z   1
loop_
 _symmetry_equiv_pos_site_id
 _symmetry_equiv_pos_as_xyz
  1  'x, y, z'
loop_
 _atom_site_type_symbol
 _atom_site_label
 _atom_site_symmetry_multiplicity
 _atom_site_fract_x
 _atom_site_fract_y
 _atom_site_fract_z
 _atom_site_occupancy
  Li  Li0  1  0.999912  0.000448  0.500255  1
  Li  Li1  1  0.000073  -0.000010  0.999987  1
  Li  Li2  1  0.999912  0.000448  0.249745  1
  Li  Li3  1  0.000073  -0.000010  0.750013  1
  Li  Li4  1  0.499700  0.499754  0.249465  1
  Li  Li5  1  0.500117  0.499972  0.999864  1
  Li  Li6  1  0.500117  0.499972  0.750136  1
  Li  Li7  1  0.499700  0.499754  0.500535  1
  Mn  Mn8  1  0.023610  0.718463  0.375000  1
  Fe  Fe9  1  0.026255  0.718243  0.875000  1
  Fe  Fe10  1  0.473747  0.218451  0.875000  1
  Fe  Fe11  1  0.473330  0.218371  0.375000  1
  Fe  Fe12  1  0.526113  0.781585  0.124396  1
  Fe  Fe13  1  0.526113  0.781585  0.625604  1
  Fe  Fe14  1  0.973807  0.281561  0.124799  1
  Fe  Fe15  1  0.973807  0.281561  0.625201  1
  P  P16  1  0.084168  0.594168  0.124076  1
  P  P17  1  0.084168  0.594168  0.625924  1
  P  P18  1  0.417401  0.094683  0.125000  1
  P  P19  1  0.417401  0.094683  0.625000  1
  P  P20  1  0.582500  0.905521  0.875000  1
  P  P21  1  0.581472  0.907555  0.375000  1
  P  P22  1  0.916447  0.404314  0.375000  1
  P  P23  1  0.917441  0.405272  0.875000  1
  O  O24  1  0.206525  0.456181  0.124357  1
  O  O25  1  0.206525  0.456181  0.625643  1
  O  O26  1  0.216296  0.664600  0.022063  1
  O  O27  1  0.222855  0.664412  0.525472  1
  O  O28  1  0.216296  0.664600  0.727937  1
  O  O29  1  0.222855  0.664412  0.224527  1
  O  O30  1  0.239240  0.403077  0.375000  1
  O  O31  1  0.240187  0.402864  0.875000  1
  O  O32  1  0.258869  0.905050  0.375000  1
  O  O33  1  0.259627  0.903001  0.875000  1
  O  O34  1  0.283504  0.165205  0.023433  1
  O  O35  1  0.283642  0.165142  0.226616  1
  O  O36  1  0.283504  0.165205  0.726567  1
  O  O37  1  0.283642  0.165142  0.523384  1
  O  O38  1  0.292820  0.956856  0.124873  1
  O  O39  1  0.292820  0.956856  0.625127  1
  O  O40  1  0.708356  0.044440  0.375000  1
  O  O41  1  0.706934  0.043094  0.875000  1
  O  O42  1  0.712935  0.836376  0.273298  1
  O  O43  1  0.712935  0.836376  0.476702  1
  O  O44  1  0.716291  0.834868  0.773382  1
  O  O45  1  0.716291  0.834868  0.976618  1
  O  O46  1  0.740199  0.097056  0.124977  1
  O  O47  1  0.740199  0.097056  0.625023  1
  O  O48  1  0.761224  0.597176  0.125151  1
  O  O49  1  0.761224  0.597176  0.624849  1
  O  O50  1  0.783502  0.334020  0.273263  1
  O  O51  1  0.783502  0.334020  0.476737  1
  O  O52  1  0.783412  0.334712  0.773447  1
  O  O53  1  0.783412  0.334712  0.976553  1
  O  O54  1  0.790156  0.541736  0.375000  1
  O  O55  1  0.792831  0.543018  0.875000  1
