# generated using pymatgen
data_Li4V3P8O29
_symmetry_space_group_name_H-M   'P 1'
_cell_length_a   9.75430113
_cell_length_b   9.75413227
_cell_length_c   14.16685640
_cell_angle_alpha   90.33109675
_cell_angle_beta   90.33069643
_cell_angle_gamma   60.06136524
_symmetry_Int_Tables_number   1
_chemical_formula_structural   Li4V3P8O29
_chemical_formula_sum   'Li8 V6 P16 O58'
_cell_volume   1168.01246266
_cell_formula_units_Z   2
loop_
 _symmetry_equiv_pos_site_id
 _symmetry_equiv_pos_as_xyz
  1  'x, y, z'
loop_
 _atom_site_type_symbol
 _atom_site_label
 _atom_site_symmetry_multiplicity
 _atom_site_fract_x
 _atom_site_fract_y
 _atom_site_fract_z
 _atom_site_occupancy
  Li  Li0  1  0.910321  0.330401  0.561150  1
  Li  Li1  1  0.765605  0.332027  0.058261  1
  Li  Li2  1  0.330402  0.910325  0.061128  1
  Li  Li3  1  0.668504  0.230995  0.442864  1
  Li  Li4  1  0.332022  0.765668  0.558154  1
  Li  Li5  1  0.230931  0.668569  0.942872  1
  Li  Li6  1  0.951912  0.010309  0.995740  1
  Li  Li7  1  0.010351  0.951957  0.495798  1
  V  V8  1  0.565901  0.433721  0.249139  1
  V  V9  1  0.433711  0.565865  0.749246  1
  V  V10  1  0.566715  0.996160  0.749548  1
  V  V11  1  0.438534  0.004189  0.251274  1
  V  V12  1  0.996252  0.566633  0.249705  1
  V  V13  1  0.004212  0.438646  0.751327  1
  P  P14  1  0.916497  0.781640  0.838961  1
  P  P15  1  0.781589  0.916527  0.338987  1
  P  P16  1  0.914646  0.312529  0.346678  1
  P  P17  1  0.665254  0.666656  0.131301  1
  P  P18  1  0.666664  0.665230  0.631271  1
  P  P19  1  0.776949  0.315474  0.840889  1
  P  P20  1  0.687342  0.222615  0.661371  1
  P  P21  1  0.312572  0.914795  0.846677  1
  P  P22  1  0.695183  0.083401  0.153618  1
  P  P23  1  0.315355  0.777127  0.340932  1
  P  P24  1  0.222781  0.687193  0.161350  1
  P  P25  1  0.332050  0.335896  0.367916  1
  P  P26  1  0.335911  0.332081  0.867857  1
  P  P27  1  0.083587  0.695078  0.653670  1
  P  P28  1  0.220514  0.082992  0.662836  1
  P  P29  1  0.082972  0.220559  0.162866  1
  O  O30  1  0.005996  0.788622  0.567947  1
  O  O31  1  0.914518  0.742028  0.334310  1
  O  O32  1  0.788565  0.006079  0.068043  1
  O  O33  1  0.742010  0.914554  0.834317  1
  O  O34  1  0.923147  0.618987  0.828494  1
  O  O35  1  0.811046  0.668458  0.179367  1
  O  O36  1  0.912816  0.469779  0.327902  1
  O  O37  1  0.989908  0.206025  0.083075  1
  O  O38  1  0.915405  0.349931  0.827896  1
  O  O39  1  0.668467  0.811087  0.679292  1
  O  O40  1  0.618944  0.923136  0.328470  1
  O  O41  1  0.814539  0.513644  0.672248  1
  O  O42  1  0.665678  0.666056  0.026213  1
  O  O43  1  0.666067  0.665726  0.526121  1
  O  O44  1  0.673054  0.512104  0.170108  1
  O  O45  1  0.469817  0.912811  0.827879  1
  O  O46  1  0.513616  0.814589  0.172314  1
  O  O47  1  0.743349  0.339670  0.337025  1
  O  O48  1  0.796848  0.201318  0.751954  1
  O  O49  1  0.773347  0.220431  0.572531  1
  O  O50  1  0.795078  0.230215  0.931377  1
  O  O51  1  0.619655  0.467967  0.828136  1
  O  O52  1  0.512117  0.673006  0.670113  1
  O  O53  1  0.656404  0.258341  0.160808  1
  O  O54  1  0.468284  0.619510  0.328208  1
  O  O55  1  0.349864  0.915518  0.327856  1
  O  O56  1  0.801421  0.998602  0.246312  1
  O  O57  1  0.794105  0.003767  0.422986  1
  O  O58  1  0.206070  0.989904  0.583063  1
  O  O59  1  0.656760  0.082426  0.666259  1
  O  O60  1  0.529853  0.380464  0.673736  1
  O  O61  1  0.339550  0.743366  0.837088  1
  O  O62  1  0.486840  0.327890  0.332114  1
  O  O63  1  0.380253  0.529943  0.173773  1
  O  O64  1  0.220641  0.773071  0.072599  1
  O  O65  1  0.230109  0.795260  0.431326  1
  O  O66  1  0.201395  0.796847  0.252003  1
  O  O67  1  0.258213  0.656415  0.660851  1
  O  O68  1  0.479352  0.186131  0.819641  1
  O  O69  1  0.540871  0.076102  0.168860  1
  O  O70  1  0.327846  0.486776  0.832087  1
  O  O71  1  0.328679  0.327308  0.972220  1
  O  O72  1  0.327120  0.328782  0.472240  1
  O  O73  1  0.186125  0.479273  0.319626  1
  O  O74  1  0.382739  0.075242  0.671661  1
  O  O75  1  0.334668  0.187019  0.317626  1
  O  O76  1  0.082393  0.656662  0.166297  1
  O  O77  1  0.998547  0.801465  0.746287  1
  O  O78  1  0.003788  0.794177  0.922982  1
  O  O79  1  0.076108  0.540849  0.668849  1
  O  O80  1  0.187026  0.334536  0.817603  1
  O  O81  1  0.075225  0.382729  0.171692  1
  O  O82  1  0.258377  0.084730  0.160840  1
  O  O83  1  0.236734  0.985180  0.939006  1
  O  O84  1  0.196091  0.013818  0.761477  1
  O  O85  1  0.084728  0.258342  0.660813  1
  O  O86  1  0.985167  0.236687  0.438991  1
  O  O87  1  0.013880  0.196064  0.261490  1
