# generated using pymatgen
data_Pr2In8Pd
_symmetry_space_group_name_H-M   'P 1'
_cell_length_a   4.75385891
_cell_length_b   4.75456320
_cell_length_c   12.41465934
_cell_angle_alpha   89.95451107
_cell_angle_beta   89.99161209
_cell_angle_gamma   89.96441879
_symmetry_Int_Tables_number   1
_chemical_formula_structural   Pr2In8Pd
_chemical_formula_sum   'Pr2 In8 Pd1'
_cell_volume   280.60247316
_cell_formula_units_Z   1
loop_
 _symmetry_equiv_pos_site_id
 _symmetry_equiv_pos_as_xyz
  1  'x, y, z'
loop_
 _atom_site_type_symbol
 _atom_site_label
 _atom_site_symmetry_multiplicity
 _atom_site_fract_x
 _atom_site_fract_y
 _atom_site_fract_z
 _atom_site_occupancy
  Pr  Pr0  1  0.999833  0.999899  0.309032  1
  Pr  Pr1  1  0.000029  0.999898  0.690971  1
  In  In2  1  0.499913  0.000058  0.122681  1
  In  In3  1  0.999962  0.499929  0.122700  1
  In  In4  1  0.499915  0.499887  0.307336  1
  In  In5  1  0.499919  0.999923  0.499903  1
  In  In6  1  0.000181  0.500008  0.499995  1
  In  In7  1  0.500101  0.500249  0.692625  1
  In  In8  1  0.500074  0.000077  0.877348  1
  In  In9  1  0.000093  0.500100  0.877396  1
  Pd  Pd10  1  0.999968  0.999961  0.000012  1
