# generated using pymatgen
data_Li3MnP2O9
_symmetry_space_group_name_H-M   'P 1'
_cell_length_a   6.86595067
_cell_length_b   7.89938345
_cell_length_c   7.12109601
_cell_angle_alpha   89.54649972
_cell_angle_beta   87.81059111
_cell_angle_gamma   64.32430268
_symmetry_Int_Tables_number   1
_chemical_formula_structural   Li3MnP2O9
_chemical_formula_sum   'Li6 Mn2 P4 O18'
_cell_volume   347.81964716
_cell_formula_units_Z   2
loop_
 _symmetry_equiv_pos_site_id
 _symmetry_equiv_pos_as_xyz
  1  'x, y, z'
loop_
 _atom_site_type_symbol
 _atom_site_label
 _atom_site_symmetry_multiplicity
 _atom_site_fract_x
 _atom_site_fract_y
 _atom_site_fract_z
 _atom_site_occupancy
  Li  Li0  1  0.857376  0.207495  0.238819  1
  Li  Li1  1  0.615195  0.728807  0.300658  1
  Li  Li2  1  0.398810  0.267702  0.697554  1
  Li  Li3  1  0.087290  0.792328  0.765700  1
  Li  Li4  1  0.999471  0.505115  0.499861  1
  Li  Li5  1  0.239619  0.000600  0.995407  1
  Mn  Mn6  1  0.503653  0.497537  0.001734  1
  Mn  Mn7  1  0.999531  0.504992  0.998023  1
  P  P8  1  0.890578  0.250718  0.710444  1
  P  P9  1  0.613398  0.794494  0.760326  1
  P  P10  1  0.381516  0.204883  0.238713  1
  P  P11  1  0.122618  0.749954  0.289300  1
  O  O12  1  0.990830  0.636973  0.228844  1
  O  O13  1  0.823645  0.741545  0.875785  1
  O  O14  1  0.005124  0.058993  0.802299  1
  O  O15  1  0.676503  0.700922  0.567159  1
  O  O16  1  0.485090  0.991493  0.238065  1
  O  O17  1  0.889242  0.253682  0.497096  1
  O  O18  1  0.762231  0.474043  0.098791  1
  O  O19  1  0.452916  0.730131  0.874491  1
  O  O20  1  0.645898  0.342394  0.781469  1
  O  O21  1  0.370001  0.639555  0.227555  1
  O  O22  1  0.549687  0.268216  0.143159  1
  O  O23  1  0.244135  0.524970  0.900846  1
  O  O24  1  0.107059  0.745149  0.502153  1
  O  O25  1  0.487936  0.007775  0.763628  1
  O  O26  1  0.313922  0.298597  0.432842  1
  O  O27  1  0.042379  0.941059  0.194790  1
  O  O28  1  0.178989  0.262565  0.111047  1
  O  O29  1  0.007165  0.377316  0.763438  1
