# generated using pymatgen
data_Li9V6(P8O29)2
_symmetry_space_group_name_H-M   'P 1'
_cell_length_a   9.83127425
_cell_length_b   9.80012018
_cell_length_c   13.97076920
_cell_angle_alpha   89.88697353
_cell_angle_beta   90.00922748
_cell_angle_gamma   59.93336779
_symmetry_Int_Tables_number   1
_chemical_formula_structural   Li9V6(P8O29)2
_chemical_formula_sum   'Li9 V6 P16 O58'
_cell_volume   1164.92762554
_cell_formula_units_Z   1
loop_
 _symmetry_equiv_pos_site_id
 _symmetry_equiv_pos_as_xyz
  1  'x, y, z'
loop_
 _atom_site_type_symbol
 _atom_site_label
 _atom_site_symmetry_multiplicity
 _atom_site_fract_x
 _atom_site_fract_y
 _atom_site_fract_z
 _atom_site_occupancy
  Li  Li0  1  0.912026  0.775942  0.060408  1
  Li  Li1  1  0.911799  0.314088  0.556746  1
  Li  Li2  1  0.659667  0.670529  0.885060  1
  Li  Li3  1  0.774675  0.310839  0.062589  1
  Li  Li4  1  0.318121  0.907339  0.062158  1
  Li  Li5  1  0.677982  0.227493  0.440016  1
  Li  Li6  1  0.320867  0.773188  0.557653  1
  Li  Li7  1  0.089252  0.685305  0.438452  1
  Li  Li8  1  0.093973  0.225398  0.943250  1
  V  V9  1  0.566971  0.432404  0.246212  1
  V  V10  1  0.430024  0.569609  0.753989  1
  V  V11  1  0.570446  0.002611  0.746822  1
  V  V12  1  0.431907  0.004136  0.255285  1
  V  V13  1  0.999757  0.568518  0.251317  1
  V  V14  1  0.003671  0.432116  0.747531  1
  P  P15  1  0.910130  0.771383  0.841219  1
  P  P16  1  0.768983  0.916481  0.343650  1
  P  P17  1  0.911335  0.319343  0.341506  1
  P  P18  1  0.665953  0.669389  0.126536  1
  P  P19  1  0.665105  0.666999  0.627812  1
  P  P20  1  0.771772  0.319870  0.843516  1
  P  P21  1  0.680933  0.234387  0.659889  1
  P  P22  1  0.319963  0.912456  0.843559  1
  P  P23  1  0.683037  0.083526  0.156325  1
  P  P24  1  0.321387  0.766278  0.341247  1
  P  P25  1  0.229672  0.683737  0.158088  1
  P  P26  1  0.334821  0.335472  0.373379  1
  P  P27  1  0.333814  0.331470  0.871654  1
  P  P28  1  0.087112  0.685804  0.657239  1
  P  P29  1  0.231546  0.083388  0.657839  1
  P  P30  1  0.089554  0.231320  0.159877  1
  O  O31  1  0.003474  0.751692  0.565654  1
  O  O32  1  0.914332  0.748885  0.341887  1
  O  O33  1  0.763700  0.992979  0.069307  1
  O  O34  1  0.740683  0.915160  0.833392  1
  O  O35  1  0.893303  0.621332  0.822256  1
  O  O36  1  0.812754  0.674647  0.164109  1
  O  O37  1  0.901706  0.479971  0.320957  1
  O  O38  1  0.002295  0.238763  0.069497  1
  O  O39  1  0.922844  0.336496  0.837749  1
  O  O40  1  0.664647  0.814337  0.674199  1
  O  O41  1  0.617443  0.905079  0.324138  1
  O  O42  1  0.818442  0.513329  0.669902  1
  O  O43  1  0.662408  0.670609  0.018197  1
  O  O44  1  0.669855  0.662673  0.521562  1
  O  O45  1  0.673299  0.513456  0.163422  1
  O  O46  1  0.484650  0.893949  0.826053  1
  O  O47  1  0.512895  0.817013  0.166592  1
  O  O48  1  0.744236  0.339416  0.336569  1
  O  O49  1  0.791037  0.212175  0.751317  1
  O  O50  1  0.760006  0.240438  0.569616  1
  O  O51  1  0.765544  0.245138  0.934293  1
  O  O52  1  0.628824  0.486921  0.825223  1
  O  O53  1  0.515588  0.668698  0.668626  1
  O  O54  1  0.661492  0.251355  0.157940  1
  O  O55  1  0.479889  0.618673  0.323391  1
  O  O56  1  0.342308  0.913151  0.333793  1
  O  O57  1  0.790229  0.000292  0.250024  1
  O  O58  1  0.755996  0.008416  0.430735  1
  O  O59  1  0.237193  0.992602  0.572361  1
  O  O60  1  0.659743  0.087385  0.664784  1
  O  O61  1  0.522624  0.384717  0.676675  1
  O  O62  1  0.341102  0.745838  0.840016  1
  O  O63  1  0.486532  0.327724  0.332796  1
  O  O64  1  0.380612  0.522078  0.175264  1
  O  O65  1  0.236461  0.769440  0.072160  1
  O  O66  1  0.244323  0.759505  0.432571  1
  O  O67  1  0.205795  0.786816  0.254035  1
  O  O68  1  0.252659  0.665510  0.661230  1
  O  O69  1  0.477324  0.181390  0.824075  1
  O  O70  1  0.522682  0.093128  0.177210  1
  O  O71  1  0.334654  0.477096  0.829475  1
  O  O72  1  0.328403  0.322394  0.977432  1
  O  O73  1  0.335561  0.328263  0.479983  1
  O  O74  1  0.185650  0.487700  0.334287  1
  O  O75  1  0.383075  0.091296  0.676400  1
  O  O76  1  0.333387  0.185784  0.325941  1
  O  O77  1  0.083934  0.661438  0.160615  1
  O  O78  1  0.998584  0.791953  0.749762  1
  O  O79  1  0.991287  0.759413  0.932253  1
  O  O80  1  0.096000  0.523973  0.681173  1
  O  O81  1  0.180077  0.332659  0.828307  1
  O  O82  1  0.102216  0.377962  0.176998  1
  O  O83  1  0.255465  0.081020  0.161700  1
  O  O84  1  0.245016  0.001889  0.933567  1
  O  O85  1  0.207147  0.006360  0.754645  1
  O  O86  1  0.085187  0.254339  0.659390  1
  O  O87  1  0.992941  0.246763  0.433010  1
  O  O88  1  0.999762  0.209072  0.250286  1
