# generated using pymatgen
data_NbO2
_symmetry_space_group_name_H-M   'P 1'
_cell_length_a   6.06811495
_cell_length_b   10.36888923
_cell_length_c   10.36888923
_cell_angle_alpha   85.08823205
_cell_angle_beta   72.98562519
_cell_angle_gamma   72.98562523
_symmetry_Int_Tables_number   1
_chemical_formula_structural   NbO2
_chemical_formula_sum   'Nb16 O32'
_cell_volume   596.54642355
_cell_formula_units_Z   16
loop_
 _symmetry_equiv_pos_site_id
 _symmetry_equiv_pos_as_xyz
  1  'x, y, z'
loop_
 _atom_site_type_symbol
 _atom_site_label
 _atom_site_symmetry_multiplicity
 _atom_site_fract_x
 _atom_site_fract_y
 _atom_site_fract_z
 _atom_site_occupancy
  O  O0  1  0.758039  0.361932  0.111872  1
  O  O1  1  0.869910  0.388127  0.361933  1
  O  O2  1  0.619970  0.111872  0.138067  1
  O  O3  1  0.231842  0.138067  0.388127  1
  O  O4  1  0.241961  0.638068  0.888127  1
  O  O5  1  0.130090  0.611873  0.638067  1
  O  O6  1  0.380030  0.888128  0.861932  1
  O  O7  1  0.768158  0.861933  0.611872  1
  O  O8  1  0.274086  0.350341  0.099861  1
  O  O9  1  0.373947  0.400140  0.350341  1
  O  O10  1  0.124427  0.099861  0.149659  1
  O  O11  1  0.724289  0.149659  0.400140  1
  O  O12  1  0.725914  0.649659  0.900139  1
  O  O13  1  0.626053  0.599860  0.649659  1
  O  O14  1  0.875573  0.900139  0.850341  1
  O  O15  1  0.275711  0.850341  0.599861  1
  O  O16  1  0.979782  0.139486  0.887512  1
  O  O17  1  0.867295  0.612488  0.139487  1
  O  O18  1  0.619269  0.887512  0.360514  1
  O  O19  1  0.006781  0.360513  0.612488  1
  O  O20  1  0.020218  0.860514  0.112488  1
  O  O21  1  0.132705  0.387512  0.860513  1
  O  O22  1  0.380731  0.112488  0.639486  1
  O  O23  1  0.993219  0.639487  0.387512  1
  O  O24  1  0.472443  0.650871  0.402063  1
  O  O25  1  0.376686  0.597936  0.150872  1
  O  O26  1  0.125495  0.902063  0.349129  1
  O  O27  1  0.527557  0.349129  0.597936  1
  O  O28  1  0.525378  0.849129  0.097936  1
  O  O29  1  0.623314  0.402064  0.849129  1
  O  O30  1  0.874505  0.097937  0.650871  1
  O  O31  1  0.474622  0.150871  0.902063  1
  Nb  Nb32  1  0.106298  0.490502  0.241105  1
  Nb  Nb33  1  0.347402  0.258895  0.490503  1
  Nb  Nb34  1  0.096800  0.241106  0.009498  1
  Nb  Nb35  1  0.837905  0.009497  0.258895  1
  Nb  Nb36  1  0.893702  0.509498  0.758894  1
  Nb  Nb37  1  0.652597  0.741105  0.509497  1
  Nb  Nb38  1  0.903200  0.758894  0.990503  1
  Nb  Nb39  1  0.162095  0.990503  0.741105  1
  Nb  Nb40  1  0.638786  0.509932  0.261124  1
  Nb  Nb41  1  0.899909  0.238876  0.509932  1
  Nb  Nb42  1  0.648718  0.261124  0.990068  1
  Nb  Nb43  1  0.409842  0.990068  0.238876  1
  Nb  Nb44  1  0.361214  0.490068  0.738876  1
  Nb  Nb45  1  0.100091  0.761124  0.490068  1
  Nb  Nb46  1  0.351282  0.738876  0.009933  1
  Nb  Nb47  1  0.590158  0.009932  0.761124  1
