# generated using pymatgen
data_Li4Fe3Sn2Sb3O16
_symmetry_space_group_name_H-M   'P 1'
_cell_length_a   6.24816375
_cell_length_b   6.23920048
_cell_length_c   9.93564972
_cell_angle_alpha   90.01643823
_cell_angle_beta   90.66744001
_cell_angle_gamma   119.98743722
_symmetry_Int_Tables_number   1
_chemical_formula_structural   Li4Fe3Sn2Sb3O16
_chemical_formula_sum   'Li4 Fe3 Sn2 Sb3 O16'
_cell_volume   335.44624887
_cell_formula_units_Z   1
loop_
 _symmetry_equiv_pos_site_id
 _symmetry_equiv_pos_as_xyz
  1  'x, y, z'
loop_
 _atom_site_type_symbol
 _atom_site_label
 _atom_site_symmetry_multiplicity
 _atom_site_fract_x
 _atom_site_fract_y
 _atom_site_fract_z
 _atom_site_occupancy
  Li  Li0  1  0.324434  0.662333  0.887208  1
  Li  Li1  1  0.974416  0.987052  0.983687  1
  Li  Li2  1  0.987828  0.993757  0.500745  1
  Li  Li3  1  0.652195  0.325889  0.405607  1
  Fe  Fe4  1  0.660472  0.830258  0.214309  1
  Fe  Fe5  1  0.838480  0.663091  0.712437  1
  Fe  Fe6  1  0.838310  0.175403  0.712495  1
  Sn  Sn7  1  0.356165  0.677830  0.501776  1
  Sn  Sn8  1  0.685978  0.343696  0.979191  1
  Sb  Sb9  1  0.168900  0.831206  0.215283  1
  Sb  Sb10  1  0.168792  0.337479  0.215088  1
  Sb  Sb11  1  0.346398  0.173310  0.714447  1
  O  O12  1  0.180190  0.850489  0.593255  1
  O  O13  1  0.032467  0.515375  0.338614  1
  O  O14  1  0.325126  0.661472  0.106778  1
  O  O15  1  0.001662  0.002010  0.313423  1
  O  O16  1  0.025567  0.013021  0.804219  1
  O  O17  1  0.180035  0.329383  0.593299  1
  O  O18  1  0.471625  0.958042  0.338497  1
  O  O19  1  0.471101  0.512903  0.337821  1
  O  O20  1  0.322193  0.161951  0.103718  1
  O  O21  1  0.683837  0.841763  0.595762  1
  O  O22  1  0.501636  0.469250  0.845159  1
  O  O23  1  0.501620  0.033029  0.845519  1
  O  O24  1  0.643402  0.321613  0.602880  1
  O  O25  1  0.844712  0.679019  0.101116  1
  O  O26  1  0.966409  0.483517  0.844192  1
  O  O27  1  0.846049  0.166161  0.101314  1
