# generated using pymatgen
data_Li5Fe4(P2O7)4
_symmetry_space_group_name_H-M   'P 1'
_cell_length_a   9.75922575
_cell_length_b   9.79642492
_cell_length_c   11.15872722
_cell_angle_alpha   90.21783688
_cell_angle_beta   101.63547776
_cell_angle_gamma   89.46604706
_symmetry_Int_Tables_number   1
_chemical_formula_structural   Li5Fe4(P2O7)4
_chemical_formula_sum   'Li10 Fe8 P16 O56'
_cell_volume   1044.86566904
_cell_formula_units_Z   2
loop_
 _symmetry_equiv_pos_site_id
 _symmetry_equiv_pos_as_xyz
  1  'x, y, z'
loop_
 _atom_site_type_symbol
 _atom_site_label
 _atom_site_symmetry_multiplicity
 _atom_site_fract_x
 _atom_site_fract_y
 _atom_site_fract_z
 _atom_site_occupancy
  Li  Li0  1  0.115813  0.704848  0.454732  1
  Li  Li1  1  0.408815  0.611909  0.975190  1
  Li  Li2  1  0.363047  0.933330  0.484485  1
  Li  Li3  1  0.384739  0.222668  0.551900  1
  Li  Li4  1  0.589915  0.394348  0.034266  1
  Li  Li5  1  0.855102  0.590441  0.952863  1
  Li  Li6  1  0.647384  0.094916  0.045921  1
  Li  Li7  1  0.922538  0.902362  0.976054  1
  Li  Li8  1  0.818106  0.586610  0.450561  1
  Li  Li9  1  0.887087  0.284753  0.544900  1
  Fe  Fe10  1  0.202424  0.918132  0.680586  1
  Fe  Fe11  1  0.242987  0.203785  0.825869  1
  Fe  Fe12  1  0.243035  0.722747  0.174477  1
  Fe  Fe13  1  0.292605  0.426928  0.325375  1
  Fe  Fe14  1  0.704014  0.578248  0.676220  1
  Fe  Fe15  1  0.755740  0.282461  0.829458  1
  Fe  Fe16  1  0.744615  0.786413  0.174313  1
  Fe  Fe17  1  0.794257  0.072328  0.328713  1
  P  P18  1  0.021152  0.451345  0.747437  1
  P  P19  1  0.116751  0.707905  0.884905  1
  P  P20  1  0.068472  0.919255  0.244057  1
  P  P21  1  0.124477  0.147699  0.416838  1
  P  P22  1  0.377930  0.642281  0.577659  1
  P  P23  1  0.439659  0.425073  0.764967  1
  P  P24  1  0.519638  0.050014  0.754661  1
  P  P25  1  0.380193  0.211703  0.115723  1
  P  P26  1  0.616562  0.794192  0.884006  1
  P  P27  1  0.475860  0.949541  0.247177  1
  P  P28  1  0.558668  0.577157  0.240795  1
  P  P29  1  0.621261  0.352455  0.422896  1
  P  P30  1  0.877120  0.853610  0.571654  1
  P  P31  1  0.931600  0.075789  0.757884  1
  P  P32  1  0.889028  0.286041  0.116786  1
  P  P33  1  0.972394  0.550527  0.238503  1
  O  O34  1  0.010235  0.430867  0.613054  1
  O  O35  1  0.034989  0.838964  0.567115  1
  O  O36  1  0.087081  0.080130  0.734811  1
  O  O37  1  0.110000  0.588363  0.785151  1
  O  O38  1  0.102635  0.342031  0.832097  1
  O  O39  1  0.179556  0.825978  0.825453  1
  O  O40  1  0.220349  0.659508  0.002838  1
  O  O41  1  0.027246  0.255466  0.088548  1
  O  O42  1  0.122327  0.067720  0.289428  1
  O  O43  1  0.087577  0.891604  0.114072  1
  O  O44  1  0.130526  0.543754  0.223979  1
  O  O45  1  0.192389  0.285021  0.403011  1
  O  O46  1  0.169937  0.814044  0.320823  1
  O  O47  1  0.218151  0.064361  0.519163  1
  O  O48  1  0.286047  0.571114  0.468869  1
  O  O49  1  0.345936  0.303776  0.710933  1
  O  O50  1  0.314686  0.785691  0.594019  1
  O  O51  1  0.362973  0.033115  0.775605  1
  O  O52  1  0.366298  0.560200  0.699142  1
  O  O53  1  0.439176  0.439992  0.898601  1
  O  O54  1  0.476819  0.761500  0.909185  1
  O  O55  1  0.282406  0.168449  0.995039  1
  O  O56  1  0.321685  0.329886  0.180916  1
  O  O57  1  0.386215  0.087117  0.209842  1
  O  O58  1  0.406521  0.589950  0.266451  1
  O  O59  1  0.398406  0.839594  0.159774  1
  O  O60  1  0.469280  0.343672  0.439513  1
  O  O61  1  0.518123  0.088037  0.624558  1
  O  O62  1  0.479184  0.926457  0.379056  1
  O  O63  1  0.532826  0.650467  0.573393  1
  O  O64  1  0.600238  0.139779  0.857726  1
  O  O65  1  0.587666  0.417044  0.732541  1
  O  O66  1  0.594944  0.902427  0.772941  1
  O  O67  1  0.691718  0.673112  0.831169  1
  O  O68  1  0.720338  0.858439  0.994438  1
  O  O69  1  0.526492  0.233542  0.095277  1
  O  O70  1  0.561128  0.568915  0.106461  1
  O  O71  1  0.616091  0.430575  0.295831  1
  O  O72  1  0.625289  0.971973  0.216494  1
  O  O73  1  0.691602  0.215638  0.407135  1
  O  O74  1  0.663887  0.681362  0.306683  1
  O  O75  1  0.716563  0.438244  0.522492  1
  O  O76  1  0.796636  0.933821  0.463670  1
  O  O77  1  0.845554  0.194550  0.690917  1
  O  O78  1  0.816989  0.711809  0.590249  1
  O  O79  1  0.873725  0.475454  0.783683  1
  O  O80  1  0.918087  0.068503  0.888995  1
  O  O81  1  0.871800  0.934609  0.695483  1
  O  O82  1  0.972529  0.733544  0.907722  1
  O  O83  1  0.778682  0.350588  0.008417  1
  O  O84  1  0.812965  0.169709  0.173717  1
  O  O85  1  0.888363  0.635842  0.133387  1
  O  O86  1  0.906653  0.401285  0.227493  1
  O  O87  1  0.915276  0.915488  0.261578  1
  O  O88  1  0.971594  0.159707  0.431279  1
  O  O89  1  0.964401  0.599874  0.365314  1
