# generated using pymatgen
data_CeTl5Co2(NO2)12
_symmetry_space_group_name_H-M   'P 1'
_cell_length_a   10.75854420
_cell_length_b   10.75854420
_cell_length_c   10.75854420
_cell_angle_alpha   90.00000000
_cell_angle_beta   90.00000000
_cell_angle_gamma   90.00000000
_symmetry_Int_Tables_number   1
_chemical_formula_structural   CeTl5Co2(NO2)12
_chemical_formula_sum   'Ce2 Tl10 Co4 N24 O48'
_cell_volume   1245.26139732
_cell_formula_units_Z   2
loop_
 _symmetry_equiv_pos_site_id
 _symmetry_equiv_pos_as_xyz
  1  'x, y, z'
loop_
 _atom_site_type_symbol
 _atom_site_label
 _atom_site_symmetry_multiplicity
 _atom_site_fract_x
 _atom_site_fract_y
 _atom_site_fract_z
 _atom_site_occupancy
  N  N0  1  0.493403  0.314791  0.499877  1
  N  N1  1  0.814791  -0.000123  0.506597  1
  N  N2  1  0.814791  0.500123  0.993403  1
  N  N3  1  0.685209  -0.000123  0.993403  1
  N  N4  1  0.500123  0.993403  0.814791  1
  N  N5  1  0.993403  0.685209  -0.000123  1
  N  N6  1  0.993403  0.814791  0.500123  1
  N  N7  1  -0.000123  0.506597  0.814791  1
  N  N8  1  0.506597  0.814791  -0.000123  1
  N  N9  1  -0.000123  0.993403  0.685209  1
  N  N10  1  0.500123  0.506597  0.685209  1
  N  N11  1  0.506597  0.685209  0.500123  1
  N  N12  1  0.685209  0.500123  0.506597  1
  N  N13  1  0.185209  1.000123  0.493403  1
  N  N14  1  0.185209  0.499877  0.006596  1
  N  N15  1  0.314791  1.000123  0.006596  1
  N  N16  1  0.314791  0.499877  0.493403  1
  N  N17  1  0.499877  0.006596  0.185209  1
  N  N18  1  0.499877  0.493403  0.314791  1
  N  N19  1  1.000123  0.006596  0.314791  1
  N  N20  1  0.493403  0.185209  1.000123  1
  N  N21  1  1.000123  0.493403  0.185209  1
  N  N22  1  0.006596  0.185209  0.499877  1
  N  N23  1  0.006596  0.314791  1.000123  1
  O  O24  1  0.757106  0.100268  0.492701  1
  O  O25  1  0.600268  0.992701  0.242894  1
  O  O26  1  0.257106  0.899732  0.992701  1
  O  O27  1  0.242894  0.600268  0.992701  1
  O  O28  1  0.242894  0.899732  0.507299  1
  O  O29  1  0.742894  0.399732  0.492701  1
  O  O30  1  0.492701  0.742894  0.399732  1
  O  O31  1  0.399732  0.492701  0.742894  1
  O  O32  1  0.100268  0.007299  0.742894  1
  O  O33  1  0.492701  0.757106  0.100268  1
  O  O34  1  0.100268  0.492701  0.757106  1
  O  O35  1  0.007299  0.757106  0.399732  1
  O  O36  1  0.007299  0.742894  0.100268  1
  O  O37  1  0.399732  0.007299  0.757106  1
  O  O38  1  0.742894  0.100268  0.007299  1
  O  O39  1  0.757106  0.399732  0.007299  1
  O  O40  1  0.252516  0.404287  0.462511  1
  O  O41  1  0.462511  0.252516  0.404287  1
  O  O42  1  0.404287  0.462511  0.252516  1
  O  O43  1  0.095713  0.037489  0.252516  1
  O  O44  1  0.462511  0.247484  0.095713  1
  O  O45  1  0.095713  0.462511  0.247484  1
  O  O46  1  0.037489  0.247484  0.404287  1
  O  O47  1  0.037489  0.252516  0.095713  1
  O  O48  1  0.404287  0.037489  0.247484  1
  O  O49  1  0.252516  0.095713  0.037489  1
  O  O50  1  0.247484  0.404287  0.037489  1
  O  O51  1  0.247484  0.095713  0.462511  1
  O  O52  1  0.747484  0.595713  0.537489  1
  O  O53  1  0.537489  0.747484  0.595713  1
  O  O54  1  0.595713  0.537489  0.747484  1
  O  O55  1  0.904287  0.962511  0.747484  1
  O  O56  1  0.537489  0.752516  0.904287  1
  O  O57  1  0.904287  0.537489  0.752516  1
  O  O58  1  0.962511  0.752516  0.595713  1
  O  O59  1  0.962511  0.747484  0.904287  1
  O  O60  1  0.595713  0.962511  0.752516  1
  O  O61  1  0.747484  0.904287  0.962511  1
  O  O62  1  0.752516  0.595713  0.962511  1
  O  O63  1  0.752516  0.904287  0.537489  1
  O  O64  1  0.257106  0.600268  0.507299  1
  O  O65  1  0.507299  0.257106  0.600268  1
  O  O66  1  0.992701  0.257106  0.899732  1
  O  O67  1  0.899732  0.992701  0.257106  1
  O  O68  1  0.507299  0.242894  0.899732  1
  O  O69  1  0.899732  0.507299  0.242894  1
  O  O70  1  0.992701  0.242894  0.600268  1
  O  O71  1  0.600268  0.507299  0.257106  1
  Co  Co72  1  0.000000  0.500000  0.000000  1
  Co  Co73  1  0.500000  0.000000  0.000000  1
  Co  Co74  1  0.000000  0.000000  0.500000  1
  Co  Co75  1  0.500000  0.500000  0.500000  1
  Ce  Ce76  1  0.750000  0.750000  0.750000  1
  Ce  Ce77  1  0.250000  0.250000  0.250000  1
  Tl  Tl78  1  0.750000  0.250000  0.250000  1
  Tl  Tl79  1  0.250000  0.750000  0.250000  1
  Tl  Tl80  1  0.250000  0.250000  0.750000  1
  Tl  Tl81  1  0.750000  0.750000  0.250000  1
  Tl  Tl82  1  0.750000  0.250000  0.750000  1
  Tl  Tl83  1  0.250000  0.750000  0.750000  1
  Tl  Tl84  1  0.500000  0.000000  0.500000  1
  Tl  Tl85  1  0.000000  0.500000  0.500000  1
  Tl  Tl86  1  0.500000  0.500000  0.000000  1
  Tl  Tl87  1  0.000000  0.000000  0.000000  1
