# generated using pymatgen
data_Li2VCrP2(O4F)2
_symmetry_space_group_name_H-M   'P 1'
_cell_length_a   5.22180394
_cell_length_b   10.74621852
_cell_length_c   7.35667288
_cell_angle_alpha   73.05348563
_cell_angle_beta   71.40148842
_cell_angle_gamma   97.85878098
_symmetry_Int_Tables_number   1
_chemical_formula_structural   Li2VCrP2(O4F)2
_chemical_formula_sum   'Li4 V2 Cr2 P4 O16 F4'
_cell_volume   362.05804899
_cell_formula_units_Z   2
loop_
 _symmetry_equiv_pos_site_id
 _symmetry_equiv_pos_as_xyz
  1  'x, y, z'
loop_
 _atom_site_type_symbol
 _atom_site_label
 _atom_site_symmetry_multiplicity
 _atom_site_fract_x
 _atom_site_fract_y
 _atom_site_fract_z
 _atom_site_occupancy
  Li  Li0  1  0.269984  0.807936  0.812221  1
  Li  Li1  1  0.270463  0.307287  0.810525  1
  Li  Li2  1  0.729537  0.692713  0.189475  1
  Li  Li3  1  0.730016  0.192064  0.187779  1
  V  V4  1  0.000000  0.500000  0.000000  1
  V  V5  1  0.000000  0.000000  0.500000  1
  Cr  Cr6  1  0.000000  0.000000  0.000000  1
  Cr  Cr7  1  0.000000  0.500000  0.500000  1
  P  P8  1  0.323342  0.820467  0.237270  1
  P  P9  1  0.321999  0.320704  0.238796  1
  P  P10  1  0.678001  0.679296  0.761204  1
  P  P11  1  0.676658  0.179533  0.762730  1
  O  O12  1  0.125979  0.833160  0.113079  1
  O  O13  1  0.129057  0.332754  0.111583  1
  O  O14  1  0.253117  0.893147  0.391371  1
  O  O15  1  0.307117  0.669971  0.342201  1
  O  O16  1  0.251714  0.393209  0.391478  1
  O  O17  1  0.308239  0.170523  0.344472  1
  O  O18  1  0.632066  0.875931  0.084119  1
  O  O19  1  0.632061  0.376171  0.085521  1
  O  O20  1  0.367939  0.623829  0.914479  1
  O  O21  1  0.367934  0.124069  0.915881  1
  O  O22  1  0.691761  0.829477  0.655528  1
  O  O23  1  0.748286  0.606791  0.608522  1
  O  O24  1  0.692883  0.330029  0.657799  1
  O  O25  1  0.746883  0.106853  0.608629  1
  O  O26  1  0.870943  0.667246  0.888417  1
  O  O27  1  0.874021  0.166840  0.886921  1
  F  F28  1  0.128798  0.964113  0.741456  1
  F  F29  1  0.128780  0.464320  0.732194  1
  F  F30  1  0.871220  0.535680  0.267806  1
  F  F31  1  0.871202  0.035887  0.258544  1
