# generated using pymatgen
data_LiCr(SiO3)2
_symmetry_space_group_name_H-M   'P 1'
_cell_length_a   18.33961305
_cell_length_b   8.79816114
_cell_length_c   5.21322714
_cell_angle_alpha   89.98471265
_cell_angle_beta   90.02742959
_cell_angle_gamma   89.91345368
_symmetry_Int_Tables_number   1
_chemical_formula_structural   LiCr(SiO3)2
_chemical_formula_sum   'Li8 Cr8 Si16 O48'
_cell_volume   841.17850544
_cell_formula_units_Z   8
loop_
 _symmetry_equiv_pos_site_id
 _symmetry_equiv_pos_as_xyz
  1  'x, y, z'
loop_
 _atom_site_type_symbol
 _atom_site_label
 _atom_site_symmetry_multiplicity
 _atom_site_fract_x
 _atom_site_fract_y
 _atom_site_fract_z
 _atom_site_occupancy
  Li  Li0  1  0.124376  0.985685  0.374073  1
  Li  Li1  1  0.123242  0.513760  0.874481  1
  Li  Li2  1  0.374489  0.660579  0.867897  1
  Li  Li3  1  0.376470  0.991553  0.874851  1
  Li  Li4  1  0.622761  0.495127  0.628828  1
  Li  Li5  1  0.622795  0.158270  0.631771  1
  Li  Li6  1  0.876948  0.657632  0.631529  1
  Li  Li7  1  0.877113  0.840872  0.129423  1
  Cr  Cr8  1  0.125331  0.346241  0.378427  1
  Cr  Cr9  1  0.125135  0.152650  0.876424  1
  Cr  Cr10  1  0.374796  0.847328  0.374641  1
  Cr  Cr11  1  0.376120  0.490796  0.356430  1
  Cr  Cr12  1  0.623191  0.986846  0.147213  1
  Cr  Cr13  1  0.622688  0.347673  0.125249  1
  Cr  Cr14  1  0.876537  0.004535  0.642850  1
  Cr  Cr15  1  0.876123  0.496261  0.143724  1
  Si  Si16  1  0.026754  0.659020  0.291636  1
  Si  Si17  1  0.026717  0.841027  0.791270  1
  Si  Si18  1  0.225876  0.657603  0.550504  1
  Si  Si19  1  0.227089  0.843323  0.057364  1
  Si  Si20  1  0.274664  0.157654  0.564736  1
  Si  Si21  1  0.272954  0.339784  0.059462  1
  Si  Si22  1  0.471853  0.161993  0.296838  1
  Si  Si23  1  0.473190  0.339801  0.797260  1
  Si  Si24  1  0.527389  0.662827  0.202108  1
  Si  Si25  1  0.526118  0.839962  0.702090  1
  Si  Si26  1  0.727718  0.653832  0.940372  1
  Si  Si27  1  0.730025  0.843574  0.445452  1
  Si  Si28  1  0.770979  0.158718  0.937358  1
  Si  Si29  1  0.770117  0.343362  0.432169  1
  Si  Si30  1  0.973000  0.164742  0.200787  1
  Si  Si31  1  0.972959  0.335787  0.700943  1
  O  O32  1  0.051707  0.705624  0.587381  1
  O  O33  1  0.051773  0.793491  0.086057  1
  O  O34  1  0.063096  0.172214  0.198632  1
  O  O35  1  0.063153  0.328470  0.699441  1
  O  O36  1  0.069112  0.505120  0.208360  1
  O  O37  1  0.068650  0.994753  0.705978  1
  O  O38  1  0.184571  0.168665  0.551196  1
  O  O39  1  0.183607  0.330653  0.053543  1
  O  O40  1  0.189520  0.009843  0.047533  1
  O  O41  1  0.190999  0.489332  0.550201  1
  O  O42  1  0.199511  0.727854  0.827785  1
  O  O43  1  0.194027  0.772472  0.329074  1
  O  O44  1  0.304677  0.226672  0.838626  1
  O  O45  1  0.306221  0.281147  0.345445  1
  O  O46  1  0.310310  0.505427  0.057515  1
  O  O47  1  0.308263  0.990796  0.546086  1
  O  O48  1  0.316938  0.656237  0.525139  1
  O  O49  1  0.315557  0.842378  0.059533  1
  O  O50  1  0.433120  0.008827  0.202604  1
  O  O51  1  0.430670  0.485541  0.683771  1
  O  O52  1  0.436598  0.662501  0.226122  1
  O  O53  1  0.438045  0.844372  0.686284  1
  O  O54  1  0.450751  0.198624  0.598497  1
  O  O55  1  0.443937  0.309172  0.107838  1
  O  O56  1  0.548969  0.698319  0.900507  1
  O  O57  1  0.555918  0.809722  0.390652  1
  O  O58  1  0.562563  0.160949  0.273189  1
  O  O59  1  0.561264  0.344533  0.812398  1
  O  O60  1  0.565808  0.509568  0.299178  1
  O  O61  1  0.568740  0.984553  0.817574  1
  O  O62  1  0.681852  0.157599  0.974593  1
  O  O63  1  0.682791  0.338996  0.441973  1
  O  O64  1  0.687030  0.005045  0.445860  1
  O  O65  1  0.688602  0.490451  0.955110  1
  O  O66  1  0.699533  0.725396  0.663965  1
  O  O67  1  0.696971  0.782452  0.157804  1
  O  O68  1  0.801374  0.219795  0.651288  1
  O  O69  1  0.805178  0.281812  0.149031  1
  O  O70  1  0.811321  0.504706  0.444969  1
  O  O71  1  0.809846  0.995053  0.941503  1
  O  O72  1  0.816111  0.646433  0.964223  1
  O  O73  1  0.817883  0.854487  0.458599  1
  O  O74  1  0.935336  0.018340  0.322314  1
  O  O75  1  0.935346  0.482146  0.823089  1
  O  O76  1  0.937660  0.649744  0.290266  1
  O  O77  1  0.937504  0.851041  0.790897  1
  O  O78  1  0.945977  0.187536  0.889604  1
  O  O79  1  0.946095  0.312324  0.390609  1
