# generated using pymatgen
data_Li4Mn3Fe(BO3)4
_symmetry_space_group_name_H-M   'P 1'
_cell_length_a   6.06409351
_cell_length_b   5.27692491
_cell_length_c   8.97783796
_cell_angle_alpha   90.79665317
_cell_angle_beta   102.55203706
_cell_angle_gamma   113.56846064
_symmetry_Int_Tables_number   1
_chemical_formula_structural   Li4Mn3Fe(BO3)4
_chemical_formula_sum   'Li4 Mn3 Fe1 B4 O12'
_cell_volume   255.39368223
_cell_formula_units_Z   1
loop_
 _symmetry_equiv_pos_site_id
 _symmetry_equiv_pos_as_xyz
  1  'x, y, z'
loop_
 _atom_site_type_symbol
 _atom_site_label
 _atom_site_symmetry_multiplicity
 _atom_site_fract_x
 _atom_site_fract_y
 _atom_site_fract_z
 _atom_site_occupancy
  Li  Li0  1  0.673826  0.403351  0.034716  1
  Li  Li1  1  0.668636  0.899562  0.532457  1
  Li  Li2  1  0.328451  0.096205  0.466108  1
  Li  Li3  1  0.327866  0.596635  0.966796  1
  Mn  Mn4  1  0.765810  0.453527  0.705880  1
  Mn  Mn5  1  0.769756  0.956835  0.208626  1
  Mn  Mn6  1  0.234076  0.045835  0.792938  1
  Fe  Fe7  1  0.234941  0.548686  0.290089  1
  B  B8  1  0.739652  0.441905  0.366933  1
  B  B9  1  0.261140  0.060879  0.135053  1
  B  B10  1  0.737245  0.940918  0.867691  1
  B  B11  1  0.261505  0.557550  0.630790  1
  O  O12  1  0.829834  0.379014  0.246446  1
  O  O13  1  0.703251  0.270224  0.482978  1
  O  O14  1  0.675483  0.168298  0.865028  1
  O  O15  1  0.676045  0.667855  0.364468  1
  O  O16  1  0.826043  0.877059  0.746730  1
  O  O17  1  0.298427  0.226435  0.016977  1
  O  O18  1  0.702087  0.771935  0.984849  1
  O  O19  1  0.177254  0.132657  0.256139  1
  O  O20  1  0.324707  0.330919  0.634745  1
  O  O21  1  0.315280  0.827107  0.138206  1
  O  O22  1  0.293456  0.723057  0.512525  1
  O  O23  1  0.175231  0.623553  0.752832  1
