# generated using pymatgen
data_SiO2
_symmetry_space_group_name_H-M   'P 1'
_cell_length_a   14.28056842
_cell_length_b   14.28056843
_cell_length_c   11.46893633
_cell_angle_alpha   90.00000000
_cell_angle_beta   90.00000000
_cell_angle_gamma   119.99999998
_symmetry_Int_Tables_number   1
_chemical_formula_structural   SiO2
_chemical_formula_sum   'Si34 O68'
_cell_volume   2025.55836871
_cell_formula_units_Z   34
loop_
 _symmetry_equiv_pos_site_id
 _symmetry_equiv_pos_as_xyz
  1  'x, y, z'
loop_
 _atom_site_type_symbol
 _atom_site_label
 _atom_site_symmetry_multiplicity
 _atom_site_fract_x
 _atom_site_fract_y
 _atom_site_fract_z
 _atom_site_occupancy
  O  O0  1  0.666667  0.333333  0.000000  1
  O  O1  1  0.333333  0.666667  0.000000  1
  O  O2  1  0.000000  0.500000  0.674867  1
  O  O3  1  0.500000  0.500000  0.674867  1
  O  O4  1  0.500000  0.000000  0.674867  1
  O  O5  1  0.000000  0.500000  0.325133  1
  O  O6  1  0.500000  0.500000  0.325133  1
  O  O7  1  0.500000  0.000000  0.325133  1
  O  O8  1  0.815167  0.000000  0.000000  1
  O  O9  1  0.815167  0.815167  0.000000  1
  O  O10  1  0.000000  0.184833  0.000000  1
  O  O11  1  0.000000  0.815167  0.000000  1
  O  O12  1  0.184833  0.184833  0.000000  1
  O  O13  1  0.184833  0.000000  0.000000  1
  O  O14  1  0.623128  0.000000  0.500000  1
  O  O15  1  0.623128  0.623128  0.500000  1
  O  O16  1  0.000000  0.376872  0.500000  1
  O  O17  1  0.000000  0.623128  0.500000  1
  O  O18  1  0.376872  0.376872  0.500000  1
  O  O19  1  0.376872  0.000000  0.500000  1
  O  O20  1  0.338184  0.169092  0.885593  1
  O  O21  1  0.830908  0.169092  0.885593  1
  O  O22  1  0.830908  0.661816  0.885593  1
  O  O23  1  0.169092  0.338184  0.885593  1
  O  O24  1  0.661816  0.830908  0.114407  1
  O  O25  1  0.661816  0.830908  0.885593  1
  O  O26  1  0.169092  0.830908  0.885593  1
  O  O27  1  0.830908  0.661816  0.114407  1
  O  O28  1  0.830908  0.169092  0.114407  1
  O  O29  1  0.169092  0.830908  0.114407  1
  O  O30  1  0.169092  0.338184  0.114407  1
  O  O31  1  0.338184  0.169092  0.114407  1
  O  O32  1  0.542989  0.271495  0.186366  1
  O  O33  1  0.728505  0.271495  0.186366  1
  O  O34  1  0.106045  0.393405  0.306419  1
  O  O35  1  0.712640  0.106045  0.306419  1
  O  O36  1  0.393405  0.287360  0.306419  1
  O  O37  1  0.606595  0.712640  0.306419  1
  O  O38  1  0.287360  0.893955  0.306419  1
  O  O39  1  0.712640  0.606595  0.693581  1
  O  O40  1  0.893955  0.287360  0.693581  1
  O  O41  1  0.893955  0.606595  0.306419  1
  O  O42  1  0.393405  0.106045  0.693581  1
  O  O43  1  0.606595  0.893955  0.693581  1
  O  O44  1  0.287360  0.393405  0.693581  1
  O  O45  1  0.106045  0.712640  0.693581  1
  O  O46  1  0.893955  0.606595  0.693581  1
  O  O47  1  0.287360  0.893955  0.693581  1
  O  O48  1  0.606595  0.712640  0.693581  1
  O  O49  1  0.393405  0.287360  0.693581  1
  O  O50  1  0.712640  0.106045  0.693581  1
  O  O51  1  0.287360  0.393405  0.306419  1
  O  O52  1  0.106045  0.712640  0.306419  1
  O  O53  1  0.106045  0.393405  0.693581  1
  O  O54  1  0.606595  0.893955  0.306419  1
  O  O55  1  0.393405  0.106045  0.306419  1
  O  O56  1  0.712640  0.606595  0.306419  1
  O  O57  1  0.893955  0.287360  0.306419  1
  O  O58  1  0.542989  0.271495  0.813634  1
  O  O59  1  0.271495  0.542989  0.813634  1
  O  O60  1  0.271495  0.728505  0.813634  1
  O  O61  1  0.728505  0.271495  0.813634  1
  O  O62  1  0.728505  0.457011  0.813634  1
  O  O63  1  0.271495  0.728505  0.186366  1
  O  O64  1  0.457011  0.728505  0.186366  1
  O  O65  1  0.457011  0.728505  0.813634  1
  O  O66  1  0.271495  0.542989  0.186366  1
  O  O67  1  0.728505  0.457011  0.186366  1
  Si  Si68  1  0.333333  0.666667  0.859536  1
  Si  Si69  1  0.666667  0.333333  0.859536  1
  Si  Si70  1  0.666667  0.333333  0.140464  1
  Si  Si71  1  0.333333  0.666667  0.140464  1
  Si  Si72  1  0.738752  0.869376  0.000000  1
  Si  Si73  1  0.869376  0.738752  0.000000  1
  Si  Si74  1  0.869376  0.130624  0.000000  1
  Si  Si75  1  0.130624  0.869376  0.000000  1
  Si  Si76  1  0.130624  0.261248  0.000000  1
  Si  Si77  1  0.261248  0.130624  0.000000  1
  Si  Si78  1  0.389830  0.389830  0.640007  1
  Si  Si79  1  0.610170  0.000000  0.640007  1
  Si  Si80  1  0.000000  0.610170  0.640007  1
  Si  Si81  1  0.000000  0.389830  0.640007  1
  Si  Si82  1  0.610170  0.000000  0.359993  1
  Si  Si83  1  0.610170  0.610170  0.640007  1
  Si  Si84  1  0.389830  0.000000  0.640007  1
  Si  Si85  1  0.610170  0.610170  0.359993  1
  Si  Si86  1  0.000000  0.389830  0.359993  1
  Si  Si87  1  0.000000  0.610170  0.359993  1
  Si  Si88  1  0.389830  0.389830  0.359993  1
  Si  Si89  1  0.389830  0.000000  0.359993  1
  Si  Si90  1  0.417503  0.208752  0.773310  1
  Si  Si91  1  0.791248  0.208752  0.773310  1
  Si  Si92  1  0.791248  0.582497  0.773310  1
  Si  Si93  1  0.208752  0.417503  0.773310  1
  Si  Si94  1  0.582497  0.791248  0.226690  1
  Si  Si95  1  0.582497  0.791248  0.773310  1
  Si  Si96  1  0.208752  0.791248  0.773310  1
  Si  Si97  1  0.791248  0.582497  0.226690  1
  Si  Si98  1  0.791248  0.208752  0.226690  1
  Si  Si99  1  0.208752  0.791248  0.226690  1
  Si  Si100  1  0.208752  0.417503  0.226690  1
  Si  Si101  1  0.417503  0.208752  0.226690  1
