# generated using pymatgen
data_ZnFe2(PO4)3
_symmetry_space_group_name_H-M   'P 1'
_cell_length_a   29.86220066
_cell_length_b   5.95641595
_cell_length_c   4.89371608
_cell_angle_alpha   90.00000000
_cell_angle_beta   90.01424294
_cell_angle_gamma   90.00000000
_symmetry_Int_Tables_number   1
_chemical_formula_structural   ZnFe2(PO4)3
_chemical_formula_sum   'Zn4 Fe8 P12 O48'
_cell_volume   870.45351513
_cell_formula_units_Z   4
loop_
 _symmetry_equiv_pos_site_id
 _symmetry_equiv_pos_as_xyz
  1  'x, y, z'
loop_
 _atom_site_type_symbol
 _atom_site_label
 _atom_site_symmetry_multiplicity
 _atom_site_fract_x
 _atom_site_fract_y
 _atom_site_fract_z
 _atom_site_occupancy
  Zn  Zn0  1  0.075090  0.750000  0.457267  1
  Zn  Zn1  1  0.091492  0.250000  0.957163  1
  Zn  Zn2  1  0.408244  0.750000  0.452319  1
  Zn  Zn3  1  0.741387  0.750000  0.452584  1
  Fe  Fe4  1  0.242124  0.750000  0.036718  1
  Fe  Fe5  1  0.258212  0.250000  0.535688  1
  Fe  Fe6  1  0.424738  0.250000  0.965875  1
  Fe  Fe7  1  0.574882  0.750000  0.032779  1
  Fe  Fe8  1  0.590919  0.250000  0.534145  1
  Fe  Fe9  1  0.757958  0.250000  0.966205  1
  Fe  Fe10  1  0.908062  0.750000  0.034642  1
  Fe  Fe11  1  0.924172  0.250000  0.536335  1
  P  P12  1  0.031148  0.250000  0.416428  1
  P  P13  1  0.135480  0.750000  0.916396  1
  P  P14  1  0.199216  0.250000  0.083190  1
  P  P15  1  0.301022  0.750000  0.582640  1
  P  P16  1  0.365878  0.250000  0.412188  1
  P  P17  1  0.467914  0.750000  0.925526  1
  P  P18  1  0.531910  0.250000  0.082330  1
  P  P19  1  0.634093  0.750000  0.582106  1
  P  P20  1  0.699075  0.250000  0.411433  1
  P  P21  1  0.801063  0.750000  0.925334  1
  P  P22  1  0.865256  0.250000  0.081875  1
  P  P23  1  0.967052  0.750000  0.582774  1
  O  O24  1  0.016799  0.750000  0.660182  1
  O  O25  1  0.036324  0.250000  0.728416  1
  O  O26  1  0.054911  0.047738  0.272486  1
  O  O27  1  0.054911  0.452262  0.272486  1
  O  O28  1  0.111795  0.547578  0.772095  1
  O  O29  1  0.111795  0.952422  0.772095  1
  O  O30  1  0.130445  0.750000  0.229285  1
  O  O31  1  0.149619  0.250000  0.162288  1
  O  O32  1  0.185770  0.750000  0.846849  1
  O  O33  1  0.206208  0.250000  0.774292  1
  O  O34  1  0.224990  0.049521  0.225986  1
  O  O35  1  0.224990  0.450479  0.225986  1
  O  O36  1  0.275599  0.548797  0.726266  1
  O  O37  1  0.275599  0.951203  0.726266  1
  O  O38  1  0.293659  0.750000  0.273498  1
  O  O39  1  0.315444  0.250000  0.352889  1
  O  O40  1  0.350713  0.750000  0.653587  1
  O  O41  1  0.373730  0.250000  0.719829  1
  O  O42  1  0.390249  0.051372  0.259802  1
  O  O43  1  0.390249  0.448628  0.259802  1
  O  O44  1  0.443724  0.954739  0.787163  1
  O  O45  1  0.443724  0.545261  0.787163  1
  O  O46  1  0.464217  0.750000  0.236903  1
  O  O47  1  0.482266  0.250000  0.156852  1
  O  O48  1  0.518011  0.750000  0.847143  1
  O  O49  1  0.538894  0.250000  0.772820  1
  O  O50  1  0.557188  0.048784  0.226372  1
  O  O51  1  0.557188  0.451216  0.226372  1
  O  O52  1  0.608576  0.548712  0.726229  1
  O  O53  1  0.608576  0.951288  0.726229  1
  O  O54  1  0.626299  0.750000  0.273140  1
  O  O55  1  0.648585  0.250000  0.352673  1
  O  O56  1  0.683746  0.750000  0.653251  1
  O  O57  1  0.706918  0.250000  0.719467  1
  O  O58  1  0.723427  0.051599  0.259828  1
  O  O59  1  0.723427  0.448401  0.259828  1
  O  O60  1  0.777040  0.954300  0.787370  1
  O  O61  1  0.777040  0.545700  0.787370  1
  O  O62  1  0.797477  0.750000  0.236715  1
  O  O63  1  0.815681  0.250000  0.155082  1
  O  O64  1  0.851237  0.750000  0.847279  1
  O  O65  1  0.872294  0.250000  0.772534  1
  O  O66  1  0.890432  0.048581  0.225709  1
  O  O67  1  0.890432  0.451419  0.225709  1
  O  O68  1  0.941434  0.549199  0.725607  1
  O  O69  1  0.941434  0.950801  0.725607  1
  O  O70  1  0.959739  0.750000  0.274095  1
  O  O71  1  0.980807  0.250000  0.347167  1
