# generated using pymatgen
data_SmY3O6
_symmetry_space_group_name_H-M   'P 1'
_cell_length_a   9.32779214
_cell_length_b   9.34030092
_cell_length_c   9.34181012
_cell_angle_alpha   109.52414182
_cell_angle_beta   109.42496561
_cell_angle_gamma   109.44321609
_symmetry_Int_Tables_number   1
_chemical_formula_structural   SmY3O6
_chemical_formula_sum   'Sm4 Y12 O24'
_cell_volume   626.70464381
_cell_formula_units_Z   4
loop_
 _symmetry_equiv_pos_site_id
 _symmetry_equiv_pos_as_xyz
  1  'x, y, z'
loop_
 _atom_site_type_symbol
 _atom_site_label
 _atom_site_symmetry_multiplicity
 _atom_site_fract_x
 _atom_site_fract_y
 _atom_site_fract_z
 _atom_site_occupancy
  Sm  Sm0  1  0.999992  0.499175  0.000534  1
  Sm  Sm1  1  0.497973  0.498243  0.498126  1
  Sm  Sm2  1  0.999898  0.001822  0.499771  1
  Sm  Sm3  1  0.032938  0.750538  0.781417  1
  Y  Y4  1  0.501429  0.000833  0.000829  1
  Y  Y5  1  0.966360  0.249484  0.217885  1
  Y  Y6  1  0.715817  0.465532  0.246904  1
  Y  Y7  1  0.780106  0.032303  0.750256  1
  Y  Y8  1  0.749194  0.783383  0.032553  1
  Y  Y9  1  0.748082  0.279381  0.529261  1
  Y  Y10  1  0.531744  0.750515  0.281256  1
  Y  Y11  1  0.468256  0.249478  0.718736  1
  Y  Y12  1  0.251233  0.718937  0.469044  1
  Y  Y13  1  0.250821  0.218383  0.968503  1
  Y  Y14  1  0.219287  0.968473  0.250877  1
  Y  Y15  1  0.284458  0.533569  0.751628  1
  O  O16  1  0.755455  0.029666  0.487336  1
  O  O17  1  0.738006  0.226176  0.269176  1
  O  O18  1  0.276472  0.015908  0.046828  1
  O  O19  1  0.969400  0.511794  0.244260  1
  O  O20  1  0.469200  0.226340  0.459301  1
  O  O21  1  0.768009  0.726214  0.256078  1
  O  O22  1  0.041782  0.267995  0.013000  1
  O  O23  1  0.456657  0.469587  0.224621  1
  O  O24  1  0.488727  0.762238  0.032017  1
  O  O25  1  0.769337  0.537230  0.524668  1
  O  O26  1  0.726684  0.257171  0.768647  1
  O  O27  1  0.011915  0.042934  0.268108  1
  O  O28  1  0.511437  0.237762  0.967973  1
  O  O29  1  0.273299  0.742931  0.231536  1
  O  O30  1  0.225409  0.457807  0.470306  1
  O  O31  1  0.988022  0.962252  0.731656  1
  O  O32  1  0.958514  0.731757  0.991643  1
  O  O33  1  0.543376  0.531428  0.774506  1
  O  O34  1  0.530550  0.772796  0.541524  1
  O  O35  1  0.233652  0.274635  0.744532  1
  O  O36  1  0.029823  0.483299  0.754490  1
  O  O37  1  0.727128  0.988756  0.957134  1
  O  O38  1  0.242506  0.969218  0.511631  1
  O  O39  1  0.267051  0.774059  0.731449  1
