# generated using pymatgen
data_Na4Ni2C4SO16
_symmetry_space_group_name_H-M   'P 1'
_cell_length_a   9.93315190
_cell_length_b   9.81714380
_cell_length_c   9.93315195
_cell_angle_alpha   60.17920034
_cell_angle_beta   90.97623605
_cell_angle_gamma   60.17920603
_symmetry_Int_Tables_number   1
_chemical_formula_structural   Na4Ni2C4SO16
_chemical_formula_sum   'Na8 Ni4 C8 S2 O32'
_cell_volume   682.65649843
_cell_formula_units_Z   2
loop_
 _symmetry_equiv_pos_site_id
 _symmetry_equiv_pos_as_xyz
  1  'x, y, z'
loop_
 _atom_site_type_symbol
 _atom_site_label
 _atom_site_symmetry_multiplicity
 _atom_site_fract_x
 _atom_site_fract_y
 _atom_site_fract_z
 _atom_site_occupancy
  Na  Na0  1  0.086154  0.827691  0.836154  1
  Na  Na1  1  0.085033  0.250000  0.835033  1
  Na  Na2  1  0.335033  0.750000  0.585033  1
  Na  Na3  1  0.336154  0.327691  0.586154  1
  Na  Na4  1  0.663846  0.672309  0.413846  1
  Na  Na5  1  0.664967  0.250000  0.414967  1
  Na  Na6  1  0.914967  0.750000  0.164967  1
  Na  Na7  1  0.913846  0.172309  0.163846  1
  Ni  Ni8  1  0.000000  0.500000  0.000000  1
  Ni  Ni9  1  0.500000  0.000000  0.500000  1
  Ni  Ni10  1  0.500000  0.500000  0.000000  1
  Ni  Ni11  1  0.500000  0.000000  0.000000  1
  C  C12  1  0.357037  0.930334  0.779369  1
  C  C13  1  0.279369  0.430334  0.857037  1
  C  C14  1  0.712628  0.930334  0.790296  1
  C  C15  1  0.709704  0.569666  0.787372  1
  C  C16  1  0.290296  0.430334  0.212628  1
  C  C17  1  0.287372  0.069666  0.209704  1
  C  C18  1  0.720631  0.569666  0.142963  1
  C  C19  1  0.642963  0.069666  0.220631  1
  S  S20  1  0.125000  0.750000  0.375000  1
  S  S21  1  0.875000  0.250000  0.625000  1
  O  O22  1  0.349933  0.794003  0.894019  1
  O  O23  1  0.064031  0.875993  0.434077  1
  O  O24  1  0.364994  0.945066  0.644453  1
  O  O25  1  0.144453  0.445066  0.864994  1
  O  O26  1  0.689939  0.945066  0.910480  1
  O  O27  1  0.299555  0.554163  0.849803  1
  O  O28  1  0.059976  0.875993  0.189930  1
  O  O29  1  0.065923  0.624007  0.435969  1
  O  O30  1  0.403967  0.945837  0.353719  1
  O  O31  1  0.589520  0.554934  0.810061  1
  O  O32  1  0.394019  0.294003  0.849933  1
  O  O33  1  0.310070  0.624007  0.440024  1
  O  O34  1  0.856065  0.794003  0.811979  1
  O  O35  1  0.688021  0.705997  0.643935  1
  O  O36  1  0.349803  0.054163  0.799555  1
  O  O37  1  0.146281  0.554163  0.096033  1
  O  O38  1  0.853719  0.445837  0.903967  1
  O  O39  1  0.650197  0.945837  0.200445  1
  O  O40  1  0.311979  0.294003  0.356065  1
  O  O41  1  0.143935  0.205997  0.188021  1
  O  O42  1  0.689930  0.375993  0.559976  1
  O  O43  1  0.605981  0.705997  0.150067  1
  O  O44  1  0.410479  0.445066  0.189939  1
  O  O45  1  0.596033  0.054163  0.646281  1
  O  O46  1  0.934077  0.375993  0.564031  1
  O  O47  1  0.940024  0.124007  0.810070  1
  O  O48  1  0.700445  0.445837  0.150197  1
  O  O49  1  0.310061  0.054934  0.089521  1
  O  O50  1  0.855547  0.554934  0.135006  1
  O  O51  1  0.635006  0.054934  0.355547  1
  O  O52  1  0.935969  0.124007  0.565923  1
  O  O53  1  0.650067  0.205997  0.105981  1
