# generated using pymatgen
data_Na6V2B4AsO16
_symmetry_space_group_name_H-M   'P 1'
_cell_length_a   9.97668816
_cell_length_b   9.97668772
_cell_length_c   9.97668816
_cell_angle_alpha   60.00000041
_cell_angle_beta   119.99999972
_cell_angle_gamma   89.99999814
_symmetry_Int_Tables_number   1
_chemical_formula_structural   Na6V2B4AsO16
_chemical_formula_sum   'Na12 V4 B8 As2 O32'
_cell_volume   702.17307687
_cell_formula_units_Z   2
loop_
 _symmetry_equiv_pos_site_id
 _symmetry_equiv_pos_as_xyz
  1  'x, y, z'
loop_
 _atom_site_type_symbol
 _atom_site_label
 _atom_site_symmetry_multiplicity
 _atom_site_fract_x
 _atom_site_fract_y
 _atom_site_fract_z
 _atom_site_occupancy
  Na  Na0  1  0.087517  0.662483  0.175033  1
  Na  Na1  1  0.087517  0.087517  0.750000  1
  Na  Na2  1  0.337517  0.337517  0.250000  1
  Na  Na3  1  0.662483  0.087517  0.324967  1
  Na  Na4  1  0.912483  0.337517  0.250000  1
  Na  Na5  1  0.337517  0.912483  0.250000  1
  Na  Na6  1  0.087517  0.662483  0.750000  1
  Na  Na7  1  0.662483  0.087517  0.750000  1
  Na  Na8  1  0.337517  0.912483  0.675033  1
  Na  Na9  1  0.662483  0.662483  0.750000  1
  Na  Na10  1  0.912483  0.912483  0.250000  1
  Na  Na11  1  0.912483  0.337517  0.824967  1
  V  V12  1  0.500000  0.000000  0.000000  1
  V  V13  1  0.500000  0.500000  0.000000  1
  V  V14  1  0.000000  0.500000  0.500000  1
  V  V15  1  0.500000  0.500000  0.500000  1
  B  B16  1  0.368795  0.710402  0.079197  1
  B  B17  1  0.289598  0.289598  0.579197  1
  B  B18  1  0.710402  0.368795  0.420803  1
  B  B19  1  0.289598  0.289598  0.920803  1
  B  B20  1  0.289598  0.631205  0.579197  1
  B  B21  1  0.710402  0.710402  0.079197  1
  B  B22  1  0.631205  0.289598  0.920803  1
  B  B23  1  0.710402  0.710402  0.420803  1
  As  As24  1  0.125000  0.125000  0.250000  1
  As  As25  1  0.875000  0.875000  0.750000  1
  O  O26  1  0.054579  0.054579  0.109158  1
  O  O27  1  0.054579  0.054579  0.390842  1
  O  O28  1  0.054579  0.336264  0.109158  1
  O  O29  1  0.403424  0.134497  0.038463  1
  O  O30  1  0.336264  0.054579  0.390842  1
  O  O31  1  0.134497  0.403424  0.461537  1
  O  O32  1  0.635040  0.327039  0.038463  1
  O  O33  1  0.327039  0.134497  0.730463  1
  O  O34  1  0.364960  0.596576  0.230463  1
  O  O35  1  0.596576  0.364960  0.269537  1
  O  O36  1  0.134497  0.327039  0.769537  1
  O  O37  1  0.403424  0.327039  0.537921  1
  O  O38  1  0.364960  0.865503  0.037921  1
  O  O39  1  0.672961  0.596576  0.037921  1
  O  O40  1  0.134497  0.635040  0.537921  1
  O  O41  1  0.327039  0.635040  0.461537  1
  O  O42  1  0.672961  0.364960  0.538463  1
  O  O43  1  0.327039  0.403424  0.962079  1
  O  O44  1  0.865503  0.364960  0.462079  1
  O  O45  1  0.635040  0.134497  0.962079  1
  O  O46  1  0.596576  0.672961  0.462079  1
  O  O47  1  0.403424  0.635040  0.730463  1
  O  O48  1  0.865503  0.672961  0.230463  1
  O  O49  1  0.635040  0.403424  0.769537  1
  O  O50  1  0.672961  0.865503  0.269537  1
  O  O51  1  0.364960  0.672961  0.961537  1
  O  O52  1  0.865503  0.596576  0.538463  1
  O  O53  1  0.663736  0.945422  0.609158  1
  O  O54  1  0.596576  0.865503  0.961537  1
  O  O55  1  0.945422  0.663736  0.890842  1
  O  O56  1  0.945422  0.945422  0.609158  1
  O  O57  1  0.945422  0.945422  0.890842  1
