# generated using pymatgen
data_CaSnS3
_symmetry_space_group_name_H-M   'P 1'
_cell_length_a   13.17206245
_cell_length_b   14.57263532
_cell_length_c   14.57263532
_cell_angle_alpha   90.00000000
_cell_angle_beta   90.00000000
_cell_angle_gamma   90.00000000
_symmetry_Int_Tables_number   1
_chemical_formula_structural   CaSnS3
_chemical_formula_sum   'Ca20 Sn20 S60'
_cell_volume   2797.24157662
_cell_formula_units_Z   20
loop_
 _symmetry_equiv_pos_site_id
 _symmetry_equiv_pos_as_xyz
  1  'x, y, z'
loop_
 _atom_site_type_symbol
 _atom_site_label
 _atom_site_symmetry_multiplicity
 _atom_site_fract_x
 _atom_site_fract_y
 _atom_site_fract_z
 _atom_site_occupancy
  Ca  Ca0  1  0.446046  0.753787  0.267199  1
  Ca  Ca1  1  0.946046  0.246213  0.732801  1
  Ca  Ca2  1  0.196046  0.267199  0.246213  1
  Ca  Ca3  1  0.696046  0.732801  0.753787  1
  Ca  Ca4  1  0.708540  0.269748  0.287193  1
  Ca  Ca5  1  0.208540  0.730252  0.712808  1
  Ca  Ca6  1  0.458540  0.287193  0.730252  1
  Ca  Ca7  1  0.958540  0.712808  0.269748  1
  Ca  Ca8  1  0.488599  0.836891  0.556403  1
  Ca  Ca9  1  0.988599  0.163109  0.443597  1
  Ca  Ca10  1  0.238599  0.556403  0.163109  1
  Ca  Ca11  1  0.738599  0.443597  0.836891  1
  Ca  Ca12  1  0.694799  0.966164  0.340688  1
  Ca  Ca13  1  0.194799  0.033836  0.659312  1
  Ca  Ca14  1  0.444799  0.340688  0.033836  1
  Ca  Ca15  1  0.944799  0.659312  0.966164  1
  Ca  Ca16  1  0.702971  0.537942  0.122851  1
  Ca  Ca17  1  0.202971  0.462058  0.877149  1
  Ca  Ca18  1  0.452971  0.122851  0.462058  1
  Ca  Ca19  1  0.952971  0.877149  0.537942  1
  Sn  Sn20  1  0.755757  0.730018  0.436213  1
  Sn  Sn21  1  0.255757  0.269982  0.563787  1
  Sn  Sn22  1  0.505757  0.436213  0.269982  1
  Sn  Sn23  1  0.005757  0.563787  0.730018  1
  Sn  Sn24  1  0.226302  0.804574  0.092869  1
  Sn  Sn25  1  0.726302  0.195426  0.907131  1
  Sn  Sn26  1  0.976302  0.092869  0.195426  1
  Sn  Sn27  1  0.476302  0.907131  0.804574  1
  Sn  Sn28  1  0.451576  0.629312  0.936874  1
  Sn  Sn29  1  0.951576  0.370688  0.063126  1
  Sn  Sn30  1  0.201576  0.936874  0.370688  1
  Sn  Sn31  1  0.701576  0.063126  0.629312  1
  Sn  Sn32  1  0.812088  0.875346  0.073066  1
  Sn  Sn33  1  0.312088  0.124654  0.926934  1
  Sn  Sn34  1  0.562088  0.073066  0.124654  1
  Sn  Sn35  1  0.062088  0.926934  0.875346  1
  Sn  Sn36  1  0.193863  0.642640  0.438639  1
  Sn  Sn37  1  0.693863  0.357360  0.561361  1
  Sn  Sn38  1  0.943863  0.438639  0.357360  1
  Sn  Sn39  1  0.443863  0.561361  0.642640  1
  S  S40  1  0.348862  0.506799  0.004329  1
  S  S41  1  0.848862  0.493201  0.995671  1
  S  S42  1  0.098862  0.004329  0.493201  1
  S  S43  1  0.598862  0.995671  0.506799  1
  S  S44  1  0.620960  0.569281  0.943356  1
  S  S45  1  0.120960  0.430719  0.056644  1
  S  S46  1  0.370960  0.943356  0.430719  1
  S  S47  1  0.870960  0.056644  0.569281  1
  S  S48  1  0.091421  0.698320  0.114588  1
  S  S49  1  0.591421  0.301680  0.885412  1
  S  S50  1  0.841421  0.114588  0.301680  1
  S  S51  1  0.341421  0.885412  0.698320  1
  S  S52  1  0.385536  0.719717  0.083738  1
  S  S53  1  0.885536  0.280283  0.916262  1
  S  S54  1  0.135536  0.083738  0.280283  1
  S  S55  1  0.635536  0.916262  0.719717  1
  S  S56  1  0.224240  0.875611  0.941406  1
  S  S57  1  0.724240  0.124389  0.058594  1
  S  S58  1  0.974240  0.941406  0.124389  1
  S  S59  1  0.474240  0.058594  0.875611  1
  S  S60  1  0.555914  0.591112  0.243691  1
  S  S61  1  0.055914  0.408888  0.756309  1
  S  S62  1  0.305914  0.243691  0.408888  1
  S  S63  1  0.805914  0.756309  0.591112  1
  S  S64  1  0.859752  0.851290  0.362074  1
  S  S65  1  0.359752  0.148710  0.637926  1
  S  S66  1  0.609752  0.362074  0.148710  1
  S  S67  1  0.109752  0.637926  0.851290  1
  S  S68  1  0.595057  0.797362  0.388972  1
  S  S69  1  0.095057  0.202638  0.611028  1
  S  S70  1  0.345057  0.388972  0.202638  1
  S  S71  1  0.845057  0.611028  0.797362  1
  S  S72  1  0.809612  0.590187  0.354462  1
  S  S73  1  0.309612  0.409813  0.645538  1
  S  S74  1  0.559612  0.354462  0.409813  1
  S  S75  1  0.059612  0.645538  0.590187  1
  S  S76  1  0.815614  0.716825  0.116796  1
  S  S77  1  0.315614  0.283175  0.883204  1
  S  S78  1  0.565614  0.116796  0.283175  1
  S  S79  1  0.065614  0.883204  0.716825  1
  S  S80  1  0.544568  0.780918  0.893171  1
  S  S81  1  0.044568  0.219082  0.106829  1
  S  S82  1  0.294568  0.893171  0.219082  1
  S  S83  1  0.794568  0.106829  0.780918  1
  S  S84  1  0.636384  0.911615  0.140912  1
  S  S85  1  0.136384  0.088385  0.859088  1
  S  S86  1  0.386384  0.140912  0.088385  1
  S  S87  1  0.886384  0.859088  0.911615  1
  S  S88  1  0.104634  0.788947  0.403914  1
  S  S89  1  0.604634  0.211053  0.596086  1
  S  S90  1  0.854634  0.403914  0.211053  1
  S  S91  1  0.354634  0.596086  0.788947  1
  S  S92  1  0.327767  0.675964  0.557767  1
  S  S93  1  0.827767  0.324036  0.442233  1
  S  S94  1  0.077767  0.557767  0.324036  1
  S  S95  1  0.577767  0.442233  0.675964  1
  S  S96  1  0.324718  0.615963  0.326040  1
  S  S97  1  0.824718  0.384037  0.673960  1
  S  S98  1  0.074718  0.326040  0.384037  1
  S  S99  1  0.574718  0.673960  0.615963  1
