# generated using pymatgen
data_Sr(Mo3S4)2
_symmetry_space_group_name_H-M   'P 1'
_cell_length_a   6.70561292
_cell_length_b   6.57126461
_cell_length_c   6.64736197
_cell_angle_alpha   88.37451958
_cell_angle_beta   89.52632143
_cell_angle_gamma   89.66943844
_symmetry_Int_Tables_number   1
_chemical_formula_structural   Sr(Mo3S4)2
_chemical_formula_sum   'Sr1 Mo6 S8'
_cell_volume   292.77936738
_cell_formula_units_Z   1
loop_
 _symmetry_equiv_pos_site_id
 _symmetry_equiv_pos_as_xyz
  1  'x, y, z'
loop_
 _atom_site_type_symbol
 _atom_site_label
 _atom_site_symmetry_multiplicity
 _atom_site_fract_x
 _atom_site_fract_y
 _atom_site_fract_z
 _atom_site_occupancy
  S  S0  1  0.259575  0.872141  0.615962  1
  S  S1  1  0.740425  0.127859  0.384038  1
  S  S2  1  0.620158  0.260232  0.875465  1
  S  S3  1  0.379842  0.739768  0.124535  1
  S  S4  1  0.753578  0.746726  0.760208  1
  S  S5  1  0.246422  0.253274  0.239792  1
  S  S6  1  0.872434  0.617543  0.264693  1
  S  S7  1  0.127566  0.382457  0.735307  1
  Sr  Sr8  1  0.000000  0.000000  0.000000  1
  Mo  Mo9  1  0.561736  0.419220  0.228708  1
  Mo  Mo10  1  0.579135  0.764227  0.439320  1
  Mo  Mo11  1  0.420865  0.235773  0.560680  1
  Mo  Mo12  1  0.771594  0.435858  0.583140  1
  Mo  Mo13  1  0.228406  0.564142  0.416860  1
  Mo  Mo14  1  0.438264  0.580780  0.771292  1
