# generated using pymatgen
data_Co6O7F5
_symmetry_space_group_name_H-M   'P 1'
_cell_length_a   4.63506482
_cell_length_b   7.46039173
_cell_length_c   5.48031420
_cell_angle_alpha   96.22942892
_cell_angle_beta   96.47259402
_cell_angle_gamma   85.36716131
_symmetry_Int_Tables_number   1
_chemical_formula_structural   Co6O7F5
_chemical_formula_sum   'Co6 O7 F5'
_cell_volume   186.73504968
_cell_formula_units_Z   1
loop_
 _symmetry_equiv_pos_site_id
 _symmetry_equiv_pos_as_xyz
  1  'x, y, z'
loop_
 _atom_site_type_symbol
 _atom_site_label
 _atom_site_symmetry_multiplicity
 _atom_site_fract_x
 _atom_site_fract_y
 _atom_site_fract_z
 _atom_site_occupancy
  Co  Co0  1  0.543154  0.016322  0.467717  1
  Co  Co1  1  0.499292  0.330615  0.833845  1
  Co  Co2  1  0.494449  0.664063  0.171557  1
  Co  Co3  1  0.001274  0.669253  0.666451  1
  Co  Co4  1  0.991164  0.323730  0.332977  1
  Co  Co5  1  0.992641  0.001934  0.011538  1
  O  O6  1  0.815075  0.106761  0.286662  1
  O  O7  1  0.691104  0.773180  0.461992  1
  O  O8  1  0.694341  0.104447  0.795182  1
  O  O9  1  0.690965  0.430303  0.126988  1
  O  O10  1  0.312133  0.560572  0.871314  1
  O  O11  1  0.305193  0.229591  0.534506  1
  O  O12  1  0.304872  0.900245  0.212127  1
  F  F13  1  0.810381  0.427304  0.615282  1
  F  F14  1  0.810324  0.778411  0.973295  1
  F  F15  1  0.180307  0.228181  0.046582  1
  F  F16  1  0.180682  0.905828  0.728360  1
  F  F17  1  0.182646  0.549261  0.363623  1
