# generated using pymatgen
data_Mn6O5F7
_symmetry_space_group_name_H-M   'P 1'
_cell_length_a   4.71037530
_cell_length_b   5.72791138
_cell_length_c   15.65240590
_cell_angle_alpha   89.94989183
_cell_angle_beta   89.48910003
_cell_angle_gamma   88.77880043
_symmetry_Int_Tables_number   1
_chemical_formula_structural   Mn6O5F7
_chemical_formula_sum   'Mn12 O10 F14'
_cell_volume   422.19868989
_cell_formula_units_Z   2
loop_
 _symmetry_equiv_pos_site_id
 _symmetry_equiv_pos_as_xyz
  1  'x, y, z'
loop_
 _atom_site_type_symbol
 _atom_site_label
 _atom_site_symmetry_multiplicity
 _atom_site_fract_x
 _atom_site_fract_y
 _atom_site_fract_z
 _atom_site_occupancy
  Mn  Mn0  1  0.002455  0.156318  0.408818  1
  Mn  Mn1  1  0.983361  0.843251  0.244920  1
  Mn  Mn2  1  0.012209  0.167896  0.073016  1
  Mn  Mn3  1  0.023053  0.145215  0.749594  1
  Mn  Mn4  1  0.048173  0.847707  0.580076  1
  Mn  Mn5  1  0.048442  0.841816  0.916713  1
  Mn  Mn6  1  0.480744  0.341986  0.590128  1
  Mn  Mn7  1  0.495655  0.352272  0.927047  1
  Mn  Mn8  1  0.500936  0.341850  0.258164  1
  Mn  Mn9  1  0.523964  0.635499  0.085804  1
  Mn  Mn10  1  0.490885  0.655607  0.418777  1
  Mn  Mn11  1  0.485981  0.668634  0.748393  1
  O  O12  1  0.204328  0.110568  0.300294  1
  O  O13  1  0.230199  0.113182  0.640881  1
  O  O14  1  0.229729  0.118538  0.968800  1
  O  O15  1  0.227285  0.892602  0.468356  1
  O  O16  1  0.222326  0.886638  0.804180  1
  O  O17  1  0.281819  0.608434  0.643599  1
  O  O18  1  0.297720  0.605596  0.980155  1
  O  O19  1  0.727025  0.377432  0.026618  1
  O  O20  1  0.713510  0.610104  0.196187  1
  O  O21  1  0.705123  0.387549  0.364224  1
  F  F22  1  0.241539  0.884575  0.130548  1
  F  F23  1  0.267441  0.373702  0.149855  1
  F  F24  1  0.229416  0.617082  0.309452  1
  F  F25  1  0.252564  0.404175  0.475154  1
  F  F26  1  0.273843  0.388575  0.817623  1
  F  F27  1  0.738275  0.607050  0.532993  1
  F  F28  1  0.733333  0.630204  0.858381  1
  F  F29  1  0.744047  0.386036  0.704090  1
  F  F30  1  0.767297  0.104864  0.180981  1
  F  F31  1  0.765016  0.122399  0.524623  1
  F  F32  1  0.732866  0.885547  0.357819  1
  F  F33  1  0.787279  0.873810  0.020504  1
  F  F34  1  0.758436  0.131439  0.859019  1
  F  F35  1  0.773725  0.881847  0.684214  1
