# generated using pymatgen
data_LiMn2(BO3)2
_symmetry_space_group_name_H-M   'P 1'
_cell_length_a   7.77803321
_cell_length_b   5.31843245
_cell_length_c   6.08080338
_cell_angle_alpha   87.08141970
_cell_angle_beta   81.47422520
_cell_angle_gamma   87.79993516
_symmetry_Int_Tables_number   1
_chemical_formula_structural   LiMn2(BO3)2
_chemical_formula_sum   'Li2 Mn4 B4 O12'
_cell_volume   248.32068589
_cell_formula_units_Z   2
loop_
 _symmetry_equiv_pos_site_id
 _symmetry_equiv_pos_as_xyz
  1  'x, y, z'
loop_
 _atom_site_type_symbol
 _atom_site_label
 _atom_site_symmetry_multiplicity
 _atom_site_fract_x
 _atom_site_fract_y
 _atom_site_fract_z
 _atom_site_occupancy
  Li  Li0  1  0.700296  0.905195  0.634212  1
  Li  Li1  1  0.299704  0.094805  0.365788  1
  Mn  Mn2  1  0.821871  0.411562  0.429892  1
  Mn  Mn3  1  0.681992  0.090934  0.065836  1
  Mn  Mn4  1  0.318008  0.909066  0.934164  1
  Mn  Mn5  1  0.178129  0.588438  0.570108  1
  B  B6  1  0.496127  0.420977  0.746400  1
  B  B7  1  0.995019  0.927300  0.272807  1
  B  B8  1  0.004981  0.072700  0.727193  1
  B  B9  1  0.503873  0.579023  0.253600  1
  O  O10  1  0.985816  0.323060  0.650094  1
  O  O11  1  0.871886  0.941022  0.835585  1
  O  O12  1  0.828415  0.041867  0.335353  1
  O  O13  1  0.522508  0.165208  0.805285  1
  O  O14  1  0.629115  0.564722  0.643687  1
  O  O15  1  0.331292  0.537455  0.805177  1
  O  O16  1  0.668708  0.462545  0.194823  1
  O  O17  1  0.370885  0.435278  0.356313  1
  O  O18  1  0.477492  0.834792  0.194715  1
  O  O19  1  0.171585  0.958133  0.664647  1
  O  O20  1  0.128114  0.058978  0.164415  1
  O  O21  1  0.014184  0.676940  0.349906  1
