# generated using pymatgen
data_LiFe(Si3O7)2
_symmetry_space_group_name_H-M   'P 1'
_cell_length_a   12.78056103
_cell_length_b   12.78056103
_cell_length_c   7.40563851
_cell_angle_alpha   73.15863960
_cell_angle_beta   106.84136040
_cell_angle_gamma   82.51199662
_symmetry_Int_Tables_number   1
_chemical_formula_structural   LiFe(Si3O7)2
_chemical_formula_sum   'Li4 Fe4 Si24 O56'
_cell_volume   1077.38353953
_cell_formula_units_Z   4
loop_
 _symmetry_equiv_pos_site_id
 _symmetry_equiv_pos_as_xyz
  1  'x, y, z'
loop_
 _atom_site_type_symbol
 _atom_site_label
 _atom_site_symmetry_multiplicity
 _atom_site_fract_x
 _atom_site_fract_y
 _atom_site_fract_z
 _atom_site_occupancy
  Li  Li0  1  0.750000  0.750000  0.000000  1
  Li  Li1  1  0.250000  0.250000  0.000000  1
  Li  Li2  1  0.000000  0.000000  0.500000  1
  Li  Li3  1  0.500000  0.500000  0.500000  1
  Fe  Fe4  1  0.956221  0.543779  0.206221  1
  Fe  Fe5  1  0.456221  0.043779  0.206221  1
  Fe  Fe6  1  0.543779  0.956221  0.793779  1
  Fe  Fe7  1  0.043779  0.456221  0.793779  1
  Si  Si8  1  0.871498  0.128502  0.056077  1
  Si  Si9  1  0.628502  0.371498  0.313080  1
  Si  Si10  1  0.335149  0.664851  0.072632  1
  Si  Si11  1  0.729505  0.574864  0.337746  1
  Si  Si12  1  0.770495  0.925136  0.183104  1
  Si  Si13  1  0.074864  0.229505  0.183104  1
  Si  Si14  1  0.425136  0.270495  0.337746  1
  Si  Si15  1  0.835149  0.164851  0.597667  1
  Si  Si16  1  0.221217  0.470031  0.218975  1
  Si  Si17  1  0.529969  0.778783  0.218975  1
  Si  Si18  1  0.970031  0.721217  0.467789  1
  Si  Si19  1  0.278783  0.029969  0.467789  1
  Si  Si20  1  0.470031  0.221217  0.781025  1
  Si  Si21  1  0.029969  0.278783  0.532211  1
  Si  Si22  1  0.721217  0.970031  0.532211  1
  Si  Si23  1  0.778783  0.529969  0.781025  1
  Si  Si24  1  0.164851  0.835149  0.402333  1
  Si  Si25  1  0.270495  0.425136  0.662254  1
  Si  Si26  1  0.574864  0.729505  0.662254  1
  Si  Si27  1  0.229505  0.074864  0.816896  1
  Si  Si28  1  0.925136  0.770495  0.816896  1
  Si  Si29  1  0.664851  0.335149  0.927368  1
  Si  Si30  1  0.371498  0.628502  0.686920  1
  Si  Si31  1  0.128502  0.871498  0.943923  1
  O  O32  1  0.993467  0.138553  0.189497  1
  O  O33  1  0.861447  0.006533  0.189497  1
  O  O34  1  0.772002  0.227998  0.038281  1
  O  O35  1  0.301364  0.067580  0.038894  1
  O  O36  1  0.932420  0.698636  0.038894  1
  O  O37  1  0.628217  0.371783  0.095515  1
  O  O38  1  0.432420  0.198636  0.194888  1
  O  O39  1  0.801364  0.567580  0.194888  1
  O  O40  1  0.942375  0.192929  0.532330  1
  O  O41  1  0.807071  0.057625  0.532330  1
  O  O42  1  0.989198  0.398091  0.551635  1
  O  O43  1  0.601909  0.010802  0.551635  1
  O  O44  1  0.506533  0.361447  0.334583  1
  O  O45  1  0.638553  0.493467  0.334583  1
  O  O46  1  0.727998  0.272002  0.494276  1
  O  O47  1  0.101909  0.510802  0.039474  1
  O  O48  1  0.489199  0.898091  0.039474  1
  O  O49  1  0.296524  0.348268  0.248414  1
  O  O50  1  0.203476  0.151732  0.300158  1
  O  O51  1  0.651732  0.703476  0.248414  1
  O  O52  1  0.848268  0.796524  0.300158  1
  O  O53  1  0.307071  0.557625  0.217115  1
  O  O54  1  0.442375  0.692929  0.217115  1
  O  O55  1  0.692790  0.957724  0.308549  1
  O  O56  1  0.042276  0.307210  0.308549  1
  O  O57  1  0.807210  0.542276  0.573483  1
  O  O58  1  0.457724  0.192790  0.573483  1
  O  O59  1  0.871783  0.128217  0.839081  1
  O  O60  1  0.128217  0.871783  0.160919  1
  O  O61  1  0.542276  0.807210  0.426517  1
  O  O62  1  0.957724  0.692790  0.691451  1
  O  O63  1  0.192790  0.457724  0.426517  1
  O  O64  1  0.307210  0.042276  0.691451  1
  O  O65  1  0.557625  0.307071  0.782885  1
  O  O66  1  0.692929  0.442375  0.782885  1
  O  O67  1  0.348268  0.296524  0.751586  1
  O  O68  1  0.151732  0.203476  0.699842  1
  O  O69  1  0.796524  0.848268  0.699842  1
  O  O70  1  0.703476  0.651732  0.751586  1
  O  O71  1  0.510802  0.101909  0.960526  1
  O  O72  1  0.898091  0.489199  0.960526  1
  O  O73  1  0.272002  0.727998  0.505724  1
  O  O74  1  0.361447  0.506533  0.665417  1
  O  O75  1  0.493467  0.638553  0.665417  1
  O  O76  1  0.010802  0.601909  0.448365  1
  O  O77  1  0.398091  0.989198  0.448365  1
  O  O78  1  0.192929  0.942375  0.467670  1
  O  O79  1  0.057625  0.807071  0.467670  1
  O  O80  1  0.198636  0.432420  0.805111  1
  O  O81  1  0.567580  0.801364  0.805111  1
  O  O82  1  0.371783  0.628217  0.904485  1
  O  O83  1  0.067580  0.301364  0.961106  1
  O  O84  1  0.698636  0.932420  0.961106  1
  O  O85  1  0.227998  0.772002  0.961719  1
  O  O86  1  0.006533  0.861447  0.810503  1
  O  O87  1  0.138553  0.993467  0.810503  1
