# generated using pymatgen
data_VO2
_symmetry_space_group_name_H-M   'P 1'
_cell_length_a   5.63288869
_cell_length_b   7.23922790
_cell_length_c   5.36548761
_cell_angle_alpha   70.13712851
_cell_angle_beta   58.95238149
_cell_angle_gamma   78.47307749
_symmetry_Int_Tables_number   1
_chemical_formula_structural   VO2
_chemical_formula_sum   'V5 O10'
_cell_volume   176.21444223
_cell_formula_units_Z   5
loop_
 _symmetry_equiv_pos_site_id
 _symmetry_equiv_pos_as_xyz
  1  'x, y, z'
loop_
 _atom_site_type_symbol
 _atom_site_label
 _atom_site_symmetry_multiplicity
 _atom_site_fract_x
 _atom_site_fract_y
 _atom_site_fract_z
 _atom_site_occupancy
  V  V0  1  0.002496  0.006529  0.010036  1
  V  V1  1  0.493113  0.616251  0.716533  1
  V  V2  1  0.504835  0.178473  0.884943  1
  V  V3  1  0.503143  0.395966  0.298220  1
  V  V4  1  0.999361  0.785218  0.587824  1
  O  O5  1  0.689834  0.610488  0.918430  1
  O  O6  1  0.789925  0.804230  0.392322  1
  O  O7  1  0.794119  0.000570  0.785727  1
  O  O8  1  0.683274  0.409388  0.527150  1
  O  O9  1  0.741021  0.203080  0.116868  1
  O  O10  1  0.203944  0.797079  0.812728  1
  O  O11  1  0.307691  0.186243  0.683002  1
  O  O12  1  0.258983  0.591153  0.487693  1
  O  O13  1  0.208829  0.989345  0.206670  1
  O  O14  1  0.315467  0.386373  0.075415  1
