# generated using pymatgen
data_Na4Bi2O5
_symmetry_space_group_name_H-M   'P 1'
_cell_length_a   5.14678475
_cell_length_b   8.91046717
_cell_length_c   9.06662985
_cell_angle_alpha   103.67211921
_cell_angle_beta   105.79034526
_cell_angle_gamma   106.90207863
_symmetry_Int_Tables_number   1
_chemical_formula_structural   Na4Bi2O5
_chemical_formula_sum   'Na8 Bi4 O10'
_cell_volume   359.64847555
_cell_formula_units_Z   2
loop_
 _symmetry_equiv_pos_site_id
 _symmetry_equiv_pos_as_xyz
  1  'x, y, z'
loop_
 _atom_site_type_symbol
 _atom_site_label
 _atom_site_symmetry_multiplicity
 _atom_site_fract_x
 _atom_site_fract_y
 _atom_site_fract_z
 _atom_site_occupancy
  Na  Na0  1  0.119315  0.203801  0.549627  1
  Na  Na1  1  0.408861  0.994775  0.325732  1
  Na  Na2  1  0.374560  0.620442  0.627920  1
  Na  Na3  1  0.389880  0.299402  0.960930  1
  Na  Na4  1  0.610120  0.700598  0.039070  1
  Na  Na5  1  0.625440  0.379558  0.372080  1
  Na  Na6  1  0.591139  0.005225  0.674268  1
  Na  Na7  1  0.880685  0.796199  0.450373  1
  Bi  Bi8  1  0.111824  0.878398  0.867901  1
  Bi  Bi9  1  0.142927  0.559587  0.234537  1
  Bi  Bi10  1  0.857073  0.440413  0.765463  1
  Bi  Bi11  1  0.888176  0.121602  0.132099  1
  O  O12  1  0.285365  0.455169  0.796172  1
  O  O13  1  0.131477  0.378416  0.355562  1
  O  O14  1  0.147631  0.027541  0.724508  1
  O  O15  1  0.360828  0.775035  0.439632  1
  O  O16  1  0.699619  0.877817  0.880243  1
  O  O17  1  0.300381  0.122183  0.119757  1
  O  O18  1  0.639172  0.224965  0.560368  1
  O  O19  1  0.852369  0.972459  0.275492  1
  O  O20  1  0.868523  0.621584  0.644438  1
  O  O21  1  0.714635  0.544831  0.203828  1
