# generated using pymatgen
data_Li2Mn3(BO3)3
_symmetry_space_group_name_H-M   'P 1'
_cell_length_a   6.34776911
_cell_length_b   14.31392754
_cell_length_c   8.89120439
_cell_angle_alpha   90.60872335
_cell_angle_beta   110.91416971
_cell_angle_gamma   90.00000000
_symmetry_Int_Tables_number   1
_chemical_formula_structural   Li2Mn3(BO3)3
_chemical_formula_sum   'Li8 Mn12 B12 O36'
_cell_volume   754.59401028
_cell_formula_units_Z   4
loop_
 _symmetry_equiv_pos_site_id
 _symmetry_equiv_pos_as_xyz
  1  'x, y, z'
loop_
 _atom_site_type_symbol
 _atom_site_label
 _atom_site_symmetry_multiplicity
 _atom_site_fract_x
 _atom_site_fract_y
 _atom_site_fract_z
 _atom_site_occupancy
  Li  Li0  1  0.169473  0.859005  0.838947  1
  Li  Li1  1  0.185597  0.149257  0.871195  1
  Li  Li2  1  0.645871  0.487330  0.791741  1
  Li  Li3  1  0.669523  0.859924  0.839047  1
  Li  Li4  1  0.420000  0.360057  0.340000  1
  Li  Li5  1  0.894355  0.990749  0.288710  1
  Li  Li6  1  0.918982  0.359126  0.337963  1
  Li  Li7  1  0.935301  0.649527  0.370603  1
  Mn  Mn8  1  0.343140  0.675278  0.687269  1
  Mn  Mn9  1  0.341882  0.314231  0.682238  1
  Mn  Mn10  1  0.093649  0.175819  0.186581  1
  Mn  Mn11  1  0.095311  0.814863  0.182987  1
  Mn  Mn12  1  0.071735  0.510618  0.132600  1
  Mn  Mn13  1  0.320574  0.010078  0.633032  1
  Mn  Mn14  1  0.812459  0.010078  0.633032  1
  Mn  Mn15  1  0.560865  0.510618  0.132600  1
  Mn  Mn16  1  0.587677  0.814863  0.182987  1
  Mn  Mn17  1  0.592932  0.175819  0.186581  1
  Mn  Mn18  1  0.840355  0.314231  0.682238  1
  Mn  Mn19  1  0.844130  0.675278  0.687269  1
  B  B20  1  0.246892  0.671136  0.993783  1
  B  B21  1  0.000507  0.835822  0.501016  1
  B  B22  1  0.000310  0.167900  0.500619  1
  B  B23  1  0.247691  0.496752  0.497208  1
  B  B24  1  0.497856  0.996828  0.996390  1
  B  B25  1  0.253100  0.333609  0.006199  1
  B  B26  1  0.496804  0.169575  0.493607  1
  B  B27  1  0.504684  0.832267  0.509366  1
  B  B28  1  0.998533  0.996828  0.996390  1
  B  B29  1  0.749518  0.496752  0.497208  1
  B  B30  1  0.752117  0.335849  0.004233  1
  B  B31  1  0.750724  0.667120  0.001448  1
  O  O32  1  0.010752  0.092548  0.988687  1
  O  O33  1  0.010390  0.264580  0.520782  1
  O  O34  1  0.006479  0.932922  0.512958  1
  O  O35  1  0.068397  0.110837  0.636793  1
  O  O36  1  0.068203  0.780832  0.636405  1
  O  O37  1  0.169186  0.635532  0.838373  1
  O  O38  1  0.175981  0.294177  0.851962  1
  O  O39  1  0.050313  0.953301  0.142795  1
  O  O40  1  0.226829  0.592525  0.489740  1
  O  O41  1  0.477935  0.092548  0.988687  1
  O  O42  1  0.422852  0.943063  0.854495  1
  O  O43  1  0.175126  0.443395  0.354760  1
  O  O44  1  0.340077  0.453257  0.643678  1
  O  O45  1  0.260453  0.767952  0.020907  1
  O  O46  1  0.311784  0.611186  0.123569  1
  O  O47  1  0.318980  0.274919  0.137960  1
  O  O48  1  0.568074  0.768912  0.636149  1
  O  O49  1  0.266570  0.428831  0.033142  1
  O  O50  1  0.419733  0.132592  0.339467  1
  O  O51  1  0.425540  0.803740  0.351081  1
  O  O52  1  0.509651  0.266385  0.519303  1
  O  O53  1  0.674994  0.624887  0.849988  1
  O  O54  1  0.525242  0.926289  0.550483  1
  O  O55  1  0.562166  0.110259  0.624331  1
  O  O56  1  0.673720  0.303722  0.847441  1
  O  O57  1  0.803601  0.453257  0.643678  1
  O  O58  1  0.679634  0.443395  0.354760  1
  O  O59  1  0.931643  0.943063  0.854495  1
  O  O60  1  0.762911  0.592525  0.489740  1
  O  O61  1  0.592482  0.953301  0.142795  1
  O  O62  1  0.764283  0.432739  0.028565  1
  O  O63  1  0.817710  0.276451  0.135422  1
  O  O64  1  0.819449  0.610938  0.138898  1
  O  O65  1  0.923839  0.127564  0.347679  1
  O  O66  1  0.759781  0.763692  0.019562  1
  O  O67  1  0.924569  0.793076  0.349137  1
