# generated using pymatgen
data_Ce3MgAlS7
_symmetry_space_group_name_H-M   'P 1'
_cell_length_a   10.11234479
_cell_length_b   10.11641546
_cell_length_c   6.10121102
_cell_angle_alpha   90.00000000
_cell_angle_beta   90.00000000
_cell_angle_gamma   120.03409666
_symmetry_Int_Tables_number   1
_chemical_formula_structural   Ce3MgAlS7
_chemical_formula_sum   'Ce6 Mg2 Al2 S14'
_cell_volume   540.35090779
_cell_formula_units_Z   2
loop_
 _symmetry_equiv_pos_site_id
 _symmetry_equiv_pos_as_xyz
  1  'x, y, z'
loop_
 _atom_site_type_symbol
 _atom_site_label
 _atom_site_symmetry_multiplicity
 _atom_site_fract_x
 _atom_site_fract_y
 _atom_site_fract_z
 _atom_site_occupancy
  Ce  Ce0  1  0.624263  0.764616  0.242179  1
  Ce  Ce1  1  0.235403  0.859674  0.241787  1
  Ce  Ce2  1  0.140333  0.375777  0.242003  1
  Ce  Ce3  1  0.375736  0.235384  0.742178  1
  Ce  Ce4  1  0.764598  0.140326  0.741788  1
  Ce  Ce5  1  0.859668  0.624223  0.742004  1
  Mg  Mg6  1  0.000004  0.000013  0.034445  1
  Mg  Mg7  1  -0.000004  -0.000013  0.534445  1
  Al  Al8  1  0.666455  0.333396  0.161503  1
  Al  Al9  1  0.333545  0.666604  0.661502  1
  S  S10  1  0.900742  0.419505  0.012570  1
  S  S11  1  0.518677  0.099441  0.012722  1
  S  S12  1  0.580652  0.481023  0.012804  1
  S  S13  1  0.333351  0.666676  0.029431  1
  S  S14  1  0.853163  0.090832  0.291544  1
  S  S15  1  0.909068  0.762281  0.291490  1
  S  S16  1  0.237863  0.146899  0.291524  1
  S  S17  1  0.099258  0.580495  0.512569  1
  S  S18  1  0.481323  0.900559  0.512721  1
  S  S19  1  0.419348  0.518977  0.512805  1
  S  S20  1  0.666649  0.333324  0.529430  1
  S  S21  1  0.090932  0.237719  0.791489  1
  S  S22  1  0.146836  0.909168  0.791543  1
  S  S23  1  0.762136  0.853101  0.791524  1
