# generated using pymatgen
data_NdAgAs2
_symmetry_space_group_name_H-M   'P 1'
_cell_length_a   4.07652201
_cell_length_b   4.10187745
_cell_length_c   21.28199644
_cell_angle_alpha   89.99377122
_cell_angle_beta   89.99924863
_cell_angle_gamma   89.99246655
_symmetry_Int_Tables_number   1
_chemical_formula_structural   NdAgAs2
_chemical_formula_sum   'Nd4 Ag4 As8'
_cell_volume   355.86463650
_cell_formula_units_Z   4
loop_
 _symmetry_equiv_pos_site_id
 _symmetry_equiv_pos_as_xyz
  1  'x, y, z'
loop_
 _atom_site_type_symbol
 _atom_site_label
 _atom_site_symmetry_multiplicity
 _atom_site_fract_x
 _atom_site_fract_y
 _atom_site_fract_z
 _atom_site_occupancy
  Nd  Nd0  1  0.250390  0.727302  0.115550  1
  Nd  Nd1  1  0.750393  0.227291  0.384458  1
  Nd  Nd2  1  0.249608  0.772710  0.615543  1
  Nd  Nd3  1  0.749613  0.272698  0.884450  1
  Ag  Ag4  1  0.750053  0.726095  0.249915  1
  Ag  Ag5  1  0.250053  0.226102  0.250087  1
  Ag  Ag6  1  0.749947  0.773897  0.749913  1
  Ag  Ag7  1  0.249948  0.273904  0.750085  1
  As  As8  1  0.750435  0.226470  0.160289  1
  As  As9  1  0.250433  0.726471  0.339707  1
  As  As10  1  0.749566  0.273528  0.660293  1
  As  As11  1  0.249564  0.773529  0.839711  1
  As  As12  1  0.249948  0.204072  0.001489  1
  As  As13  1  0.749948  0.704057  0.498510  1
  As  As14  1  0.250052  0.295943  0.501489  1
  As  As15  1  0.750051  0.795927  0.998512  1
