# generated using pymatgen
data_Mn8O13F3
_symmetry_space_group_name_H-M   'P 1'
_cell_length_a   4.51698576
_cell_length_b   5.54137070
_cell_length_c   9.99298017
_cell_angle_alpha   89.62126314
_cell_angle_beta   89.88212698
_cell_angle_gamma   89.00395015
_symmetry_Int_Tables_number   1
_chemical_formula_structural   Mn8O13F3
_chemical_formula_sum   'Mn8 O13 F3'
_cell_volume   250.08348613
_cell_formula_units_Z   1
loop_
 _symmetry_equiv_pos_site_id
 _symmetry_equiv_pos_as_xyz
  1  'x, y, z'
loop_
 _atom_site_type_symbol
 _atom_site_label
 _atom_site_symmetry_multiplicity
 _atom_site_fract_x
 _atom_site_fract_y
 _atom_site_fract_z
 _atom_site_occupancy
  Mn  Mn0  1  0.023542  0.163183  0.619424  1
  Mn  Mn1  1  0.013097  0.850620  0.367989  1
  Mn  Mn2  1  0.986184  0.140617  0.119322  1
  Mn  Mn3  1  0.009227  0.840817  0.873386  1
  Mn  Mn4  1  0.487623  0.363668  0.883012  1
  Mn  Mn5  1  0.515298  0.352669  0.380033  1
  Mn  Mn6  1  0.517107  0.661817  0.125569  1
  Mn  Mn7  1  0.485496  0.640410  0.630075  1
  O  O8  1  0.237277  0.109108  0.455859  1
  O  O9  1  0.224278  0.116543  0.958497  1
  O  O10  1  0.232958  0.889387  0.206558  1
  O  O11  1  0.227522  0.885660  0.707617  1
  O  O12  1  0.267500  0.606157  0.461375  1
  O  O13  1  0.271448  0.396713  0.717948  1
  O  O14  1  0.272203  0.614171  0.967796  1
  O  O15  1  0.728379  0.385523  0.041854  1
  O  O16  1  0.734664  0.612211  0.290251  1
  O  O17  1  0.729512  0.385859  0.542015  1
  O  O18  1  0.724483  0.610582  0.791242  1
  O  O19  1  0.767364  0.108241  0.288001  1
  O  O20  1  0.773574  0.890000  0.033609  1
  F  F21  1  0.260124  0.379094  0.212258  1
  F  F22  1  0.754378  0.120747  0.787029  1
  F  F23  1  0.756762  0.876201  0.539283  1
