# generated using pymatgen
data_CeGa3
_symmetry_space_group_name_H-M   'P 1'
_cell_length_a   6.40458400
_cell_length_b   6.40458353
_cell_length_c   4.57114824
_cell_angle_alpha   90.00000000
_cell_angle_beta   90.00000000
_cell_angle_gamma   120.00000244
_symmetry_Int_Tables_number   1
_chemical_formula_structural   CeGa3
_chemical_formula_sum   'Ce2 Ga6'
_cell_volume   162.38194784
_cell_formula_units_Z   2
loop_
 _symmetry_equiv_pos_site_id
 _symmetry_equiv_pos_as_xyz
  1  'x, y, z'
loop_
 _atom_site_type_symbol
 _atom_site_label
 _atom_site_symmetry_multiplicity
 _atom_site_fract_x
 _atom_site_fract_y
 _atom_site_fract_z
 _atom_site_occupancy
  Ce  Ce0  1  0.333334  0.666669  0.750000  1
  Ce  Ce1  1  0.666667  0.333333  0.250001  1
  Ga  Ga2  1  0.145473  0.290946  0.250001  1
  Ga  Ga3  1  0.709054  0.854526  0.250001  1
  Ga  Ga4  1  0.145473  0.854526  0.250001  1
  Ga  Ga5  1  0.854528  0.709054  0.750000  1
  Ga  Ga6  1  0.290946  0.145474  0.750000  1
  Ga  Ga7  1  0.854527  0.145474  0.750000  1
