# generated using pymatgen
data_Sr2V3O9
_symmetry_space_group_name_H-M   'P 1'
_cell_length_a   7.05465825
_cell_length_b   7.39493341
_cell_length_c   16.48215109
_cell_angle_alpha   90.00000000
_cell_angle_beta   90.00000000
_cell_angle_gamma   64.00311354
_symmetry_Int_Tables_number   1
_chemical_formula_structural   Sr2V3O9
_chemical_formula_sum   'Sr8 V12 O36'
_cell_volume   772.85111012
_cell_formula_units_Z   4
loop_
 _symmetry_equiv_pos_site_id
 _symmetry_equiv_pos_as_xyz
  1  'x, y, z'
loop_
 _atom_site_type_symbol
 _atom_site_label
 _atom_site_symmetry_multiplicity
 _atom_site_fract_x
 _atom_site_fract_y
 _atom_site_fract_z
 _atom_site_occupancy
  Sr  Sr0  1  0.749836  0.498834  0.451400  1
  Sr  Sr1  1  0.750883  0.498927  0.874102  1
  Sr  Sr2  1  0.749836  0.998834  0.048600  1
  Sr  Sr3  1  0.750883  0.998927  0.625898  1
  Sr  Sr4  1  0.249117  0.501073  0.125898  1
  Sr  Sr5  1  0.250164  0.501166  0.548600  1
  Sr  Sr6  1  0.250164  0.001166  0.951400  1
  Sr  Sr7  1  0.249117  0.001073  0.374102  1
  V  V8  1  0.750207  0.720315  0.254377  1
  V  V9  1  0.749768  0.500016  0.659540  1
  V  V10  1  0.750051  0.499284  0.079083  1
  V  V11  1  0.750207  0.220315  0.245623  1
  V  V12  1  0.750051  0.999284  0.420917  1
  V  V13  1  0.749768  0.000016  0.840460  1
  V  V14  1  0.249793  0.779685  0.754377  1
  V  V15  1  0.249949  0.500716  0.920917  1
  V  V16  1  0.250232  0.499984  0.340460  1
  V  V17  1  0.249793  0.279685  0.745623  1
  V  V18  1  0.250232  -0.000016  0.159540  1
  V  V19  1  0.249949  0.000716  0.579083  1
  O  O20  1  0.943985  0.835904  0.481617  1
  O  O21  1  0.947304  0.832344  0.776020  1
  O  O22  1  0.861195  0.614185  0.597144  1
  O  O23  1  0.848241  0.640226  0.140097  1
  O  O24  1  0.943985  0.335904  0.018383  1
  O  O25  1  0.947304  0.332344  0.723980  1
  O  O26  1  0.650309  0.858083  0.360991  1
  O  O27  1  0.637974  0.885134  0.902387  1
  O  O28  1  0.754456  0.498613  0.286770  1
  O  O29  1  0.861195  0.114185  0.902856  1
  O  O30  1  0.848241  0.140226  0.359903  1
  O  O31  1  0.555001  0.669026  0.724615  1
  O  O32  1  0.556680  0.664170  0.018662  1
  O  O33  1  0.443320  0.835830  0.518662  1
  O  O34  1  0.444999  0.830974  0.224615  1
  O  O35  1  0.650309  0.358083  0.139009  1
  O  O36  1  0.637974  0.385134  0.597613  1
  O  O37  1  0.754456  0.998613  0.213230  1
  O  O38  1  0.362026  0.614866  0.402387  1
  O  O39  1  0.349691  0.641917  0.860991  1
  O  O40  1  0.555001  0.169026  0.775385  1
  O  O41  1  0.556680  0.164170  0.481338  1
  O  O42  1  0.443320  0.335830  0.981338  1
  O  O43  1  0.444999  0.330974  0.275385  1
  O  O44  1  0.151759  0.859774  0.640097  1
  O  O45  1  0.138805  0.885815  0.097144  1
  O  O46  1  0.245544  0.501387  0.713230  1
  O  O47  1  0.362026  0.114866  0.097613  1
  O  O48  1  0.349691  0.141917  0.639009  1
  O  O49  1  0.052696  0.667656  0.276020  1
  O  O50  1  0.056015  0.664096  0.981617  1
  O  O51  1  0.151759  0.359774  0.859903  1
  O  O52  1  0.138805  0.385815  0.402856  1
  O  O53  1  0.245544  0.001387  0.786770  1
  O  O54  1  0.052696  0.167656  0.223980  1
  O  O55  1  0.056015  0.164096  0.518383  1
