# generated using pymatgen
data_Li2Fe5O5F7
_symmetry_space_group_name_H-M   'P 1'
_cell_length_a   6.17644214
_cell_length_b   5.98719255
_cell_length_c   5.91006084
_cell_angle_alpha   99.47424789
_cell_angle_beta   99.90307490
_cell_angle_gamma   99.48937432
_symmetry_Int_Tables_number   1
_chemical_formula_structural   Li2Fe5O5F7
_chemical_formula_sum   'Li2 Fe5 O5 F7'
_cell_volume   208.11932767
_cell_formula_units_Z   1
loop_
 _symmetry_equiv_pos_site_id
 _symmetry_equiv_pos_as_xyz
  1  'x, y, z'
loop_
 _atom_site_type_symbol
 _atom_site_label
 _atom_site_symmetry_multiplicity
 _atom_site_fract_x
 _atom_site_fract_y
 _atom_site_fract_z
 _atom_site_occupancy
  Li  Li0  1  0.593839  0.322393  0.135317  1
  Li  Li1  1  0.882849  0.399584  0.685969  1
  Fe  Fe2  1  0.164351  0.616232  0.353575  1
  Fe  Fe3  1  0.413018  0.660024  0.861015  1
  Fe  Fe4  1  0.653280  0.844898  0.375397  1
  Fe  Fe5  1  0.984574  0.995135  0.015395  1
  Fe  Fe6  1  0.319035  0.135669  0.589196  1
  O  O7  1  0.106181  0.934707  0.322182  1
  O  O8  1  0.429553  0.834222  0.603020  1
  O  O9  1  0.685559  0.885438  0.057673  1
  O  O10  1  0.205964  0.418260  0.592004  1
  O  O11  1  0.400543  0.595106  0.176856  1
  F  F12  1  0.061296  0.701834  0.875918  1
  F  F13  1  0.602306  0.405393  0.819345  1
  F  F14  1  0.819307  0.590986  0.420266  1
  F  F15  1  0.283576  0.120955  0.924794  1
  F  F16  1  0.558020  0.168124  0.391778  1
  F  F17  1  0.967194  0.326400  0.120623  1
  F  F18  1  0.869553  0.044641  0.679678  1
