# generated using pymatgen
data_Li2FeOF3
_symmetry_space_group_name_H-M   'P 1'
_cell_length_a   6.01971194
_cell_length_b   6.01971194
_cell_length_c   5.96702867
_cell_angle_alpha   60.00069823
_cell_angle_beta   90.61495012
_cell_angle_gamma   120.99914247
_symmetry_Int_Tables_number   1
_chemical_formula_structural   Li2FeOF3
_chemical_formula_sum   'Li4 Fe2 O2 F6'
_cell_volume   151.38530788
_cell_formula_units_Z   2
loop_
 _symmetry_equiv_pos_site_id
 _symmetry_equiv_pos_as_xyz
  1  'x, y, z'
loop_
 _atom_site_type_symbol
 _atom_site_label
 _atom_site_symmetry_multiplicity
 _atom_site_fract_x
 _atom_site_fract_y
 _atom_site_fract_z
 _atom_site_occupancy
  Li  Li0  1  0.510318  0.997804  0.991877  1
  Li  Li1  1  0.519646  0.006265  0.503583  1
  Li  Li2  1  0.872829  0.763683  0.863489  1
  Li  Li3  1  0.990153  0.476771  0.503583  1
  Fe  Fe4  1  0.109940  0.238646  0.151414  1
  Fe  Fe5  1  0.509065  0.517289  0.473644  1
  O  O6  1  0.730808  0.973280  0.267392  1
  O  O7  1  0.259327  0.501799  0.267392  1
  F  F8  1  0.741242  0.014922  0.743836  1
  F  F9  1  0.741529  0.489634  0.268837  1
  F  F10  1  0.731731  0.489488  0.731524  1
  F  F11  1  0.278989  0.036745  0.731524  1
  F  F12  1  0.250924  0.991246  0.257830  1
  F  F13  1  0.253496  0.502428  0.744075  1
