# generated using pymatgen
data_Li11V6O5F19
_symmetry_space_group_name_H-M   'P 1'
_cell_length_a   5.17266609
_cell_length_b   5.42064546
_cell_length_c   16.38685264
_cell_angle_alpha   79.76495651
_cell_angle_beta   89.98133228
_cell_angle_gamma   89.69534108
_symmetry_Int_Tables_number   1
_chemical_formula_structural   Li11V6O5F19
_chemical_formula_sum   'Li11 V6 O5 F19'
_cell_volume   452.15601774
_cell_formula_units_Z   1
loop_
 _symmetry_equiv_pos_site_id
 _symmetry_equiv_pos_as_xyz
  1  'x, y, z'
loop_
 _atom_site_type_symbol
 _atom_site_label
 _atom_site_symmetry_multiplicity
 _atom_site_fract_x
 _atom_site_fract_y
 _atom_site_fract_z
 _atom_site_occupancy
  Li  Li0  1  0.513020  0.765769  0.560611  1
  Li  Li1  1  0.986625  0.945053  0.224807  1
  Li  Li2  1  0.980947  0.624513  0.891518  1
  Li  Li3  1  0.490300  0.888941  0.105703  1
  Li  Li4  1  0.473785  0.713847  0.794569  1
  Li  Li5  1  0.017575  0.738117  0.439579  1
  Li  Li6  1  0.984514  0.284880  0.556322  1
  Li  Li7  1  0.514035  0.111881  0.891200  1
  Li  Li8  1  0.515982  0.431746  0.223669  1
  Li  Li9  1  0.013868  0.396341  0.107249  1
  Li  Li10  1  0.490743  0.223145  0.437044  1
  V  V11  1  0.502570  0.532544  0.001332  1
  V  V12  1  0.505654  0.866093  0.333496  1
  V  V13  1  0.011293  0.647624  0.665935  1
  V  V14  1  0.000741  0.969674  0.001842  1
  V  V15  1  0.484437  0.183781  0.665115  1
  V  V16  1  0.005163  0.306549  0.334678  1
  O  O17  1  0.315645  0.830843  0.964320  1
  O  O18  1  0.312425  0.492544  0.631478  1
  O  O19  1  0.811567  0.672704  0.041350  1
  O  O20  1  0.321113  0.168558  0.299774  1
  O  O21  1  0.815832  0.010199  0.372435  1
  F  F22  1  0.173375  0.993399  0.626011  1
  F  F23  1  0.672439  0.829808  0.687633  1
  F  F24  1  0.139072  0.015512  0.117360  1
  F  F25  1  0.122162  0.634937  0.781061  1
  F  F26  1  0.365306  0.848115  0.452513  1
  F  F27  1  0.635209  0.821490  0.218790  1
  F  F28  1  0.626639  0.490824  0.883908  1
  F  F29  1  0.864913  0.655026  0.549906  1
  F  F30  1  0.172660  0.330225  0.969584  1
  F  F31  1  0.173359  0.666993  0.303242  1
  F  F32  1  0.679765  0.511013  0.367685  1
  F  F33  1  0.819855  0.330373  0.694469  1
  F  F34  1  0.139040  0.351683  0.450094  1
  F  F35  1  0.851797  0.972028  0.889339  1
  F  F36  1  0.357414  0.516150  0.119010  1
  F  F37  1  0.864631  0.316327  0.217440  1
  F  F38  1  0.407247  0.081439  0.781628  1
  F  F39  1  0.629754  0.165789  0.550986  1
  F  F40  1  0.674681  0.176173  0.034913  1
