# generated using pymatgen
data_Na8NbO6
_symmetry_space_group_name_H-M   'P 1'
_cell_length_a   6.52716237
_cell_length_b   6.52707454
_cell_length_c   13.25362048
_cell_angle_alpha   89.97389200
_cell_angle_beta   90.03247390
_cell_angle_gamma   120.01149124
_symmetry_Int_Tables_number   1
_chemical_formula_structural   Na8NbO6
_chemical_formula_sum   'Na16 Nb2 O12'
_cell_volume   488.94248157
_cell_formula_units_Z   2
loop_
 _symmetry_equiv_pos_site_id
 _symmetry_equiv_pos_as_xyz
  1  'x, y, z'
loop_
 _atom_site_type_symbol
 _atom_site_label
 _atom_site_symmetry_multiplicity
 _atom_site_fract_x
 _atom_site_fract_y
 _atom_site_fract_z
 _atom_site_occupancy
  Na  Na0  1  0.999521  0.697069  0.769235  1
  Na  Na1  1  0.000066  0.601589  0.128499  1
  Na  Na2  1  0.999763  0.397759  0.628255  1
  Na  Na3  1  0.000418  0.302385  0.270110  1
  Na  Na4  1  0.333757  0.667038  0.409347  1
  Na  Na5  1  0.332946  0.666504  0.909367  1
  Na  Na6  1  0.302538  0.302696  0.769581  1
  Na  Na7  1  0.398858  0.398966  0.128597  1
  Na  Na8  1  0.601695  0.601892  0.628244  1
  Na  Na9  1  0.302303  0.000264  0.269775  1
  Na  Na10  1  0.698236  0.698047  0.270322  1
  Na  Na11  1  0.397474  0.999976  0.628165  1
  Na  Na12  1  0.666595  0.332800  0.909376  1
  Na  Na13  1  0.667003  0.333010  0.409356  1
  Na  Na14  1  0.601815  0.000142  0.128524  1
  Na  Na15  1  0.696823  0.999668  0.769180  1
  Nb  Nb16  1  0.000184  0.000131  0.990664  1
  Nb  Nb17  1  0.000155  0.000009  0.489053  1
  O  O18  1  0.999269  0.719414  0.953194  1
  O  O19  1  0.001288  0.283257  0.455152  1
  O  O20  1  0.333649  0.667030  0.222690  1
  O  O21  1  0.000997  0.000848  0.134116  1
  O  O22  1  0.998581  0.999609  0.634429  1
  O  O23  1  0.332839  0.666565  0.723312  1
  O  O24  1  0.280520  0.280459  0.953545  1
  O  O25  1  0.282119  0.000310  0.454695  1
  O  O26  1  0.717869  0.716852  0.455241  1
  O  O27  1  0.666117  0.332979  0.723308  1
  O  O28  1  0.667091  0.333595  0.222677  1
  O  O29  1  0.719309  0.999140  0.953254  1
