# generated using pymatgen
data_Li9Mn5(SiO8)2
_symmetry_space_group_name_H-M   'P 1'
_cell_length_a   5.06128597
_cell_length_b   10.92038398
_cell_length_c   5.35554306
_cell_angle_alpha   92.02145217
_cell_angle_beta   85.50341127
_cell_angle_gamma   99.81987209
_symmetry_Int_Tables_number   1
_chemical_formula_structural   Li9Mn5(SiO8)2
_chemical_formula_sum   'Li9 Mn5 Si2 O16'
_cell_volume   290.70031015
_cell_formula_units_Z   1
loop_
 _symmetry_equiv_pos_site_id
 _symmetry_equiv_pos_as_xyz
  1  'x, y, z'
loop_
 _atom_site_type_symbol
 _atom_site_label
 _atom_site_symmetry_multiplicity
 _atom_site_fract_x
 _atom_site_fract_y
 _atom_site_fract_z
 _atom_site_occupancy
  Li  Li0  1  0.034867  0.995168  0.977081  1
  Li  Li1  1  0.102394  0.119703  0.539662  1
  Li  Li2  1  0.257895  0.246267  0.001207  1
  Li  Li3  1  0.371613  0.373378  0.496114  1
  Li  Li4  1  0.503387  0.501622  0.003886  1
  Li  Li5  1  0.617105  0.628733  0.498793  1
  Li  Li6  1  0.772606  0.755297  0.960338  1
  Li  Li7  1  0.840133  0.879832  0.522919  1
  Li  Li8  1  0.437500  0.937500  0.250000  1
  Mn  Mn9  1  0.682891  0.179302  0.250816  1
  Mn  Mn10  1  0.808493  0.309054  0.751021  1
  Mn  Mn11  1  0.937500  0.437500  0.250000  1
  Mn  Mn12  1  0.066507  0.565946  0.748979  1
  Mn  Mn13  1  0.192109  0.695698  0.249184  1
  Si  Si14  1  0.558709  0.058128  0.752307  1
  Si  Si15  1  0.316291  0.816872  0.747693  1
  O  O16  1  0.395941  0.088284  0.062198  1
  O  O17  1  0.736817  0.039058  0.441063  1
  O  O18  1  0.017075  0.279478  0.364345  1
  O  O19  1  0.872693  0.146264  0.860716  1
  O  O20  1  0.478971  0.203952  0.643056  1
  O  O21  1  0.143152  0.407160  0.860146  1
  O  O22  1  0.607441  0.339970  0.137439  1
  O  O23  1  0.731848  0.467840  0.639854  1
  O  O24  1  0.267559  0.535030  0.362561  1
  O  O25  1  0.396029  0.671048  0.856944  1
  O  O26  1  0.857925  0.595522  0.135655  1
  O  O27  1  0.138183  0.835942  0.058937  1
  O  O28  1  0.479059  0.786716  0.437802  1
  O  O29  1  0.002307  0.728736  0.639284  1
  O  O30  1  0.248455  0.965879  0.653779  1
  O  O31  1  0.626545  0.909121  0.846221  1
