# generated using pymatgen
data_Li7Sc9Fe(SiO3)20
_symmetry_space_group_name_H-M   'P 1'
_cell_length_a   12.88892146
_cell_length_b   9.04387416
_cell_length_c   11.15849442
_cell_angle_alpha   113.91657555
_cell_angle_beta   75.34636401
_cell_angle_gamma   90.00496014
_symmetry_Int_Tables_number   1
_chemical_formula_structural   Li7Sc9Fe(SiO3)20
_chemical_formula_sum   'Li7 Sc9 Fe1 Si20 O60'
_cell_volume   1142.59343205
_cell_formula_units_Z   1
loop_
 _symmetry_equiv_pos_site_id
 _symmetry_equiv_pos_as_xyz
  1  'x, y, z'
loop_
 _atom_site_type_symbol
 _atom_site_label
 _atom_site_symmetry_multiplicity
 _atom_site_fract_x
 _atom_site_fract_y
 _atom_site_fract_z
 _atom_site_occupancy
  Li  Li0  1  0.949078  0.195035  0.899279  1
  Li  Li1  1  0.749161  0.999082  0.500120  1
  Li  Li2  1  0.549031  0.797147  0.099327  1
  Li  Li3  1  0.450273  0.209088  0.899537  1
  Li  Li4  1  0.351724  0.599041  0.701749  1
  Li  Li5  1  0.150882  0.397801  0.299862  1
  Li  Li6  1  0.049418  0.804073  0.100937  1
  Sc  Sc7  1  0.948478  0.836040  0.894752  1
  Sc  Sc8  1  0.849814  0.950053  0.697866  1
  Sc  Sc9  1  0.749560  0.638747  0.499600  1
  Sc  Sc10  1  0.648460  0.753325  0.302741  1
  Sc  Sc11  1  0.550813  0.442275  0.104123  1
  Sc  Sc12  1  0.348339  0.239962  0.696969  1
  Sc  Sc13  1  0.250159  0.354239  0.500236  1
  Sc  Sc14  1  0.152573  0.042062  0.304589  1
  Sc  Sc15  1  0.051015  0.152953  0.099155  1
  Fe  Fe16  1  0.450397  0.551927  0.899971  1
  Si  Si17  1  0.982955  0.772654  0.369367  1
  Si  Si18  1  0.920029  0.299059  0.425528  1
  Si  Si19  1  0.883084  0.498747  0.172113  1
  Si  Si20  1  0.817328  0.027399  0.227088  1
  Si  Si21  1  0.717778  0.094001  0.025053  1
  Si  Si22  1  0.780156  0.572580  0.974753  1
  Si  Si23  1  0.681572  0.301876  0.773345  1
  Si  Si24  1  0.614865  0.821594  0.826972  1
  Si  Si25  1  0.580290  0.375941  0.576903  1
  Si  Si26  1  0.516419  0.903317  0.631211  1
  Si  Si27  1  0.484430  0.104758  0.371256  1
  Si  Si28  1  0.414949  0.633888  0.429816  1
  Si  Si29  1  0.382750  0.171848  0.169957  1
  Si  Si30  1  0.319892  0.698367  0.222826  1
  Si  Si31  1  0.219344  0.425282  0.026913  1
  Si  Si32  1  0.284146  0.891995  0.973201  1
  Si  Si33  1  0.182587  0.969324  0.774417  1
  Si  Si34  1  0.117438  0.501503  0.829836  1
  Si  Si35  1  0.085223  0.702606  0.568766  1
  Si  Si36  1  0.015286  0.232550  0.630049  1
  O  O37  1  0.973074  0.614783  0.232512  1
  O  O38  1  0.935261  0.969819  0.110285  1
  O  O39  1  0.929964  0.308920  0.114699  1
  O  O40  1  0.967793  0.098625  0.685284  1
  O  O41  1  0.969126  0.769493  0.687351  1
  O  O42  1  0.926750  0.281084  0.563777  1
  O  O43  1  0.870084  0.517345  0.035124  1
  O  O44  1  0.877275  0.484060  0.461570  1
  O  O45  1  0.865217  0.830312  0.487081  1
  O  O46  1  0.830853  0.182805  0.363459  1
  O  O47  1  0.769435  0.896556  0.285517  1
  O  O48  1  0.835844  0.033297  0.908353  1
  O  O49  1  0.767441  0.569968  0.290633  1
  O  O50  1  0.822000  0.719781  0.936229  1
  O  O51  1  0.729448  0.079517  0.162806  1
  O  O52  1  0.769543  0.416836  0.838563  1
  O  O53  1  0.673449  0.277070  0.058993  1
  O  O54  1  0.730699  0.778088  0.709363  1
  O  O55  1  0.662401  0.626968  0.091815  1
  O  O56  1  0.727993  0.112296  0.717697  1
  O  O57  1  0.670742  0.319341  0.635792  1
  O  O58  1  0.634120  0.843948  0.513846  1
  O  O59  1  0.621532  0.524580  0.540033  1
  O  O60  1  0.628640  0.973103  0.966418  1
  O  O61  1  0.572235  0.219495  0.439492  1
  O  O62  1  0.530929  0.581466  0.311224  1
  O  O63  1  0.530710  0.914960  0.315179  1
  O  O64  1  0.567861  0.687131  0.883040  1
  O  O65  1  0.562344  0.364656  0.888819  1
  O  O66  1  0.525096  0.878555  0.767192  1
  O  O67  1  0.471765  0.125011  0.235460  1
  O  O68  1  0.437284  0.633622  0.103707  1
  O  O69  1  0.428306  0.303083  0.111144  1
  O  O70  1  0.471104  0.093185  0.688435  1
  O  O71  1  0.462985  0.430064  0.696200  1
  O  O72  1  0.427790  0.790317  0.565132  1
  O  O73  1  0.371267  0.011040  0.036170  1
  O  O74  1  0.369071  0.500542  0.486339  1
  O  O75  1  0.368582  0.172717  0.490212  1
  O  O76  1  0.327839  0.678693  0.360041  1
  O  O77  1  0.279831  0.884968  0.260985  1
  O  O78  1  0.338303  0.374603  0.911197  1
  O  O79  1  0.265452  0.230502  0.288167  1
  O  O80  1  0.332857  0.702201  0.915696  1
  O  O81  1  0.229670  0.583160  0.163226  1
  O  O82  1  0.270116  0.907542  0.835443  1
  O  O83  1  0.173588  0.291387  0.082880  1
  O  O84  1  0.234927  0.442097  0.711775  1
  O  O85  1  0.165829  0.954963  0.089064  1
  O  O86  1  0.226300  0.119699  0.742085  1
  O  O87  1  0.173879  0.816082  0.635396  1
  O  O88  1  0.131508  0.181860  0.511731  1
  O  O89  1  0.130890  0.512920  0.513764  1
  O  O90  1  0.130766  0.477060  0.963622  1
  O  O91  1  0.071746  0.721731  0.433058  1
  O  O92  1  0.038179  0.235987  0.309098  1
  O  O93  1  0.029105  0.906602  0.314211  1
  O  O94  1  0.071054  0.690582  0.887080  1
  O  O95  1  0.063833  0.023907  0.890006  1
  O  O96  1  0.028624  0.386793  0.766349  1
