# generated using pymatgen
data_BaGa12O19
_symmetry_space_group_name_H-M   'P 1'
_cell_length_a   5.88938270
_cell_length_b   5.88940728
_cell_length_c   23.29760471
_cell_angle_alpha   89.99976656
_cell_angle_beta   89.99967843
_cell_angle_gamma   120.00014782
_symmetry_Int_Tables_number   1
_chemical_formula_structural   BaGa12O19
_chemical_formula_sum   'Ba2 Ga24 O38'
_cell_volume   699.81399317
_cell_formula_units_Z   2
loop_
 _symmetry_equiv_pos_site_id
 _symmetry_equiv_pos_as_xyz
  1  'x, y, z'
loop_
 _atom_site_type_symbol
 _atom_site_label
 _atom_site_symmetry_multiplicity
 _atom_site_fract_x
 _atom_site_fract_y
 _atom_site_fract_z
 _atom_site_occupancy
  Ba  Ba0  1  0.333253  0.666509  0.749187  1
  Ba  Ba1  1  0.666751  0.333248  0.249186  1
  Ga  Ga2  1  0.169140  0.831005  0.891916  1
  Ga  Ga3  1  0.167518  0.832640  0.608924  1
  Ga  Ga4  1  0.333349  0.666657  0.310540  1
  Ga  Ga5  1  0.167377  0.334898  0.608920  1
  Ga  Ga6  1  0.333327  0.666680  0.472882  1
  Ga  Ga7  1  0.169001  0.338140  0.891918  1
  Ga  Ga8  1  0.000001  0.000006  0.000335  1
  Ga  Ga9  1  0.000003  0.000018  0.500335  1
  Ga  Ga10  1  0.333322  0.666652  0.027568  1
  Ga  Ga11  1  0.000012  0.999987  0.258950  1
  Ga  Ga12  1  0.333339  0.666648  0.188796  1
  Ga  Ga13  1  0.999989  0.999982  0.758949  1
  Ga  Ga14  1  0.665112  0.832507  0.608924  1
  Ga  Ga15  1  0.661856  0.830873  0.891916  1
  Ga  Ga16  1  0.334891  0.167514  0.108923  1
  Ga  Ga17  1  0.338168  0.169091  0.391911  1
  Ga  Ga18  1  0.666661  0.333329  0.810540  1
  Ga  Ga19  1  0.666675  0.333357  0.972882  1
  Ga  Ga20  1  0.666662  0.333329  0.688797  1
  Ga  Ga21  1  0.666677  0.333366  0.527569  1
  Ga  Ga22  1  0.832624  0.665120  0.108922  1
  Ga  Ga23  1  0.830969  0.661859  0.391915  1
  Ga  Ga24  1  0.832486  0.167378  0.108920  1
  Ga  Ga25  1  0.830926  0.169044  0.391925  1
  O  O26  1  0.155605  0.844402  0.051725  1
  O  O27  1  0.154847  0.845163  0.447540  1
  O  O28  1  0.006181  0.503149  0.648608  1
  O  O29  1  0.006874  0.503497  0.851606  1
  O  O30  1  0.182106  0.817886  0.250781  1
  O  O31  1  0.333316  0.666691  0.554827  1
  O  O32  1  0.999999  0.000005  0.850321  1
  O  O33  1  0.155598  0.311193  0.051727  1
  O  O34  1  0.999999  0.000004  0.147640  1
  O  O35  1  0.000021  0.000001  0.350320  1
  O  O36  1  0.154860  0.309710  0.447542  1
  O  O37  1  0.000000  0.000011  0.647640  1
  O  O38  1  0.333315  0.666637  0.945222  1
  O  O39  1  0.182109  0.364203  0.250780  1
  O  O40  1  0.496963  0.993826  0.648610  1
  O  O41  1  0.496614  0.993127  0.851606  1
  O  O42  1  0.635802  0.817911  0.250779  1
  O  O43  1  0.311207  0.155618  0.551724  1
  O  O44  1  0.309708  0.154852  0.947544  1
  O  O45  1  0.496856  0.503048  0.648607  1
  O  O46  1  0.496508  0.503388  0.851606  1
  O  O47  1  0.503146  0.496959  0.148609  1
  O  O48  1  0.503480  0.496587  0.351604  1
  O  O49  1  0.688791  0.844411  0.051725  1
  O  O50  1  0.690300  0.845163  0.447544  1
  O  O51  1  0.364201  0.182100  0.750780  1
  O  O52  1  0.503040  0.006179  0.148609  1
  O  O53  1  0.666686  0.333367  0.445221  1
  O  O54  1  0.844397  0.688825  0.551726  1
  O  O55  1  0.666686  0.333377  0.054827  1
  O  O56  1  0.845161  0.690320  0.947541  1
  O  O57  1  0.817879  0.635786  0.750780  1
  O  O58  1  0.503457  0.006875  0.351605  1
  O  O59  1  0.817915  0.182121  0.750781  1
  O  O60  1  0.993819  0.496860  0.148608  1
  O  O61  1  0.993139  0.496528  0.351606  1
  O  O62  1  0.844401  0.155622  0.551724  1
  O  O63  1  0.845146  0.154858  0.947543  1
