# generated using pymatgen
data_Fe3OF5
_symmetry_space_group_name_H-M   'P 1'
_cell_length_a   4.80734313
_cell_length_b   8.07526421
_cell_length_c   5.80720144
_cell_angle_alpha   92.59652845
_cell_angle_beta   90.16235841
_cell_angle_gamma   90.64275090
_symmetry_Int_Tables_number   1
_chemical_formula_structural   Fe3OF5
_chemical_formula_sum   'Fe6 O2 F10'
_cell_volume   225.19196131
_cell_formula_units_Z   2
loop_
 _symmetry_equiv_pos_site_id
 _symmetry_equiv_pos_as_xyz
  1  'x, y, z'
loop_
 _atom_site_type_symbol
 _atom_site_label
 _atom_site_symmetry_multiplicity
 _atom_site_fract_x
 _atom_site_fract_y
 _atom_site_fract_z
 _atom_site_occupancy
  Fe  Fe0  1  0.495765  0.671309  0.161997  1
  Fe  Fe1  1  0.506008  0.002046  0.515849  1
  Fe  Fe2  1  0.537552  0.317719  0.822402  1
  Fe  Fe3  1  0.983743  0.647813  0.668211  1
  Fe  Fe4  1  0.985534  0.336993  0.344672  1
  Fe  Fe5  1  0.994625  0.011247  0.988114  1
  O  O6  1  0.793928  0.445669  0.636427  1
  O  O7  1  0.689304  0.106179  0.806529  1
  F  F8  1  0.810500  0.753987  0.957579  1
  F  F9  1  0.802602  0.099762  0.303426  1
  F  F10  1  0.711414  0.765109  0.466041  1
  F  F11  1  0.691858  0.432125  0.121932  1
  F  F12  1  0.297924  0.561541  0.860102  1
  F  F13  1  0.296264  0.242286  0.543525  1
  F  F14  1  0.299227  0.904203  0.199225  1
  F  F15  1  0.212449  0.248057  0.036210  1
  F  F16  1  0.197663  0.578985  0.373639  1
  F  F17  1  0.193640  0.874976  0.694118  1
