# generated using pymatgen
data_TiO2
_symmetry_space_group_name_H-M   'P 1'
_cell_length_a   9.59644587
_cell_length_b   11.04782143
_cell_length_c   3.01680616
_cell_angle_alpha   89.87146669
_cell_angle_beta   89.96022430
_cell_angle_gamma   89.98269227
_symmetry_Int_Tables_number   1
_chemical_formula_structural   TiO2
_chemical_formula_sum   'Ti8 O16'
_cell_volume   319.84035031
_cell_formula_units_Z   8
loop_
 _symmetry_equiv_pos_site_id
 _symmetry_equiv_pos_as_xyz
  1  'x, y, z'
loop_
 _atom_site_type_symbol
 _atom_site_label
 _atom_site_symmetry_multiplicity
 _atom_site_fract_x
 _atom_site_fract_y
 _atom_site_fract_z
 _atom_site_occupancy
  Ti  Ti0  1  0.017213  0.130588  0.250007  1
  Ti  Ti1  1  0.235833  0.343476  0.747581  1
  Ti  Ti2  1  0.264337  0.844027  0.251959  1
  Ti  Ti3  1  0.482193  0.630098  0.749654  1
  Ti  Ti4  1  0.517265  0.367251  0.249327  1
  Ti  Ti5  1  0.736166  0.153821  0.747618  1
  Ti  Ti6  1  0.764296  0.653885  0.251133  1
  Ti  Ti7  1  0.982532  0.867241  0.749661  1
  O  O8  1  0.094969  0.954567  0.249622  1
  O  O9  1  0.124677  0.187868  0.749143  1
  O  O10  1  0.132899  0.767709  0.752975  1
  O  O11  1  0.150585  0.404765  0.247825  1
  O  O12  1  0.348320  0.906636  0.749934  1
  O  O13  1  0.367029  0.267499  0.252775  1
  O  O14  1  0.373495  0.687433  0.250697  1
  O  O15  1  0.404453  0.454483  0.749366  1
  O  O16  1  0.594551  0.543322  0.250440  1
  O  O17  1  0.624563  0.309421  0.749741  1
  O  O18  1  0.632816  0.729518  0.751771  1
  O  O19  1  0.650628  0.093127  0.249107  1
  O  O20  1  0.847968  0.590626  0.750252  1
  O  O21  1  0.867192  0.230489  0.252417  1
  O  O22  1  0.873358  0.810600  0.250672  1
  O  O23  1  0.904637  0.043000  0.749364  1
