# generated using pymatgen
data_Li12MnV3P4(CO7)4
_symmetry_space_group_name_H-M   'P 1'
_cell_length_a   8.50343702
_cell_length_b   10.01419878
_cell_length_c   6.62461306
_cell_angle_alpha   90.00000000
_cell_angle_beta   90.00000000
_cell_angle_gamma   85.00857326
_symmetry_Int_Tables_number   1
_chemical_formula_structural   Li12MnV3P4(CO7)4
_chemical_formula_sum   'Li12 Mn1 V3 P4 C4 O28'
_cell_volume   561.98034922
_cell_formula_units_Z   1
loop_
 _symmetry_equiv_pos_site_id
 _symmetry_equiv_pos_as_xyz
  1  'x, y, z'
loop_
 _atom_site_type_symbol
 _atom_site_label
 _atom_site_symmetry_multiplicity
 _atom_site_fract_x
 _atom_site_fract_y
 _atom_site_fract_z
 _atom_site_occupancy
  Li  Li0  1  0.097081  0.381572  0.250000  1
  Li  Li1  1  0.092873  0.881364  0.250000  1
  Li  Li2  1  0.278146  0.124461  0.026396  1
  Li  Li3  1  0.278146  0.124461  0.473604  1
  Li  Li4  1  0.275983  0.623598  0.026631  1
  Li  Li5  1  0.275983  0.623598  0.473369  1
  Li  Li6  1  0.722312  0.376000  0.525257  1
  Li  Li7  1  0.722312  0.376000  0.974743  1
  Li  Li8  1  0.722935  0.876692  0.527300  1
  Li  Li9  1  0.722935  0.876692  0.972700  1
  Li  Li10  1  0.904916  0.117629  0.750000  1
  Li  Li11  1  0.905356  0.617434  0.750000  1
  Mn  Mn12  1  0.660456  0.610240  0.250000  1
  V  V13  1  0.330119  0.395967  0.750000  1
  V  V14  1  0.329950  0.896422  0.750000  1
  V  V15  1  0.670110  0.103101  0.250000  1
  P  P16  1  0.412301  0.358894  0.250000  1
  P  P17  1  0.408731  0.861882  0.250000  1
  P  P18  1  0.588934  0.139990  0.750000  1
  P  P19  1  0.589077  0.639646  0.750000  1
  C  C20  1  0.035548  0.349391  0.750000  1
  C  C21  1  0.035541  0.849603  0.750000  1
  C  C22  1  0.964629  0.150369  0.250000  1
  C  C23  1  0.967131  0.648960  0.250000  1
  O  O24  1  0.075268  0.472099  0.750000  1
  O  O25  1  0.110440  0.177451  0.250000  1
  O  O26  1  0.075015  0.972289  0.750000  1
  O  O27  1  0.148516  0.252643  0.750000  1
  O  O28  1  0.113060  0.678340  0.250000  1
  O  O29  1  0.148629  0.752871  0.750000  1
  O  O30  1  0.309983  0.412113  0.067586  1
  O  O31  1  0.309983  0.412113  0.432414  1
  O  O32  1  0.307908  0.915180  0.067064  1
  O  O33  1  0.307908  0.915180  0.432936  1
  O  O34  1  0.422163  0.089564  0.750000  1
  O  O35  1  0.430270  0.202021  0.250000  1
  O  O36  1  0.422212  0.589377  0.750000  1
  O  O37  1  0.424772  0.705119  0.250000  1
  O  O38  1  0.569534  0.296631  0.750000  1
  O  O39  1  0.579752  0.408585  0.250000  1
  O  O40  1  0.569681  0.796401  0.750000  1
  O  O41  1  0.578040  0.908318  0.250000  1
  O  O42  1  0.691599  0.087070  0.932483  1
  O  O43  1  0.691599  0.087070  0.567517  1
  O  O44  1  0.691197  0.587186  0.566739  1
  O  O45  1  0.691197  0.587186  0.933261  1
  O  O46  1  0.851197  0.246892  0.250000  1
  O  O47  1  0.889320  0.322380  0.750000  1
  O  O48  1  0.854203  0.745978  0.250000  1
  O  O49  1  0.924765  0.027555  0.250000  1
  O  O50  1  0.889380  0.822429  0.750000  1
  O  O51  1  0.930901  0.525994  0.250000  1
