# generated using pymatgen
data_BaTbMn2O5
_symmetry_space_group_name_H-M   'P 1'
_cell_length_a   5.63622119
_cell_length_b   5.63620696
_cell_length_c   7.82875410
_cell_angle_alpha   89.99988880
_cell_angle_beta   90.00004209
_cell_angle_gamma   89.99997164
_symmetry_Int_Tables_number   1
_chemical_formula_structural   BaTbMn2O5
_chemical_formula_sum   'Ba2 Tb2 Mn4 O10'
_cell_volume   248.69531985
_cell_formula_units_Z   2
loop_
 _symmetry_equiv_pos_site_id
 _symmetry_equiv_pos_as_xyz
  1  'x, y, z'
loop_
 _atom_site_type_symbol
 _atom_site_label
 _atom_site_symmetry_multiplicity
 _atom_site_fract_x
 _atom_site_fract_y
 _atom_site_fract_z
 _atom_site_occupancy
  Tb  Tb0  1  0.750003  0.250001  0.500007  1
  Tb  Tb1  1  0.249999  0.749997  0.500007  1
  Ba  Ba2  1  0.750006  0.250006  0.000008  1
  Ba  Ba3  1  0.249996  0.750001  0.000002  1
  Mn  Mn4  1  0.750024  0.749994  0.265265  1
  Mn  Mn5  1  0.249993  0.250001  0.734700  1
  Mn  Mn6  1  0.749977  0.749969  0.733594  1
  Mn  Mn7  1  0.250001  0.250004  0.266428  1
  O  O8  1  0.999576  0.999577  0.680546  1
  O  O9  1  0.500416  0.999580  0.680547  1
  O  O10  1  0.999580  0.500419  0.680543  1
  O  O11  1  0.500420  0.500420  0.680544  1
  O  O12  1  0.000435  0.000439  0.319448  1
  O  O13  1  0.499568  0.000439  0.319450  1
  O  O14  1  0.000442  0.499573  0.319447  1
  O  O15  1  0.499557  0.499565  0.319450  1
  O  O16  1  0.749998  0.750005  0.999642  1
  O  O17  1  0.250010  0.250009  0.000371  1
