# generated using pymatgen
data_LiVSiO4
_symmetry_space_group_name_H-M   'P 1'
_cell_length_a   10.06500637
_cell_length_b   10.25953686
_cell_length_c   16.50960147
_cell_angle_alpha   82.14979856
_cell_angle_beta   90.00000000
_cell_angle_gamma   60.62526236
_symmetry_Int_Tables_number   1
_chemical_formula_structural   LiVSiO4
_chemical_formula_sum   'Li16 V16 Si16 O64'
_cell_volume   1467.26976888
_cell_formula_units_Z   16
loop_
 _symmetry_equiv_pos_site_id
 _symmetry_equiv_pos_as_xyz
  1  'x, y, z'
loop_
 _atom_site_type_symbol
 _atom_site_label
 _atom_site_symmetry_multiplicity
 _atom_site_fract_x
 _atom_site_fract_y
 _atom_site_fract_z
 _atom_site_occupancy
  Li  Li0  1  0.808931  0.988222  0.997583  1
  Li  Li1  1  0.202847  0.988222  0.497583  1
  Li  Li2  1  0.575932  0.721123  0.746606  1
  Li  Li3  1  0.075654  0.663257  0.749207  1
  Li  Li4  1  0.309948  0.549276  0.998764  1
  Li  Li5  1  0.702944  0.721123  0.246606  1
  Li  Li6  1  0.807848  0.487151  0.996871  1
  Li  Li7  1  0.261089  0.663257  0.249207  1
  Li  Li8  1  0.140776  0.549276  0.498764  1
  Li  Li9  1  0.705002  0.487151  0.496871  1
  Li  Li10  1  0.567886  0.227646  0.747954  1
  Li  Li11  1  0.081866  0.156135  0.746175  1
  Li  Li12  1  0.309235  0.050534  0.997699  1
  Li  Li13  1  0.204469  0.227646  0.247954  1
  Li  Li14  1  0.761999  0.156135  0.246175  1
  Li  Li15  1  0.640231  0.050534  0.497699  1
  V  V16  1  0.270440  0.848500  0.870393  1
  V  V17  1  0.771740  0.782040  0.870376  1
  V  V18  1  0.881061  0.848500  0.370393  1
  V  V19  1  0.446220  0.782040  0.370376  1
  V  V20  1  0.321663  0.674228  0.620497  1
  V  V21  1  0.882355  0.610142  0.620610  1
  V  V22  1  0.004108  0.674228  0.120497  1
  V  V23  1  0.507502  0.610142  0.120610  1
  V  V24  1  0.273410  0.347719  0.871198  1
  V  V25  1  0.770245  0.283038  0.868503  1
  V  V26  1  0.378871  0.347719  0.371198  1
  V  V27  1  0.946717  0.283038  0.368503  1
  V  V28  1  0.822127  0.169471  0.620155  1
  V  V29  1  0.383705  0.113595  0.620050  1
  V  V30  1  0.008402  0.169471  0.120155  1
  V  V31  1  0.502700  0.113595  0.120050  1
  Si  Si32  1  0.916424  0.982279  0.809559  1
  Si  Si33  1  0.101297  0.982279  0.309559  1
  Si  Si34  1  0.980521  0.852013  0.560097  1
  Si  Si35  1  0.537898  0.796287  0.558925  1
  Si  Si36  1  0.167467  0.852013  0.060097  1
  Si  Si37  1  0.665815  0.796287  0.058925  1
  Si  Si38  1  0.418610  0.540066  0.811307  1
  Si  Si39  1  0.919763  0.477562  0.809669  1
  Si  Si40  1  0.041324  0.540066  0.311307  1
  Si  Si41  1  0.602675  0.477562  0.309669  1
  Si  Si42  1  0.480230  0.354840  0.560259  1
  Si  Si43  1  0.039111  0.293775  0.558170  1
  Si  Si44  1  0.164929  0.354840  0.060259  1
  Si  Si45  1  0.667114  0.293775  0.058170  1
  Si  Si46  1  0.420143  0.036320  0.811221  1
  Si  Si47  1  0.543537  0.036320  0.311221  1
  O  O48  1  0.335631  0.993471  0.887362  1
  O  O49  1  0.087312  0.962350  0.797392  1
  O  O50  1  0.586217  0.889320  0.799678  1
  O  O51  1  0.747637  0.834569  0.979748  1
  O  O52  1  0.670898  0.993471  0.387362  1
  O  O53  1  0.547674  0.946359  0.575535  1
  O  O54  1  0.242142  0.773822  0.978599  1
  O  O55  1  0.930124  0.814252  0.821481  1
  O  O56  1  0.950339  0.962350  0.297392  1
  O  O57  1  0.137975  0.859715  0.575441  1
  O  O58  1  0.524463  0.889320  0.299678  1
  O  O59  1  0.417793  0.834569  0.479748  1
  O  O60  1  0.505967  0.946359  0.075535  1
  O  O61  1  0.470029  0.739406  0.638832  1
  O  O62  1  0.970149  0.736952  0.636948  1
  O  O63  1  0.440454  0.682955  0.828389  1
  O  O64  1  0.984035  0.773822  0.478599  1
  O  O65  1  0.255624  0.814252  0.321481  1
  O  O66  1  0.002310  0.859715  0.075441  1
  O  O67  1  0.709871  0.661695  0.544751  1
  O  O68  1  0.840559  0.565952  0.887778  1
  O  O69  1  0.298238  0.594636  0.729794  1
  O  O70  1  0.808015  0.587079  0.727219  1
  O  O71  1  0.790566  0.739406  0.138832  1
  O  O72  1  0.292899  0.736952  0.136948  1
  O  O73  1  0.876591  0.682955  0.328389  1
  O  O74  1  0.339896  0.491156  0.888716  1
  O  O75  1  0.089328  0.462300  0.798961  1
  O  O76  1  0.337537  0.529867  0.550205  1
  O  O77  1  0.628434  0.661695  0.044751  1
  O  O78  1  0.593489  0.565952  0.387778  1
  O  O79  1  0.107125  0.594636  0.229794  1
  O  O80  1  0.604904  0.587079  0.227219  1
  O  O81  1  0.583131  0.393219  0.797852  1
  O  O82  1  0.745126  0.335108  0.978126  1
  O  O83  1  0.168948  0.491156  0.388716  1
  O  O84  1  0.047158  0.443827  0.576498  1
  O  O85  1  0.244776  0.274709  0.979999  1
  O  O86  1  0.934886  0.309143  0.822729  1
  O  O87  1  0.448374  0.462300  0.298961  1
  O  O88  1  0.132596  0.529867  0.050205  1
  O  O89  1  0.640468  0.357462  0.574411  1
  O  O90  1  0.023650  0.393219  0.297852  1
  O  O91  1  0.919766  0.335108  0.478126  1
  O  O92  1  0.509014  0.443827  0.076498  1
  O  O93  1  0.466878  0.244319  0.638737  1
  O  O94  1  0.972156  0.231787  0.636382  1
  O  O95  1  0.480515  0.274709  0.479999  1
  O  O96  1  0.439707  0.180651  0.828207  1
  O  O97  1  0.755971  0.309143  0.322729  1
  O  O98  1  0.002069  0.357462  0.074411  1
  O  O99  1  0.212286  0.160929  0.544517  1
  O  O100  1  0.843157  0.066275  0.889871  1
  O  O101  1  0.797186  0.100490  0.731298  1
  O  O102  1  0.310339  0.081964  0.726192  1
  O  O103  1  0.288803  0.244319  0.138737  1
  O  O104  1  0.796056  0.231787  0.136382  1
  O  O105  1  0.379642  0.180651  0.328207  1
  O  O106  1  0.626785  0.160929  0.044517  1
  O  O107  1  0.835302  0.025160  0.550998  1
  O  O108  1  0.090569  0.066275  0.389871  1
  O  O109  1  0.102325  0.100490  0.231298  1
  O  O110  1  0.607698  0.081964  0.226192  1
  O  O111  1  0.139538  0.025160  0.050998  1
