# generated using pymatgen
data_Dy2Co3Ge5
_symmetry_space_group_name_H-M   'P 1'
_cell_length_a   8.08181313
_cell_length_b   8.08040205
_cell_length_c   5.71950538
_cell_angle_alpha   70.51243051
_cell_angle_beta   109.49069589
_cell_angle_gamma   86.21481388
_symmetry_Int_Tables_number   1
_chemical_formula_structural   Dy2Co3Ge5
_chemical_formula_sum   'Dy4 Co6 Ge10'
_cell_volume   325.25911267
_cell_formula_units_Z   2
loop_
 _symmetry_equiv_pos_site_id
 _symmetry_equiv_pos_as_xyz
  1  'x, y, z'
loop_
 _atom_site_type_symbol
 _atom_site_label
 _atom_site_symmetry_multiplicity
 _atom_site_fract_x
 _atom_site_fract_y
 _atom_site_fract_z
 _atom_site_occupancy
  Dy  Dy0  1  0.591795  0.127755  0.732924  1
  Dy  Dy1  1  0.127722  0.591763  0.767099  1
  Dy  Dy2  1  0.872277  0.408238  0.232900  1
  Dy  Dy3  1  0.408206  0.872245  0.267077  1
  Co  Co4  1  0.997035  0.997013  0.750013  1
  Co  Co5  1  0.002965  0.002987  0.249987  1
  Co  Co6  1  0.737724  0.543447  0.620265  1
  Co  Co7  1  0.456583  0.262257  0.120315  1
  Co  Co8  1  0.262275  0.456554  0.379734  1
  Co  Co9  1  0.543417  0.737743  0.879686  1
  Ge  Ge10  1  0.490496  0.490483  0.749980  1
  Ge  Ge11  1  0.509505  0.509516  0.250021  1
  Ge  Ge12  1  0.226467  0.226489  0.749954  1
  Ge  Ge13  1  0.773533  0.773511  0.250046  1
  Ge  Ge14  1  0.921093  0.261877  0.826926  1
  Ge  Ge15  1  0.261825  0.921116  0.672998  1
  Ge  Ge16  1  0.213155  0.213241  0.250013  1
  Ge  Ge17  1  0.786845  0.786758  0.749988  1
  Ge  Ge18  1  0.738175  0.078884  0.327003  1
  Ge  Ge19  1  0.078907  0.738123  0.173075  1
