# generated using pymatgen
data_K2TaCuSe4
_symmetry_space_group_name_H-M   'P 1'
_cell_length_a   5.77350720
_cell_length_b   7.48871467
_cell_length_c   12.55419591
_cell_angle_alpha   84.91470424
_cell_angle_beta   76.70626470
_cell_angle_gamma   67.32642549
_symmetry_Int_Tables_number   1
_chemical_formula_structural   K2TaCuSe4
_chemical_formula_sum   'K4 Ta2 Cu2 Se8'
_cell_volume   487.42503431
_cell_formula_units_Z   2
loop_
 _symmetry_equiv_pos_site_id
 _symmetry_equiv_pos_as_xyz
  1  'x, y, z'
loop_
 _atom_site_type_symbol
 _atom_site_label
 _atom_site_symmetry_multiplicity
 _atom_site_fract_x
 _atom_site_fract_y
 _atom_site_fract_z
 _atom_site_occupancy
  K  K0  1  0.804694  0.750000  0.390612  1
  K  K1  1  0.445306  0.750000  0.109388  1
  K  K2  1  0.195306  0.250000  0.609388  1
  K  K3  1  0.554694  0.250000  0.890612  1
  Cu  Cu4  1  0.875000  0.250000  0.250000  1
  Cu  Cu5  1  0.125000  0.750000  0.750000  1
  Se  Se6  1  0.459558  0.454027  0.363671  1
  Se  Se7  1  0.222745  0.954027  0.863671  1
  Se  Se8  1  0.913584  0.545973  0.863671  1
  Se  Se9  1  0.823229  0.954027  0.636329  1
  Se  Se10  1  0.086416  0.454027  0.136329  1
  Se  Se11  1  0.176771  0.045973  0.363671  1
  Se  Se12  1  0.540442  0.545973  0.636329  1
  Se  Se13  1  0.777255  0.045973  0.136329  1
  Ta  Ta14  1  0.625000  0.750000  0.750000  1
  Ta  Ta15  1  0.375000  0.250000  0.250000  1
