# generated using pymatgen
data_Li9Si2Ni5O16
_symmetry_space_group_name_H-M   'P 1'
_cell_length_a   5.03424699
_cell_length_b   11.11361784
_cell_length_c   4.89447944
_cell_angle_alpha   94.53549529
_cell_angle_beta   80.01557113
_cell_angle_gamma   99.08777159
_symmetry_Int_Tables_number   1
_chemical_formula_structural   Li9Si2Ni5O16
_chemical_formula_sum   'Li9 Si2 Ni5 O16'
_cell_volume   265.93064756
_cell_formula_units_Z   1
loop_
 _symmetry_equiv_pos_site_id
 _symmetry_equiv_pos_as_xyz
  1  'x, y, z'
loop_
 _atom_site_type_symbol
 _atom_site_label
 _atom_site_symmetry_multiplicity
 _atom_site_fract_x
 _atom_site_fract_y
 _atom_site_fract_z
 _atom_site_occupancy
  Li  Li0  1  0.989677  0.997626  0.007964  1
  Li  Li1  1  0.125182  0.122392  0.486291  1
  Li  Li2  1  0.246590  0.252634  0.010197  1
  Li  Li3  1  0.382887  0.375225  0.507895  1
  Li  Li4  1  0.492113  0.499775  0.992105  1
  Li  Li5  1  0.628410  0.622366  0.489803  1
  Li  Li6  1  0.749818  0.752608  0.013709  1
  Li  Li7  1  0.885323  0.877374  0.492036  1
  Li  Li8  1  0.437500  0.937500  0.250000  1
  Si  Si9  1  0.554835  0.056794  0.751381  1
  Si  Si10  1  0.320165  0.818206  0.748619  1
  Ni  Ni11  1  0.678830  0.180062  0.251078  1
  Ni  Ni12  1  0.808725  0.309957  0.751510  1
  Ni  Ni13  1  0.066275  0.565043  0.748490  1
  Ni  Ni14  1  0.937500  0.437500  0.250000  1
  Ni  Ni15  1  0.196170  0.694938  0.248922  1
  O  O16  1  0.377544  0.092912  0.092501  1
  O  O17  1  0.755169  0.039058  0.408037  1
  O  O18  1  0.996526  0.271127  0.362754  1
  O  O19  1  0.851319  0.140424  0.886137  1
  O  O20  1  0.477382  0.193570  0.615909  1
  O  O21  1  0.143082  0.407320  0.893863  1
  O  O22  1  0.601884  0.329196  0.143930  1
  O  O23  1  0.731918  0.467680  0.606137  1
  O  O24  1  0.273116  0.545804  0.356070  1
  O  O25  1  0.397618  0.681430  0.884091  1
  O  O26  1  0.878474  0.603873  0.137246  1
  O  O27  1  0.119831  0.835942  0.091963  1
  O  O28  1  0.497456  0.782088  0.407499  1
  O  O29  1  0.023681  0.734576  0.613863  1
  O  O30  1  0.251096  0.963990  0.657497  1
  O  O31  1  0.623904  0.911010  0.842503  1
