# generated using pymatgen
data_Li3Cr4(PO4)6
_symmetry_space_group_name_H-M   'P 1'
_cell_length_a   8.54965927
_cell_length_b   8.64311825
_cell_length_c   8.58943021
_cell_angle_alpha   60.76528651
_cell_angle_beta   59.97268776
_cell_angle_gamma   89.77277051
_symmetry_Int_Tables_number   1
_chemical_formula_structural   Li3Cr4(PO4)6
_chemical_formula_sum   'Li3 Cr4 P6 O24'
_cell_volume   454.60751470
_cell_formula_units_Z   1
loop_
 _symmetry_equiv_pos_site_id
 _symmetry_equiv_pos_as_xyz
  1  'x, y, z'
loop_
 _atom_site_type_symbol
 _atom_site_label
 _atom_site_symmetry_multiplicity
 _atom_site_fract_x
 _atom_site_fract_y
 _atom_site_fract_z
 _atom_site_occupancy
  Li  Li0  1  0.350277  0.557959  0.619638  1
  Li  Li1  1  0.030384  0.054594  0.613764  1
  Li  Li2  1  0.741332  0.339256  0.365793  1
  Cr  Cr3  1  0.848915  0.575241  0.789239  1
  Cr  Cr4  1  0.355022  0.073284  0.795874  1
  Cr  Cr5  1  0.646000  0.929151  0.201453  1
  Cr  Cr6  1  0.153825  0.432274  0.201147  1
  P  P7  1  0.528610  0.741839  0.720083  1
  P  P8  1  0.249306  0.759757  0.278676  1
  P  P9  1  0.752946  0.243233  0.721007  1
  P  P10  1  0.035612  0.252550  0.000150  1
  P  P11  1  0.475391  0.256828  0.277514  1
  P  P12  1  0.957665  0.752564  0.999670  1
  O  O13  1  0.119403  0.932843  0.870629  1
  O  O14  1  0.010652  0.441080  0.864255  1
  O  O15  1  0.484868  0.896353  0.758021  1
  O  O16  1  0.061932  0.713202  0.483706  1
  O  O17  1  0.369318  0.550885  0.901883  1
  O  O18  1  0.232287  0.264728  0.821708  1
  O  O19  1  0.288009  0.952607  0.087282  1
  O  O20  1  0.548721  0.778332  0.515621  1
  O  O21  1  0.722756  0.734610  0.692573  1
  O  O22  1  0.944774  0.764682  0.819141  1
  O  O23  1  0.407562  0.758851  0.320655  1
  O  O24  1  0.248874  0.611111  0.230154  1
  O  O25  1  0.758202  0.394236  0.764329  1
  O  O26  1  0.041854  0.248843  0.178412  1
  O  O27  1  0.596844  0.243559  0.679299  1
  O  O28  1  0.277097  0.256670  0.322233  1
  O  O29  1  0.726437  0.049948  0.903544  1
  O  O30  1  0.473109  0.218328  0.474774  1
  O  O31  1  0.766334  0.749023  0.174454  1
  O  O32  1  0.634573  0.448138  0.089100  1
  O  O33  1  0.939334  0.279494  0.516233  1
  O  O34  1  0.520454  0.101857  0.238732  1
  O  O35  1  0.982604  0.567446  0.132962  1
  O  O36  1  0.876384  0.077220  0.116201  1
