# generated using pymatgen
data_LiNi4(PO4)3
_symmetry_space_group_name_H-M   'P 1'
_cell_length_a   8.53756419
_cell_length_b   8.53756419
_cell_length_c   6.51220650
_cell_angle_alpha   73.83337441
_cell_angle_beta   106.16662559
_cell_angle_gamma   85.17035508
_symmetry_Int_Tables_number   1
_chemical_formula_structural   LiNi4(PO4)3
_chemical_formula_sum   'Li2 Ni8 P6 O24'
_cell_volume   431.09483702
_cell_formula_units_Z   2
loop_
 _symmetry_equiv_pos_site_id
 _symmetry_equiv_pos_as_xyz
  1  'x, y, z'
loop_
 _atom_site_type_symbol
 _atom_site_label
 _atom_site_symmetry_multiplicity
 _atom_site_fract_x
 _atom_site_fract_y
 _atom_site_fract_z
 _atom_site_occupancy
  Li  Li0  1  0.999427  0.999427  0.750000  1
  Li  Li1  1  0.000573  0.000573  0.250000  1
  Ni  Ni2  1  0.053427  0.628928  0.622964  1
  Ni  Ni3  1  0.371072  0.946573  0.122964  1
  Ni  Ni4  1  0.495025  0.495025  0.750000  1
  Ni  Ni5  1  0.737464  0.737464  0.750000  1
  Ni  Ni6  1  0.262536  0.262536  0.250000  1
  Ni  Ni7  1  0.504975  0.504975  0.250000  1
  Ni  Ni8  1  0.628928  0.053427  0.877036  1
  Ni  Ni9  1  0.946573  0.371072  0.377036  1
  P  P10  1  0.337787  0.883140  0.620747  1
  P  P11  1  0.116860  0.662213  0.120747  1
  P  P12  1  0.290573  0.290573  0.750000  1
  P  P13  1  0.709427  0.709427  0.250000  1
  P  P14  1  0.883140  0.337787  0.879253  1
  P  P15  1  0.662213  0.116860  0.379253  1
  O  O16  1  0.161195  0.842925  0.600566  1
  O  O17  1  0.399114  0.959594  0.811050  1
  O  O18  1  0.157075  0.838805  0.100566  1
  O  O19  1  0.040406  0.600886  0.311050  1
  O  O20  1  0.675152  0.992918  0.612215  1
  O  O21  1  0.271935  0.477520  0.742703  1
  O  O22  1  0.475670  0.729905  0.671401  1
  O  O23  1  0.257640  0.187713  0.963635  1
  O  O24  1  0.187713  0.257640  0.536365  1
  O  O25  1  0.007082  0.324848  0.112215  1
  O  O26  1  0.522480  0.728065  0.242702  1
  O  O27  1  0.270095  0.524330  0.171401  1
  O  O28  1  0.729905  0.475670  0.828599  1
  O  O29  1  0.477520  0.271935  0.757297  1
  O  O30  1  0.992918  0.675152  0.887785  1
  O  O31  1  0.812287  0.742360  0.463635  1
  O  O32  1  0.742360  0.812287  0.036365  1
  O  O33  1  0.524330  0.270095  0.328599  1
  O  O34  1  0.728065  0.522480  0.257297  1
  O  O35  1  0.324848  0.007082  0.387785  1
  O  O36  1  0.959594  0.399114  0.688950  1
  O  O37  1  0.842925  0.161195  0.899434  1
  O  O38  1  0.600886  0.040406  0.188951  1
  O  O39  1  0.838805  0.157075  0.399434  1
