# generated using pymatgen
data_Yb4Br6O
_symmetry_space_group_name_H-M   'P 1'
_cell_length_a   9.46803482
_cell_length_b   9.46795390
_cell_length_c   7.18668924
_cell_angle_alpha   89.99894857
_cell_angle_beta   90.00052477
_cell_angle_gamma   119.99971372
_symmetry_Int_Tables_number   1
_chemical_formula_structural   Yb4Br6O
_chemical_formula_sum   'Yb8 Br12 O2'
_cell_volume   557.92616842
_cell_formula_units_Z   2
loop_
 _symmetry_equiv_pos_site_id
 _symmetry_equiv_pos_as_xyz
  1  'x, y, z'
loop_
 _atom_site_type_symbol
 _atom_site_label
 _atom_site_symmetry_multiplicity
 _atom_site_fract_x
 _atom_site_fract_y
 _atom_site_fract_z
 _atom_site_occupancy
  Yb  Yb0  1  0.203550  0.796448  0.002857  1
  Yb  Yb1  1  0.333312  0.666692  0.409930  1
  Yb  Yb2  1  0.203565  0.407137  0.002871  1
  Yb  Yb3  1  0.592864  0.796436  0.002873  1
  Yb  Yb4  1  0.407136  0.203572  0.502873  1
  Yb  Yb5  1  0.666688  0.333380  0.909930  1
  Yb  Yb6  1  0.796450  0.592898  0.502857  1
  Yb  Yb7  1  0.796435  0.203572  0.502871  1
  Br  Br8  1  0.137852  0.862139  0.384348  1
  Br  Br9  1  0.070645  0.535327  0.705707  1
  Br  Br10  1  0.137861  0.275721  0.384354  1
  Br  Br11  1  0.464676  0.929360  0.705699  1
  Br  Br12  1  0.464675  0.535329  0.705705  1
  Br  Br13  1  0.275711  0.137849  0.884345  1
  Br  Br14  1  0.724289  0.862138  0.384345  1
  Br  Br15  1  0.535324  0.464684  0.205699  1
  Br  Br16  1  0.862148  0.724288  0.884348  1
  Br  Br17  1  0.535325  0.070655  0.205705  1
  Br  Br18  1  0.929355  0.464683  0.205707  1
  Br  Br19  1  0.862139  0.137860  0.884354  1
  O  O20  1  0.333326  0.666679  0.100648  1
  O  O21  1  0.666674  0.333353  0.600648  1
