# generated using pymatgen
data_Fe3(OF2)2
_symmetry_space_group_name_H-M   'P 1'
_cell_length_a   4.81172943
_cell_length_b   7.91761794
_cell_length_c   5.74945263
_cell_angle_alpha   93.44505285
_cell_angle_beta   90.00000000
_cell_angle_gamma   90.00000000
_symmetry_Int_Tables_number   1
_chemical_formula_structural   Fe3(OF2)2
_chemical_formula_sum   'Fe6 O4 F8'
_cell_volume   218.64356994
_cell_formula_units_Z   2
loop_
 _symmetry_equiv_pos_site_id
 _symmetry_equiv_pos_as_xyz
  1  'x, y, z'
loop_
 _atom_site_type_symbol
 _atom_site_label
 _atom_site_symmetry_multiplicity
 _atom_site_fract_x
 _atom_site_fract_y
 _atom_site_fract_z
 _atom_site_occupancy
  Fe  Fe0  1  0.514724  0.665071  0.136431  1
  Fe  Fe1  1  0.508566  0.021382  0.485105  1
  Fe  Fe2  1  0.473921  0.341478  0.822224  1
  Fe  Fe3  1  0.014724  0.668262  0.696903  1
  Fe  Fe4  1  0.008566  0.311951  0.348229  1
  Fe  Fe5  1  0.973921  0.991855  0.011109  1
  O  O6  1  0.797852  0.758989  0.952958  1
  O  O7  1  0.800832  0.105936  0.305538  1
  O  O8  1  0.297852  0.574344  0.880375  1
  O  O9  1  0.300832  0.227397  0.527795  1
  F  F10  1  0.813601  0.439632  0.627950  1
  F  F11  1  0.693177  0.098379  0.789046  1
  F  F12  1  0.692007  0.766529  0.458638  1
  F  F13  1  0.705319  0.437137  0.148306  1
  F  F14  1  0.313601  0.893701  0.205384  1
  F  F15  1  0.193177  0.234954  0.044287  1
  F  F16  1  0.192007  0.566804  0.374696  1
  F  F17  1  0.205319  0.896196  0.685027  1
