# generated using pymatgen
data_Li5Fe(P2O7)2
_symmetry_space_group_name_H-M   'P 1'
_cell_length_a   8.71647806
_cell_length_b   9.19847612
_cell_length_c   7.01211190
_cell_angle_alpha   79.35164357
_cell_angle_beta   109.94608014
_cell_angle_gamma   100.53892683
_symmetry_Int_Tables_number   1
_chemical_formula_structural   Li5Fe(P2O7)2
_chemical_formula_sum   'Li10 Fe2 P8 O28'
_cell_volume   515.00258313
_cell_formula_units_Z   2
loop_
 _symmetry_equiv_pos_site_id
 _symmetry_equiv_pos_as_xyz
  1  'x, y, z'
loop_
 _atom_site_type_symbol
 _atom_site_label
 _atom_site_symmetry_multiplicity
 _atom_site_fract_x
 _atom_site_fract_y
 _atom_site_fract_z
 _atom_site_occupancy
  Li  Li0  1  0.179654  0.729775  0.690984  1
  Li  Li1  1  0.254523  0.420806  0.739268  1
  Li  Li2  1  0.270442  0.895635  0.240153  1
  Li  Li3  1  0.518883  0.856142  0.951617  1
  Li  Li4  1  0.486525  0.653852  0.578311  1
  Li  Li5  1  0.513475  0.346148  0.421689  1
  Li  Li6  1  0.481117  0.143858  0.048383  1
  Li  Li7  1  0.729558  0.104365  0.759847  1
  Li  Li8  1  0.745477  0.579194  0.260732  1
  Li  Li9  1  0.820346  0.270225  0.309016  1
  Fe  Fe10  1  0.139972  0.243198  0.140004  1
  Fe  Fe11  1  0.860028  0.756802  0.859996  1
  P  P12  1  0.109358  0.028457  0.825669  1
  P  P13  1  0.099378  0.549990  0.293322  1
  P  P14  1  0.341187  0.051032  0.593823  1
  P  P15  1  0.376829  0.568594  0.129374  1
  P  P16  1  0.623171  0.431406  0.870626  1
  P  P17  1  0.658813  0.948968  0.406177  1
  P  P18  1  0.900622  0.450010  0.706678  1
  P  P19  1  0.890642  0.971543  0.174331  1
  O  O20  1  0.051390  0.370327  0.826285  1
  O  O21  1  0.114554  0.857777  0.883169  1
  O  O22  1  0.063660  0.941130  0.233294  1
  O  O23  1  0.066457  0.380759  0.274603  1
  O  O24  1  0.233242  0.121160  0.993870  1
  O  O25  1  0.180701  0.579086  0.514607  1
  O  O26  1  0.176161  0.082581  0.633629  1
  O  O27  1  0.376618  0.654532  0.922298  1
  O  O28  1  0.321220  0.888800  0.558647  1
  O  O29  1  0.233199  0.628928  0.179796  1
  O  O30  1  0.336899  0.167247  0.403015  1
  O  O31  1  0.329485  0.398439  0.125580  1
  O  O32  1  0.490799  0.080071  0.784827  1
  O  O33  1  0.464954  0.408128  0.691769  1
  O  O34  1  0.535046  0.591872  0.308231  1
  O  O35  1  0.509201  0.919929  0.215173  1
  O  O36  1  0.670515  0.601561  0.874420  1
  O  O37  1  0.663101  0.832753  0.596985  1
  O  O38  1  0.766801  0.371072  0.820204  1
  O  O39  1  0.678780  0.111200  0.441353  1
  O  O40  1  0.623382  0.345468  0.077702  1
  O  O41  1  0.823839  0.917419  0.366371  1
  O  O42  1  0.819299  0.420914  0.485393  1
  O  O43  1  0.766758  0.878840  0.006130  1
  O  O44  1  0.933543  0.619240  0.725397  1
  O  O45  1  0.936340  0.058870  0.766706  1
  O  O46  1  0.885446  0.142223  0.116831  1
  O  O47  1  0.948610  0.629673  0.173715  1
