# generated using pymatgen
data_LiMnNbO4
_symmetry_space_group_name_H-M   'P 1'
_cell_length_a   6.22373581
_cell_length_b   6.22373581
_cell_length_c   8.78393991
_cell_angle_alpha   90.00000000
_cell_angle_beta   90.00000000
_cell_angle_gamma   90.00000000
_symmetry_Int_Tables_number   1
_chemical_formula_structural   LiMnNbO4
_chemical_formula_sum   'Li4 Mn4 Nb4 O16'
_cell_volume   340.24492363
_cell_formula_units_Z   4
loop_
 _symmetry_equiv_pos_site_id
 _symmetry_equiv_pos_as_xyz
  1  'x, y, z'
loop_
 _atom_site_type_symbol
 _atom_site_label
 _atom_site_symmetry_multiplicity
 _atom_site_fract_x
 _atom_site_fract_y
 _atom_site_fract_z
 _atom_site_occupancy
  Li  Li0  1  0.000000  0.226638  0.000000  1
  Li  Li1  1  0.000000  0.773362  0.500000  1
  Li  Li2  1  0.226638  0.000000  0.250000  1
  Li  Li3  1  0.773362  0.000000  0.750000  1
  Mn  Mn4  1  0.237565  0.500000  0.250000  1
  Mn  Mn5  1  0.500000  0.237565  0.000000  1
  Mn  Mn6  1  0.500000  0.762435  0.500000  1
  Mn  Mn7  1  0.762435  0.500000  0.750000  1
  Nb  Nb8  1  0.252275  0.252275  0.625000  1
  Nb  Nb9  1  0.252275  0.747725  0.875000  1
  Nb  Nb10  1  0.747725  0.252275  0.375000  1
  Nb  Nb11  1  0.747725  0.747725  0.125000  1
  O  O12  1  0.995073  0.250873  0.252241  1
  O  O13  1  0.995073  0.749127  0.247759  1
  O  O14  1  0.250873  0.995073  0.997759  1
  O  O15  1  0.250873  0.004927  0.502241  1
  O  O16  1  0.253526  0.498217  0.000401  1
  O  O17  1  0.253526  0.501783  0.499599  1
  O  O18  1  0.498217  0.253526  0.249599  1
  O  O19  1  0.498217  0.746474  0.250401  1
  O  O20  1  0.501783  0.253526  0.750401  1
  O  O21  1  0.501783  0.746474  0.749599  1
  O  O22  1  0.746474  0.501783  0.500401  1
  O  O23  1  0.746474  0.498217  0.999599  1
  O  O24  1  0.749127  0.995073  0.002241  1
  O  O25  1  0.749127  0.004927  0.497759  1
  O  O26  1  0.004927  0.250873  0.747759  1
  O  O27  1  0.004927  0.749127  0.752241  1
