# generated using pymatgen
data_LiMnPO4
_symmetry_space_group_name_H-M   'P 1'
_cell_length_a   15.65060480
_cell_length_b   5.17818391
_cell_length_c   8.89123766
_cell_angle_alpha   90.00000000
_cell_angle_beta   86.67477327
_cell_angle_gamma   90.00000000
_symmetry_Int_Tables_number   1
_chemical_formula_structural   LiMnPO4
_chemical_formula_sum   'Li8 Mn8 P8 O32'
_cell_volume   719.34794840
_cell_formula_units_Z   8
loop_
 _symmetry_equiv_pos_site_id
 _symmetry_equiv_pos_as_xyz
  1  'x, y, z'
loop_
 _atom_site_type_symbol
 _atom_site_label
 _atom_site_symmetry_multiplicity
 _atom_site_fract_x
 _atom_site_fract_y
 _atom_site_fract_z
 _atom_site_occupancy
  Li  Li0  1  0.997496  0.244321  0.203645  1
  Li  Li1  1  0.238524  0.267531  0.374656  1
  Li  Li2  1  0.261476  0.767531  0.625344  1
  Li  Li3  1  0.502504  0.744321  0.796355  1
  Li  Li4  1  0.497496  0.255679  0.203645  1
  Li  Li5  1  0.738524  0.232469  0.374656  1
  Li  Li6  1  0.761476  0.732469  0.625344  1
  Li  Li7  1  0.002504  0.755679  0.796355  1
  Mn  Mn8  1  0.079461  0.266931  0.578374  1
  Mn  Mn9  1  0.149845  0.739616  0.089387  1
  Mn  Mn10  1  0.350155  0.239616  0.910613  1
  Mn  Mn11  1  0.420539  0.766931  0.421626  1
  Mn  Mn12  1  0.579461  0.233069  0.578374  1
  Mn  Mn13  1  0.649845  0.760384  0.089387  1
  Mn  Mn14  1  0.850155  0.260384  0.910613  1
  Mn  Mn15  1  0.920539  0.733069  0.421626  1
  P  P16  1  0.112164  0.781158  0.435592  1
  P  P17  1  0.128442  0.245258  0.907815  1
  P  P18  1  0.371558  0.745258  0.092185  1
  P  P19  1  0.387836  0.281158  0.564408  1
  P  P20  1  0.612164  0.718842  0.435592  1
  P  P21  1  0.628442  0.254742  0.907815  1
  P  P22  1  0.871558  0.754742  0.092185  1
  P  P23  1  0.887836  0.218842  0.564408  1
  O  O24  1  0.031328  0.758599  0.548406  1
  O  O25  1  0.073005  0.392321  0.795094  1
  O  O26  1  0.087521  0.894189  0.284413  1
  O  O27  1  0.149631  0.505481  0.417599  1
  O  O28  1  0.175702  0.968862  0.511028  1
  O  O29  1  0.104223  0.952162  0.907901  1
  O  O30  1  0.109068  0.357285  0.069285  1
  O  O31  1  0.224330  0.285112  0.858056  1
  O  O32  1  0.275670  0.785112  0.141944  1
  O  O33  1  0.390932  0.857285  0.930715  1
  O  O34  1  0.395777  0.452162  0.092099  1
  O  O35  1  0.324298  0.468862  0.488972  1
  O  O36  1  0.350369  0.005481  0.582401  1
  O  O37  1  0.412479  0.394189  0.715587  1
  O  O38  1  0.426995  0.892321  0.204906  1
  O  O39  1  0.468672  0.258599  0.451594  1
  O  O40  1  0.531328  0.741401  0.548406  1
  O  O41  1  0.573005  0.107679  0.795094  1
  O  O42  1  0.587521  0.605811  0.284413  1
  O  O43  1  0.649631  0.994519  0.417599  1
  O  O44  1  0.675702  0.531138  0.511028  1
  O  O45  1  0.604223  0.547838  0.907901  1
  O  O46  1  0.609068  0.142715  0.069285  1
  O  O47  1  0.724330  0.214888  0.858056  1
  O  O48  1  0.775670  0.714888  0.141944  1
  O  O49  1  0.890932  0.642715  0.930715  1
  O  O50  1  0.895777  0.047838  0.092099  1
  O  O51  1  0.824298  0.031138  0.488972  1
  O  O52  1  0.850369  0.494519  0.582401  1
  O  O53  1  0.912479  0.105811  0.715587  1
  O  O54  1  0.926995  0.607679  0.204906  1
  O  O55  1  0.968672  0.241401  0.451594  1
