# generated using pymatgen
data_K3Bi(AsSe2)6
_symmetry_space_group_name_H-M   'P 1'
_cell_length_a   9.89219750
_cell_length_b   9.88923818
_cell_length_c   7.96230123
_cell_angle_alpha   89.98333034
_cell_angle_beta   90.00812269
_cell_angle_gamma   120.03950171
_symmetry_Int_Tables_number   1
_chemical_formula_structural   K3Bi(AsSe2)6
_chemical_formula_sum   'K3 Bi1 As6 Se12'
_cell_volume   674.29792994
_cell_formula_units_Z   1
loop_
 _symmetry_equiv_pos_site_id
 _symmetry_equiv_pos_as_xyz
  1  'x, y, z'
loop_
 _atom_site_type_symbol
 _atom_site_label
 _atom_site_symmetry_multiplicity
 _atom_site_fract_x
 _atom_site_fract_y
 _atom_site_fract_z
 _atom_site_occupancy
  K  K0  1  0.000000  0.000000  0.000000  1
  K  K1  1  0.332098  0.667860  0.834574  1
  K  K2  1  0.667901  0.332140  0.165426  1
  Bi  Bi3  1  0.000000  0.000000  0.500000  1
  As  As4  1  0.297040  0.842961  0.369041  1
  As  As5  1  0.157520  0.454540  0.368374  1
  As  As6  1  0.545594  0.702854  0.368520  1
  As  As7  1  0.702959  0.157039  0.630959  1
  As  As8  1  0.842480  0.545459  0.631627  1
  As  As9  1  0.454406  0.297145  0.631481  1
  Se  Se10  1  0.276001  0.063246  0.286334  1
  Se  Se11  1  0.937030  0.212799  0.286357  1
  Se  Se12  1  0.786975  0.723955  0.286271  1
  Se  Se13  1  0.723999  0.936754  0.713666  1
  Se  Se14  1  0.062969  0.787202  0.713643  1
  Se  Se15  1  0.213027  0.276045  0.713730  1
  Se  Se16  1  0.532446  0.905586  0.199586  1
  Se  Se17  1  0.094518  0.627427  0.199623  1
  Se  Se18  1  0.372678  0.467788  0.198605  1
  Se  Se19  1  0.467554  0.094413  0.800415  1
  Se  Se20  1  0.905482  0.372574  0.800376  1
  Se  Se21  1  0.627322  0.532211  0.801396  1
