# generated using pymatgen
data_Li4Mn3OF11
_symmetry_space_group_name_H-M   'P 1'
_cell_length_a   6.03948271
_cell_length_b   6.10919290
_cell_length_c   6.10469160
_cell_angle_alpha   100.76291336
_cell_angle_beta   99.96850115
_cell_angle_gamma   100.60633713
_symmetry_Int_Tables_number   1
_chemical_formula_structural   Li4Mn3OF11
_chemical_formula_sum   'Li4 Mn3 O1 F11'
_cell_volume   212.41806756
_cell_formula_units_Z   1
loop_
 _symmetry_equiv_pos_site_id
 _symmetry_equiv_pos_as_xyz
  1  'x, y, z'
loop_
 _atom_site_type_symbol
 _atom_site_label
 _atom_site_symmetry_multiplicity
 _atom_site_fract_x
 _atom_site_fract_y
 _atom_site_fract_z
 _atom_site_occupancy
  Li  Li0  1  0.130290  0.597981  0.324355  1
  Li  Li1  1  0.330561  0.148387  0.616000  1
  Li  Li2  1  0.603039  0.316276  0.123961  1
  Li  Li3  1  0.857764  0.403567  0.680064  1
  Mn  Mn4  1  0.421144  0.665615  0.855021  1
  Mn  Mn5  1  0.712424  0.887891  0.373699  1
  Mn  Mn6  1  0.996609  0.998355  0.009672  1
  O  O7  1  0.684014  0.877170  0.050575  1
  F  F8  1  0.098930  0.959982  0.342558  1
  F  F9  1  0.033706  0.703140  0.895841  1
  F  F10  1  0.439757  0.810435  0.600039  1
  F  F11  1  0.183877  0.433416  0.626449  1
  F  F12  1  0.382326  0.591010  0.147695  1
  F  F13  1  0.594239  0.401755  0.816829  1
  F  F14  1  0.297116  0.103143  0.953614  1
  F  F15  1  0.801893  0.606925  0.390340  1
  F  F16  1  0.604154  0.162355  0.392046  1
  F  F17  1  0.954699  0.294221  0.118891  1
  F  F18  1  0.873456  0.038377  0.682348  1
