# generated using pymatgen
data_Mn3O5F
_symmetry_space_group_name_H-M   'P 1'
_cell_length_a   10.17746145
_cell_length_b   6.42920724
_cell_length_c   3.01623518
_cell_angle_alpha   90.00000000
_cell_angle_beta   90.00000000
_cell_angle_gamma   108.45480268
_symmetry_Int_Tables_number   1
_chemical_formula_structural   Mn3O5F
_chemical_formula_sum   'Mn6 O10 F2'
_cell_volume   187.21177234
_cell_formula_units_Z   2
loop_
 _symmetry_equiv_pos_site_id
 _symmetry_equiv_pos_as_xyz
  1  'x, y, z'
loop_
 _atom_site_type_symbol
 _atom_site_label
 _atom_site_symmetry_multiplicity
 _atom_site_fract_x
 _atom_site_fract_y
 _atom_site_fract_z
 _atom_site_occupancy
  Mn  Mn0  1  0.014325  0.007312  0.000000  1
  Mn  Mn1  1  0.339547  0.152738  0.500000  1
  Mn  Mn2  1  0.999468  0.500483  0.500000  1
  Mn  Mn3  1  0.667967  0.332794  0.000000  1
  Mn  Mn4  1  0.328415  0.676328  0.000000  1
  Mn  Mn5  1  0.652220  0.825925  0.500000  1
  O  O6  1  0.136718  0.069904  0.500000  1
  O  O7  1  0.998897  0.304418  0.000000  1
  O  O8  1  0.998544  0.695363  0.000000  1
  O  O9  1  0.666073  0.025219  0.000000  1
  O  O10  1  0.538952  0.274166  0.500000  1
  O  O11  1  0.201807  0.599308  0.500000  1
  O  O12  1  0.457046  0.725935  0.500000  1
  O  O13  1  0.795391  0.397684  0.500000  1
  O  O14  1  0.666779  0.641346  0.000000  1
  O  O15  1  0.335110  0.970593  0.000000  1
  F  F16  1  0.333849  0.365747  0.000000  1
  F  F17  1  0.868892  0.934738  0.500000  1
