# generated using pymatgen
data_Mn6O7F5
_symmetry_space_group_name_H-M   'P 1'
_cell_length_a   4.62265636
_cell_length_b   5.68522020
_cell_length_c   15.29817073
_cell_angle_alpha   90.05685303
_cell_angle_beta   90.26115140
_cell_angle_gamma   87.77698722
_symmetry_Int_Tables_number   1
_chemical_formula_structural   Mn6O7F5
_chemical_formula_sum   'Mn12 O14 F10'
_cell_volume   401.74157919
_cell_formula_units_Z   2
loop_
 _symmetry_equiv_pos_site_id
 _symmetry_equiv_pos_as_xyz
  1  'x, y, z'
loop_
 _atom_site_type_symbol
 _atom_site_label
 _atom_site_symmetry_multiplicity
 _atom_site_fract_x
 _atom_site_fract_y
 _atom_site_fract_z
 _atom_site_occupancy
  Mn  Mn0  1  0.016682  0.153015  0.407368  1
  Mn  Mn1  1  0.018739  0.837629  0.242619  1
  Mn  Mn2  1  0.995750  0.153445  0.079002  1
  Mn  Mn3  1  0.019571  0.167097  0.751551  1
  Mn  Mn4  1  0.009286  0.825660  0.575504  1
  Mn  Mn5  1  0.042197  0.847941  0.914933  1
  Mn  Mn6  1  0.519597  0.375696  0.588816  1
  Mn  Mn7  1  0.478776  0.350828  0.925098  1
  Mn  Mn8  1  0.498725  0.364186  0.258860  1
  Mn  Mn9  1  0.500285  0.648605  0.086575  1
  Mn  Mn10  1  0.497711  0.654810  0.416391  1
  Mn  Mn11  1  0.484074  0.637083  0.752775  1
  O  O12  1  0.234363  0.115086  0.300835  1
  O  O13  1  0.219737  0.112490  0.972103  1
  O  O14  1  0.213057  0.881178  0.135045  1
  O  O15  1  0.221175  0.886745  0.465619  1
  O  O16  1  0.234888  0.882734  0.807544  1
  O  O17  1  0.272666  0.605106  0.310648  1
  O  O18  1  0.277903  0.608134  0.644944  1
  O  O19  1  0.283557  0.394350  0.812966  1
  O  O20  1  0.272377  0.614776  0.977033  1
  O  O21  1  0.713939  0.377971  0.029110  1
  O  O22  1  0.719650  0.609319  0.194885  1
  O  O23  1  0.719607  0.380009  0.362366  1
  O  O24  1  0.717041  0.620271  0.525804  1
  O  O25  1  0.729461  0.394551  0.695225  1
  F  F26  1  0.245440  0.111531  0.633699  1
  F  F27  1  0.257371  0.379481  0.151594  1
  F  F28  1  0.260157  0.380464  0.485673  1
  F  F29  1  0.744465  0.622370  0.859120  1
  F  F30  1  0.748005  0.124846  0.189673  1
  F  F31  1  0.766578  0.131134  0.525386  1
  F  F32  1  0.775053  0.878785  0.347612  1
  F  F33  1  0.771442  0.871668  0.015156  1
  F  F34  1  0.755988  0.115717  0.865056  1
  F  F35  1  0.764686  0.885288  0.693416  1
