# generated using pymatgen
data_Yb4MgPd
_symmetry_space_group_name_H-M   'P 1'
_cell_length_a   10.11902909
_cell_length_b   10.11902909
_cell_length_c   10.11902909
_cell_angle_alpha   120.00000000
_cell_angle_beta   90.00000000
_cell_angle_gamma   120.00000000
_symmetry_Int_Tables_number   1
_chemical_formula_structural   Yb4MgPd
_chemical_formula_sum   'Yb16 Mg4 Pd4'
_cell_volume   732.65840416
_cell_formula_units_Z   4
loop_
 _symmetry_equiv_pos_site_id
 _symmetry_equiv_pos_as_xyz
  1  'x, y, z'
loop_
 _atom_site_type_symbol
 _atom_site_label
 _atom_site_symmetry_multiplicity
 _atom_site_fract_x
 _atom_site_fract_y
 _atom_site_fract_z
 _atom_site_occupancy
  Yb  Yb0  1  0.343484  0.686968  0.030452  1
  Yb  Yb1  1  0.944987  0.500000  0.055013  1
  Yb  Yb2  1  0.555013  0.110028  0.055013  1
  Yb  Yb3  1  0.555013  0.500000  0.055013  1
  Yb  Yb4  1  0.808339  0.000000  0.191661  1
  Yb  Yb5  1  0.191662  0.000000  0.191662  1
  Yb  Yb6  1  0.191662  0.383322  0.191662  1
  Yb  Yb7  1  0.555013  0.500000  0.444986  1
  Yb  Yb8  1  0.944987  0.500000  0.444987  1
  Yb  Yb9  1  0.944987  0.889973  0.444987  1
  Yb  Yb10  1  0.343484  0.313031  0.656516  1
  Yb  Yb11  1  0.969547  0.313031  0.656516  1
  Yb  Yb12  1  0.343484  0.686968  0.656516  1
  Yb  Yb13  1  0.808339  0.000000  0.808339  1
  Yb  Yb14  1  0.191661  0.000000  0.808339  1
  Yb  Yb15  1  0.808339  0.616679  0.808339  1
  Mg  Mg16  1  0.578003  0.156005  0.421997  1
  Mg  Mg17  1  0.265993  0.843994  0.421997  1
  Mg  Mg18  1  0.578003  0.843994  0.421997  1
  Mg  Mg19  1  0.578003  0.156005  0.734007  1
  Pd  Pd20  1  0.139262  0.278525  0.417787  1
  Pd  Pd21  1  0.139262  0.278525  0.860738  1
  Pd  Pd22  1  0.139262  0.721475  0.860738  1
  Pd  Pd23  1  0.582212  0.721475  0.860738  1
