# generated using pymatgen
data_CaSnS3
_symmetry_space_group_name_H-M   'P 1'
_cell_length_a   3.84748815
_cell_length_b   8.53433803
_cell_length_c   13.66080976
_cell_angle_alpha   90.00000000
_cell_angle_beta   90.00000000
_cell_angle_gamma   90.00000000
_symmetry_Int_Tables_number   1
_chemical_formula_structural   CaSnS3
_chemical_formula_sum   'Ca4 Sn4 S12'
_cell_volume   448.56313132
_cell_formula_units_Z   4
loop_
 _symmetry_equiv_pos_site_id
 _symmetry_equiv_pos_as_xyz
  1  'x, y, z'
loop_
 _atom_site_type_symbol
 _atom_site_label
 _atom_site_symmetry_multiplicity
 _atom_site_fract_x
 _atom_site_fract_y
 _atom_site_fract_z
 _atom_site_occupancy
  Ca  Ca0  1  0.250000  0.968128  0.682960  1
  Ca  Ca1  1  0.250000  0.468128  0.817040  1
  Ca  Ca2  1  0.750000  0.031872  0.317040  1
  Ca  Ca3  1  0.750000  0.531872  0.182960  1
  Sn  Sn4  1  0.750000  0.322186  0.552640  1
  Sn  Sn5  1  0.750000  0.822186  0.947360  1
  Sn  Sn6  1  0.250000  0.677814  0.447360  1
  Sn  Sn7  1  0.250000  0.177814  0.052640  1
  S  S8  1  0.250000  0.514398  0.606958  1
  S  S9  1  0.250000  0.014398  0.893042  1
  S  S10  1  0.750000  0.485602  0.393042  1
  S  S11  1  0.750000  0.985602  0.106958  1
  S  S12  1  0.250000  0.143610  0.489920  1
  S  S13  1  0.250000  0.643610  0.010080  1
  S  S14  1  0.750000  0.856390  0.510080  1
  S  S15  1  0.750000  0.356390  0.989920  1
  S  S16  1  0.750000  0.214956  0.721676  1
  S  S17  1  0.750000  0.714956  0.778324  1
  S  S18  1  0.250000  0.785044  0.278324  1
  S  S19  1  0.250000  0.285044  0.221676  1
