# generated using pymatgen
data_Li2Mn(Si2O5)2
_symmetry_space_group_name_H-M   'P 1'
_cell_length_a   7.23225135
_cell_length_b   10.15256017
_cell_length_c   13.61500069
_cell_angle_alpha   90.00000000
_cell_angle_beta   84.20205874
_cell_angle_gamma   90.00000000
_symmetry_Int_Tables_number   1
_chemical_formula_structural   Li2Mn(Si2O5)2
_chemical_formula_sum   'Li8 Mn4 Si16 O40'
_cell_volume   994.57913820
_cell_formula_units_Z   4
loop_
 _symmetry_equiv_pos_site_id
 _symmetry_equiv_pos_as_xyz
  1  'x, y, z'
loop_
 _atom_site_type_symbol
 _atom_site_label
 _atom_site_symmetry_multiplicity
 _atom_site_fract_x
 _atom_site_fract_y
 _atom_site_fract_z
 _atom_site_occupancy
  Li  Li0  1  0.130276  0.682486  0.900100  1
  Li  Li1  1  0.190629  0.399969  0.247124  1
  Li  Li2  1  0.309371  0.899969  0.252876  1
  Li  Li3  1  0.369724  0.182486  0.599900  1
  Li  Li4  1  0.630276  0.817514  0.400100  1
  Li  Li5  1  0.690629  0.100031  0.747124  1
  Li  Li6  1  0.809371  0.600031  0.752876  1
  Li  Li7  1  0.869724  0.317514  0.099900  1
  Mn  Mn8  1  0.072495  0.630244  0.144992  1
  Mn  Mn9  1  0.427505  0.130244  0.355008  1
  Mn  Mn10  1  0.572495  0.869756  0.644992  1
  Mn  Mn11  1  0.927505  0.369756  0.855008  1
  Si  Si12  1  0.006846  0.758978  0.359762  1
  Si  Si13  1  0.973898  0.035120  0.336904  1
  Si  Si14  1  0.219854  0.490140  0.679147  1
  Si  Si15  1  0.242441  0.240361  0.962538  1
  Si  Si16  1  0.257559  0.740361  0.537462  1
  Si  Si17  1  0.280146  0.990140  0.820853  1
  Si  Si18  1  0.506846  0.741022  0.859762  1
  Si  Si19  1  0.473898  0.464880  0.836904  1
  Si  Si20  1  0.526102  0.535120  0.163096  1
  Si  Si21  1  0.493154  0.258978  0.140238  1
  Si  Si22  1  0.719854  0.009860  0.179147  1
  Si  Si23  1  0.742441  0.259639  0.462538  1
  Si  Si24  1  0.757559  0.759639  0.037462  1
  Si  Si25  1  0.780146  0.509860  0.320853  1
  Si  Si26  1  0.026102  0.964880  0.663096  1
  Si  Si27  1  0.993154  0.241022  0.640238  1
  O  O28  1  0.079329  0.963044  0.777911  1
  O  O29  1  0.126226  0.836284  0.611240  1
  O  O30  1  0.034735  0.301627  0.981476  1
  O  O31  1  0.059653  0.532016  0.766187  1
  O  O32  1  0.114341  0.103383  0.608768  1
  O  O33  1  0.111438  0.770638  0.250200  1
  O  O34  1  0.169079  0.346146  0.629108  1
  O  O35  1  0.247470  0.094874  0.911102  1
  O  O36  1  0.158078  0.722971  0.435922  1
  O  O37  1  0.252530  0.594874  0.588898  1
  O  O38  1  0.330921  0.846146  0.870892  1
  O  O39  1  0.307210  0.527972  0.157858  1
  O  O40  1  0.192790  0.027972  0.342142  1
  O  O41  1  0.341922  0.222971  0.064078  1
  O  O42  1  0.385659  0.603383  0.891232  1
  O  O43  1  0.440347  0.032016  0.733813  1
  O  O44  1  0.465265  0.801627  0.518524  1
  O  O45  1  0.373774  0.336284  0.888760  1
  O  O46  1  0.420671  0.463044  0.722089  1
  O  O47  1  0.388562  0.270638  0.249800  1
  O  O48  1  0.611438  0.729362  0.750200  1
  O  O49  1  0.579329  0.536956  0.277911  1
  O  O50  1  0.626226  0.663716  0.111240  1
  O  O51  1  0.534735  0.198373  0.481476  1
  O  O52  1  0.559653  0.967984  0.266187  1
  O  O53  1  0.614341  0.396617  0.108768  1
  O  O54  1  0.658078  0.777029  0.935922  1
  O  O55  1  0.807210  0.972028  0.657858  1
  O  O56  1  0.692790  0.472028  0.842142  1
  O  O57  1  0.669079  0.153854  0.129108  1
  O  O58  1  0.747470  0.405126  0.411102  1
  O  O59  1  0.841922  0.277029  0.564078  1
  O  O60  1  0.752530  0.905126  0.088898  1
  O  O61  1  0.830921  0.653854  0.370892  1
  O  O62  1  0.888562  0.229362  0.749800  1
  O  O63  1  0.885659  0.896617  0.391232  1
  O  O64  1  0.940347  0.467984  0.233813  1
  O  O65  1  0.965265  0.698373  0.018524  1
  O  O66  1  0.873774  0.163716  0.388760  1
  O  O67  1  0.920671  0.036956  0.222089  1
