# generated using pymatgen
data_Ca5Sn4S13
_symmetry_space_group_name_H-M   'P 1'
_cell_length_a   5.02499701
_cell_length_b   5.02499701
_cell_length_c   21.88740091
_cell_angle_alpha   96.58556176
_cell_angle_beta   96.58556176
_cell_angle_gamma   90.05249664
_symmetry_Int_Tables_number   1
_chemical_formula_structural   Ca5Sn4S13
_chemical_formula_sum   'Ca5 Sn4 S13'
_cell_volume   545.34515848
_cell_formula_units_Z   1
loop_
 _symmetry_equiv_pos_site_id
 _symmetry_equiv_pos_as_xyz
  1  'x, y, z'
loop_
 _atom_site_type_symbol
 _atom_site_label
 _atom_site_symmetry_multiplicity
 _atom_site_fract_x
 _atom_site_fract_y
 _atom_site_fract_z
 _atom_site_occupancy
  Ca  Ca0  1  0.500000  0.500000  0.000000  1
  Ca  Ca1  1  0.295375  0.295375  0.590749  1
  Ca  Ca2  1  0.704625  0.704625  0.409251  1
  Ca  Ca3  1  0.395678  0.395678  0.791355  1
  Ca  Ca4  1  0.604322  0.604322  0.208645  1
  Sn  Sn5  1  0.058065  0.058065  0.116129  1
  Sn  Sn6  1  0.941935  0.941935  0.883871  1
  Sn  Sn7  1  0.176957  0.176957  0.353914  1
  Sn  Sn8  1  0.823043  0.823043  0.646086  1
  S  S9  1  0.000000  0.000000  0.000000  1
  S  S10  1  0.115010  0.115010  0.230021  1
  S  S11  1  0.884990  0.884990  0.769979  1
  S  S12  1  0.232202  0.232202  0.464404  1
  S  S13  1  0.767798  0.767798  0.535596  1
  S  S14  1  0.556734  0.056734  0.113467  1
  S  S15  1  0.943266  0.443266  0.886533  1
  S  S16  1  0.443266  0.943266  0.886533  1
  S  S17  1  0.056734  0.556734  0.113467  1
  S  S18  1  0.664489  0.164489  0.328978  1
  S  S19  1  0.835511  0.335511  0.671022  1
  S  S20  1  0.335511  0.835511  0.671022  1
  S  S21  1  0.164489  0.664489  0.328978  1
