# generated using pymatgen
data_LiMn3(BO3)3
_symmetry_space_group_name_H-M   'P 1'
_cell_length_a   12.84466950
_cell_length_b   5.34574800
_cell_length_c   6.11105977
_cell_angle_alpha   62.09558767
_cell_angle_beta   86.55182418
_cell_angle_gamma   90.11637625
_symmetry_Int_Tables_number   1
_chemical_formula_structural   LiMn3(BO3)3
_chemical_formula_sum   'Li2 Mn6 B6 O18'
_cell_volume   369.93556217
_cell_formula_units_Z   2
loop_
 _symmetry_equiv_pos_site_id
 _symmetry_equiv_pos_as_xyz
  1  'x, y, z'
loop_
 _atom_site_type_symbol
 _atom_site_label
 _atom_site_symmetry_multiplicity
 _atom_site_fract_x
 _atom_site_fract_y
 _atom_site_fract_z
 _atom_site_occupancy
  Li  Li0  1  0.261719  0.128898  0.067756  1
  Li  Li1  1  0.738281  0.871102  0.932244  1
  Mn  Mn2  1  0.124411  0.612409  0.142936  1
  Mn  Mn3  1  0.193021  0.018020  0.565493  1
  Mn  Mn4  1  0.527981  0.680368  0.217562  1
  Mn  Mn5  1  0.472019  0.319632  0.782438  1
  Mn  Mn6  1  0.806979  0.981980  0.434507  1
  Mn  Mn7  1  0.875589  0.387591  0.857064  1
  B  B8  1  0.029292  0.079125  0.202332  1
  B  B9  1  0.305025  0.608563  0.434625  1
  B  B10  1  0.645020  0.282882  0.084940  1
  B  B11  1  0.354980  0.717118  0.915060  1
  B  B12  1  0.694975  0.391437  0.565375  1
  B  B13  1  0.970708  0.920875  0.797668  1
  O  O14  1  0.026025  0.802745  0.252913  1
  O  O15  1  0.123933  0.212907  0.193185  1
  O  O16  1  0.063966  0.779097  0.815356  1
  O  O17  1  0.218110  0.457896  0.425130  1
  O  O18  1  0.303131  0.876025  0.398199  1
  O  O19  1  0.403080  0.469735  0.466836  1
  O  O20  1  0.553658  0.146280  0.074338  1
  O  O21  1  0.262560  0.851748  0.912996  1
  O  O22  1  0.643811  0.543020  0.081817  1
  O  O23  1  0.356189  0.456980  0.918183  1
  O  O24  1  0.737440  0.148252  0.087004  1
  O  O25  1  0.446342  0.853720  0.925662  1
  O  O26  1  0.596920  0.530265  0.533164  1
  O  O27  1  0.696869  0.123975  0.601801  1
  O  O28  1  0.781890  0.542104  0.574870  1
  O  O29  1  0.936034  0.220903  0.184644  1
  O  O30  1  0.876067  0.787093  0.806815  1
  O  O31  1  0.973975  0.197255  0.747087  1
