# generated using pymatgen
data_LiV2P4(HO8)2
_symmetry_space_group_name_H-M   'P 1'
_cell_length_a   13.62152107
_cell_length_b   7.89535740
_cell_length_c   7.75520650
_cell_angle_alpha   89.93663565
_cell_angle_beta   98.59589262
_cell_angle_gamma   89.94393859
_symmetry_Int_Tables_number   1
_chemical_formula_structural   LiV2P4(HO8)2
_chemical_formula_sum   'Li3 V6 P12 H6 O48'
_cell_volume   824.67763530
_cell_formula_units_Z   3
loop_
 _symmetry_equiv_pos_site_id
 _symmetry_equiv_pos_as_xyz
  1  'x, y, z'
loop_
 _atom_site_type_symbol
 _atom_site_label
 _atom_site_symmetry_multiplicity
 _atom_site_fract_x
 _atom_site_fract_y
 _atom_site_fract_z
 _atom_site_occupancy
  Li  Li0  1  0.181911  0.866582  0.032554  1
  Li  Li1  1  0.481887  0.133001  0.627610  1
  Li  Li2  1  0.851894  0.629750  0.208715  1
  V  V3  1  0.166047  0.493440  0.169125  1
  V  V4  1  0.166173  0.004974  0.654905  1
  V  V5  1  0.499182  0.506887  0.500932  1
  V  V6  1  0.502872  0.993874  0.008989  1
  V  V7  1  0.832185  0.007467  0.331680  1
  V  V8  1  0.833284  0.495426  0.825249  1
  P  P9  1  0.045685  0.844968  0.278070  1
  P  P10  1  0.048081  0.647559  0.779921  1
  P  P11  1  0.288758  0.152267  0.049499  1
  P  P12  1  0.380640  0.647565  0.111317  1
  P  P13  1  0.285567  0.357102  0.560195  1
  P  P14  1  0.379395  0.852234  0.612638  1
  P  P15  1  0.621251  0.158582  0.385967  1
  P  P16  1  0.711092  0.658146  0.448120  1
  P  P17  1  0.618459  0.354346  0.889646  1
  P  P18  1  0.716026  0.854407  0.942459  1
  P  P19  1  0.954398  0.348020  0.219848  1
  P  P20  1  0.952293  0.146427  0.720308  1
  H  H21  1  0.005888  0.510086  0.512618  1
  H  H22  1  0.327197  0.008975  0.316033  1
  H  H23  1  0.338716  0.505475  0.846273  1
  H  H24  1  0.666659  0.498966  0.170952  1
  H  H25  1  0.668088  0.996340  0.666631  1
  H  H26  1  0.992048  0.010879  0.986103  1
  O  O27  1  0.063600  0.945167  0.118931  1
  O  O28  1  0.064346  0.327410  0.193534  1
  O  O29  1  0.094284  0.670513  0.278837  1
  O  O30  1  0.095337  0.941988  0.449054  1
  O  O31  1  0.062862  0.549592  0.616435  1
  O  O32  1  0.247307  0.328954  0.062917  1
  O  O33  1  0.064074  0.162604  0.703651  1
  O  O34  1  0.270011  0.675750  0.126498  1
  O  O35  1  0.096651  0.826068  0.780406  1
  O  O36  1  0.271428  0.040382  0.207037  1
  O  O37  1  0.100689  0.556777  0.945725  1
  O  O38  1  0.233886  0.440879  0.389925  1
  O  O39  1  0.235236  0.173928  0.565372  1
  O  O40  1  0.400937  0.160104  0.032418  1
  O  O41  1  0.266075  0.843552  0.633697  1
  O  O42  1  0.270343  0.450093  0.721882  1
  O  O43  1  0.431845  0.827102  0.103586  1
  O  O44  1  0.232556  0.053268  0.890787  1
  O  O45  1  0.431645  0.560117  0.278606  1
  O  O46  1  0.394315  0.963139  0.458642  1
  O  O47  1  0.395940  0.327092  0.539048  1
  O  O48  1  0.418613  0.672549  0.604947  1
  O  O49  1  0.608101  0.448026  0.055531  1
  O  O50  1  0.433792  0.946356  0.778356  1
  O  O51  1  0.569834  0.059951  0.217018  1
  O  O52  1  0.398193  0.551000  0.949479  1
  O  O53  1  0.571691  0.331656  0.389147  1
  O  O54  1  0.601409  0.674539  0.471792  1
  O  O55  1  0.603532  0.057805  0.546629  1
  O  O56  1  0.565238  0.446362  0.724053  1
  O  O57  1  0.766535  0.947929  0.106649  1
  O  O58  1  0.570066  0.174733  0.885735  1
  O  O59  1  0.728179  0.558178  0.285975  1
  O  O60  1  0.731107  0.174771  0.364666  1
  O  O61  1  0.603384  0.839070  0.964986  1
  O  O62  1  0.760131  0.831268  0.441524  1
  O  O63  1  0.764957  0.560241  0.614872  1
  O  O64  1  0.899105  0.445405  0.053098  1
  O  O65  1  0.726406  0.947793  0.775227  1
  O  O66  1  0.909204  0.170986  0.225998  1
  O  O67  1  0.730732  0.340528  0.864001  1
  O  O68  1  0.934367  0.827813  0.296022  1
  O  O69  1  0.765542  0.675764  0.946647  1
  O  O70  1  0.937632  0.457315  0.373675  1
  O  O71  1  0.899698  0.058150  0.557083  1
  O  O72  1  0.905880  0.327738  0.729785  1
  O  O73  1  0.935405  0.660673  0.797298  1
  O  O74  1  0.935472  0.049941  0.884409  1
