# generated using pymatgen
data_K2MnP4(HO2)8
_symmetry_space_group_name_H-M   'P 1'
_cell_length_a   9.88116134
_cell_length_b   11.31825702
_cell_length_c   13.48064072
_cell_angle_alpha   90.00000000
_cell_angle_beta   90.00000000
_cell_angle_gamma   90.00000000
_symmetry_Int_Tables_number   1
_chemical_formula_structural   K2MnP4(HO2)8
_chemical_formula_sum   'K8 Mn4 P16 H32 O64'
_cell_volume   1507.64147604
_cell_formula_units_Z   4
loop_
 _symmetry_equiv_pos_site_id
 _symmetry_equiv_pos_as_xyz
  1  'x, y, z'
loop_
 _atom_site_type_symbol
 _atom_site_label
 _atom_site_symmetry_multiplicity
 _atom_site_fract_x
 _atom_site_fract_y
 _atom_site_fract_z
 _atom_site_occupancy
  K  K0  1  0.055773  0.750000  0.602133  1
  K  K1  1  0.247176  0.750000  0.132296  1
  K  K2  1  0.252824  0.250000  0.632296  1
  K  K3  1  0.444227  0.250000  0.102133  1
  K  K4  1  0.555773  0.750000  0.897867  1
  K  K5  1  0.747176  0.750000  0.367704  1
  K  K6  1  0.752824  0.250000  0.867704  1
  K  K7  1  0.944227  0.250000  0.397867  1
  Mn  Mn8  1  0.166076  0.750000  0.861760  1
  Mn  Mn9  1  0.333924  0.250000  0.361760  1
  Mn  Mn10  1  0.666076  0.750000  0.638240  1
  Mn  Mn11  1  0.833924  0.250000  0.138240  1
  P  P12  1  0.058130  0.018630  0.776919  1
  P  P13  1  0.058130  0.481370  0.776919  1
  P  P14  1  0.247537  0.517592  0.443052  1
  P  P15  1  0.247537  0.982408  0.443052  1
  P  P16  1  0.252463  0.017592  0.943052  1
  P  P17  1  0.252463  0.482408  0.943052  1
  P  P18  1  0.441870  0.518630  0.276919  1
  P  P19  1  0.441870  0.981370  0.276919  1
  P  P20  1  0.558130  0.018630  0.723081  1
  P  P21  1  0.558130  0.481370  0.723081  1
  P  P22  1  0.747537  0.517592  0.056948  1
  P  P23  1  0.747537  0.982408  0.056948  1
  P  P24  1  0.752463  0.017592  0.556948  1
  P  P25  1  0.752463  0.482408  0.556948  1
  P  P26  1  0.941870  0.981370  0.223081  1
  P  P27  1  0.941870  0.518630  0.223081  1
  H  H28  1  0.041618  0.179783  0.013623  1
  H  H29  1  0.041618  0.320217  0.013623  1
  H  H30  1  0.041131  0.582290  0.398424  1
  H  H31  1  0.041131  0.917710  0.398424  1
  H  H32  1  0.100412  0.519909  0.106227  1
  H  H33  1  0.100412  0.980091  0.106227  1
  H  H34  1  0.134487  0.317770  0.217323  1
  H  H35  1  0.134487  0.182230  0.217323  1
  H  H36  1  0.365513  0.682230  0.717323  1
  H  H37  1  0.365513  0.817770  0.717323  1
  H  H38  1  0.399588  0.019910  0.606227  1
  H  H39  1  0.399588  0.480090  0.606227  1
  H  H40  1  0.458869  0.082290  0.898424  1
  H  H41  1  0.458869  0.417710  0.898424  1
  H  H42  1  0.458382  0.679783  0.513623  1
  H  H43  1  0.458382  0.820217  0.513623  1
  H  H44  1  0.541618  0.179783  0.486377  1
  H  H45  1  0.541618  0.320217  0.486377  1
  H  H46  1  0.541130  0.582290  0.101576  1
  H  H47  1  0.541130  0.917710  0.101576  1
  H  H48  1  0.600412  0.519909  0.393773  1
  H  H49  1  0.600412  0.980091  0.393773  1
  H  H50  1  0.634487  0.182230  0.282677  1
  H  H51  1  0.634487  0.317770  0.282677  1
  H  H52  1  0.865513  0.682230  0.782677  1
  H  H53  1  0.865513  0.817770  0.782677  1
  H  H54  1  0.899588  0.019910  0.893773  1
  H  H55  1  0.899588  0.480090  0.893773  1
  H  H56  1  0.958870  0.082290  0.601576  1
  H  H57  1  0.958870  0.417710  0.601576  1
  H  H58  1  0.958382  0.679783  0.986377  1
  H  H59  1  0.958382  0.820217  0.986377  1
  O  O60  1  0.018759  0.750000  0.984307  1
  O  O61  1  0.050159  0.616015  0.779920  1
  O  O62  1  0.050159  0.883985  0.779920  1
  O  O63  1  0.065894  0.571690  0.164676  1
  O  O64  1  0.065894  0.928310  0.164676  1
  O  O65  1  0.069918  0.075835  0.676249  1
  O  O66  1  0.069918  0.424165  0.676249  1
  O  O67  1  0.115635  0.593954  0.452511  1
  O  O68  1  0.115635  0.906046  0.452511  1
  O  O69  1  0.153636  0.055689  0.023193  1
  O  O70  1  0.153636  0.444311  0.023193  1
  O  O71  1  0.196333  0.250000  0.225404  1
  O  O72  1  0.192775  0.061554  0.836111  1
  O  O73  1  0.192775  0.438446  0.836111  1
  O  O74  1  0.217024  0.113858  0.436225  1
  O  O75  1  0.217024  0.386142  0.436225  1
  O  O76  1  0.282976  0.613858  0.936225  1
  O  O77  1  0.282976  0.886142  0.936225  1
  O  O78  1  0.307225  0.561554  0.336111  1
  O  O79  1  0.307225  0.938446  0.336111  1
  O  O80  1  0.303667  0.750000  0.725404  1
  O  O81  1  0.346364  0.555689  0.523193  1
  O  O82  1  0.346364  0.944311  0.523193  1
  O  O83  1  0.384365  0.093954  0.952511  1
  O  O84  1  0.384365  0.406046  0.952511  1
  O  O85  1  0.430082  0.575835  0.176249  1
  O  O86  1  0.430082  0.924165  0.176249  1
  O  O87  1  0.434106  0.428310  0.664676  1
  O  O88  1  0.434106  0.071690  0.664676  1
  O  O89  1  0.449841  0.116015  0.279920  1
  O  O90  1  0.449841  0.383985  0.279920  1
  O  O91  1  0.481241  0.250000  0.484307  1
  O  O92  1  0.518759  0.750000  0.515693  1
  O  O93  1  0.550159  0.616015  0.720080  1
  O  O94  1  0.550159  0.883985  0.720080  1
  O  O95  1  0.565894  0.571690  0.335324  1
  O  O96  1  0.565894  0.928310  0.335324  1
  O  O97  1  0.569918  0.075835  0.823751  1
  O  O98  1  0.569918  0.424165  0.823751  1
  O  O99  1  0.615635  0.593954  0.047489  1
  O  O100  1  0.615635  0.906046  0.047489  1
  O  O101  1  0.653636  0.055689  0.476807  1
  O  O102  1  0.653636  0.444311  0.476807  1
  O  O103  1  0.696333  0.250000  0.274596  1
  O  O104  1  0.692775  0.061554  0.663889  1
  O  O105  1  0.692775  0.438446  0.663889  1
  O  O106  1  0.717024  0.113858  0.063775  1
  O  O107  1  0.717024  0.386142  0.063775  1
  O  O108  1  0.782976  0.613858  0.563775  1
  O  O109  1  0.782976  0.886142  0.563775  1
  O  O110  1  0.807225  0.561554  0.163889  1
  O  O111  1  0.807225  0.938446  0.163889  1
  O  O112  1  0.803667  0.750000  0.774596  1
  O  O113  1  0.846364  0.555689  0.976807  1
  O  O114  1  0.846364  0.944311  0.976807  1
  O  O115  1  0.884365  0.093954  0.547489  1
  O  O116  1  0.884365  0.406046  0.547489  1
  O  O117  1  0.930082  0.575835  0.323751  1
  O  O118  1  0.930082  0.924165  0.323751  1
  O  O119  1  0.934106  0.071690  0.835324  1
  O  O120  1  0.934106  0.428310  0.835324  1
  O  O121  1  0.949841  0.116015  0.220080  1
  O  O122  1  0.949841  0.383985  0.220080  1
  O  O123  1  0.981241  0.250000  0.015693  1
