# generated using pymatgen
data_Li2Nb(PO3)5
_symmetry_space_group_name_H-M   'P 1'
_cell_length_a   5.36533375
_cell_length_b   13.56458220
_cell_length_c   8.89206503
_cell_angle_alpha   90.00000000
_cell_angle_beta   101.97499006
_cell_angle_gamma   90.00000000
_symmetry_Int_Tables_number   1
_chemical_formula_structural   Li2Nb(PO3)5
_chemical_formula_sum   'Li4 Nb2 P10 O30'
_cell_volume   633.06811415
_cell_formula_units_Z   2
loop_
 _symmetry_equiv_pos_site_id
 _symmetry_equiv_pos_as_xyz
  1  'x, y, z'
loop_
 _atom_site_type_symbol
 _atom_site_label
 _atom_site_symmetry_multiplicity
 _atom_site_fract_x
 _atom_site_fract_y
 _atom_site_fract_z
 _atom_site_occupancy
  Li  Li0  1  0.056796  0.121526  0.086632  1
  Li  Li1  1  0.056796  0.378474  0.086632  1
  Li  Li2  1  0.943204  0.621526  0.913368  1
  Li  Li3  1  0.943204  0.878474  0.913368  1
  Nb  Nb4  1  0.500000  0.000000  0.500000  1
  Nb  Nb5  1  0.500000  0.500000  0.500000  1
  P  P6  1  0.995832  0.641797  0.485347  1
  P  P7  1  0.995832  0.858203  0.485347  1
  P  P8  1  0.336526  0.077921  0.818931  1
  P  P9  1  0.336526  0.422079  0.818931  1
  P  P10  1  0.457998  0.750000  0.983764  1
  P  P11  1  0.542002  0.250000  0.016236  1
  P  P12  1  0.663474  0.577921  0.181069  1
  P  P13  1  0.663474  0.922079  0.181069  1
  P  P14  1  0.004168  0.358203  0.514653  1
  P  P15  1  0.004168  0.141797  0.514653  1
  O  O16  1  0.062821  0.250000  0.461113  1
  O  O17  1  0.186106  0.037853  0.928546  1
  O  O18  1  0.186106  0.462147  0.928546  1
  O  O19  1  0.197397  0.750000  0.883489  1
  O  O20  1  0.149571  0.143479  0.690478  1
  O  O21  1  0.149571  0.356521  0.690478  1
  O  O22  1  0.126190  0.426489  0.417258  1
  O  O23  1  0.126190  0.073511  0.417258  1
  O  O24  1  0.278198  0.632059  0.489943  1
  O  O25  1  0.278198  0.867941  0.489943  1
  O  O26  1  0.541461  0.158166  0.897303  1
  O  O27  1  0.541461  0.341834  0.897303  1
  O  O28  1  0.484907  0.007717  0.737484  1
  O  O29  1  0.484907  0.492283  0.737484  1
  O  O30  1  0.299796  0.250000  0.076151  1
  O  O31  1  0.700204  0.750000  0.923849  1
  O  O32  1  0.515093  0.507717  0.262516  1
  O  O33  1  0.515093  0.992283  0.262516  1
  O  O34  1  0.458539  0.658166  0.102697  1
  O  O35  1  0.458539  0.841834  0.102697  1
  O  O36  1  0.721802  0.132059  0.510057  1
  O  O37  1  0.721802  0.367941  0.510057  1
  O  O38  1  0.873810  0.573511  0.582742  1
  O  O39  1  0.873810  0.926489  0.582742  1
  O  O40  1  0.850429  0.643479  0.309522  1
  O  O41  1  0.850429  0.856521  0.309522  1
  O  O42  1  0.802603  0.250000  0.116511  1
  O  O43  1  0.813894  0.537853  0.071454  1
  O  O44  1  0.813894  0.962147  0.071454  1
  O  O45  1  0.937179  0.750000  0.538887  1
