# generated using pymatgen
data_LiVP2O7
_symmetry_space_group_name_H-M   'P 1'
_cell_length_a   7.04628028
_cell_length_b   5.87654414
_cell_length_c   7.14234780
_cell_angle_alpha   113.68701402
_cell_angle_beta   104.22251126
_cell_angle_gamma   83.22126187
_symmetry_Int_Tables_number   1
_chemical_formula_structural   LiVP2O7
_chemical_formula_sum   'Li2 V2 P4 O14'
_cell_volume   262.46940014
_cell_formula_units_Z   2
loop_
 _symmetry_equiv_pos_site_id
 _symmetry_equiv_pos_as_xyz
  1  'x, y, z'
loop_
 _atom_site_type_symbol
 _atom_site_label
 _atom_site_symmetry_multiplicity
 _atom_site_fract_x
 _atom_site_fract_y
 _atom_site_fract_z
 _atom_site_occupancy
  Li  Li0  1  0.342917  0.919425  0.829169  1
  Li  Li1  1  0.657083  0.080575  0.170831  1
  V  V2  1  0.192363  0.716199  0.114985  1
  V  V3  1  0.807637  0.283801  0.885015  1
  P  P4  1  0.184041  0.229583  0.243032  1
  P  P5  1  0.352306  0.350989  0.693110  1
  P  P6  1  0.647694  0.649011  0.306890  1
  P  P7  1  0.815959  0.770417  0.756968  1
  O  O8  1  0.962087  0.962215  0.779646  1
  O  O9  1  0.083685  0.407430  0.132851  1
  O  O10  1  0.248405  0.408479  0.483215  1
  O  O11  1  0.259567  0.134958  0.690469  1
  O  O12  1  0.353566  0.071052  0.152669  1
  O  O13  1  0.317023  0.604048  0.867955  1
  O  O14  1  0.427722  0.674336  0.310895  1
  O  O15  1  0.572278  0.325664  0.689105  1
  O  O16  1  0.682977  0.395952  0.132045  1
  O  O17  1  0.646434  0.928948  0.847331  1
  O  O18  1  0.740433  0.865042  0.309531  1
  O  O19  1  0.751595  0.591521  0.516785  1
  O  O20  1  0.916315  0.592570  0.867149  1
  O  O21  1  0.037913  0.037785  0.220354  1
