# generated using pymatgen
data_LiFe2OF3
_symmetry_space_group_name_H-M   'P 1'
_cell_length_a   6.12625058
_cell_length_b   8.25902613
_cell_length_c   8.25902613
_cell_angle_alpha   115.28639735
_cell_angle_beta   111.77002773
_cell_angle_gamma   68.22997227
_symmetry_Int_Tables_number   1
_chemical_formula_structural   LiFe2OF3
_chemical_formula_sum   'Li4 Fe8 O4 F12'
_cell_volume   339.47557087
_cell_formula_units_Z   4
loop_
 _symmetry_equiv_pos_site_id
 _symmetry_equiv_pos_as_xyz
  1  'x, y, z'
loop_
 _atom_site_type_symbol
 _atom_site_label
 _atom_site_symmetry_multiplicity
 _atom_site_fract_x
 _atom_site_fract_y
 _atom_site_fract_z
 _atom_site_occupancy
  Li  Li0  1  0.384785  0.969636  0.239207  1
  Li  Li1  1  0.115215  0.239207  0.969636  1
  Li  Li2  1  0.878839  0.756532  0.014209  1
  Li  Li3  1  0.621161  0.014209  0.756532  1
  Fe  Fe4  1  0.750000  0.226694  0.226694  1
  Fe  Fe5  1  0.998013  0.017902  0.513927  1
  Fe  Fe6  1  0.501987  0.513927  0.017902  1
  Fe  Fe7  1  0.872504  0.619779  0.381905  1
  Fe  Fe8  1  0.627496  0.381905  0.619779  1
  Fe  Fe9  1  0.389623  0.619779  0.381905  1
  Fe  Fe10  1  0.110377  0.381905  0.619779  1
  Fe  Fe11  1  0.250000  0.767250  0.767250  1
  O  O12  1  0.750000  0.459699  0.459699  1
  O  O13  1  0.981752  0.253772  0.717277  1
  O  O14  1  0.518248  0.717277  0.253772  1
  O  O15  1  0.250000  0.532362  0.532362  1
  F  F16  1  0.250000  0.991820  0.991820  1
  F  F17  1  0.125340  0.119802  0.369104  1
  F  F18  1  0.374660  0.369104  0.119802  1
  F  F19  1  0.876036  0.369104  0.119802  1
  F  F20  1  0.623964  0.119802  0.369104  1
  F  F21  1  0.492168  0.283409  0.767746  1
  F  F22  1  0.007832  0.767746  0.283409  1
  F  F23  1  0.131837  0.625174  0.878862  1
  F  F24  1  0.878149  0.878862  0.625174  1
  F  F25  1  0.621851  0.625174  0.878862  1
  F  F26  1  0.368163  0.878862  0.625174  1
  F  F27  1  0.750000  -0.000697  -0.000697  1
