# generated using pymatgen
data_YSnF7
_symmetry_space_group_name_H-M   'P 1'
_cell_length_a   5.78755376
_cell_length_b   6.04903075
_cell_length_c   8.27261476
_cell_angle_alpha   103.19092792
_cell_angle_beta   90.00000000
_cell_angle_gamma   90.00000000
_symmetry_Int_Tables_number   1
_chemical_formula_structural   YSnF7
_chemical_formula_sum   'Y2 Sn2 F14'
_cell_volume   281.97519660
_cell_formula_units_Z   2
loop_
 _symmetry_equiv_pos_site_id
 _symmetry_equiv_pos_as_xyz
  1  'x, y, z'
loop_
 _atom_site_type_symbol
 _atom_site_label
 _atom_site_symmetry_multiplicity
 _atom_site_fract_x
 _atom_site_fract_y
 _atom_site_fract_z
 _atom_site_occupancy
  F  F0  1  0.471651  0.972376  0.987203  1
  F  F1  1  0.971651  0.027624  0.012797  1
  F  F2  1  0.492149  0.563445  0.735966  1
  F  F3  1  0.992149  0.436555  0.264033  1
  F  F4  1  0.755562  0.727812  0.519794  1
  F  F5  1  0.255562  0.272188  0.480206  1
  F  F6  1  0.016738  0.557188  0.742918  1
  F  F7  1  0.516738  0.442812  0.257082  1
  F  F8  1  0.526938  0.097557  0.705144  1
  F  F9  1  0.026938  0.902443  0.294856  1
  F  F10  1  0.523821  0.931858  0.296379  1
  F  F11  1  0.023821  0.068142  0.703621  1
  F  F12  1  0.761464  0.630691  0.027491  1
  F  F13  1  0.261464  0.369309  0.972509  1
  Y  Y14  1  0.753631  0.845740  0.811018  1
  Y  Y15  1  0.253631  0.154260  0.188982  1
  Sn  Sn16  1  0.759946  0.685195  0.274103  1
  Sn  Sn17  1  0.259946  0.314805  0.725897  1
