# generated using pymatgen
data_VS2
_symmetry_space_group_name_H-M   'P 1'
_cell_length_a   3.48993240
_cell_length_b   2.88504950
_cell_length_c   56.29924071
_cell_angle_alpha   90.53836538
_cell_angle_beta   89.99912992
_cell_angle_gamma   90.00604068
_symmetry_Int_Tables_number   1
_chemical_formula_structural   VS2
_chemical_formula_sum   'V2 S4'
_cell_volume   566.83107023
_cell_formula_units_Z   2
loop_
 _symmetry_equiv_pos_site_id
 _symmetry_equiv_pos_as_xyz
  1  'x, y, z'
loop_
 _atom_site_type_symbol
 _atom_site_label
 _atom_site_symmetry_multiplicity
 _atom_site_fract_x
 _atom_site_fract_y
 _atom_site_fract_z
 _atom_site_occupancy
  V  V0  1  -0.000057  -0.000006  0.500004  1
  V  V1  1  0.000284  0.000044  0.000001  1
  S  S2  1  -0.000064  0.494953  0.469390  1
  S  S3  1  -0.000050  0.493804  0.969382  1
  S  S4  1  -0.000050  0.506176  0.030615  1
  S  S5  1  -0.000063  0.505030  0.530608  1
