# generated using pymatgen
data_MnS2(NO7)2
_symmetry_space_group_name_H-M   'P 1'
_cell_length_a   10.10187623
_cell_length_b   10.93197054
_cell_length_c   6.93443088
_cell_angle_alpha   90.00000000
_cell_angle_beta   115.84674577
_cell_angle_gamma   90.00000000
_symmetry_Int_Tables_number   1
_chemical_formula_structural   MnS2(NO7)2
_chemical_formula_sum   'Mn2 S4 N4 O28'
_cell_volume   689.18554149
_cell_formula_units_Z   2
loop_
 _symmetry_equiv_pos_site_id
 _symmetry_equiv_pos_as_xyz
  1  'x, y, z'
loop_
 _atom_site_type_symbol
 _atom_site_label
 _atom_site_symmetry_multiplicity
 _atom_site_fract_x
 _atom_site_fract_y
 _atom_site_fract_z
 _atom_site_occupancy
  Mn  Mn0  1  0.500000  0.500000  0.000000  1
  Mn  Mn1  1  0.000000  0.000000  0.000000  1
  S  S2  1  0.922466  0.375266  0.668720  1
  S  S3  1  0.577534  0.875266  0.331280  1
  S  S4  1  0.077534  0.624734  0.331280  1
  S  S5  1  0.422466  0.124734  0.668720  1
  N  N6  1  0.603735  0.239157  0.208823  1
  N  N7  1  0.896265  0.739157  0.791177  1
  N  N8  1  0.396265  0.760843  0.791177  1
  N  N9  1  0.103735  0.260843  0.208823  1
  O  O10  1  0.897265  0.247231  0.618617  1
  O  O11  1  0.602735  0.747231  0.381383  1
  O  O12  1  0.102735  0.752769  0.381383  1
  O  O13  1  0.397265  0.252769  0.618617  1
  O  O14  1  0.067302  0.424999  0.735305  1
  O  O15  1  0.432698  0.924999  0.264695  1
  O  O16  1  0.932698  0.575001  0.264695  1
  O  O17  1  0.567302  0.075001  0.735305  1
  O  O18  1  0.802375  0.453300  0.645584  1
  O  O19  1  0.697625  0.953300  0.354416  1
  O  O20  1  0.197625  0.546700  0.354416  1
  O  O21  1  0.302375  0.046700  0.645584  1
  O  O22  1  0.984133  0.309478  0.106954  1
  O  O23  1  0.515867  0.809478  0.893046  1
  O  O24  1  0.015867  0.690522  0.893046  1
  O  O25  1  0.484133  0.190522  0.106954  1
  O  O26  1  0.639022  0.342043  0.162833  1
  O  O27  1  0.860978  0.842043  0.837167  1
  O  O28  1  0.360978  0.657957  0.837167  1
  O  O29  1  0.139022  0.157957  0.162833  1
  O  O30  1  0.371397  0.440823  0.134189  1
  O  O31  1  0.128603  0.940823  0.865811  1
  O  O32  1  0.628603  0.559177  0.865811  1
  O  O33  1  0.871397  0.059177  0.134189  1
  O  O34  1  0.469330  0.520814  0.262417  1
  O  O35  1  0.030670  0.020814  0.737583  1
  O  O36  1  0.530670  0.479186  0.737583  1
  O  O37  1  0.969330  0.979186  0.262417  1
