# generated using pymatgen
data_Ni3OF5
_symmetry_space_group_name_H-M   'P 1'
_cell_length_a   7.32502019
_cell_length_b   5.62569892
_cell_length_c   5.62176267
_cell_angle_alpha   72.36261204
_cell_angle_beta   72.25820216
_cell_angle_gamma   72.28285397
_symmetry_Int_Tables_number   1
_chemical_formula_structural   Ni3OF5
_chemical_formula_sum   'Ni6 O2 F10'
_cell_volume   204.45842423
_cell_formula_units_Z   2
loop_
 _symmetry_equiv_pos_site_id
 _symmetry_equiv_pos_as_xyz
  1  'x, y, z'
loop_
 _atom_site_type_symbol
 _atom_site_label
 _atom_site_symmetry_multiplicity
 _atom_site_fract_x
 _atom_site_fract_y
 _atom_site_fract_z
 _atom_site_occupancy
  Ni  Ni0  1  0.837901  0.657335  0.666805  1
  Ni  Ni1  1  0.334696  0.667547  0.670605  1
  Ni  Ni2  1  0.664931  0.325072  0.327629  1
  Ni  Ni3  1  0.162471  0.332265  0.342936  1
  Ni  Ni4  1  0.505044  0.002444  0.004004  1
  Ni  Ni5  1  0.993729  0.012255  0.991053  1
  O  O6  1  0.703408  0.102084  0.097655  1
  O  O7  1  0.998973  0.305326  0.695157  1
  F  F8  1  0.669473  0.023200  0.636354  1
  F  F9  1  0.330045  0.363838  0.975226  1
  F  F10  1  0.297789  0.903070  0.901773  1
  F  F11  1  0.632641  0.560023  0.561784  1
  F  F12  1  0.964127  0.234510  0.232927  1
  F  F13  1  0.037215  0.767419  0.766704  1
  F  F14  1  0.367816  0.435262  0.437232  1
  F  F15  1  0.333606  0.969323  0.366019  1
  F  F16  1  0.665999  0.635045  0.029057  1
  F  F17  1  0.000137  0.703981  0.297078  1
