# generated using pymatgen
data_Na4MnO4
_symmetry_space_group_name_H-M   'P 1'
_cell_length_a   8.66543638
_cell_length_b   5.90363565
_cell_length_c   5.65947284
_cell_angle_alpha   68.31538015
_cell_angle_beta   108.98900885
_cell_angle_gamma   101.01142817
_symmetry_Int_Tables_number   1
_chemical_formula_structural   Na4MnO4
_chemical_formula_sum   'Na8 Mn2 O8'
_cell_volume   253.56850198
_cell_formula_units_Z   2
loop_
 _symmetry_equiv_pos_site_id
 _symmetry_equiv_pos_as_xyz
  1  'x, y, z'
loop_
 _atom_site_type_symbol
 _atom_site_label
 _atom_site_symmetry_multiplicity
 _atom_site_fract_x
 _atom_site_fract_y
 _atom_site_fract_z
 _atom_site_occupancy
  Na  Na0  1  0.178694  0.011096  0.637432  1
  Na  Na1  1  0.141563  0.516791  0.110260  1
  Na  Na2  1  0.314605  0.549341  0.677612  1
  Na  Na3  1  0.352800  0.037974  0.207798  1
  Na  Na4  1  0.570940  0.027751  0.753144  1
  Na  Na5  1  0.729129  0.525212  0.919047  1
  Na  Na6  1  0.764270  0.027024  0.396932  1
  Na  Na7  1  0.924901  0.523813  0.568524  1
  Mn  Mn8  1  0.504757  0.559752  0.311675  1
  Mn  Mn9  1  0.990763  0.995276  0.006271  1
  O  O10  1  0.123205  0.253975  0.862428  1
  O  O11  1  0.104859  0.788837  0.320043  1
  O  O12  1  0.390164  0.765926  0.998116  1
  O  O13  1  0.373250  0.300505  0.456214  1
  O  O14  1  0.546646  0.757563  0.513152  1
  O  O15  1  0.667638  0.402145  0.320804  1
  O  O16  1  0.947194  0.797423  0.804607  1
  O  O17  1  0.829749  0.155573  0.997985  1
