# generated using pymatgen
data_LiNi(PO3)3
_symmetry_space_group_name_H-M   'P 1'
_cell_length_a   8.10985322
_cell_length_b   9.04429711
_cell_length_c   12.31996317
_cell_angle_alpha   90.00000000
_cell_angle_beta   90.00000000
_cell_angle_gamma   90.00000000
_symmetry_Int_Tables_number   1
_chemical_formula_structural   LiNi(PO3)3
_chemical_formula_sum   'Li4 Ni4 P12 O36'
_cell_volume   903.64369813
_cell_formula_units_Z   4
loop_
 _symmetry_equiv_pos_site_id
 _symmetry_equiv_pos_as_xyz
  1  'x, y, z'
loop_
 _atom_site_type_symbol
 _atom_site_label
 _atom_site_symmetry_multiplicity
 _atom_site_fract_x
 _atom_site_fract_y
 _atom_site_fract_z
 _atom_site_occupancy
  Li  Li0  1  0.997520  0.331221  0.007507  1
  Li  Li1  1  0.502480  0.668779  0.507507  1
  Li  Li2  1  0.497520  0.168779  0.992493  1
  Li  Li3  1  0.002480  0.831221  0.492493  1
  Ni  Ni4  1  0.178217  0.208300  0.624025  1
  Ni  Ni5  1  0.321783  0.791700  0.124025  1
  Ni  Ni6  1  0.678217  0.291700  0.375975  1
  Ni  Ni7  1  0.821783  0.708300  0.875975  1
  P  P8  1  0.174485  -0.000140  0.318903  1
  P  P9  1  0.182462  0.487364  0.183744  1
  P  P10  1  0.214741  0.694808  0.873417  1
  P  P11  1  0.285259  0.305192  0.373417  1
  P  P12  1  0.317538  0.512636  0.683744  1
  P  P13  1  0.325515  0.000140  0.818903  1
  P  P14  1  0.674485  0.500140  0.681097  1
  P  P15  1  0.682462  0.012636  0.816256  1
  P  P16  1  0.714741  0.805192  0.126583  1
  P  P17  1  0.785259  0.194808  0.626583  1
  P  P18  1  0.817538  0.987364  0.316256  1
  P  P19  1  0.825515  0.499860  0.181097  1
  O  O20  1  0.007302  0.575654  0.184663  1
  O  O21  1  0.044427  0.628975  0.864434  1
  O  O22  1  0.163676  0.395149  0.295983  1
  O  O23  1  0.187476  0.396350  0.702018  1
  O  O24  1  0.207444  0.856839  0.820004  1
  O  O25  1  0.202247  0.930741  0.209662  1
  O  O26  1  0.191995  0.909782  0.420564  1
  O  O27  1  0.189205  0.383415  0.089179  1
  O  O28  1  0.203196  0.298236  0.481757  1
  O  O29  1  0.296804  0.701764  0.981757  1
  O  O30  1  0.310795  0.616585  0.589179  1
  O  O31  1  0.308005  0.090218  0.920564  1
  O  O32  1  0.297753  0.069259  0.709662  1
  O  O33  1  0.292556  0.143161  0.320004  1
  O  O34  1  0.312524  0.603650  0.202018  1
  O  O35  1  0.336324  0.604851  0.795983  1
  O  O36  1  0.455573  0.371025  0.364434  1
  O  O37  1  0.492698  0.424346  0.684663  1
  O  O38  1  0.507302  0.924346  0.815337  1
  O  O39  1  0.544427  0.871025  0.135566  1
  O  O40  1  0.663676  0.104851  0.704017  1
  O  O41  1  0.687476  0.103650  0.297982  1
  O  O42  1  0.707444  0.643161  0.179996  1
  O  O43  1  0.702247  0.569259  0.790338  1
  O  O44  1  0.691995  0.590218  0.579436  1
  O  O45  1  0.689205  0.116585  0.910821  1
  O  O46  1  0.703196  0.201764  0.518243  1
  O  O47  1  0.796804  0.798236  0.018243  1
  O  O48  1  0.810795  0.883415  0.410821  1
  O  O49  1  0.808005  0.409782  0.079436  1
  O  O50  1  0.797753  0.430741  0.290338  1
  O  O51  1  0.792556  0.356839  0.679996  1
  O  O52  1  0.812524  0.896350  0.797982  1
  O  O53  1  0.836324  0.895149  0.204017  1
  O  O54  1  0.955573  0.128976  0.635566  1
  O  O55  1  0.992698  0.075654  0.315337  1
