# generated using pymatgen
data_Li3V3P8O29
_symmetry_space_group_name_H-M   'P 1'
_cell_length_a   9.77670520
_cell_length_b   9.71930878
_cell_length_c   14.38678390
_cell_angle_alpha   90.13990471
_cell_angle_beta   91.26953151
_cell_angle_gamma   60.22328979
_symmetry_Int_Tables_number   1
_chemical_formula_structural   Li3V3P8O29
_chemical_formula_sum   'Li6 V6 P16 O58'
_cell_volume   1186.22555180
_cell_formula_units_Z   2
loop_
 _symmetry_equiv_pos_site_id
 _symmetry_equiv_pos_as_xyz
  1  'x, y, z'
loop_
 _atom_site_type_symbol
 _atom_site_label
 _atom_site_symmetry_multiplicity
 _atom_site_fract_x
 _atom_site_fract_y
 _atom_site_fract_z
 _atom_site_occupancy
  Li  Li0  1  0.919453  0.303831  0.557497  1
  Li  Li1  1  0.328378  0.906245  0.062290  1
  Li  Li2  1  0.687641  0.222642  0.438227  1
  Li  Li3  1  0.298689  0.778414  0.559172  1
  Li  Li4  1  0.674147  0.094565  0.941631  1
  Li  Li5  1  0.997127  0.006467  0.008916  1
  V  V6  1  0.567348  0.440970  0.242392  1
  V  V7  1  0.430098  0.563284  0.755201  1
  V  V8  1  0.568119  0.996907  0.744466  1
  V  V9  1  0.434019  0.001602  0.254225  1
  V  V10  1  0.996986  0.565677  0.245241  1
  V  V11  1  0.003531  0.439231  0.757760  1
  P  P12  1  0.919098  0.784879  0.840637  1
  P  P13  1  0.780640  0.908250  0.334843  1
  P  P14  1  0.913012  0.315800  0.341851  1
  P  P15  1  0.661147  0.674216  0.130440  1
  P  P16  1  0.663852  0.660129  0.634620  1
  P  P17  1  0.781525  0.304554  0.836280  1
  P  P18  1  0.676750  0.234084  0.656098  1
  P  P19  1  0.319001  0.913048  0.844462  1
  P  P20  1  0.683191  0.087347  0.156353  1
  P  P21  1  0.323557  0.766577  0.344005  1
  P  P22  1  0.215552  0.698587  0.164620  1
  P  P23  1  0.336802  0.337586  0.365070  1
  P  P24  1  0.341480  0.325701  0.867449  1
  P  P25  1  0.081580  0.690211  0.657797  1
  P  P26  1  0.221675  0.091033  0.665752  1
  P  P27  1  0.080927  0.216466  0.162019  1
  O  O28  1  0.000743  0.764910  0.569485  1
  O  O29  1  0.920465  0.737032  0.331185  1
  O  O30  1  0.760306  0.028763  0.065447  1
  O  O31  1  0.741832  0.917338  0.831992  1
  O  O32  1  0.924400  0.619984  0.830880  1
  O  O33  1  0.808510  0.675638  0.174530  1
  O  O34  1  0.905759  0.475247  0.318502  1
  O  O35  1  0.002866  0.184110  0.082244  1
  O  O36  1  0.914394  0.347414  0.834119  1
  O  O37  1  0.656741  0.815161  0.678497  1
  O  O38  1  0.624376  0.901683  0.319852  1
  O  O39  1  0.816893  0.517775  0.678153  1
  O  O40  1  0.654095  0.671772  0.027445  1
  O  O41  1  0.657494  0.663840  0.531688  1
  O  O42  1  0.669519  0.519046  0.175119  1
  O  O43  1  0.474213  0.913348  0.826379  1
  O  O44  1  0.508837  0.817461  0.170441  1
  O  O45  1  0.743637  0.338305  0.332644  1
  O  O46  1  0.799317  0.215790  0.737871  1
  O  O47  1  0.745483  0.244956  0.566369  1
  O  O48  1  0.800473  0.194182  0.913327  1
  O  O49  1  0.618320  0.459457  0.829517  1
  O  O50  1  0.519334  0.657041  0.677378  1
  O  O51  1  0.648234  0.260877  0.172093  1
  O  O52  1  0.482078  0.618820  0.318757  1
  O  O53  1  0.344951  0.913696  0.329606  1
  O  O54  1  0.801245  0.987205  0.240207  1
  O  O55  1  0.774863  0.003906  0.416247  1
  O  O56  1  0.227449  0.993080  0.585385  1
  O  O57  1  0.656190  0.086238  0.665940  1
  O  O58  1  0.517731  0.381936  0.677915  1
  O  O59  1  0.347505  0.741907  0.827412  1
  O  O60  1  0.481071  0.343949  0.325960  1
  O  O61  1  0.379109  0.542479  0.169643  1
  O  O62  1  0.197181  0.810511  0.088403  1
  O  O63  1  0.264200  0.757977  0.435787  1
  O  O64  1  0.199124  0.783317  0.263847  1
  O  O65  1  0.254597  0.660530  0.666269  1
  O  O66  1  0.492288  0.181949  0.826736  1
  O  O67  1  0.529682  0.083180  0.170866  1
  O  O68  1  0.330639  0.480310  0.822498  1
  O  O69  1  0.348046  0.326200  0.970365  1
  O  O70  1  0.338057  0.330040  0.467837  1
  O  O71  1  0.184524  0.473091  0.316037  1
  O  O72  1  0.377246  0.098683  0.679545  1
  O  O73  1  0.346749  0.181584  0.320290  1
  O  O74  1  0.083500  0.654995  0.164356  1
  O  O75  1  0.996859  0.800391  0.746897  1
  O  O76  1  0.993905  0.809645  0.924435  1
  O  O77  1  0.089316  0.528898  0.682912  1
  O  O78  1  0.191877  0.323864  0.824346  1
  O  O79  1  0.068781  0.382313  0.167599  1
  O  O80  1  0.259231  0.085168  0.166739  1
  O  O81  1  0.247197  0.972277  0.936212  1
  O  O82  1  0.199476  0.017947  0.761869  1
  O  O83  1  0.078635  0.261446  0.663677  1
  O  O84  1  0.984053  0.249893  0.434750  1
  O  O85  1  0.011722  0.196968  0.260072  1
