# generated using pymatgen
data_Li3Mn(PO4)2
_symmetry_space_group_name_H-M   'P 1'
_cell_length_a   4.82884289
_cell_length_b   9.08845002
_cell_length_c   6.51764780
_cell_angle_alpha   90.00000000
_cell_angle_beta   93.95238171
_cell_angle_gamma   90.00000000
_symmetry_Int_Tables_number   1
_chemical_formula_structural   Li3Mn(PO4)2
_chemical_formula_sum   'Li6 Mn2 P4 O16'
_cell_volume   285.35774613
_cell_formula_units_Z   2
loop_
 _symmetry_equiv_pos_site_id
 _symmetry_equiv_pos_as_xyz
  1  'x, y, z'
loop_
 _atom_site_type_symbol
 _atom_site_label
 _atom_site_symmetry_multiplicity
 _atom_site_fract_x
 _atom_site_fract_y
 _atom_site_fract_z
 _atom_site_occupancy
  Li  Li0  1  0.015148  0.140305  0.679907  1
  Li  Li1  1  0.000000  0.500000  0.000000  1
  Li  Li2  1  0.484852  0.640305  0.820093  1
  Li  Li3  1  0.500000  0.000000  0.500000  1
  Li  Li4  1  0.515148  0.359695  0.179907  1
  Li  Li5  1  0.984852  0.859695  0.320093  1
  Mn  Mn6  1  0.000000  0.500000  0.500000  1
  Mn  Mn7  1  0.500000  0.000000  0.000000  1
  P  P8  1  0.030764  0.177155  0.208961  1
  P  P9  1  0.469236  0.677155  0.291039  1
  P  P10  1  0.530764  0.322845  0.708961  1
  P  P11  1  0.969236  0.822845  0.791039  1
  O  O12  1  0.081282  0.345285  0.223790  1
  O  O13  1  0.150000  0.095676  0.398069  1
  O  O14  1  0.208471  0.355312  0.680543  1
  O  O15  1  0.169201  0.122510  0.009441  1
  O  O16  1  0.291529  0.855312  0.819457  1
  O  O17  1  0.330799  0.622510  0.490560  1
  O  O18  1  0.350000  0.595676  0.101931  1
  O  O19  1  0.418718  0.845285  0.276210  1
  O  O20  1  0.581282  0.154715  0.723790  1
  O  O21  1  0.650000  0.404324  0.898069  1
  O  O22  1  0.669201  0.377490  0.509440  1
  O  O23  1  0.708471  0.144688  0.180543  1
  O  O24  1  0.830799  0.877490  0.990560  1
  O  O25  1  0.791529  0.644688  0.319457  1
  O  O26  1  0.850000  0.904324  0.601931  1
  O  O27  1  0.918718  0.654715  0.776210  1
