# generated using pymatgen
data_Sm27Y5O48
_symmetry_space_group_name_H-M   'P 1'
_cell_length_a   9.49298829
_cell_length_b   9.48045492
_cell_length_c   15.49796520
_cell_angle_alpha   90.01727355
_cell_angle_beta   90.02749778
_cell_angle_gamma   109.46098008
_symmetry_Int_Tables_number   1
_chemical_formula_structural   Sm27Y5O48
_chemical_formula_sum   'Sm27 Y5 O48'
_cell_volume   1315.09727202
_cell_formula_units_Z   1
loop_
 _symmetry_equiv_pos_site_id
 _symmetry_equiv_pos_as_xyz
  1  'x, y, z'
loop_
 _atom_site_type_symbol
 _atom_site_label
 _atom_site_symmetry_multiplicity
 _atom_site_fract_x
 _atom_site_fract_y
 _atom_site_fract_z
 _atom_site_occupancy
  Sm  Sm0  1  0.858975  0.142082  0.108471  1
  Sm  Sm1  1  0.592032  0.341579  0.124934  1
  Sm  Sm2  1  0.907968  0.158421  0.375066  1
  Sm  Sm3  1  0.733987  0.766563  0.015879  1
  Sm  Sm4  1  0.483089  0.016673  0.266298  1
  Sm  Sm5  1  0.890403  0.109991  0.639950  1
  Sm  Sm6  1  0.750000  0.750000  0.250000  1
  Sm  Sm7  1  0.389930  0.607793  0.140635  1
  Sm  Sm8  1  0.641025  0.357918  0.391529  1
  Sm  Sm9  1  0.016911  0.483327  0.233702  1
  Sm  Sm10  1  0.766013  0.733437  0.484121  1
  Sm  Sm11  1  0.094186  0.842700  0.124898  1
  Sm  Sm12  1  0.594081  0.341888  0.624566  1
  Sm  Sm13  1  0.405814  0.657300  0.375102  1
  Sm  Sm14  1  0.905919  0.158113  0.875434  1
  Sm  Sm15  1  0.234634  0.267175  0.515092  1
  Sm  Sm16  1  0.984826  0.516401  0.766297  1
  Sm  Sm17  1  0.750000  0.750000  0.750000  1
  Sm  Sm18  1  0.250000  0.250000  0.750000  1
  Sm  Sm19  1  0.609597  0.390009  0.860050  1
  Sm  Sm20  1  0.110070  0.892207  0.359365  1
  Sm  Sm21  1  0.358108  0.641743  0.608094  1
  Sm  Sm22  1  0.515174  0.983599  0.733703  1
  Sm  Sm23  1  0.265366  0.232825  0.984908  1
  Sm  Sm24  1  0.093519  0.842750  0.623797  1
  Sm  Sm25  1  0.406481  0.657250  0.876203  1
  Sm  Sm26  1  0.141892  0.858257  0.891906  1
  Y  Y27  1  0.500060  0.999782  0.000328  1
  Y  Y28  1  0.999626  0.500118  0.000263  1
  Y  Y29  1  0.250000  0.250000  0.250000  1
  Y  Y30  1  0.500374  0.999882  0.499737  1
  Y  Y31  1  0.999940  0.500218  0.499672  1
  O  O32  1  0.850793  0.392875  0.118521  1
  O  O33  1  0.964242  0.730897  0.994560  1
  O  O34  1  0.603315  0.091851  0.133903  1
  O  O35  1  0.341707  0.351644  0.116976  1
  O  O36  1  0.896685  0.408149  0.366097  1
  O  O37  1  0.986011  0.715338  0.255699  1
  O  O38  1  0.640422  0.599955  0.129371  1
  O  O39  1  0.649207  0.107125  0.381479  1
  O  O40  1  0.501841  0.276474  0.265413  1
  O  O41  1  0.473978  0.749304  0.015644  1
  O  O42  1  0.876608  0.905686  0.135045  1
  O  O43  1  0.974366  0.249556  0.514691  1
  O  O44  1  0.653428  0.122353  0.611954  1
  O  O45  1  0.153830  0.622637  0.112529  1
  O  O46  1  0.998159  0.223526  0.234587  1
  O  O47  1  0.623392  0.594314  0.364955  1
  O  O48  1  0.259662  0.495572  0.270431  1
  O  O49  1  0.754402  0.489650  0.520886  1
  O  O50  1  0.254646  0.989384  0.021123  1
  O  O51  1  0.758336  0.000030  0.770057  1
  O  O52  1  0.859578  0.900045  0.370629  1
  O  O53  1  0.158293  0.148356  0.383024  1
  O  O54  1  0.464386  0.230359  0.494274  1
  O  O55  1  0.513989  0.784662  0.244301  1
  O  O56  1  0.535758  0.769103  0.505440  1
  O  O57  1  0.844233  0.855417  0.614853  1
  O  O58  1  0.484916  0.214776  0.755583  1
  O  O59  1  0.741664  0.499970  0.729943  1
  O  O60  1  0.141175  0.101093  0.628856  1
  O  O61  1  0.745598  0.010350  0.979114  1
  O  O62  1  0.240338  0.004428  0.229569  1
  O  O63  1  0.245354  0.510616  0.478877  1
  O  O64  1  0.006917  0.776906  0.764464  1
  O  O65  1  0.346170  0.877363  0.387471  1
  O  O66  1  0.377198  0.406116  0.634748  1
  O  O67  1  0.846572  0.377647  0.888046  1
  O  O68  1  0.493083  0.723094  0.735536  1
  O  O69  1  0.026022  0.750696  0.484356  1
  O  O70  1  0.525634  0.250444  0.985309  1
  O  O71  1  0.122802  0.093884  0.865252  1
  O  O72  1  0.358825  0.398907  0.871144  1
  O  O73  1  0.351102  0.893248  0.617435  1
  O  O74  1  0.655767  0.644583  0.885147  1
  O  O75  1  0.102815  0.591506  0.633068  1
  O  O76  1  0.015084  0.285224  0.744417  1
  O  O77  1  0.397185  0.908494  0.866932  1
  O  O78  1  0.035615  0.269641  0.005726  1
  O  O79  1  0.148898  0.606752  0.882565  1
