# generated using pymatgen
data_Fe6O11F
_symmetry_space_group_name_H-M   'P 1'
_cell_length_a   4.63381794
_cell_length_b   7.55472779
_cell_length_c   5.50847965
_cell_angle_alpha   95.08909357
_cell_angle_beta   91.21616123
_cell_angle_gamma   89.07644099
_symmetry_Int_Tables_number   1
_chemical_formula_structural   Fe6O11F
_chemical_formula_sum   'Fe6 O11 F1'
_cell_volume   192.01357321
_cell_formula_units_Z   1
loop_
 _symmetry_equiv_pos_site_id
 _symmetry_equiv_pos_as_xyz
  1  'x, y, z'
loop_
 _atom_site_type_symbol
 _atom_site_label
 _atom_site_symmetry_multiplicity
 _atom_site_fract_x
 _atom_site_fract_y
 _atom_site_fract_z
 _atom_site_occupancy
  Fe  Fe0  1  0.517565  0.672755  0.157091  1
  Fe  Fe1  1  0.497514  0.997930  0.501642  1
  Fe  Fe2  1  0.498995  0.334427  0.832010  1
  Fe  Fe3  1  0.993789  0.668514  0.676121  1
  Fe  Fe4  1  0.986342  0.323987  0.334338  1
  Fe  Fe5  1  0.003640  0.000906  -0.000369  1
  O  O6  1  0.811576  0.437256  0.622200  1
  O  O7  1  0.814941  0.779416  0.969568  1
  O  O8  1  0.803697  0.094045  0.288778  1
  O  O9  1  0.692238  0.104179  0.791723  1
  O  O10  1  0.688925  0.767218  0.465956  1
  O  O11  1  0.692192  0.437097  0.126115  1
  O  O12  1  0.310614  0.564615  0.869572  1
  O  O13  1  0.305939  0.231055  0.536961  1
  O  O14  1  0.307758  0.895536  0.211318  1
  O  O15  1  0.185267  0.226385  0.039803  1
  O  O16  1  0.191947  0.899968  0.713152  1
  F  F17  1  0.197061  0.564710  0.364021  1
