# generated using pymatgen
data_PuAu3
_symmetry_space_group_name_H-M   'P 1'
_cell_length_a   6.37366759
_cell_length_b   6.37366712
_cell_length_c   4.85632670
_cell_angle_alpha   90.00000000
_cell_angle_beta   90.00000000
_cell_angle_gamma   120.00000250
_symmetry_Int_Tables_number   1
_chemical_formula_structural   PuAu3
_chemical_formula_sum   'Pu2 Au6'
_cell_volume   170.85091275
_cell_formula_units_Z   2
loop_
 _symmetry_equiv_pos_site_id
 _symmetry_equiv_pos_as_xyz
  1  'x, y, z'
loop_
 _atom_site_type_symbol
 _atom_site_label
 _atom_site_symmetry_multiplicity
 _atom_site_fract_x
 _atom_site_fract_y
 _atom_site_fract_z
 _atom_site_occupancy
  Pu  Pu0  1  0.333333  0.666666  0.750000  1
  Pu  Pu1  1  0.666668  0.333333  0.250000  1
  Au  Au2  1  0.159159  0.318318  0.250000  1
  Au  Au3  1  0.681681  0.840840  0.250000  1
  Au  Au4  1  0.159159  0.840840  0.250000  1
  Au  Au5  1  0.840841  0.681682  0.750000  1
  Au  Au6  1  0.318318  0.159160  0.750000  1
  Au  Au7  1  0.840842  0.159160  0.750000  1
