# generated using pymatgen
data_V2O3
_symmetry_space_group_name_H-M   'P 1'
_cell_length_a   5.13475632
_cell_length_b   5.47013352
_cell_length_c   15.06834135
_cell_angle_alpha   89.99631598
_cell_angle_beta   90.00014791
_cell_angle_gamma   90.00078258
_symmetry_Int_Tables_number   1
_chemical_formula_structural   V2O3
_chemical_formula_sum   'V16 O24'
_cell_volume   423.23659757
_cell_formula_units_Z   8
loop_
 _symmetry_equiv_pos_site_id
 _symmetry_equiv_pos_as_xyz
  1  'x, y, z'
loop_
 _atom_site_type_symbol
 _atom_site_label
 _atom_site_symmetry_multiplicity
 _atom_site_fract_x
 _atom_site_fract_y
 _atom_site_fract_z
 _atom_site_occupancy
  V  V0  1  0.000680  0.183901  0.073436  1
  V  V1  1  0.997247  0.749255  0.179195  1
  V  V2  1  0.000638  0.316179  0.573427  1
  V  V3  1  0.997244  0.750802  0.679200  1
  V  V4  1  0.502762  0.249264  0.179202  1
  V  V5  1  0.502738  0.250805  0.679200  1
  V  V6  1  0.499384  0.816181  0.573431  1
  V  V7  1  0.499340  0.683892  0.073437  1
  V  V8  1  0.500651  0.183858  0.426568  1
  V  V9  1  0.500675  0.316060  0.926564  1
  V  V10  1  0.497238  0.749231  0.320797  1
  V  V11  1  0.497253  0.750721  0.820810  1
  V  V12  1  0.999377  0.683867  0.426569  1
  V  V13  1  0.002781  0.249253  0.320788  1
  V  V14  1  0.002725  0.250720  0.820802  1
  V  V15  1  0.999335  0.816063  0.926568  1
  O  O16  1  0.142045  0.115992  0.202530  1
  O  O17  1  0.141999  0.383945  0.702522  1
  O  O18  1  0.150159  0.836331  0.050877  1
  O  O19  1  0.150164  0.663792  0.550871  1
  O  O20  1  0.199250  0.966948  0.375364  1
  O  O21  1  0.199191  0.533009  0.875381  1
  O  O22  1  0.300775  0.466945  0.375367  1
  O  O23  1  0.300812  0.033016  0.875375  1
  O  O24  1  0.349821  0.163788  0.550873  1
  O  O25  1  0.349815  0.336324  0.050894  1
  O  O26  1  0.357945  0.616000  0.202523  1
  O  O27  1  0.357985  0.883935  0.702518  1
  O  O28  1  0.642022  0.116111  0.297474  1
  O  O29  1  0.642029  0.383999  0.797471  1
  O  O30  1  0.650156  0.836245  0.449131  1
  O  O31  1  0.650167  0.663606  0.949125  1
  O  O32  1  0.699231  0.533061  0.624628  1
  O  O33  1  0.699205  0.966926  0.124624  1
  O  O34  1  0.800813  0.466919  0.124629  1
  O  O35  1  0.800775  0.033076  0.624639  1
  O  O36  1  0.849845  0.336244  0.449116  1
  O  O37  1  0.849801  0.163621  0.949113  1
  O  O38  1  0.857951  0.883989  0.797484  1
  O  O39  1  0.857977  0.616124  0.297479  1
