# generated using pymatgen
data_LiMn2(BO3)2
_symmetry_space_group_name_H-M   'P 1'
_cell_length_a   5.80270509
_cell_length_b   5.30009372
_cell_length_c   18.01444645
_cell_angle_alpha   97.80423178
_cell_angle_beta   83.85873933
_cell_angle_gamma   114.13504679
_symmetry_Int_Tables_number   1
_chemical_formula_structural   LiMn2(BO3)2
_chemical_formula_sum   'Li4 Mn8 B8 O24'
_cell_volume   500.10609897
_cell_formula_units_Z   4
loop_
 _symmetry_equiv_pos_site_id
 _symmetry_equiv_pos_as_xyz
  1  'x, y, z'
loop_
 _atom_site_type_symbol
 _atom_site_label
 _atom_site_symmetry_multiplicity
 _atom_site_fract_x
 _atom_site_fract_y
 _atom_site_fract_z
 _atom_site_occupancy
  Li  Li0  1  0.904152  0.929991  0.764804  1
  Li  Li1  1  0.345848  0.570009  0.985196  1
  Li  Li2  1  0.149814  0.425168  0.515575  1
  Li  Li3  1  0.100187  0.074832  0.234425  1
  Mn  Mn4  1  0.898017  0.464096  0.848304  1
  Mn  Mn5  1  0.842324  0.034212  0.404838  1
  Mn  Mn6  1  0.351983  0.035904  0.901696  1
  Mn  Mn7  1  0.590530  0.532909  0.655236  1
  Mn  Mn8  1  0.407676  0.465788  0.345162  1
  Mn  Mn9  1  0.659470  0.967091  0.094764  1
  Mn  Mn10  1  0.144216  0.964662  0.598264  1
  Mn  Mn11  1  0.105784  0.535338  0.151736  1
  B  B12  1  0.687047  0.051100  0.568947  1
  B  B13  1  0.944784  0.549796  0.312769  1
  B  B14  1  0.809795  0.942593  0.928899  1
  B  B15  1  0.440205  0.557407  0.821101  1
  B  B16  1  0.562953  0.448900  0.181053  1
  B  B17  1  0.186806  0.045378  0.065354  1
  B  B18  1  0.063194  0.454622  0.684646  1
  B  B19  1  0.305216  0.950204  0.437231  1
  O  O20  1  0.993327  0.306169  0.744950  1
  O  O21  1  0.725107  0.140251  0.913576  1
  O  O22  1  0.996607  0.676599  0.679208  1
  O  O23  1  0.981532  0.891840  0.872030  1
  O  O24  1  0.784086  0.199822  0.509175  1
  O  O25  1  0.715920  0.793572  0.987738  1
  O  O26  1  0.501674  0.098216  0.619280  1
  O  O27  1  0.785142  0.620178  0.367095  1
  O  O28  1  0.524893  0.359749  0.836424  1
  O  O29  1  0.780293  0.863429  0.587778  1
  O  O30  1  0.748326  0.401784  0.130720  1
  O  O31  1  0.534080  0.706428  0.762262  1
  O  O32  1  0.465914  0.300178  0.240825  1
  O  O33  1  0.268468  0.608160  0.877970  1
  O  O34  1  0.230564  0.163803  0.426645  1
  O  O35  1  0.469707  0.636571  0.162222  1
  O  O36  1  0.200595  0.378060  0.622212  1
  O  O37  1  0.464858  0.879822  0.382905  1
  O  O38  1  0.256673  0.193831  0.005050  1
  O  O39  1  0.218052  0.800371  0.498126  1
  O  O40  1  0.049405  0.121940  0.127788  1
  O  O41  1  0.019436  0.336197  0.323355  1
  O  O42  1  0.253393  0.823401  0.070792  1
  O  O43  1  0.031948  0.699629  0.251874  1
