# generated using pymatgen
data_AlInSe3
_symmetry_space_group_name_H-M   'P 1'
_cell_length_a   7.10854864
_cell_length_b   7.10854745
_cell_length_c   19.01738769
_cell_angle_alpha   90.00000000
_cell_angle_beta   90.00000000
_cell_angle_gamma   120.00000275
_symmetry_Int_Tables_number   1
_chemical_formula_structural   AlInSe3
_chemical_formula_sum   'Al6 In6 Se18'
_cell_volume   832.22984449
_cell_formula_units_Z   6
loop_
 _symmetry_equiv_pos_site_id
 _symmetry_equiv_pos_as_xyz
  1  'x, y, z'
loop_
 _atom_site_type_symbol
 _atom_site_label
 _atom_site_symmetry_multiplicity
 _atom_site_fract_x
 _atom_site_fract_y
 _atom_site_fract_z
 _atom_site_occupancy
  Al  Al0  1  0.326253  0.014441  0.191318  1
  Al  Al1  1  0.673747  0.985561  0.691318  1
  Al  Al2  1  0.985561  0.311813  0.524651  1
  Al  Al3  1  0.688187  0.673748  0.857985  1
  Al  Al4  1  0.311812  0.326252  0.357985  1
  Al  Al5  1  0.014439  0.688187  0.024652  1
  In  In6  1  0.991181  0.330533  0.163118  1
  In  In7  1  0.008820  0.669469  0.663118  1
  In  In8  1  0.669469  0.660650  0.496451  1
  In  In9  1  0.339351  0.008819  0.829785  1
  In  In10  1  0.660649  0.991181  0.329785  1
  In  In11  1  0.330531  0.339350  0.996452  1
  Se  Se12  1  0.371955  0.046267  0.678474  1
  Se  Se13  1  0.628045  0.953732  0.178474  1
  Se  Se14  1  0.953731  0.325686  0.011808  1
  Se  Se15  1  0.674314  0.628046  0.345141  1
  Se  Se16  1  0.325685  0.371954  0.845141  1
  Se  Se17  1  0.046268  0.674314  0.511807  1
  Se  Se18  1  0.277305  0.983606  0.319093  1
  Se  Se19  1  0.722694  0.016394  0.819093  1
  Se  Se20  1  0.016394  0.293700  0.652426  1
  Se  Se21  1  0.706299  0.722693  0.985760  1
  Se  Se22  1  0.293700  0.277307  0.485760  1
  Se  Se23  1  0.983605  0.706300  0.152427  1
  Se  Se24  1  0.021228  0.371884  0.313997  1
  Se  Se25  1  0.978773  0.628118  0.813996  1
  Se  Se26  1  0.628118  0.649345  0.647329  1
  Se  Se27  1  0.350656  0.978774  0.980663  1
  Se  Se28  1  0.649345  0.021228  0.480663  1
  Se  Se29  1  0.371883  0.350656  0.147330  1
