# generated using pymatgen
data_Li8V3P8O29
_symmetry_space_group_name_H-M   'P 1'
_cell_length_a   9.90597600
_cell_length_b   9.90413579
_cell_length_c   13.85928170
_cell_angle_alpha   90.03768705
_cell_angle_beta   89.94567622
_cell_angle_gamma   60.01228871
_symmetry_Int_Tables_number   1
_chemical_formula_structural   Li8V3P8O29
_chemical_formula_sum   'Li16 V6 P16 O58'
_cell_volume   1177.71012960
_cell_formula_units_Z   2
loop_
 _symmetry_equiv_pos_site_id
 _symmetry_equiv_pos_as_xyz
  1  'x, y, z'
loop_
 _atom_site_type_symbol
 _atom_site_label
 _atom_site_symmetry_multiplicity
 _atom_site_fract_x
 _atom_site_fract_y
 _atom_site_fract_z
 _atom_site_occupancy
  Li  Li0  1  0.091214  0.224645  0.936498  1
  Li  Li1  1  0.225197  0.091987  0.439609  1
  Li  Li2  1  0.091271  0.684095  0.436497  1
  Li  Li3  1  0.332551  0.337530  0.120181  1
  Li  Li4  1  0.332442  0.329974  0.620151  1
  Li  Li5  1  0.225186  0.682809  0.939617  1
  Li  Li6  1  0.316310  0.775250  0.560602  1
  Li  Li7  1  0.681112  0.092492  0.936823  1
  Li  Li8  1  0.316484  0.908340  0.060617  1
  Li  Li9  1  0.681129  0.226407  0.436833  1
  Li  Li10  1  0.776141  0.315578  0.063462  1
  Li  Li11  1  0.665056  0.664426  0.379840  1
  Li  Li12  1  0.665022  0.670549  0.879844  1
  Li  Li13  1  0.907954  0.319154  0.563023  1
  Li  Li14  1  0.775939  0.908376  0.563481  1
  Li  Li15  1  0.907988  0.772798  0.062961  1
  V  V16  1  0.000898  0.430323  0.750382  1
  V  V17  1  0.000845  0.568828  0.250347  1
  V  V18  1  0.431488  0.999952  0.249875  1
  V  V19  1  0.570158  0.999156  0.749752  1
  V  V20  1  0.431455  0.568564  0.749846  1
  V  V21  1  0.570292  0.430562  0.249884  1
  P  P22  1  0.091595  0.233978  0.156499  1
  P  P23  1  0.234812  0.089283  0.657332  1
  P  P24  1  0.091509  0.674421  0.656371  1
  P  P25  1  0.335229  0.330267  0.377627  1
  P  P26  1  0.335126  0.334707  0.877601  1
  P  P27  1  0.234877  0.675815  0.157273  1
  P  P28  1  0.324334  0.766670  0.342811  1
  P  P29  1  0.677063  0.088699  0.156380  1
  P  P30  1  0.324360  0.909050  0.842833  1
  P  P31  1  0.677034  0.234151  0.656386  1
  P  P32  1  0.765368  0.324002  0.843908  1
  P  P33  1  0.666454  0.669289  0.122380  1
  P  P34  1  0.666517  0.664110  0.622429  1
  P  P35  1  0.910689  0.324590  0.343113  1
  P  P36  1  0.765353  0.910695  0.343860  1
  P  P37  1  0.910646  0.764778  0.843074  1
  O  O38  1  0.003089  0.219341  0.250197  1
  O  O39  1  0.004928  0.249248  0.432458  1
  O  O40  1  0.081355  0.245849  0.657173  1
  O  O41  1  0.245477  0.003111  0.931822  1
  O  O42  1  0.250566  0.080135  0.156136  1
  O  O43  1  0.120899  0.371085  0.171321  1
  O  O44  1  0.186609  0.333686  0.841877  1
  O  O45  1  0.120781  0.508066  0.671046  1
  O  O46  1  0.004942  0.745895  0.932419  1
  O  O47  1  0.002943  0.777550  0.750135  1
  O  O48  1  0.081351  0.672730  0.157144  1
  O  O49  1  0.335888  0.179324  0.331244  1
  O  O50  1  0.186641  0.479813  0.342054  1
  O  O51  1  0.371135  0.119512  0.675441  1
  O  O52  1  0.335300  0.313582  0.485454  1
  O  O53  1  0.334831  0.351459  0.985470  1
  O  O54  1  0.509701  0.114868  0.171899  1
  O  O55  1  0.335808  0.484921  0.831248  1
  O  O56  1  0.485065  0.187123  0.842029  1
  O  O57  1  0.250485  0.669377  0.656034  1
  O  O58  1  0.220111  0.782636  0.249613  1
  O  O59  1  0.245485  0.751571  0.431790  1
  O  O60  1  0.371144  0.509368  0.175414  1
  O  O61  1  0.254404  0.750988  0.068007  1
  O  O62  1  0.485197  0.327790  0.341977  1
  O  O63  1  0.509664  0.375391  0.671894  1
  O  O64  1  0.329769  0.749984  0.843416  1
  O  O65  1  0.670800  0.082685  0.655854  1
  O  O66  1  0.220110  0.997322  0.749617  1
  O  O67  1  0.254344  0.994592  0.567956  1
  O  O68  1  0.748017  0.004742  0.433000  1
  O  O69  1  0.779383  0.999233  0.250060  1
  O  O70  1  0.329952  0.920198  0.343488  1
  O  O71  1  0.670908  0.246404  0.155949  1
  O  O72  1  0.490292  0.629412  0.327056  1
  O  O73  1  0.515834  0.663529  0.668359  1
  O  O74  1  0.623871  0.490963  0.828128  1
  O  O75  1  0.747939  0.247378  0.932986  1
  O  O76  1  0.753774  0.250998  0.567191  1
  O  O77  1  0.779364  0.221344  0.750082  1
  O  O78  1  0.754462  0.326738  0.342842  1
  O  O79  1  0.515843  0.820589  0.168409  1
  O  O80  1  0.667355  0.519802  0.157801  1
  O  O81  1  0.490324  0.880212  0.827110  1
  O  O82  1  0.650939  0.685932  0.014523  1
  O  O83  1  0.651160  0.662800  0.514537  1
  O  O84  1  0.623900  0.885121  0.328088  1
  O  O85  1  0.813515  0.514449  0.658714  1
  O  O86  1  0.667430  0.812835  0.657836  1
  O  O87  1  0.916389  0.330945  0.845157  1
  O  O88  1  0.998170  0.248060  0.067479  1
  O  O89  1  0.879458  0.491809  0.326018  1
  O  O90  1  0.813563  0.671996  0.158629  1
  O  O91  1  0.879452  0.628720  0.825974  1
  O  O92  1  0.754354  0.918774  0.842819  1
  O  O93  1  0.753783  0.995121  0.067139  1
  O  O94  1  0.916371  0.752752  0.345083  1
  O  O95  1  0.997977  0.753847  0.567399  1
