# generated using pymatgen
data_Li5Mn6(BO3)6
_symmetry_space_group_name_H-M   'P 1'
_cell_length_a   8.21677924
_cell_length_b   12.65352668
_cell_length_c   8.85616187
_cell_angle_alpha   109.91970944
_cell_angle_beta   117.65368213
_cell_angle_gamma   71.40151847
_symmetry_Int_Tables_number   1
_chemical_formula_structural   Li5Mn6(BO3)6
_chemical_formula_sum   'Li10 Mn12 B12 O36'
_cell_volume   752.37575981
_cell_formula_units_Z   2
loop_
 _symmetry_equiv_pos_site_id
 _symmetry_equiv_pos_as_xyz
  1  'x, y, z'
loop_
 _atom_site_type_symbol
 _atom_site_label
 _atom_site_symmetry_multiplicity
 _atom_site_fract_x
 _atom_site_fract_y
 _atom_site_fract_z
 _atom_site_occupancy
  Li  Li0  1  0.295056  0.308985  0.593862  1
  Li  Li1  1  0.303785  0.553898  0.837291  1
  Li  Li2  1  0.977656  0.196964  0.899718  1
  Li  Li3  1  0.299539  0.802840  0.077334  1
  Li  Li4  1  0.715440  0.374547  0.391545  1
  Li  Li5  1  0.707122  0.123071  0.135244  1
  Li  Li6  1  0.717149  0.867647  0.884658  1
  Li  Li7  1  0.727022  0.618226  0.639400  1
  Li  Li8  1  0.981810  0.950263  0.646841  1
  Li  Li9  1  0.989412  0.702766  0.408467  1
  Mn  Mn10  1  0.015938  0.402695  0.802800  1
  Mn  Mn11  1  0.018253  0.159626  0.521726  1
  Mn  Mn12  1  0.617728  0.090317  0.720297  1
  Mn  Mn13  1  0.632345  0.341417  0.977198  1
  Mn  Mn14  1  0.015083  0.657209  0.032879  1
  Mn  Mn15  1  0.024318  0.915242  0.271891  1
  Mn  Mn16  1  0.344407  0.250525  0.248400  1
  Mn  Mn17  1  0.345063  0.501067  0.477328  1
  Mn  Mn18  1  0.357122  0.001361  0.001145  1
  Mn  Mn19  1  0.364413  0.750975  0.740080  1
  Mn  Mn20  1  0.612493  0.843557  0.468383  1
  Mn  Mn21  1  0.650550  0.587200  0.228765  1
  B  B22  1  0.008492  0.501113  0.519271  1
  B  B23  1  0.326481  0.209497  0.881347  1
  B  B24  1  0.334855  0.954493  0.624426  1
  B  B25  1  0.664582  0.541711  0.860475  1
  B  B26  1  0.338867  0.711891  0.373461  1
  B  B27  1  0.663381  0.297122  0.625930  1
  B  B28  1  0.674876  0.036024  0.374216  1
  B  B29  1  0.338459  0.454173  0.122923  1
  B  B30  1  0.986713  0.251100  0.250393  1
  B  B31  1  0.986002  0.997313  0.984194  1
  B  B32  1  0.997495  0.750233  0.748067  1
  B  B33  1  0.677151  0.795085  0.133639  1
  O  O34  1  0.247121  0.176528  0.960903  1
  O  O35  1  0.225629  0.010530  0.491977  1
  O  O36  1  0.209592  0.271454  0.748032  1
  O  O37  1  0.217143  0.497083  0.969448  1
  O  O38  1  0.176587  0.237435  0.351887  1
  O  O39  1  0.203315  0.471677  0.596536  1
  O  O40  1  0.192534  0.717264  0.825638  1
  O  O41  1  0.516685  0.184641  0.925324  1
  O  O42  1  0.262024  0.926562  0.715842  1
  O  O43  1  0.578986  0.263469  0.701477  1
  O  O44  1  0.258359  0.679513  0.452904  1
  O  O45  1  0.587301  0.518862  0.952512  1
  O  O46  1  0.262966  0.422092  0.204599  1
  O  O47  1  0.605686  0.996594  0.459454  1
  O  O48  1  0.553551  0.589907  0.717761  1
  O  O49  1  0.229878  0.756247  0.225697  1
  O  O50  1  0.554596  0.088650  0.237506  1
  O  O51  1  0.558802  0.342267  0.480847  1
  O  O52  1  0.564165  0.838048  0.986252  1
  O  O53  1  0.907623  0.048177  0.842045  1
  O  O54  1  0.175860  0.956896  0.057243  1
  O  O55  1  0.531717  0.923635  0.669869  1
  O  O56  1  0.860940  0.281708  0.700135  1
  O  O57  1  0.535866  0.700747  0.443370  1
  O  O58  1  0.859245  0.519954  0.914252  1
  O  O59  1  0.866891  0.022422  0.435367  1
  O  O60  1  0.530530  0.446181  0.183310  1
  O  O61  1  0.867565  0.233276  0.310027  1
  O  O62  1  0.899748  0.472638  0.578231  1
  O  O63  1  0.889367  0.730100  0.815160  1
  O  O64  1  0.590514  0.770753  0.220542  1
  O  O65  1  0.910029  0.280755  0.091821  1
  O  O66  1  0.925230  0.561723  0.390025  1
  O  O67  1  0.911390  0.801935  0.606087  1
  O  O68  1  0.869709  0.772189  0.195933  1
  O  O69  1  0.870108  0.983857  0.050635  1
