# generated using pymatgen
data_LiV2OF5
_symmetry_space_group_name_H-M   'P 1'
_cell_length_a   4.66180837
_cell_length_b   17.08588103
_cell_length_c   5.20234745
_cell_angle_alpha   90.23482112
_cell_angle_beta   90.07006003
_cell_angle_gamma   90.21150844
_symmetry_Int_Tables_number   1
_chemical_formula_structural   LiV2OF5
_chemical_formula_sum   'Li4 V8 O4 F20'
_cell_volume   414.36609279
_cell_formula_units_Z   4
loop_
 _symmetry_equiv_pos_site_id
 _symmetry_equiv_pos_as_xyz
  1  'x, y, z'
loop_
 _atom_site_type_symbol
 _atom_site_label
 _atom_site_symmetry_multiplicity
 _atom_site_fract_x
 _atom_site_fract_y
 _atom_site_fract_z
 _atom_site_occupancy
  Li  Li0  1  0.981674  0.379516  0.248484  1
  Li  Li1  1  0.005804  0.617619  0.754894  1
  Li  Li2  1  0.500520  0.879912  0.250469  1
  Li  Li3  1  0.491162  0.117935  0.767860  1
  V  V4  1  0.979480  0.283345  0.724050  1
  V  V5  1  0.025041  0.056987  0.246535  1
  V  V6  1  0.003864  0.951711  0.749239  1
  V  V7  1  0.030371  0.715764  0.233287  1
  V  V8  1  0.498698  0.215865  0.249170  1
  V  V9  1  0.481010  0.556500  0.242546  1
  V  V10  1  0.489849  0.783577  0.769783  1
  V  V11  1  0.495972  0.450951  0.744400  1
  O  O12  1  0.267378  0.790507  0.065673  1
  O  O13  1  0.228034  0.626749  0.101336  1
  O  O14  1  0.273642  0.129338  0.119038  1
  O  O15  1  0.755938  0.285280  0.431419  1
  F  F16  1  0.227415  0.962428  0.080641  1
  F  F17  1  0.234373  0.036589  0.593836  1
  F  F18  1  0.264081  0.207277  0.589544  1
  F  F19  1  0.232485  0.375408  0.582487  1
  F  F20  1  0.267093  0.874658  0.592689  1
  F  F21  1  0.230184  0.292993  0.063303  1
  F  F22  1  0.238788  0.706851  0.581348  1
  F  F23  1  0.275509  0.461577  0.078445  1
  F  F24  1  0.271895  0.536963  0.588819  1
  F  F25  1  0.715997  0.463571  0.413407  1
  F  F26  1  0.718922  0.536953  0.908101  1
  F  F27  1  0.766805  0.706244  0.913242  1
  F  F28  1  0.741811  0.875422  0.906269  1
  F  F29  1  0.740933  0.125347  0.417147  1
  F  F30  1  0.757537  0.374192  0.900432  1
  F  F31  1  0.761240  0.627934  0.409046  1
  F  F32  1  0.739416  0.788401  0.432939  1
  F  F33  1  0.732799  0.205780  0.920816  1
  F  F34  1  0.786529  0.037924  0.911145  1
  F  F35  1  0.787747  0.961930  0.418161  1
