# generated using pymatgen
data_V2OF5
_symmetry_space_group_name_H-M   'P 1'
_cell_length_a   5.23182148
_cell_length_b   13.55057306
_cell_length_c   5.28023990
_cell_angle_alpha   89.69326275
_cell_angle_beta   120.07889397
_cell_angle_gamma   89.67542892
_symmetry_Int_Tables_number   1
_chemical_formula_structural   V2OF5
_chemical_formula_sum   'V6 O3 F15'
_cell_volume   323.90870708
_cell_formula_units_Z   3
loop_
 _symmetry_equiv_pos_site_id
 _symmetry_equiv_pos_as_xyz
  1  'x, y, z'
loop_
 _atom_site_type_symbol
 _atom_site_label
 _atom_site_symmetry_multiplicity
 _atom_site_fract_x
 _atom_site_fract_y
 _atom_site_fract_z
 _atom_site_occupancy
  V  V0  1  0.983337  0.502394  0.996539  1
  V  V1  1  0.018000  0.998907  0.004785  1
  V  V2  1  0.651806  0.839071  0.332507  1
  V  V3  1  0.350679  0.661619  0.685409  1
  V  V4  1  0.656514  0.331324  0.334827  1
  V  V5  1  0.340256  0.172586  0.646282  1
  O  O6  1  0.361774  0.915908  0.248397  1
  O  O7  1  0.414329  0.246090  0.432601  1
  O  O8  1  0.640455  0.586067  0.895862  1
  F  F9  1  0.001370  0.750196  0.422867  1
  F  F10  1  0.408796  0.747088  0.010169  1
  F  F11  1  0.323205  0.418152  0.067566  1
  F  F12  1  0.071473  0.083269  0.336020  1
  F  F13  1  0.245753  0.589014  0.322229  1
  F  F14  1  0.598573  0.245899  0.009470  1
  F  F15  1  0.003773  0.249032  0.606225  1
  F  F16  1  0.759453  0.910099  0.072472  1
  F  F17  1  0.057729  0.584914  0.725228  1
  F  F18  1  0.592251  0.753715  0.600340  1
  F  F19  1  0.923480  0.416012  0.265563  1
  F  F20  1  0.262677  0.087541  0.917542  1
  F  F21  1  0.726720  0.416430  0.665197  1
  F  F22  1  0.664323  0.078675  0.739437  1
  F  F23  1  0.943274  0.915997  0.662466  1
