# generated using pymatgen
data_LiFe4(BO3)4
_symmetry_space_group_name_H-M   'P 1'
_cell_length_a   5.23758603
_cell_length_b   9.13939392
_cell_length_c   11.34319619
_cell_angle_alpha   66.47311112
_cell_angle_beta   76.69546813
_cell_angle_gamma   88.98199304
_symmetry_Int_Tables_number   1
_chemical_formula_structural   LiFe4(BO3)4
_chemical_formula_sum   'Li2 Fe8 B8 O24'
_cell_volume   482.80865728
_cell_formula_units_Z   2
loop_
 _symmetry_equiv_pos_site_id
 _symmetry_equiv_pos_as_xyz
  1  'x, y, z'
loop_
 _atom_site_type_symbol
 _atom_site_label
 _atom_site_symmetry_multiplicity
 _atom_site_fract_x
 _atom_site_fract_y
 _atom_site_fract_z
 _atom_site_occupancy
  Li  Li0  1  0.713479  0.726197  0.903942  1
  Li  Li1  1  0.235158  0.249055  0.158395  1
  Fe  Fe2  1  0.983298  0.650282  0.370896  1
  Fe  Fe3  1  0.732774  0.068382  0.881282  1
  Fe  Fe4  1  0.519962  0.848032  0.623752  1
  Fe  Fe5  1  0.748943  0.442304  0.137146  1
  Fe  Fe6  1  0.229875  0.554440  0.879500  1
  Fe  Fe7  1  0.489247  0.149203  0.379149  1
  Fe  Fe8  1  0.024134  0.352582  0.628159  1
  Fe  Fe9  1  0.252342  0.930983  0.125946  1
  B  B10  1  0.976918  0.314877  0.379685  1
  B  B11  1  0.733009  0.399624  0.873411  1
  B  B12  1  0.528040  0.183832  0.631752  1
  B  B13  1  0.766315  0.111965  0.125456  1
  B  B14  1  0.470331  0.810350  0.377934  1
  B  B15  1  0.231442  0.890584  0.876270  1
  B  B16  1  0.024280  0.683644  0.630031  1
  B  B17  1  0.269009  0.602750  0.121901  1
  O  O18  1  0.970698  0.903311  0.876157  1
  O  O19  1  0.880114  0.293478  0.830570  1
  O  O20  1  0.856936  0.503219  0.910691  1
  O  O21  1  0.858146  0.795103  0.644239  1
  O  O22  1  0.966160  0.579491  0.576512  1
  O  O23  1  0.758509  0.169029  0.677539  1
  O  O24  1  0.738888  0.323904  0.344339  1
  O  O25  1  0.470496  0.402334  0.881738  1
  O  O26  1  0.374359  0.776299  0.837731  1
  O  O27  1  0.530261  0.920207  0.429751  1
  O  O28  1  0.635187  0.696762  0.373192  1
  O  O29  1  0.368997  0.981978  0.916229  1
  O  O30  1  0.647768  0.028682  0.069974  1
  O  O31  1  0.366703  0.299528  0.634757  1
  O  O32  1  0.468329  0.073948  0.581202  1
  O  O33  1  0.601976  0.207479  0.178348  1
  O  O34  1  0.534736  0.622013  0.097167  1
  O  O35  1  0.256537  0.668457  0.674704  1
  O  O36  1  0.239318  0.824832  0.335803  1
  O  O37  1  0.038439  0.418716  0.433151  1
  O  O38  1  0.150844  0.211270  0.355663  1
  O  O39  1  0.152958  0.495450  0.082468  1
  O  O40  1  0.107790  0.691462  0.178426  1
  O  O41  1  0.022221  0.106449  0.128966  1
