# generated using pymatgen
data_Li8MnFe7(BO3)8
_symmetry_space_group_name_H-M   'P 1'
_cell_length_a   5.22889336
_cell_length_b   9.05516053
_cell_length_c   11.51277215
_cell_angle_alpha   67.84653562
_cell_angle_beta   77.46394540
_cell_angle_gamma   89.78292161
_symmetry_Int_Tables_number   1
_chemical_formula_structural   Li8MnFe7(BO3)8
_chemical_formula_sum   'Li8 Mn1 Fe7 B8 O24'
_cell_volume   490.99372046
_cell_formula_units_Z   1
loop_
 _symmetry_equiv_pos_site_id
 _symmetry_equiv_pos_as_xyz
  1  'x, y, z'
loop_
 _atom_site_type_symbol
 _atom_site_label
 _atom_site_symmetry_multiplicity
 _atom_site_fract_x
 _atom_site_fract_y
 _atom_site_fract_z
 _atom_site_occupancy
  Li  Li0  1  0.970096  0.958063  0.416575  1
  Li  Li1  1  0.706946  0.716940  0.915689  1
  Li  Li2  1  0.516342  0.493341  0.666800  1
  Li  Li3  1  0.730761  0.757043  0.166067  1
  Li  Li4  1  0.471860  0.459443  0.416483  1
  Li  Li5  1  0.205067  0.214758  0.916595  1
  Li  Li6  1  0.012392  0.991857  0.668742  1
  Li  Li7  1  0.231537  0.253995  0.166248  1
  Mn  Mn8  1  0.758997  0.433541  0.131882  1
  Fe  Fe9  1  0.969415  0.642729  0.384931  1
  Fe  Fe10  1  0.721360  0.067258  0.882288  1
  Fe  Fe11  1  0.529224  0.849143  0.629961  1
  Fe  Fe12  1  0.470573  0.144203  0.383480  1
  Fe  Fe13  1  0.234292  0.567312  0.878721  1
  Fe  Fe14  1  0.252645  0.929825  0.134384  1
  Fe  Fe15  1  0.028658  0.344152  0.631933  1
  B  B16  1  0.977831  0.313898  0.377831  1
  B  B17  1  0.733656  0.396043  0.875041  1
  B  B18  1  0.763545  0.104350  0.127541  1
  B  B19  1  0.525555  0.185179  0.626386  1
  B  B20  1  0.477676  0.814750  0.376898  1
  B  B21  1  0.231371  0.896309  0.875577  1
  B  B22  1  0.267946  0.608501  0.124994  1
  B  B23  1  0.026520  0.683595  0.626449  1
  O  O24  1  0.976183  0.895298  0.862145  1
  O  O25  1  0.898317  0.285256  0.845560  1
  O  O26  1  0.833087  0.506613  0.914660  1
  O  O27  1  0.916358  0.827127  0.614351  1
  O  O28  1  0.898405  0.571930  0.596200  1
  O  O29  1  0.761815  0.156311  0.664220  1
  O  O30  1  0.731280  0.339286  0.349054  1
  O  O31  1  0.476037  0.393180  0.862902  1
  O  O32  1  0.397516  0.786612  0.845432  1
  O  O33  1  0.597695  0.918190  0.417344  1
  O  O34  1  0.603839  0.684924  0.363528  1
  O  O35  1  0.331484  0.006133  0.916215  1
  O  O36  1  0.658648  0.986446  0.096387  1
  O  O37  1  0.415707  0.328709  0.613775  1
  O  O38  1  0.397176  0.072245  0.597460  1
  O  O39  1  0.597033  0.204845  0.168410  1
  O  O40  1  0.535797  0.629557  0.111255  1
  O  O41  1  0.262751  0.654426  0.664715  1
  O  O42  1  0.232290  0.840909  0.346816  1
  O  O43  1  0.098688  0.419038  0.416107  1
  O  O44  1  0.103125  0.183572  0.364825  1
  O  O45  1  0.166082  0.488147  0.095211  1
  O  O46  1  0.099167  0.708674  0.165899  1
  O  O47  1  0.034054  0.123141  0.113630  1
