# generated using pymatgen
data_Li4V3P8O29
_symmetry_space_group_name_H-M   'P 1'
_cell_length_a   9.76780094
_cell_length_b   9.78989347
_cell_length_c   14.15608516
_cell_angle_alpha   90.31278212
_cell_angle_beta   89.89405181
_cell_angle_gamma   59.84966400
_symmetry_Int_Tables_number   1
_chemical_formula_structural   Li4V3P8O29
_chemical_formula_sum   'Li8 V6 P16 O58'
_cell_volume   1170.51253886
_cell_formula_units_Z   2
loop_
 _symmetry_equiv_pos_site_id
 _symmetry_equiv_pos_as_xyz
  1  'x, y, z'
loop_
 _atom_site_type_symbol
 _atom_site_label
 _atom_site_symmetry_multiplicity
 _atom_site_fract_x
 _atom_site_fract_y
 _atom_site_fract_z
 _atom_site_occupancy
  Li  Li0  1  0.763722  0.903396  0.561656  1
  Li  Li1  1  0.903631  0.332146  0.558969  1
  Li  Li2  1  0.772956  0.308901  0.059838  1
  Li  Li3  1  0.319330  0.907974  0.058006  1
  Li  Li4  1  0.329057  0.767239  0.561071  1
  Li  Li5  1  0.222489  0.681657  0.940404  1
  Li  Li6  1  0.088714  0.224920  0.939989  1
  Li  Li7  1  0.997163  0.008349  0.502269  1
  V  V8  1  0.564416  0.431148  0.254383  1
  V  V9  1  0.435170  0.565927  0.748798  1
  V  V10  1  0.567998  0.000093  0.750606  1
  V  V11  1  0.437339  0.003808  0.252267  1
  V  V12  1  0.999479  0.568422  0.248923  1
  V  V13  1  0.999043  0.439351  0.747347  1
  P  P14  1  0.912201  0.773509  0.843319  1
  P  P15  1  0.776693  0.914721  0.341913  1
  P  P16  1  0.914163  0.313214  0.342004  1
  P  P17  1  0.664898  0.662768  0.131624  1
  P  P18  1  0.668587  0.665626  0.629022  1
  P  P19  1  0.769307  0.321731  0.842753  1
  P  P20  1  0.693981  0.222924  0.660651  1
  P  P21  1  0.320142  0.912947  0.842992  1
  P  P22  1  0.689946  0.084424  0.157504  1
  P  P23  1  0.312868  0.777726  0.341218  1
  P  P24  1  0.228987  0.681897  0.160231  1
  P  P25  1  0.329217  0.336442  0.368601  1
  P  P26  1  0.330019  0.335693  0.867227  1
  P  P27  1  0.082780  0.694972  0.658495  1
  P  P28  1  0.223798  0.083391  0.660862  1
  P  P29  1  0.090187  0.228674  0.159223  1
  O  O30  1  0.992620  0.791528  0.575520  1
  O  O31  1  0.915488  0.742895  0.329170  1
  O  O32  1  0.772105  0.996674  0.071725  1
  O  O33  1  0.742348  0.913471  0.836724  1
  O  O34  1  0.905851  0.618640  0.820333  1
  O  O35  1  0.815337  0.656090  0.178599  1
  O  O36  1  0.916142  0.468587  0.328908  1
  O  O37  1  0.000175  0.238878  0.071436  1
  O  O38  1  0.920258  0.338882  0.833505  1
  O  O39  1  0.681133  0.809528  0.666192  1
  O  O40  1  0.618598  0.912920  0.326750  1
  O  O41  1  0.814504  0.509339  0.672870  1
  O  O42  1  0.668266  0.654959  0.027010  1
  O  O43  1  0.681669  0.649256  0.523876  1
  O  O44  1  0.661701  0.515690  0.174674  1
  O  O45  1  0.481778  0.895943  0.821786  1
  O  O46  1  0.516378  0.816257  0.171656  1
  O  O47  1  0.741908  0.344616  0.330320  1
  O  O48  1  0.786943  0.202957  0.759334  1
  O  O49  1  0.802749  0.207420  0.581437  1
  O  O50  1  0.765787  0.254832  0.935530  1
  O  O51  1  0.620409  0.482601  0.820817  1
  O  O52  1  0.511984  0.678801  0.668033  1
  O  O53  1  0.659435  0.257471  0.162828  1
  O  O54  1  0.469737  0.617926  0.327615  1
  O  O55  1  0.346715  0.915261  0.328773  1
  O  O56  1  0.790783  0.009229  0.254450  1
  O  O57  1  0.785596  0.983625  0.433909  1
  O  O58  1  0.203129  0.993382  0.581705  1
  O  O59  1  0.662309  0.082881  0.660253  1
  O  O60  1  0.537270  0.382088  0.668079  1
  O  O61  1  0.333043  0.748524  0.839675  1
  O  O62  1  0.481338  0.331986  0.324254  1
  O  O63  1  0.381156  0.522424  0.178888  1
  O  O64  1  0.241399  0.758196  0.071787  1
  O  O65  1  0.229763  0.791353  0.431892  1
  O  O66  1  0.205299  0.793927  0.250745  1
  O  O67  1  0.255598  0.660543  0.659468  1
  O  O68  1  0.475877  0.192232  0.821350  1
  O  O69  1  0.528435  0.091346  0.178912  1
  O  O70  1  0.325763  0.489435  0.830576  1
  O  O71  1  0.312792  0.334663  0.971491  1
  O  O72  1  0.332480  0.333258  0.472742  1
  O  O73  1  0.184555  0.483655  0.323567  1
  O  O74  1  0.384742  0.075454  0.667587  1
  O  O75  1  0.330159  0.186988  0.322851  1
  O  O76  1  0.084761  0.657427  0.164184  1
  O  O77  1  0.003179  0.793706  0.753322  1
  O  O78  1  0.003547  0.757258  0.929338  1
  O  O79  1  0.083023  0.535967  0.670700  1
  O  O80  1  0.180013  0.335085  0.820454  1
  O  O81  1  0.098028  0.380133  0.177135  1
  O  O82  1  0.258742  0.081482  0.158736  1
  O  O83  1  0.247131  0.998844  0.934285  1
  O  O84  1  0.200084  0.014333  0.759763  1
  O  O85  1  0.085268  0.258741  0.660001  1
  O  O86  1  0.984066  0.227210  0.431406  1
  O  O87  1  0.005104  0.204752  0.250595  1
