# generated using pymatgen
data_Li3V3P8O29
_symmetry_space_group_name_H-M   'P 1'
_cell_length_a   9.77117187
_cell_length_b   9.76363048
_cell_length_c   14.32613019
_cell_angle_alpha   89.75248266
_cell_angle_beta   90.53915157
_cell_angle_gamma   59.91541056
_symmetry_Int_Tables_number   1
_chemical_formula_structural   Li3V3P8O29
_chemical_formula_sum   'Li6 V6 P16 O58'
_cell_volume   1182.50716348
_cell_formula_units_Z   2
loop_
 _symmetry_equiv_pos_site_id
 _symmetry_equiv_pos_as_xyz
  1  'x, y, z'
loop_
 _atom_site_type_symbol
 _atom_site_label
 _atom_site_symmetry_multiplicity
 _atom_site_fract_x
 _atom_site_fract_y
 _atom_site_fract_z
 _atom_site_occupancy
  Li  Li0  1  0.775146  0.314609  0.054256  1
  Li  Li1  1  0.296006  0.920369  0.053225  1
  Li  Li2  1  0.323644  0.765949  0.562194  1
  Li  Li3  1  0.691978  0.082523  0.936907  1
  Li  Li4  1  0.226406  0.097662  0.450327  1
  Li  Li5  1  0.919375  0.010169  0.510484  1
  V  V6  1  0.565007  0.432715  0.258203  1
  V  V7  1  0.432864  0.563586  0.750995  1
  V  V8  1  0.573449  0.990630  0.745225  1
  V  V9  1  0.437435  0.001581  0.249655  1
  V  V10  1  0.002918  0.564671  0.248482  1
  V  V11  1  0.997426  0.440091  0.748163  1
  P  P12  1  0.920140  0.771762  0.843730  1
  P  P13  1  0.781314  0.911958  0.335722  1
  P  P14  1  0.921964  0.305562  0.340404  1
  P  P15  1  0.664047  0.664517  0.134581  1
  P  P16  1  0.662564  0.665575  0.629723  1
  P  P17  1  0.774693  0.318281  0.839300  1
  P  P18  1  0.692286  0.223968  0.660076  1
  P  P19  1  0.321634  0.908413  0.839937  1
  P  P20  1  0.680092  0.093505  0.156393  1
  P  P21  1  0.315924  0.774804  0.344559  1
  P  P22  1  0.227080  0.686347  0.164523  1
  P  P23  1  0.332173  0.331067  0.367675  1
  P  P24  1  0.338565  0.325440  0.866923  1
  P  P25  1  0.079933  0.699348  0.658367  1
  P  P26  1  0.225253  0.091742  0.662603  1
  P  P27  1  0.085075  0.228397  0.157174  1
  O  O28  1  0.002518  0.801248  0.575644  1
  O  O29  1  0.916159  0.737925  0.329423  1
  O  O30  1  0.740380  0.021854  0.064518  1
  O  O31  1  0.746154  0.915649  0.835041  1
  O  O32  1  0.911021  0.618927  0.820911  1
  O  O33  1  0.814495  0.658464  0.179210  1
  O  O34  1  0.924610  0.461822  0.328471  1
  O  O35  1  0.994960  0.233381  0.072386  1
  O  O36  1  0.917798  0.343525  0.832875  1
  O  O37  1  0.668027  0.813271  0.675067  1
  O  O38  1  0.618953  0.916290  0.323829  1
  O  O39  1  0.809568  0.518988  0.675890  1
  O  O40  1  0.656424  0.668941  0.031257  1
  O  O41  1  0.657912  0.675600  0.526497  1
  O  O42  1  0.661116  0.517217  0.176259  1
  O  O43  1  0.481237  0.899784  0.819204  1
  O  O44  1  0.517880  0.818404  0.177767  1
  O  O45  1  0.746756  0.343258  0.332771  1
  O  O46  1  0.793060  0.202838  0.755397  1
  O  O47  1  0.790858  0.199948  0.577723  1
  O  O48  1  0.761690  0.245802  0.928764  1
  O  O49  1  0.621176  0.479151  0.819214  1
  O  O50  1  0.508606  0.674533  0.668948  1
  O  O51  1  0.660291  0.261079  0.165703  1
  O  O52  1  0.475443  0.617703  0.327771  1
  O  O53  1  0.341748  0.919627  0.334145  1
  O  O54  1  0.797831  0.991888  0.240223  1
  O  O55  1  0.789868  0.996807  0.417833  1
  O  O56  1  0.228653  0.004869  0.575417  1
  O  O57  1  0.651581  0.088955  0.671002  1
  O  O58  1  0.538087  0.385167  0.669120  1
  O  O59  1  0.344736  0.739439  0.828506  1
  O  O60  1  0.484790  0.327786  0.327052  1
  O  O61  1  0.380958  0.525051  0.184064  1
  O  O62  1  0.234841  0.771989  0.081862  1
  O  O63  1  0.244996  0.778720  0.436224  1
  O  O64  1  0.202892  0.789936  0.258888  1
  O  O65  1  0.258294  0.655711  0.663622  1
  O  O66  1  0.487652  0.174505  0.830018  1
  O  O67  1  0.519459  0.102182  0.180427  1
  O  O68  1  0.348269  0.469633  0.818187  1
  O  O69  1  0.337983  0.335749  0.969836  1
  O  O70  1  0.330208  0.322780  0.470781  1
  O  O71  1  0.189969  0.480444  0.321290  1
  O  O72  1  0.382932  0.092326  0.676117  1
  O  O73  1  0.327045  0.183431  0.324725  1
  O  O74  1  0.084787  0.657593  0.167365  1
  O  O75  1  0.004586  0.794971  0.753028  1
  O  O76  1  0.999583  0.769220  0.931537  1
  O  O77  1  0.073986  0.543301  0.668926  1
  O  O78  1  0.187031  0.339595  0.818578  1
  O  O79  1  0.092365  0.381466  0.175409  1
  O  O80  1  0.256926  0.082879  0.160263  1
  O  O81  1  0.251285  0.984492  0.929165  1
  O  O82  1  0.205636  0.004384  0.752595  1
  O  O83  1  0.084606  0.262006  0.665702  1
  O  O84  1  0.005747  0.207004  0.423650  1
  O  O85  1  0.002776  0.203537  0.247996  1
