# generated using pymatgen
data_Co2O3F
_symmetry_space_group_name_H-M   'P 1'
_cell_length_a   8.67499534
_cell_length_b   5.39550968
_cell_length_c   5.39550968
_cell_angle_alpha   71.39647468
_cell_angle_beta   86.68379429
_cell_angle_gamma   86.68379429
_symmetry_Int_Tables_number   1
_chemical_formula_structural   Co2O3F
_chemical_formula_sum   'Co8 O12 F4'
_cell_volume   238.73872793
_cell_formula_units_Z   4
loop_
 _symmetry_equiv_pos_site_id
 _symmetry_equiv_pos_as_xyz
  1  'x, y, z'
loop_
 _atom_site_type_symbol
 _atom_site_label
 _atom_site_symmetry_multiplicity
 _atom_site_fract_x
 _atom_site_fract_y
 _atom_site_fract_z
 _atom_site_occupancy
  Co  Co0  1  0.609659  0.884127  0.884127  1
  Co  Co1  1  0.890341  0.615873  0.615873  1
  Co  Co2  1  0.508391  0.509564  0.509564  1
  Co  Co3  1  0.750000  0.250000  0.250000  1
  Co  Co4  1  0.250000  0.750000  0.750000  1
  Co  Co5  1  0.386123  0.146398  0.146398  1
  Co  Co6  1  0.113877  0.353602  0.353602  1
  Co  Co7  1  0.991609  0.990436  0.990436  1
  O  O8  1  0.496061  0.213227  0.814382  1
  O  O9  1  0.965709  0.208148  0.208148  1
  O  O10  1  0.723920  0.473789  0.473789  1
  O  O11  1  0.471816  0.725296  0.725296  1
  O  O12  1  0.534291  0.291852  0.291852  1
  O  O13  1  0.776080  0.026211  0.026211  1
  O  O14  1  0.028184  0.774704  0.774704  1
  O  O15  1  0.496061  0.814382  0.213227  1
  O  O16  1  0.003939  0.286773  0.685618  1
  O  O17  1  0.250000  0.055095  0.444905  1
  O  O18  1  0.250000  0.444905  0.055095  1
  O  O19  1  0.003939  0.685618  0.286773  1
  F  F20  1  0.750000  0.560039  0.939961  1
  F  F21  1  0.750000  0.939961  0.560039  1
  F  F22  1  0.217777  0.981194  0.981194  1
  F  F23  1  0.282223  0.518806  0.518806  1
