# generated using pymatgen
data_LiCoPO4
_symmetry_space_group_name_H-M   'P 1'
_cell_length_a   8.45440103
_cell_length_b   7.53631971
_cell_length_c   15.00526267
_cell_angle_alpha   90.00000000
_cell_angle_beta   89.09634673
_cell_angle_gamma   90.00000000
_symmetry_Int_Tables_number   1
_chemical_formula_structural   LiCoPO4
_chemical_formula_sum   'Li12 Co12 P12 O48'
_cell_volume   955.94244149
_cell_formula_units_Z   12
loop_
 _symmetry_equiv_pos_site_id
 _symmetry_equiv_pos_as_xyz
  1  'x, y, z'
loop_
 _atom_site_type_symbol
 _atom_site_label
 _atom_site_symmetry_multiplicity
 _atom_site_fract_x
 _atom_site_fract_y
 _atom_site_fract_z
 _atom_site_occupancy
  Li  Li0  1  0.047784  0.739269  0.093336  1
  Li  Li1  1  0.092951  0.768988  0.729782  1
  Li  Li2  1  0.112363  0.732354  0.424161  1
  Li  Li3  1  0.387637  0.232354  0.075839  1
  Li  Li4  1  0.407049  0.268988  0.770218  1
  Li  Li5  1  0.452216  0.239269  0.406664  1
  Li  Li6  1  0.547784  0.760731  0.593336  1
  Li  Li7  1  0.592951  0.731012  0.229782  1
  Li  Li8  1  0.612363  0.767646  0.924161  1
  Li  Li9  1  0.887637  0.267646  0.575839  1
  Li  Li10  1  0.907049  0.231012  0.270218  1
  Li  Li11  1  0.952216  0.260731  0.906664  1
  Co  Co12  1  0.227243  0.018315  0.564696  1
  Co  Co13  1  0.237149  0.976615  0.909461  1
  Co  Co14  1  0.237251  0.113625  0.252943  1
  Co  Co15  1  0.262749  0.613625  0.247057  1
  Co  Co16  1  0.262851  0.476615  0.590539  1
  Co  Co17  1  0.272757  0.518315  0.935304  1
  Co  Co18  1  0.727243  0.481685  0.064696  1
  Co  Co19  1  0.737149  0.523385  0.409461  1
  Co  Co20  1  0.737251  0.386375  0.752943  1
  Co  Co21  1  0.762749  0.886375  0.747057  1
  Co  Co22  1  0.762851  0.023385  0.090539  1
  Co  Co23  1  0.772757  0.981685  0.435304  1
  P  P24  1  0.048232  0.316181  0.088280  1
  P  P25  1  0.086496  0.179578  0.727642  1
  P  P26  1  0.102854  0.323461  0.428243  1
  P  P27  1  0.397146  0.823461  0.071757  1
  P  P28  1  0.413504  0.679578  0.772358  1
  P  P29  1  0.451768  0.816181  0.411720  1
  P  P30  1  0.548232  0.183819  0.588280  1
  P  P31  1  0.586496  0.320422  0.227642  1
  P  P32  1  0.602854  0.176539  0.928243  1
  P  P33  1  0.897146  0.676539  0.571757  1
  P  P34  1  0.913504  0.820422  0.272358  1
  P  P35  1  0.951768  0.683819  0.911720  1
  O  O36  1  0.046970  0.509979  0.894186  1
  O  O37  1  0.052159  0.640368  0.621595  1
  O  O38  1  0.053672  0.813920  0.966565  1
  O  O39  1  0.071959  0.724849  0.293593  1
  O  O40  1  0.077622  0.194885  0.508897  1
  O  O41  1  0.084741  0.001420  0.674446  1
  O  O42  1  0.101218  0.140984  0.828680  1
  O  O43  1  0.083651  0.233510  0.181299  1
  O  O44  1  0.175735  0.497896  0.464087  1
  O  O45  1  0.207129  0.362226  0.039980  1
  O  O46  1  0.230916  0.239293  0.364184  1
  O  O47  1  0.226151  0.293485  0.692121  1
  O  O48  1  0.269084  0.739293  0.135816  1
  O  O49  1  0.273849  0.793485  0.807879  1
  O  O50  1  0.292871  0.862226  0.460020  1
  O  O51  1  0.324265  0.997896  0.035913  1
  O  O52  1  0.416349  0.733510  0.318701  1
  O  O53  1  0.398782  0.640984  0.671320  1
  O  O54  1  0.415259  0.501420  0.825554  1
  O  O55  1  0.428041  0.224849  0.206407  1
  O  O56  1  0.422378  0.694885  0.991103  1
  O  O57  1  0.446328  0.313920  0.533435  1
  O  O58  1  0.447841  0.140368  0.878405  1
  O  O59  1  0.453030  0.009979  0.605814  1
  O  O60  1  0.546970  0.990021  0.394186  1
  O  O61  1  0.552159  0.859632  0.121595  1
  O  O62  1  0.553672  0.686080  0.466565  1
  O  O63  1  0.577623  0.305115  0.008897  1
  O  O64  1  0.571959  0.775151  0.793593  1
  O  O65  1  0.584741  0.498580  0.174446  1
  O  O66  1  0.601218  0.359016  0.328680  1
  O  O67  1  0.583651  0.266490  0.681299  1
  O  O68  1  0.675735  0.002104  0.964087  1
  O  O69  1  0.707129  0.137774  0.539980  1
  O  O70  1  0.726151  0.206515  0.192121  1
  O  O71  1  0.730916  0.260707  0.864184  1
  O  O72  1  0.773849  0.706515  0.307879  1
  O  O73  1  0.769084  0.760707  0.635816  1
  O  O74  1  0.792871  0.637774  0.960020  1
  O  O75  1  0.824265  0.502104  0.535913  1
  O  O76  1  0.916349  0.766490  0.818701  1
  O  O77  1  0.898782  0.859016  0.171320  1
  O  O78  1  0.915259  0.998580  0.325554  1
  O  O79  1  0.922377  0.805115  0.491103  1
  O  O80  1  0.928041  0.275151  0.706407  1
  O  O81  1  0.946328  0.186080  0.033435  1
  O  O82  1  0.947841  0.359632  0.378405  1
  O  O83  1  0.953030  0.490021  0.105814  1
