# generated using pymatgen
data_Ba2YB2ClO6
_symmetry_space_group_name_H-M   'P 1'
_cell_length_a   6.50046740
_cell_length_b   5.36137943
_cell_length_c   11.49123905
_cell_angle_alpha   90.00000000
_cell_angle_beta   95.77816496
_cell_angle_gamma   90.00000000
_symmetry_Int_Tables_number   1
_chemical_formula_structural   Ba2YB2ClO6
_chemical_formula_sum   'Ba4 Y2 B4 Cl2 O12'
_cell_volume   398.45178556
_cell_formula_units_Z   2
loop_
 _symmetry_equiv_pos_site_id
 _symmetry_equiv_pos_as_xyz
  1  'x, y, z'
loop_
 _atom_site_type_symbol
 _atom_site_label
 _atom_site_symmetry_multiplicity
 _atom_site_fract_x
 _atom_site_fract_y
 _atom_site_fract_z
 _atom_site_occupancy
  Ba  Ba0  1  0.097937  0.250000  0.705862  1
  Ba  Ba1  1  0.902064  0.750001  0.294138  1
  Ba  Ba2  1  0.338305  0.250000  0.074355  1
  Ba  Ba3  1  0.661696  0.750001  0.925646  1
  Y  Y4  1  0.342964  0.250000  0.412023  1
  Y  Y5  1  0.657036  0.750001  0.587976  1
  B  B6  1  0.371168  0.750001  0.224923  1
  B  B7  1  0.628832  0.250000  0.775077  1
  B  B8  1  0.786079  0.250000  0.427275  1
  B  B9  1  0.213920  0.750001  0.572726  1
  Cl  Cl10  1  0.847955  0.250000  0.085484  1
  Cl  Cl11  1  0.152046  0.750001  0.914516  1
  O  O12  1  0.285973  0.528265  0.261574  1
  O  O13  1  0.714028  0.028264  0.738427  1
  O  O14  1  0.714028  0.471735  0.738427  1
  O  O15  1  0.285973  0.971736  0.261574  1
  O  O16  1  0.671997  0.469246  0.434157  1
  O  O17  1  0.328002  0.969247  0.565843  1
  O  O18  1  0.328002  0.530752  0.565843  1
  O  O19  1  0.671997  0.030753  0.434157  1
  O  O20  1  0.988969  0.250000  0.406999  1
  O  O21  1  0.011031  0.750001  0.593000  1
  O  O22  1  0.520448  0.750001  0.146824  1
  O  O23  1  0.479553  0.250000  0.853176  1
