# generated using pymatgen
data_Dy2Ni12P7
_symmetry_space_group_name_H-M   'P 1'
_cell_length_a   9.02788112
_cell_length_b   9.02908764
_cell_length_c   3.68033695
_cell_angle_alpha   90.00000000
_cell_angle_beta   90.00000000
_cell_angle_gamma   120.01693058
_symmetry_Int_Tables_number   1
_chemical_formula_structural   Dy2Ni12P7
_chemical_formula_sum   'Dy2 Ni12 P7'
_cell_volume   259.76090946
_cell_formula_units_Z   1
loop_
 _symmetry_equiv_pos_site_id
 _symmetry_equiv_pos_as_xyz
  1  'x, y, z'
loop_
 _atom_site_type_symbol
 _atom_site_label
 _atom_site_symmetry_multiplicity
 _atom_site_fract_x
 _atom_site_fract_y
 _atom_site_fract_z
 _atom_site_occupancy
  Dy  Dy0  1  0.333315  0.666683  0.000000  1
  Dy  Dy1  1  0.666719  0.333139  0.500002  1
  Ni  Ni2  1  0.381089  0.430402  0.500002  1
  Ni  Ni3  1  0.569671  0.950768  0.500002  1
  Ni  Ni4  1  0.049118  0.618797  0.500002  1
  Ni  Ni5  1  0.435184  0.059878  0.000000  1
  Ni  Ni6  1  0.940254  0.375378  0.000000  1
  Ni  Ni7  1  0.624696  0.564766  0.000000  1
  Ni  Ni8  1  0.216320  0.094660  0.500002  1
  Ni  Ni9  1  0.905181  0.121693  0.500002  1
  Ni  Ni10  1  0.878415  0.783855  0.500002  1
  Ni  Ni11  1  0.151639  0.274713  0.000000  1
  Ni  Ni12  1  0.725366  0.877076  0.000000  1
  Ni  Ni13  1  0.123010  0.848298  0.000000  1
  P  P14  1  0.110427  0.405467  0.500002  1
  P  P15  1  0.594554  0.704988  0.500002  1
  P  P16  1  0.295002  0.889540  0.500002  1
  P  P17  1  0.000052  -0.000021  0.000000  1
  P  P18  1  0.406179  0.292276  0.000000  1
  P  P19  1  0.707709  0.113909  0.000000  1
  P  P20  1  0.886097  0.593733  0.000000  1
