# generated using pymatgen
data_Li5Mn6(BO3)6
_symmetry_space_group_name_H-M   'P 1'
_cell_length_a   10.47346929
_cell_length_b   8.81138774
_cell_length_c   8.87269048
_cell_angle_alpha   107.88670250
_cell_angle_beta   98.84830308
_cell_angle_gamma   98.50440904
_symmetry_Int_Tables_number   1
_chemical_formula_structural   Li5Mn6(BO3)6
_chemical_formula_sum   'Li10 Mn12 B12 O36'
_cell_volume   753.21245433
_cell_formula_units_Z   2
loop_
 _symmetry_equiv_pos_site_id
 _symmetry_equiv_pos_as_xyz
  1  'x, y, z'
loop_
 _atom_site_type_symbol
 _atom_site_label
 _atom_site_symmetry_multiplicity
 _atom_site_fract_x
 _atom_site_fract_y
 _atom_site_fract_z
 _atom_site_occupancy
  Li  Li0  1  0.189246  0.207457  0.913725  1
  Li  Li1  1  0.205873  0.906305  0.187880  1
  Li  Li2  1  0.227316  0.505804  0.522748  1
  Li  Li3  1  0.438756  0.455431  0.152571  1
  Li  Li4  1  0.452581  0.152526  0.437201  1
  Li  Li5  1  0.690030  0.703858  0.405865  1
  Li  Li6  1  0.704926  0.399460  0.683570  1
  Li  Li7  1  0.733800  0.013612  0.028822  1
  Li  Li8  1  0.953300  0.659893  0.938661  1
  Li  Li9  1  0.981236  0.258890  0.278859  1
  Mn  Mn10  1  0.189631  0.820104  0.805527  1
  Mn  Mn11  1  0.151924  0.523637  0.167453  1
  Mn  Mn12  1  0.155744  0.146496  0.537658  1
  Mn  Mn13  1  0.410459  0.769336  0.425279  1
  Mn  Mn14  1  0.414304  0.418099  0.767444  1
  Mn  Mn15  1  0.436490  0.068873  0.060173  1
  Mn  Mn16  1  0.659941  0.015433  0.665402  1
  Mn  Mn17  1  0.660018  0.655023  0.022411  1
  Mn  Mn18  1  0.685007  0.323111  0.307738  1
  Mn  Mn19  1  0.905401  0.271760  0.908849  1
  Mn  Mn20  1  0.909152  0.899311  0.277561  1
  Mn  Mn21  1  0.926279  0.591016  0.564262  1
  B  B22  1  0.124004  0.464047  0.791693  1
  B  B23  1  0.133429  0.797418  0.471668  1
  B  B24  1  0.005079  0.002867  0.006085  1
  B  B25  1  0.250945  0.246262  0.253725  1
  B  B26  1  0.362817  0.707192  0.044914  1
  B  B27  1  0.366946  0.041247  0.702515  1
  B  B28  1  0.499002  0.489835  0.487156  1
  B  B29  1  0.622798  0.290206  0.952054  1
  B  B30  1  0.624801  0.957674  0.292893  1
  B  B31  1  0.749178  0.744162  0.752783  1
  B  B32  1  0.881779  0.219119  0.540994  1
  B  B33  1  0.877546  0.542213  0.206545  1
  O  O34  1  0.073050  0.873629  0.984375  1
  O  O35  1  0.058114  0.479039  0.915597  1
  O  O36  1  0.019020  0.105337  0.918178  1
  O  O37  1  0.073734  0.814960  0.604781  1
  O  O38  1  0.127106  0.574285  0.707468  1
  O  O39  1  0.124169  0.909444  0.388847  1
  O  O40  1  0.191719  0.336520  0.747382  1
  O  O41  1  0.199733  0.673340  0.423255  1
  O  O42  1  0.172017  0.275170  0.369257  1
  O  O43  1  0.343818  0.812609  0.956715  1
  O  O44  1  0.295578  0.043375  0.825597  1
  O  O45  1  0.302767  0.722296  0.175402  1
  O  O46  1  0.259324  0.339725  0.152006  1
  O  O47  1  0.451849  0.940105  0.668592  1
  O  O48  1  0.346189  0.147548  0.613490  1
  O  O49  1  0.412395  0.518419  0.589488  1
  O  O50  1  0.321940  0.122753  0.238270  1
  O  O51  1  0.440941  0.593613  0.004769  1
  O  O52  1  0.553688  0.974133  0.413922  1
  O  O53  1  0.511131  0.578263  0.381552  1
  O  O54  1  0.611488  0.395755  0.863582  1
  O  O55  1  0.572315  0.368774  0.484768  1
  O  O56  1  0.689719  0.794819  0.882246  1
  O  O57  1  0.552276  0.298723  0.074655  1
  O  O58  1  0.743909  0.815372  0.634138  1
  O  O59  1  0.700187  0.838581  0.263186  1
  O  O60  1  0.704205  0.178243  0.919946  1
  O  O61  1  0.621855  0.058877  0.199162  1
  O  O62  1  0.818540  0.616363  0.741557  1
  O  O63  1  0.809484  0.219969  0.658302  1
  O  O64  1  0.807625  0.556079  0.329928  1
  O  O65  1  0.874183  0.324550  0.453994  1
  O  O66  1  0.871719  0.649499  0.120453  1
  O  O67  1  0.952534  0.423277  0.170774  1
  O  O68  1  0.964404  0.107014  0.501907  1
  O  O69  1  0.926597  0.030989  0.122532  1
