# generated using pymatgen
data_Yb3SiO
_symmetry_space_group_name_H-M   'P 1'
_cell_length_a   6.58224966
_cell_length_b   6.58157652
_cell_length_c   9.30770338
_cell_angle_alpha   90.03496365
_cell_angle_beta   45.02868091
_cell_angle_gamma   60.03212853
_symmetry_Int_Tables_number   1
_chemical_formula_structural   Yb3SiO
_chemical_formula_sum   'Yb6 Si2 O2'
_cell_volume   201.83579458
_cell_formula_units_Z   2
loop_
 _symmetry_equiv_pos_site_id
 _symmetry_equiv_pos_as_xyz
  1  'x, y, z'
loop_
 _atom_site_type_symbol
 _atom_site_label
 _atom_site_symmetry_multiplicity
 _atom_site_fract_x
 _atom_site_fract_y
 _atom_site_fract_z
 _atom_site_occupancy
  Yb  Yb0  1  0.960595  0.520019  0.269712  1
  Yb  Yb1  1  0.039405  0.480617  0.730288  1
  Yb  Yb2  1  0.492606  0.000123  0.763620  1
  Yb  Yb3  1  0.492894  0.507143  0.243632  1
  Yb  Yb4  1  0.507167  0.000021  0.236498  1
  Yb  Yb5  1  0.507335  0.492772  0.756255  1
  Si  Si6  1  0.000107  0.999692  0.249900  1
  Si  Si7  1  -0.000110  0.999805  0.750093  1
  O  O8  1  0.999998  0.500010  0.500000  1
  O  O9  1  0.000002  0.500011  1.000000  1
