# generated using pymatgen
data_InH10C3O11
_symmetry_space_group_name_H-M   'P 1'
_cell_length_a   8.76029887
_cell_length_b   11.38423127
_cell_length_c   20.51102231
_cell_angle_alpha   90.00000000
_cell_angle_beta   87.11146696
_cell_angle_gamma   90.00000000
_symmetry_Int_Tables_number   1
_chemical_formula_structural   InH10C3O11
_chemical_formula_sum   'In8 H80 C24 O88'
_cell_volume   2042.95030174
_cell_formula_units_Z   8
loop_
 _symmetry_equiv_pos_site_id
 _symmetry_equiv_pos_as_xyz
  1  'x, y, z'
loop_
 _atom_site_type_symbol
 _atom_site_label
 _atom_site_symmetry_multiplicity
 _atom_site_fract_x
 _atom_site_fract_y
 _atom_site_fract_z
 _atom_site_occupancy
  In  In0  1  0.060733  0.762593  0.699272  1
  In  In1  1  0.112910  0.752412  0.990181  1
  In  In2  1  0.387090  0.252412  0.509819  1
  In  In3  1  0.439267  0.262593  0.800728  1
  In  In4  1  0.560733  0.737407  0.199272  1
  In  In5  1  0.612910  0.747588  0.490181  1
  In  In6  1  0.887090  0.247588  0.009819  1
  In  In7  1  0.939267  0.237407  0.300728  1
  H  H8  1  0.002053  0.895604  0.153648  1
  H  H9  1  0.031691  0.563008  0.427568  1
  H  H10  1  0.043740  0.148842  0.606740  1
  H  H11  1  0.037234  0.646730  0.241931  1
  H  H12  1  0.031096  0.998069  0.676873  1
  H  H13  1  0.020537  0.986702  0.758151  1
  H  H14  1  0.070593  0.522453  0.726389  1
  H  H15  1  0.085094  0.548353  0.188329  1
  H  H16  1  0.077676  0.539072  0.645640  1
  H  H17  1  0.118321  0.732619  0.390082  1
  H  H18  1  0.129493  0.492530  0.554097  1
  H  H19  1  0.134922  0.042744  0.580419  1
  H  H20  1  0.179604  0.675325  0.310638  1
  H  H21  1  0.170088  0.414881  0.111960  1
  H  H22  1  0.165242  0.061574  0.824529  1
  H  H23  1  0.134943  0.349969  0.820031  1
  H  H24  1  0.185849  0.792801  0.275725  1
  H  H25  1  0.182489  0.988117  0.377120  1
  H  H26  1  0.187283  0.321381  0.891843  1
  H  H27  1  0.230231  0.701761  0.445099  1
  H  H28  1  0.269769  0.201761  0.054901  1
  H  H29  1  0.317511  0.488117  0.122880  1
  H  H30  1  0.314151  0.292801  0.224275  1
  H  H31  1  0.312717  0.821381  0.608157  1
  H  H32  1  0.329912  0.914881  0.388040  1
  H  H33  1  0.320396  0.175325  0.189362  1
  H  H34  1  0.365057  0.849969  0.679969  1
  H  H35  1  0.334758  0.561574  0.675471  1
  H  H36  1  0.381679  0.232619  0.109918  1
  H  H37  1  0.365078  0.542744  0.919581  1
  H  H38  1  0.414906  0.048353  0.311671  1
  H  H39  1  0.370507  0.992530  0.945903  1
  H  H40  1  0.422324  0.039072  0.854360  1
  H  H41  1  0.462766  0.146730  0.258069  1
  H  H42  1  0.429407  0.022453  0.773611  1
  H  H43  1  0.468309  0.063008  0.072432  1
  H  H44  1  0.479463  0.486702  0.741849  1
  H  H45  1  0.468904  0.498069  0.823127  1
  H  H46  1  0.497947  0.395604  0.346352  1
  H  H47  1  0.543740  0.351158  0.106740  1
  H  H48  1  0.456260  0.648842  0.893260  1
  H  H49  1  0.502053  0.604396  0.653648  1
  H  H50  1  0.531096  0.501931  0.176873  1
  H  H51  1  0.520537  0.513298  0.258151  1
  H  H52  1  0.531691  0.936992  0.927568  1
  H  H53  1  0.570593  0.977547  0.226389  1
  H  H54  1  0.537234  0.853270  0.741931  1
  H  H55  1  0.577676  0.960928  0.145640  1
  H  H56  1  0.629493  0.007470  0.054097  1
  H  H57  1  0.585094  0.951647  0.688329  1
  H  H58  1  0.634922  0.457256  0.080419  1
  H  H59  1  0.618321  0.767381  0.890082  1
  H  H60  1  0.665242  0.438426  0.324529  1
  H  H61  1  0.634943  0.150031  0.320031  1
  H  H62  1  0.679604  0.824675  0.810638  1
  H  H63  1  0.670088  0.085119  0.611960  1
  H  H64  1  0.687283  0.178619  0.391843  1
  H  H65  1  0.685849  0.707199  0.775725  1
  H  H66  1  0.682489  0.511883  0.877120  1
  H  H67  1  0.730231  0.798239  0.945099  1
  H  H68  1  0.769769  0.298239  0.554901  1
  H  H69  1  0.812717  0.678619  0.108157  1
  H  H70  1  0.817511  0.011883  0.622880  1
  H  H71  1  0.814151  0.207199  0.724275  1
  H  H72  1  0.865057  0.650031  0.179969  1
  H  H73  1  0.834758  0.938426  0.175471  1
  H  H74  1  0.829912  0.585119  0.888040  1
  H  H75  1  0.820396  0.324675  0.689362  1
  H  H76  1  0.865078  0.957256  0.419581  1
  H  H77  1  0.870507  0.507470  0.445903  1
  H  H78  1  0.881679  0.267381  0.609918  1
  H  H79  1  0.922324  0.460928  0.354360  1
  H  H80  1  0.914906  0.451647  0.811671  1
  H  H81  1  0.929407  0.477547  0.273611  1
  H  H82  1  0.979463  0.013298  0.241849  1
  H  H83  1  0.968904  0.001931  0.323127  1
  H  H84  1  0.962766  0.353270  0.758069  1
  H  H85  1  0.956260  0.851158  0.393260  1
  H  H86  1  0.968309  0.436992  0.572432  1
  H  H87  1  0.997947  0.104396  0.846352  1
  C  C88  1  0.003207  0.740316  0.847985  1
  C  C89  1  0.066630  0.479604  0.976465  1
  C  C90  1  0.108904  0.229862  0.427840  1
  C  C91  1  0.081211  0.023940  0.991693  1
  C  C92  1  0.175536  0.768129  0.839832  1
  C  C93  1  0.232561  0.274717  0.377173  1
  C  C94  1  0.267439  0.774717  0.122827  1
  C  C95  1  0.324464  0.268129  0.660168  1
  C  C96  1  0.391096  0.729862  0.072160  1
  C  C97  1  0.418789  0.523940  0.508307  1
  C  C98  1  0.433370  0.979604  0.523535  1
  C  C99  1  0.496793  0.240316  0.652015  1
  C  C100  1  0.503207  0.759684  0.347985  1
  C  C101  1  0.566630  0.020396  0.476465  1
  C  C102  1  0.581211  0.476060  0.491693  1
  C  C103  1  0.608904  0.270138  0.927840  1
  C  C104  1  0.675536  0.731871  0.339832  1
  C  C105  1  0.732561  0.225283  0.877173  1
  C  C106  1  0.767439  0.725283  0.622827  1
  C  C107  1  0.824464  0.231871  0.160168  1
  C  C108  1  0.918789  0.976060  0.008307  1
  C  C109  1  0.891096  0.770138  0.572160  1
  C  C110  1  0.933370  0.520396  0.023535  1
  C  C111  1  0.996793  0.259684  0.152015  1
  O  O112  1  0.004152  0.052966  0.284902  1
  O  O113  1  0.998456  0.578208  0.217428  1
  O  O114  1  0.054285  0.276425  0.094587  1
  O  O115  1  0.022821  0.790356  0.592470  1
  O  O116  1  0.032924  0.508137  0.579621  1
  O  O117  1  0.041191  0.063059  0.606725  1
  O  O118  1  0.070139  0.268607  0.203223  1
  O  O119  1  0.056595  0.038454  0.826335  1
  O  O120  1  0.113176  0.740617  0.299654  1
  O  O121  1  0.070028  0.371645  0.961013  1
  O  O122  1  0.135003  0.794183  0.102592  1
  O  O123  1  0.116752  0.573070  0.690127  1
  O  O124  1  0.097808  0.134250  0.987822  1
  O  O125  1  0.128649  0.685839  0.429681  1
  O  O126  1  0.147669  0.214488  0.485675  1
  O  O127  1  0.192743  0.288170  0.319182  1
  O  O128  1  0.162188  0.556403  0.956727  1
  O  O129  1  0.205860  0.490180  0.128878  1
  O  O130  1  0.187083  0.948976  0.983248  1
  O  O131  1  0.208432  0.301771  0.845282  1
  O  O132  1  0.229840  0.778894  0.782034  1
  O  O133  1  0.251011  0.274784  0.608599  1
  O  O134  1  0.248989  0.774784  0.891401  1
  O  O135  1  0.294140  0.990180  0.371122  1
  O  O136  1  0.270160  0.278894  0.717966  1
  O  O137  1  0.291568  0.801771  0.654718  1
  O  O138  1  0.307257  0.788170  0.180818  1
  O  O139  1  0.312917  0.448976  0.516752  1
  O  O140  1  0.352331  0.714488  0.014325  1
  O  O141  1  0.337812  0.056403  0.543273  1
  O  O142  1  0.371351  0.185839  0.070319  1
  O  O143  1  0.364997  0.294183  0.397408  1
  O  O144  1  0.386824  0.240617  0.200346  1
  O  O145  1  0.402192  0.634250  0.512178  1
  O  O146  1  0.383248  0.073070  0.809873  1
  O  O147  1  0.429861  0.768607  0.296777  1
  O  O148  1  0.429972  0.871645  0.538987  1
  O  O149  1  0.445715  0.776425  0.405413  1
  O  O150  1  0.443405  0.538454  0.673665  1
  O  O151  1  0.458809  0.563059  0.893275  1
  O  O152  1  0.501544  0.078208  0.282572  1
  O  O153  1  0.495848  0.552966  0.215098  1
  O  O154  1  0.467076  0.008137  0.920379  1
  O  O155  1  0.477179  0.290356  0.907530  1
  O  O156  1  0.522821  0.709644  0.092470  1
  O  O157  1  0.532924  0.991863  0.079621  1
  O  O158  1  0.504152  0.447034  0.784902  1
  O  O159  1  0.498456  0.921792  0.717428  1
  O  O160  1  0.541191  0.436941  0.106725  1
  O  O161  1  0.556595  0.461546  0.326335  1
  O  O162  1  0.554285  0.223575  0.594587  1
  O  O163  1  0.570028  0.128355  0.461013  1
  O  O164  1  0.570139  0.231393  0.703223  1
  O  O165  1  0.616752  0.926930  0.190127  1
  O  O166  1  0.597808  0.365750  0.487822  1
  O  O167  1  0.613176  0.759383  0.799654  1
  O  O168  1  0.635003  0.705817  0.602592  1
  O  O169  1  0.628649  0.814161  0.929681  1
  O  O170  1  0.662188  0.943597  0.456727  1
  O  O171  1  0.647669  0.285512  0.985675  1
  O  O172  1  0.687083  0.551024  0.483248  1
  O  O173  1  0.692743  0.211830  0.819182  1
  O  O174  1  0.708432  0.198229  0.345282  1
  O  O175  1  0.729840  0.721106  0.282034  1
  O  O176  1  0.705860  0.009820  0.628878  1
  O  O177  1  0.751011  0.225216  0.108599  1
  O  O178  1  0.748989  0.725216  0.391401  1
  O  O179  1  0.770160  0.221106  0.217966  1
  O  O180  1  0.791568  0.698229  0.154718  1
  O  O181  1  0.812917  0.051024  0.016752  1
  O  O182  1  0.794140  0.509820  0.871122  1
  O  O183  1  0.837812  0.443597  0.043273  1
  O  O184  1  0.807257  0.711830  0.680818  1
  O  O185  1  0.852331  0.785512  0.514325  1
  O  O186  1  0.871351  0.314161  0.570319  1
  O  O187  1  0.902192  0.865750  0.012178  1
  O  O188  1  0.883248  0.426930  0.309873  1
  O  O189  1  0.864997  0.205817  0.897408  1
  O  O190  1  0.929972  0.628355  0.038987  1
  O  O191  1  0.886824  0.259383  0.700346  1
  O  O192  1  0.943405  0.961546  0.173665  1
  O  O193  1  0.929861  0.731393  0.796777  1
  O  O194  1  0.958809  0.936941  0.393275  1
  O  O195  1  0.967076  0.491863  0.420379  1
  O  O196  1  0.977179  0.209644  0.407530  1
  O  O197  1  0.945715  0.723575  0.905413  1
  O  O198  1  0.001544  0.421792  0.782572  1
  O  O199  1  0.995848  0.947034  0.715098  1
