# generated using pymatgen
data_Li2Fe4OF8
_symmetry_space_group_name_H-M   'P 1'
_cell_length_a   8.89966920
_cell_length_b   8.89966920
_cell_length_c   10.67449008
_cell_angle_alpha   85.71374527
_cell_angle_beta   94.28625473
_cell_angle_gamma   117.73063067
_symmetry_Int_Tables_number   1
_chemical_formula_structural   Li2Fe4OF8
_chemical_formula_sum   'Li8 Fe16 O4 F32'
_cell_volume   745.49948264
_cell_formula_units_Z   4
loop_
 _symmetry_equiv_pos_site_id
 _symmetry_equiv_pos_as_xyz
  1  'x, y, z'
loop_
 _atom_site_type_symbol
 _atom_site_label
 _atom_site_symmetry_multiplicity
 _atom_site_fract_x
 _atom_site_fract_y
 _atom_site_fract_z
 _atom_site_occupancy
  Li  Li0  1  0.329594  0.675383  0.708141  1
  Li  Li1  1  0.324617  0.670406  0.208141  1
  Li  Li2  1  0.991244  0.000456  0.495135  1
  Li  Li3  1  0.999544  0.008756  0.995135  1
  Li  Li4  1  0.647812  0.324067  0.797223  1
  Li  Li5  1  0.675933  0.352188  0.297223  1
  Li  Li6  1  0.699580  0.000900  0.745293  1
  Li  Li7  1  0.999100  0.300420  0.245293  1
  Fe  Fe8  1  0.007650  0.687100  0.755266  1
  Fe  Fe9  1  0.312900  0.992350  0.255266  1
  Fe  Fe10  1  0.332442  0.907306  0.942555  1
  Fe  Fe11  1  0.092694  0.667558  0.442555  1
  Fe  Fe12  1  0.152093  0.493939  0.955293  1
  Fe  Fe13  1  0.506061  0.847907  0.455293  1
  Fe  Fe14  1  0.640599  0.688662  0.947851  1
  Fe  Fe15  1  0.311338  0.359401  0.447851  1
  Fe  Fe16  1  0.162658  0.158011  0.748948  1
  Fe  Fe17  1  0.841989  0.837342  0.248948  1
  Fe  Fe18  1  0.679475  0.648184  0.530258  1
  Fe  Fe19  1  0.351816  0.320525  0.030258  1
  Fe  Fe20  1  0.480847  0.146407  0.543983  1
  Fe  Fe21  1  0.853593  0.519153  0.043983  1
  Fe  Fe22  1  0.941559  0.355939  0.583955  1
  Fe  Fe23  1  0.644061  0.058441  0.083955  1
  O  O24  1  0.216763  0.706492  0.853276  1
  O  O25  1  0.085442  0.587051  0.618846  1
  O  O26  1  0.293508  0.783237  0.353276  1
  O  O27  1  0.412949  0.914558  0.118846  1
  F  F28  1  0.065816  0.926526  0.663600  1
  F  F29  1  0.073474  0.934184  0.163600  1
  F  F30  1  0.432961  0.911141  0.618299  1
  F  F31  1  0.088859  0.567039  0.118299  1
  F  F32  1  0.570510  0.765961  0.794218  1
  F  F33  1  0.266941  0.392430  0.838899  1
  F  F34  1  0.234039  0.429490  0.294218  1
  F  F35  1  0.607570  0.733059  0.338899  1
  F  F36  1  0.736915  0.905324  0.553547  1
  F  F37  1  0.422147  0.578317  0.554391  1
  F  F38  1  0.095920  0.239842  0.563422  1
  F  F39  1  0.094676  0.263085  0.053547  1
  F  F40  1  0.421683  0.577853  0.054391  1
  F  F41  1  0.760158  0.904080  0.063422  1
  F  F42  1  0.246448  0.093947  0.931681  1
  F  F43  1  0.598181  0.430971  0.952032  1
  F  F44  1  0.897150  0.744061  0.931722  1
  F  F45  1  0.906053  0.753552  0.431681  1
  F  F46  1  0.569029  0.401819  0.452032  1
  F  F47  1  0.255939  0.102850  0.431722  1
  F  F48  1  0.406995  0.234987  0.686310  1
  F  F49  1  0.750597  0.571748  0.694476  1
  F  F50  1  0.765013  0.593005  0.186310  1
  F  F51  1  0.428252  0.249403  0.194476  1
  F  F52  1  0.888252  0.426893  0.884178  1
  F  F53  1  0.588578  0.089718  0.888041  1
  F  F54  1  0.573107  0.111748  0.384178  1
  F  F55  1  0.715593  0.213809  0.650281  1
  F  F56  1  0.910282  0.411422  0.388041  1
  F  F57  1  0.786191  0.284407  0.150281  1
  F  F58  1  0.932774  0.077961  0.818878  1
  F  F59  1  0.922039  0.067226  0.318878  1
