# generated using pymatgen
data_LiCrPO5
_symmetry_space_group_name_H-M   'P 1'
_cell_length_a   7.60206352
_cell_length_b   6.04002591
_cell_length_c   7.76738059
_cell_angle_alpha   90.00379587
_cell_angle_beta   89.99477934
_cell_angle_gamma   89.99869755
_symmetry_Int_Tables_number   1
_chemical_formula_structural   LiCrPO5
_chemical_formula_sum   'Li4 Cr4 P4 O20'
_cell_volume   356.65217643
_cell_formula_units_Z   4
loop_
 _symmetry_equiv_pos_site_id
 _symmetry_equiv_pos_as_xyz
  1  'x, y, z'
loop_
 _atom_site_type_symbol
 _atom_site_label
 _atom_site_symmetry_multiplicity
 _atom_site_fract_x
 _atom_site_fract_y
 _atom_site_fract_z
 _atom_site_occupancy
  Li  Li0  1  0.140063  0.249987  0.664129  1
  Li  Li1  1  0.359928  0.750002  0.164139  1
  Li  Li2  1  0.640061  0.250001  0.835859  1
  Li  Li3  1  0.859935  0.750032  0.335878  1
  Cr  Cr4  1  0.000034  0.000009  0.999973  1
  Cr  Cr5  1  0.999953  0.500010  0.000041  1
  Cr  Cr6  1  0.500009  -0.000002  0.500010  1
  Cr  Cr7  1  0.500018  0.500038  0.499962  1
  P  P8  1  0.139905  0.749959  0.665784  1
  P  P9  1  0.360186  0.249986  0.165750  1
  P  P10  1  0.639815  0.749993  0.834224  1
  P  P11  1  0.860119  0.249973  0.334205  1
  O  O12  1  0.999143  0.250000  0.469412  1
  O  O13  1  0.112989  0.749995  0.089118  1
  O  O14  1  0.133368  0.539241  0.782998  1
  O  O15  1  0.133401  0.960745  0.782985  1
  O  O16  1  0.168757  0.250000  0.079899  1
  O  O17  1  0.331245  0.749999  0.579872  1
  O  O18  1  0.366621  0.039266  0.282993  1
  O  O19  1  0.366606  0.460736  0.282991  1
  O  O20  1  0.387011  0.250019  0.589107  1
  O  O21  1  0.500882  0.750001  0.969337  1
  O  O22  1  0.499108  0.249993  0.030665  1
  O  O23  1  0.613010  0.749999  0.410887  1
  O  O24  1  0.633390  0.539250  0.716994  1
  O  O25  1  0.633388  0.960741  0.717016  1
  O  O26  1  0.668770  0.249998  0.420106  1
  O  O27  1  0.831229  0.750007  0.920109  1
  O  O28  1  0.866604  0.039271  0.217006  1
  O  O29  1  0.866585  0.460745  0.217057  1
  O  O30  1  0.887006  0.250002  0.910894  1
  O  O31  1  0.000859  0.750006  0.530602  1
