# generated using pymatgen
data_Li4V2F9
_symmetry_space_group_name_H-M   'P 1'
_cell_length_a   5.17171739
_cell_length_b   5.17186852
_cell_length_c   13.93739073
_cell_angle_alpha   90.00052779
_cell_angle_beta   89.99980814
_cell_angle_gamma   60.00059964
_symmetry_Int_Tables_number   1
_chemical_formula_structural   Li4V2F9
_chemical_formula_sum   'Li8 V4 F18'
_cell_volume   322.84717569
_cell_formula_units_Z   2
loop_
 _symmetry_equiv_pos_site_id
 _symmetry_equiv_pos_as_xyz
  1  'x, y, z'
loop_
 _atom_site_type_symbol
 _atom_site_label
 _atom_site_symmetry_multiplicity
 _atom_site_fract_x
 _atom_site_fract_y
 _atom_site_fract_z
 _atom_site_occupancy
  Li  Li0  1  0.666642  0.666677  0.178423  1
  Li  Li1  1  0.333313  0.333345  0.018996  1
  Li  Li2  1  0.666655  0.666677  0.481014  1
  Li  Li3  1  0.333296  0.333358  0.321635  1
  Li  Li4  1  0.666660  0.666678  0.981007  1
  Li  Li5  1  0.666693  0.666660  0.678361  1
  Li  Li6  1  0.333349  0.333326  0.518987  1
  Li  Li7  1  0.333349  0.333336  0.821580  1
  V  V8  1  0.999966  -0.000002  0.151806  1
  V  V9  1  0.999952  0.000034  0.348325  1
  V  V10  1  0.000031  -0.000010  0.651672  1
  V  V11  1  0.000017  0.999994  0.848190  1
  F  F12  1  0.000058  0.688974  0.750007  1
  F  F13  1  0.351509  0.976529  0.084698  1
  F  F14  1  0.023463  0.648360  0.415345  1
  F  F15  1  0.310964  0.689029  0.249984  1
  F  F16  1  0.351680  0.671828  0.584657  1
  F  F17  1  0.328038  0.648477  0.915313  1
  F  F18  1  0.999933  0.311027  0.249990  1
  F  F19  1  0.671849  0.976517  0.584659  1
  F  F20  1  0.023480  0.328046  0.915307  1
  F  F21  1  0.976491  0.671956  0.084694  1
  F  F22  1  0.328153  0.023499  0.415343  1
  F  F23  1  0.311031  0.000022  0.750011  1
  F  F24  1  0.671920  0.351547  0.084690  1
  F  F25  1  0.648312  0.328195  0.415349  1
  F  F26  1  0.689018  0.310997  0.750017  1
  F  F27  1  0.976533  0.351651  0.584655  1
  F  F28  1  0.648482  0.023472  0.915307  1
  F  F29  1  0.688962  -0.000002  0.249983  1
