# generated using pymatgen
data_La10Se19
_symmetry_space_group_name_H-M   'P 1'
_cell_length_a   9.50443777
_cell_length_b   9.50443777
_cell_length_c   17.22101829
_cell_angle_alpha   90.00000000
_cell_angle_beta   90.00000000
_cell_angle_gamma   90.00000000
_symmetry_Int_Tables_number   1
_chemical_formula_structural   La10Se19
_chemical_formula_sum   'La20 Se38'
_cell_volume   1555.64927527
_cell_formula_units_Z   2
loop_
 _symmetry_equiv_pos_site_id
 _symmetry_equiv_pos_as_xyz
  1  'x, y, z'
loop_
 _atom_site_type_symbol
 _atom_site_label
 _atom_site_symmetry_multiplicity
 _atom_site_fract_x
 _atom_site_fract_y
 _atom_site_fract_z
 _atom_site_occupancy
  Se  Se0  1  0.750000  0.250000  0.065913  1
  Se  Se1  1  0.750000  0.250000  0.565913  1
  Se  Se2  1  0.250000  0.750000  0.934087  1
  Se  Se3  1  0.250000  0.750000  0.434087  1
  Se  Se4  1  0.850858  0.552474  0.936115  1
  Se  Se5  1  0.447526  0.350858  0.436115  1
  Se  Se6  1  0.052474  0.149142  0.436115  1
  Se  Se7  1  0.649142  0.947526  0.936115  1
  Se  Se8  1  0.149142  0.447526  0.063885  1
  Se  Se9  1  0.552474  0.649142  0.563885  1
  Se  Se10  1  0.947526  0.850858  0.563885  1
  Se  Se11  1  0.350858  0.052474  0.063885  1
  Se  Se12  1  0.451562  0.347864  0.926759  1
  Se  Se13  1  0.652136  0.951562  0.426759  1
  Se  Se14  1  0.847864  0.548438  0.426759  1
  Se  Se15  1  0.048438  0.152136  0.926759  1
  Se  Se16  1  0.548438  0.652136  0.073241  1
  Se  Se17  1  0.347864  0.048438  0.573241  1
  Se  Se18  1  0.152136  0.451562  0.573241  1
  Se  Se19  1  0.951562  0.847864  0.073241  1
  Se  Se20  1  0.885700  0.069028  0.248992  1
  Se  Se21  1  0.930972  0.385700  0.748992  1
  Se  Se22  1  0.569028  0.114300  0.748992  1
  Se  Se23  1  0.614300  0.430972  0.248992  1
  Se  Se24  1  0.114300  0.930972  0.751008  1
  Se  Se25  1  0.069028  0.614300  0.251008  1
  Se  Se26  1  0.430972  0.885700  0.251008  1
  Se  Se27  1  0.385700  0.569028  0.751008  1
  Se  Se28  1  0.970837  0.325238  0.250402  1
  Se  Se29  1  0.674762  0.470837  0.750402  1
  Se  Se30  1  0.825238  0.029163  0.750402  1
  Se  Se31  1  0.529163  0.174762  0.250402  1
  Se  Se32  1  0.029163  0.674762  0.749598  1
  Se  Se33  1  0.325238  0.529163  0.249598  1
  Se  Se34  1  0.174762  0.970837  0.249598  1
  Se  Se35  1  0.470837  0.825238  0.749598  1
  Se  Se36  1  0.750000  0.750000  0.250000  1
  Se  Se37  1  0.250000  0.250000  0.750000  1
  La  La38  1  0.250000  0.750000  0.115638  1
  La  La39  1  0.250000  0.750000  0.615638  1
  La  La40  1  0.750000  0.250000  0.884362  1
  La  La41  1  0.750000  0.250000  0.384362  1
  La  La42  1  0.553503  0.648717  0.896115  1
  La  La43  1  0.351283  0.053503  0.396115  1
  La  La44  1  0.148717  0.446497  0.396115  1
  La  La45  1  0.946497  0.851283  0.896115  1
  La  La46  1  0.446497  0.351283  0.103885  1
  La  La47  1  0.648717  0.946497  0.603885  1
  La  La48  1  0.851283  0.553503  0.603885  1
  La  La49  1  0.053503  0.148717  0.103885  1
  La  La50  1  0.456164  0.346910  0.619691  1
  La  La51  1  0.653090  0.956164  0.119691  1
  La  La52  1  0.846910  0.543836  0.119691  1
  La  La53  1  0.043836  0.153090  0.619691  1
  La  La54  1  0.543836  0.653090  0.380309  1
  La  La55  1  0.346910  0.043836  0.880309  1
  La  La56  1  0.153090  0.456164  0.880309  1
  La  La57  1  0.956164  0.846910  0.380309  1
