# generated using pymatgen
data_Li6UO6
_symmetry_space_group_name_H-M   'P 1'
_cell_length_a   5.48502692
_cell_length_b   5.48502725
_cell_length_c   5.48502765
_cell_angle_alpha   101.00297311
_cell_angle_beta   101.00297382
_cell_angle_gamma   101.00296692
_symmetry_Int_Tables_number   1
_chemical_formula_structural   Li6UO6
_chemical_formula_sum   'Li6 U1 O6'
_cell_volume   154.52178430
_cell_formula_units_Z   1
loop_
 _symmetry_equiv_pos_site_id
 _symmetry_equiv_pos_as_xyz
  1  'x, y, z'
loop_
 _atom_site_type_symbol
 _atom_site_label
 _atom_site_symmetry_multiplicity
 _atom_site_fract_x
 _atom_site_fract_y
 _atom_site_fract_z
 _atom_site_occupancy
  Li  Li0  1  0.354511  0.000000  0.645489  1
  Li  Li1  1  1.000000  0.354511  0.645489  1
  Li  Li2  1  0.354511  0.645489  0.000000  1
  Li  Li3  1  0.645489  0.354511  1.000000  1
  Li  Li4  1  0.645489  1.000000  0.354511  1
  Li  Li5  1  0.000000  0.645489  0.354511  1
  U  U6  1  0.000000  0.000000  0.000000  1
  O  O7  1  0.268785  0.899755  0.268785  1
  O  O8  1  0.899755  0.268785  0.268785  1
  O  O9  1  0.731215  0.100245  0.731215  1
  O  O10  1  0.268785  0.268785  0.899755  1
  O  O11  1  0.731215  0.731215  0.100245  1
  O  O12  1  0.100245  0.731215  0.731215  1
