# generated using pymatgen
data_K2ZnH4(I2O7)2
_symmetry_space_group_name_H-M   'P 1'
_cell_length_a   7.78372428
_cell_length_b   8.01567105
_cell_length_c   8.06845230
_cell_angle_alpha   117.41077096
_cell_angle_beta   118.83935512
_cell_angle_gamma   60.95268824
_symmetry_Int_Tables_number   1
_chemical_formula_structural   K2ZnH4(I2O7)2
_chemical_formula_sum   'K2 Zn1 H4 I4 O14'
_cell_volume   368.30862974
_cell_formula_units_Z   1
loop_
 _symmetry_equiv_pos_site_id
 _symmetry_equiv_pos_as_xyz
  1  'x, y, z'
loop_
 _atom_site_type_symbol
 _atom_site_label
 _atom_site_symmetry_multiplicity
 _atom_site_fract_x
 _atom_site_fract_y
 _atom_site_fract_z
 _atom_site_occupancy
  K  K0  1  0.024262  0.000000  0.000000  1
  K  K1  1  0.500059  0.000000  0.000000  1
  Zn  Zn2  1  0.958579  0.500000  0.500000  1
  H  H3  1  0.576894  0.467929  0.374391  1
  H  H4  1  0.338987  0.375174  0.471009  1
  H  H5  1  0.243151  0.624825  0.528990  1
  H  H6  1  0.670431  0.532072  0.625609  1
  I  I7  1  0.528668  0.492324  0.016562  1
  I  I8  1  0.005135  0.035494  0.483267  1
  I  I9  1  0.557362  0.964506  0.516734  1
  I  I10  1  0.004430  0.507675  0.983438  1
  O  O11  1  0.436119  0.416918  0.135144  1
  O  O12  1  0.441529  0.763686  0.131172  1
  O  O13  1  0.807416  0.418458  0.168587  1
  O  O14  1  0.928922  0.894227  0.219222  1
  O  O15  1  0.513171  0.148574  0.413615  1
  O  O16  1  0.119444  0.181454  0.465548  1
  O  O17  1  0.219530  0.500000  0.500000  1
  O  O18  1  0.693073  0.500000  0.500000  1
  O  O19  1  0.835350  0.818544  0.534451  1
  O  O20  1  0.248131  0.851425  0.586386  1
  O  O21  1  0.603927  0.105774  0.780778  1
  O  O22  1  0.057288  0.581543  0.831414  1
  O  O23  1  0.074043  0.236315  0.868828  1
  O  O24  1  0.717893  0.583081  0.864856  1
