# generated using pymatgen
data_Co2OF3
_symmetry_space_group_name_H-M   'P 1'
_cell_length_a   4.70944990
_cell_length_b   13.32128773
_cell_length_c   5.66789938
_cell_angle_alpha   101.01086585
_cell_angle_beta   92.18691595
_cell_angle_gamma   87.90697399
_symmetry_Int_Tables_number   1
_chemical_formula_structural   Co2OF3
_chemical_formula_sum   'Co10 O5 F15'
_cell_volume   348.62592566
_cell_formula_units_Z   5
loop_
 _symmetry_equiv_pos_site_id
 _symmetry_equiv_pos_as_xyz
  1  'x, y, z'
loop_
 _atom_site_type_symbol
 _atom_site_label
 _atom_site_symmetry_multiplicity
 _atom_site_fract_x
 _atom_site_fract_y
 _atom_site_fract_z
 _atom_site_occupancy
  Co  Co0  1  0.484388  0.005879  0.488447  1
  Co  Co1  1  0.507470  0.397360  0.303682  1
  Co  Co2  1  0.487842  0.604241  0.699148  1
  Co  Co3  1  0.499287  0.199355  0.899629  1
  Co  Co4  1  0.539840  0.786386  0.111683  1
  Co  Co5  1  0.999397  0.400593  0.800900  1
  Co  Co6  1  0.975630  0.806245  0.586464  1
  Co  Co7  1  0.996711  0.201259  0.397705  1
  Co  Co8  1  0.020238  0.595214  0.212931  1
  Co  Co9  1  0.001399  0.998629  0.996917  1
  O  O10  1  0.703052  0.662616  0.032710  1
  O  O11  1  0.701737  0.862189  0.419226  1
  O  O12  1  0.700005  0.258345  0.218024  1
  O  O13  1  0.295137  0.139511  0.575684  1
  O  O14  1  0.298446  0.540630  0.380177  1
  F  F15  1  0.799668  0.260645  0.720870  1
  F  F16  1  0.802787  0.858519  0.913942  1
  F  F17  1  0.800740  0.059806  0.311626  1
  F  F18  1  0.802513  0.461741  0.119895  1
  F  F19  1  0.810016  0.663089  0.527939  1
  F  F20  1  0.690404  0.058337  0.814222  1
  F  F21  1  0.693929  0.462972  0.620893  1
  F  F22  1  0.289693  0.747816  0.785366  1
  F  F23  1  0.308569  0.929750  0.169847  1
  F  F24  1  0.306999  0.339870  0.981288  1
  F  F25  1  0.197679  0.138597  0.077290  1
  F  F26  1  0.192840  0.938115  0.675152  1
  F  F27  1  0.193026  0.541528  0.883199  1
  F  F28  1  0.204820  0.740132  0.292835  1
  F  F29  1  0.195739  0.340632  0.482308  1
