# generated using pymatgen
data_Li4V3P8O29
_symmetry_space_group_name_H-M   'P 1'
_cell_length_a   9.79349738
_cell_length_b   9.78406993
_cell_length_c   14.13026242
_cell_angle_alpha   89.79403776
_cell_angle_beta   90.26564577
_cell_angle_gamma   59.87728604
_symmetry_Int_Tables_number   1
_chemical_formula_structural   Li4V3P8O29
_chemical_formula_sum   'Li8 V6 P16 O58'
_cell_volume   1171.07583098
_cell_formula_units_Z   2
loop_
 _symmetry_equiv_pos_site_id
 _symmetry_equiv_pos_as_xyz
  1  'x, y, z'
loop_
 _atom_site_type_symbol
 _atom_site_label
 _atom_site_symmetry_multiplicity
 _atom_site_fract_x
 _atom_site_fract_y
 _atom_site_fract_z
 _atom_site_occupancy
  Li  Li0  1  0.913190  0.770122  0.062526  1
  Li  Li1  1  0.772684  0.322788  0.058199  1
  Li  Li2  1  0.307977  0.913976  0.060094  1
  Li  Li3  1  0.669651  0.233062  0.437942  1
  Li  Li4  1  0.330881  0.761035  0.559103  1
  Li  Li5  1  0.682856  0.089973  0.939833  1
  Li  Li6  1  0.232516  0.101357  0.439756  1
  Li  Li7  1  0.975648  0.971045  0.495345  1
  V  V8  1  0.566754  0.435252  0.249375  1
  V  V9  1  0.431059  0.564811  0.753784  1
  V  V10  1  0.569704  0.992164  0.744833  1
  V  V11  1  0.432559  0.001292  0.248886  1
  V  V12  1  0.005049  0.562082  0.257016  1
  V  V13  1  0.998176  0.437342  0.747134  1
  P  P14  1  0.914070  0.769740  0.843860  1
  P  P15  1  0.776885  0.914321  0.338329  1
  P  P16  1  0.918188  0.305955  0.341614  1
  P  P17  1  0.670310  0.666996  0.131255  1
  P  P18  1  0.662815  0.664490  0.629336  1
  P  P19  1  0.774371  0.317390  0.838342  1
  P  P20  1  0.684296  0.227561  0.657428  1
  P  P21  1  0.319949  0.910569  0.842515  1
  P  P22  1  0.678806  0.088845  0.156226  1
  P  P23  1  0.315262  0.772980  0.344996  1
  P  P24  1  0.226565  0.686051  0.163420  1
  P  P25  1  0.336316  0.328843  0.372362  1
  P  P26  1  0.336274  0.326615  0.868624  1
  P  P27  1  0.083009  0.696179  0.659345  1
  P  P28  1  0.224767  0.089271  0.661050  1
  P  P29  1  0.082869  0.232937  0.156073  1
  O  O30  1  0.001796  0.798457  0.576643  1
  O  O31  1  0.916356  0.741057  0.334318  1
  O  O32  1  0.749102  0.000863  0.066029  1
  O  O33  1  0.744414  0.916919  0.835500  1
  O  O34  1  0.905757  0.618424  0.820562  1
  O  O35  1  0.817584  0.668649  0.176642  1
  O  O36  1  0.917480  0.465244  0.330219  1
  O  O37  1  0.990362  0.245880  0.069984  1
  O  O38  1  0.916562  0.343276  0.833755  1
  O  O39  1  0.666653  0.812828  0.675124  1
  O  O40  1  0.618706  0.919595  0.332095  1
  O  O41  1  0.810714  0.517455  0.674632  1
  O  O42  1  0.675937  0.667643  0.025654  1
  O  O43  1  0.658207  0.674419  0.524724  1
  O  O44  1  0.673292  0.513385  0.169606  1
  O  O45  1  0.478724  0.902887  0.820338  1
  O  O46  1  0.516797  0.814488  0.170111  1
  O  O47  1  0.745269  0.339809  0.338331  1
  O  O48  1  0.794809  0.207393  0.748264  1
  O  O49  1  0.765840  0.213275  0.566473  1
  O  O50  1  0.760601  0.241774  0.927440  1
  O  O51  1  0.619993  0.478182  0.820554  1
  O  O52  1  0.509820  0.671385  0.668968  1
  O  O53  1  0.662643  0.254331  0.157422  1
  O  O54  1  0.471695  0.618975  0.330940  1
  O  O55  1  0.340335  0.917960  0.333306  1
  O  O56  1  0.797202  0.992074  0.241293  1
  O  O57  1  0.796736  0.003210  0.418049  1
  O  O58  1  0.227438  0.002614  0.573178  1
  O  O59  1  0.651510  0.088360  0.670009  1
  O  O60  1  0.529364  0.385137  0.672263  1
  O  O61  1  0.345158  0.741108  0.831446  1
  O  O62  1  0.489044  0.322062  0.334068  1
  O  O63  1  0.380757  0.524562  0.180569  1
  O  O64  1  0.234071  0.771605  0.078514  1
  O  O65  1  0.231664  0.789693  0.436175  1
  O  O66  1  0.201361  0.788440  0.258048  1
  O  O67  1  0.258768  0.657540  0.663818  1
  O  O68  1  0.486042  0.176880  0.829948  1
  O  O69  1  0.518210  0.102024  0.178284  1
  O  O70  1  0.342588  0.474025  0.821774  1
  O  O71  1  0.337556  0.334713  0.973093  1
  O  O72  1  0.325192  0.334876  0.477516  1
  O  O73  1  0.189155  0.482081  0.324635  1
  O  O74  1  0.382072  0.090624  0.674320  1
  O  O75  1  0.322347  0.187486  0.332165  1
  O  O76  1  0.082949  0.659837  0.163309  1
  O  O77  1  0.009013  0.789798  0.757423  1
  O  O78  1  0.988370  0.762616  0.936341  1
  O  O79  1  0.077894  0.540161  0.669488  1
  O  O80  1  0.185888  0.338565  0.820119  1
  O  O81  1  0.091524  0.383869  0.179088  1
  O  O82  1  0.251515  0.086698  0.157778  1
  O  O83  1  0.250422  0.987181  0.933415  1
  O  O84  1  0.205030  0.004159  0.753506  1
  O  O85  1  0.084935  0.260055  0.664791  1
  O  O86  1  0.006248  0.209112  0.425823  1
  O  O87  1  0.997710  0.207531  0.247414  1
