# generated using pymatgen
data_Co2(SnTe)3
_symmetry_space_group_name_H-M   'P 1'
_cell_length_a   9.19976190
_cell_length_b   9.19976160
_cell_length_c   9.19976174
_cell_angle_alpha   90.04459949
_cell_angle_beta   90.04459432
_cell_angle_gamma   90.04459717
_symmetry_Int_Tables_number   1
_chemical_formula_structural   Co2(SnTe)3
_chemical_formula_sum   'Co8 Sn12 Te12'
_cell_volume   778.62679607
_cell_formula_units_Z   4
loop_
 _symmetry_equiv_pos_site_id
 _symmetry_equiv_pos_as_xyz
  1  'x, y, z'
loop_
 _atom_site_type_symbol
 _atom_site_label
 _atom_site_symmetry_multiplicity
 _atom_site_fract_x
 _atom_site_fract_y
 _atom_site_fract_z
 _atom_site_occupancy
  Co  Co0  1  0.243870  0.248474  0.744156  1
  Co  Co1  1  0.248473  0.744155  0.243870  1
  Co  Co2  1  0.744156  0.243869  0.248474  1
  Co  Co3  1  0.756131  0.751527  0.255845  1
  Co  Co4  1  0.751527  0.255845  0.756130  1
  Co  Co5  1  0.255845  0.756131  0.751526  1
  Co  Co6  1  0.748430  0.748430  0.748430  1
  Co  Co7  1  0.251570  0.251570  0.251570  1
  Sn  Sn8  1  0.681495  0.835194  0.003684  1
  Sn  Sn9  1  0.835194  0.003684  0.681496  1
  Sn  Sn10  1  0.003683  0.681496  0.835194  1
  Sn  Sn11  1  0.318504  0.164806  0.996316  1
  Sn  Sn12  1  0.164806  0.996316  0.318504  1
  Sn  Sn13  1  0.996316  0.318504  0.164806  1
  Sn  Sn14  1  0.180738  0.665466  0.499181  1
  Sn  Sn15  1  0.665467  0.499182  0.180736  1
  Sn  Sn16  1  0.499181  0.180737  0.665468  1
  Sn  Sn17  1  0.819263  0.334534  0.500819  1
  Sn  Sn18  1  0.334533  0.500819  0.819264  1
  Sn  Sn19  1  0.500819  0.819264  0.334533  1
  Te  Te20  1  0.159538  0.343564  0.495450  1
  Te  Te21  1  0.343564  0.495449  0.159539  1
  Te  Te22  1  0.495449  0.159539  0.343564  1
  Te  Te23  1  0.840463  0.656436  0.504551  1
  Te  Te24  1  0.656436  0.504551  0.840462  1
  Te  Te25  1  0.504551  0.840461  0.656437  1
  Te  Te26  1  0.659703  0.156423  0.999685  1
  Te  Te27  1  0.156422  0.999686  0.659703  1
  Te  Te28  1  0.999685  0.659703  0.156423  1
  Te  Te29  1  0.340297  0.843577  0.000315  1
  Te  Te30  1  0.843577  0.000314  0.340297  1
  Te  Te31  1  0.000314  0.340297  0.843578  1
