# generated using pymatgen
data_LiCo3(OF3)2
_symmetry_space_group_name_H-M   'P 1'
_cell_length_a   7.47719164
_cell_length_b   7.07296574
_cell_length_c   5.07747135
_cell_angle_alpha   90.54814843
_cell_angle_beta   90.41510147
_cell_angle_gamma   78.96507795
_symmetry_Int_Tables_number   1
_chemical_formula_structural   LiCo3(OF3)2
_chemical_formula_sum   'Li2 Co6 O4 F12'
_cell_volume   263.54580338
_cell_formula_units_Z   2
loop_
 _symmetry_equiv_pos_site_id
 _symmetry_equiv_pos_as_xyz
  1  'x, y, z'
loop_
 _atom_site_type_symbol
 _atom_site_label
 _atom_site_symmetry_multiplicity
 _atom_site_fract_x
 _atom_site_fract_y
 _atom_site_fract_z
 _atom_site_occupancy
  Li  Li0  1  0.153569  0.170149  0.765551  1
  Li  Li1  1  0.846431  0.829851  0.234449  1
  Co  Co2  1  0.183889  0.660885  0.716613  1
  Co  Co3  1  0.327070  0.831602  0.240310  1
  Co  Co4  1  0.683073  0.684991  0.743898  1
  Co  Co5  1  0.316927  0.315009  0.256102  1
  Co  Co6  1  0.672930  0.168398  0.759690  1
  Co  Co7  1  0.816111  0.339115  0.283387  1
  O  O8  1  0.298772  0.576024  0.407857  1
  O  O9  1  0.684191  0.927171  0.882412  1
  O  O10  1  0.315809  0.072829  0.117588  1
  O  O11  1  0.701228  0.423976  0.592143  1
  F  F12  1  0.191185  0.923278  0.574312  1
  F  F13  1  0.093129  0.800493  0.043701  1
  F  F14  1  0.430871  0.684242  0.908123  1
  F  F15  1  0.188961  0.425374  0.919406  1
  F  F16  1  0.070840  0.310624  0.419325  1
  F  F17  1  0.572839  0.794090  0.406284  1
  F  F18  1  0.427161  0.205910  0.593716  1
  F  F19  1  0.929160  0.689376  0.580675  1
  F  F20  1  0.811039  0.574626  0.080594  1
  F  F21  1  0.569129  0.315758  0.091877  1
  F  F22  1  0.906871  0.199507  0.956299  1
  F  F23  1  0.808815  0.076722  0.425688  1
