# generated using pymatgen
data_RbNa2BO3
_symmetry_space_group_name_H-M   'P 1'
_cell_length_a   5.63031927
_cell_length_b   5.74036613
_cell_length_c   6.19913601
_cell_angle_alpha   90.00000000
_cell_angle_beta   90.00000000
_cell_angle_gamma   90.00000000
_symmetry_Int_Tables_number   1
_chemical_formula_structural   RbNa2BO3
_chemical_formula_sum   'Rb2 Na4 B2 O6'
_cell_volume   200.35665880
_cell_formula_units_Z   2
loop_
 _symmetry_equiv_pos_site_id
 _symmetry_equiv_pos_as_xyz
  1  'x, y, z'
loop_
 _atom_site_type_symbol
 _atom_site_label
 _atom_site_symmetry_multiplicity
 _atom_site_fract_x
 _atom_site_fract_y
 _atom_site_fract_z
 _atom_site_occupancy
  B  B0  1  0.786597  0.750000  0.250000  1
  B  B1  1  0.213403  0.250000  0.750000  1
  O  O2  1  0.656004  0.540634  0.250000  1
  O  O3  1  0.343996  0.459366  0.750000  1
  O  O4  1  0.033645  0.750000  0.250000  1
  O  O5  1  0.966355  0.250000  0.750000  1
  O  O6  1  0.343996  0.040634  0.750000  1
  O  O7  1  0.656004  0.959366  0.250000  1
  Na  Na8  1  0.364861  0.750000  0.019000  1
  Na  Na9  1  0.364861  0.750000  0.481000  1
  Na  Na10  1  0.635139  0.250000  0.981000  1
  Na  Na11  1  0.635139  0.250000  0.519000  1
  Rb  Rb12  1  0.893683  0.750000  0.750000  1
  Rb  Rb13  1  0.106317  0.250000  0.250000  1
