# generated using pymatgen
data_VO2F
_symmetry_space_group_name_H-M   'P 1'
_cell_length_a   5.22825185
_cell_length_b   7.36931805
_cell_length_c   9.14681179
_cell_angle_alpha   113.08902650
_cell_angle_beta   73.38611762
_cell_angle_gamma   89.99836519
_symmetry_Int_Tables_number   1
_chemical_formula_structural   VO2F
_chemical_formula_sum   'V6 O12 F6'
_cell_volume   308.12638662
_cell_formula_units_Z   6
loop_
 _symmetry_equiv_pos_site_id
 _symmetry_equiv_pos_as_xyz
  1  'x, y, z'
loop_
 _atom_site_type_symbol
 _atom_site_label
 _atom_site_symmetry_multiplicity
 _atom_site_fract_x
 _atom_site_fract_y
 _atom_site_fract_z
 _atom_site_occupancy
  V  V0  1  0.948458  0.484391  0.015024  1
  V  V1  1  0.036333  0.984431  0.015055  1
  V  V2  1  0.278502  0.654349  0.346008  1
  V  V3  1  0.375519  0.154528  0.346108  1
  V  V4  1  0.663412  0.813137  0.680105  1
  V  V5  1  0.656426  0.313186  0.680180  1
  O  O6  1  0.063254  0.257001  0.993183  1
  O  O7  1  0.136338  0.061189  0.184516  1
  O  O8  1  0.248471  0.425964  0.337070  1
  O  O9  1  0.414382  0.925899  0.336617  1
  O  O10  1  0.373691  0.894446  0.851417  1
  O  O11  1  0.554404  0.282225  0.473427  1
  O  O12  1  0.678810  0.560767  0.184445  1
  O  O13  1  0.943800  0.756954  0.993390  1
  O  O14  1  0.590877  0.086860  0.659011  1
  O  O15  1  0.750308  0.586839  0.658956  1
  O  O16  1  0.774212  0.394751  0.851714  1
  O  O17  1  0.972621  0.782496  0.473565  1
  F  F18  1  0.210769  0.616204  0.140096  1
  F  F19  1  0.029376  0.225234  0.523288  1
  F  F20  1  0.448418  0.725062  0.522716  1
  F  F21  1  0.310999  0.448732  0.796948  1
  F  F22  1  0.649100  0.116351  0.140007  1
  F  F23  1  0.891520  0.948998  0.797153  1
