# generated using pymatgen
data_Li2FeP3O10
_symmetry_space_group_name_H-M   'P 1'
_cell_length_a   12.13953623
_cell_length_b   8.03206903
_cell_length_c   9.74047705
_cell_angle_alpha   90.00000000
_cell_angle_beta   96.39977484
_cell_angle_gamma   90.00000000
_symmetry_Int_Tables_number   1
_chemical_formula_structural   Li2FeP3O10
_chemical_formula_sum   'Li8 Fe4 P12 O40'
_cell_volume   943.83248177
_cell_formula_units_Z   4
loop_
 _symmetry_equiv_pos_site_id
 _symmetry_equiv_pos_as_xyz
  1  'x, y, z'
loop_
 _atom_site_type_symbol
 _atom_site_label
 _atom_site_symmetry_multiplicity
 _atom_site_fract_x
 _atom_site_fract_y
 _atom_site_fract_z
 _atom_site_occupancy
  Li  Li0  1  0.148784  0.460291  0.385807  1
  Li  Li1  1  0.148784  0.039709  0.885807  1
  Li  Li2  1  0.447363  0.112825  0.908644  1
  Li  Li3  1  0.447363  0.387175  0.408644  1
  Li  Li4  1  0.552637  0.612825  0.591356  1
  Li  Li5  1  0.552637  0.887175  0.091356  1
  Li  Li6  1  0.851216  0.960291  0.114193  1
  Li  Li7  1  0.851216  0.539709  0.614193  1
  Fe  Fe8  1  0.169312  0.856478  0.627912  1
  Fe  Fe9  1  0.169312  0.643522  0.127912  1
  Fe  Fe10  1  0.830688  0.356478  0.872088  1
  Fe  Fe11  1  0.830688  0.143522  0.372088  1
  P  P12  1  0.062985  0.568027  0.804015  1
  P  P13  1  0.062985  0.931973  0.304015  1
  P  P14  1  0.272120  0.423726  0.913072  1
  P  P15  1  0.272120  0.076274  0.413072  1
  P  P16  1  0.332415  0.783954  0.926230  1
  P  P17  1  0.332415  0.716046  0.426230  1
  P  P18  1  0.667585  0.283954  0.573770  1
  P  P19  1  0.667585  0.216046  0.073770  1
  P  P20  1  0.727880  0.923726  0.586928  1
  P  P21  1  0.727880  0.576274  0.086928  1
  P  P22  1  0.937015  0.068027  0.695985  1
  P  P23  1  0.937015  0.431973  0.195985  1
  O  O24  1  0.083295  0.664828  0.938708  1
  O  O25  1  0.053853  0.994586  0.719249  1
  O  O26  1  0.082619  0.658683  0.671386  1
  O  O27  1  0.083295  0.835172  0.438708  1
  O  O28  1  0.053853  0.505414  0.219249  1
  O  O29  1  0.082619  0.841317  0.171386  1
  O  O30  1  0.154259  0.416261  0.814517  1
  O  O31  1  0.154259  0.083739  0.314517  1
  O  O32  1  0.248505  0.878797  0.823708  1
  O  O33  1  0.245130  0.059780  0.561097  1
  O  O34  1  0.293198  0.720935  0.570306  1
  O  O35  1  0.248505  0.621203  0.323708  1
  O  O36  1  0.245130  0.440220  0.061097  1
  O  O37  1  0.293198  0.779065  0.070306  1
  O  O38  1  0.334256  0.590879  0.869099  1
  O  O39  1  0.334735  0.273616  0.876151  1
  O  O40  1  0.334256  0.909121  0.369099  1
  O  O41  1  0.334735  0.226384  0.376151  1
  O  O42  1  0.447090  0.858549  0.928461  1
  O  O43  1  0.447090  0.641451  0.428461  1
  O  O44  1  0.552910  0.358549  0.571539  1
  O  O45  1  0.552910  0.141451  0.071539  1
  O  O46  1  0.665265  0.773616  0.623849  1
  O  O47  1  0.665744  0.090879  0.630901  1
  O  O48  1  0.665265  0.726384  0.123849  1
  O  O49  1  0.665744  0.409121  0.130901  1
  O  O50  1  0.706802  0.220935  0.929694  1
  O  O51  1  0.754870  0.559780  0.938903  1
  O  O52  1  0.751495  0.378797  0.676292  1
  O  O53  1  0.706802  0.279065  0.429694  1
  O  O54  1  0.754870  0.940220  0.438903  1
  O  O55  1  0.751495  0.121203  0.176292  1
  O  O56  1  0.845741  0.916261  0.685483  1
  O  O57  1  0.845741  0.583739  0.185483  1
  O  O58  1  0.917381  0.158683  0.828614  1
  O  O59  1  0.946147  0.494586  0.780751  1
  O  O60  1  0.916705  0.164828  0.561292  1
  O  O61  1  0.917381  0.341317  0.328614  1
  O  O62  1  0.946147  0.005414  0.280751  1
  O  O63  1  0.916705  0.335172  0.061292  1
