# generated using pymatgen
data_La3CrW(SO2)3
_symmetry_space_group_name_H-M   'P 1'
_cell_length_a   9.49774648
_cell_length_b   9.49777163
_cell_length_c   5.63067935
_cell_angle_alpha   89.99954817
_cell_angle_beta   90.00023653
_cell_angle_gamma   119.99956420
_symmetry_Int_Tables_number   1
_chemical_formula_structural   La3CrW(SO2)3
_chemical_formula_sum   'La6 Cr2 W2 S6 O12'
_cell_volume   439.88143274
_cell_formula_units_Z   2
loop_
 _symmetry_equiv_pos_site_id
 _symmetry_equiv_pos_as_xyz
  1  'x, y, z'
loop_
 _atom_site_type_symbol
 _atom_site_label
 _atom_site_symmetry_multiplicity
 _atom_site_fract_x
 _atom_site_fract_y
 _atom_site_fract_z
 _atom_site_occupancy
  La  La0  1  0.680385  0.088903  0.250003  1
  La  La1  1  0.319607  0.911089  0.749998  1
  La  La2  1  0.911094  0.591492  0.250003  1
  La  La3  1  0.408521  0.319605  0.250008  1
  La  La4  1  0.591481  0.680396  0.750004  1
  La  La5  1  0.088905  0.408510  0.749996  1
  Cr  Cr6  1  0.000003  0.000005  -0.000012  1
  Cr  Cr7  1  0.000012  0.000004  0.500001  1
  W  W8  1  0.666661  0.333327  0.750008  1
  W  W9  1  0.333334  0.666668  0.250000  1
  S  S10  1  0.045516  0.226806  0.249996  1
  S  S11  1  0.954487  0.773208  0.750002  1
  S  S12  1  0.773203  0.818721  0.250003  1
  S  S13  1  0.181289  0.954483  0.249995  1
  S  S14  1  0.818719  0.045519  0.749997  1
  S  S15  1  0.226802  0.181285  0.750002  1
  O  O16  1  0.839526  0.365939  0.975189  1
  O  O17  1  0.160473  0.634061  0.475181  1
  O  O18  1  0.634065  0.473594  0.975183  1
  O  O19  1  0.526414  0.160481  0.975182  1
  O  O20  1  0.473586  0.839517  0.475186  1
  O  O21  1  0.365929  0.526403  0.475187  1
  O  O22  1  0.160472  0.634061  0.024812  1
  O  O23  1  0.839525  0.365936  0.524815  1
  O  O24  1  0.365929  0.526401  0.024817  1
  O  O25  1  0.473586  0.839519  0.024814  1
  O  O26  1  0.526411  0.160478  0.524816  1
  O  O27  1  0.634066  0.473594  0.524818  1
