# generated using pymatgen
data_La3MnW(SO2)3
_symmetry_space_group_name_H-M   'P 1'
_cell_length_a   9.53248487
_cell_length_b   9.53176892
_cell_length_c   5.61762459
_cell_angle_alpha   90.00000000
_cell_angle_beta   90.00000000
_cell_angle_gamma   119.99133617
_symmetry_Int_Tables_number   1
_chemical_formula_structural   La3MnW(SO2)3
_chemical_formula_sum   'La6 Mn2 W2 S6 O12'
_cell_volume   442.08001568
_cell_formula_units_Z   2
loop_
 _symmetry_equiv_pos_site_id
 _symmetry_equiv_pos_as_xyz
  1  'x, y, z'
loop_
 _atom_site_type_symbol
 _atom_site_label
 _atom_site_symmetry_multiplicity
 _atom_site_fract_x
 _atom_site_fract_y
 _atom_site_fract_z
 _atom_site_occupancy
  La  La0  1  0.681086  0.592545  0.250001  1
  La  La1  1  0.318914  0.407455  0.750000  1
  La  La2  1  0.592492  0.911377  0.750000  1
  La  La3  1  0.088578  0.681064  0.750000  1
  La  La4  1  0.911423  0.318937  0.250001  1
  La  La5  1  0.407506  0.088621  0.250001  1
  Mn  Mn6  1  0.000000  0.000000  0.000000  1
  Mn  Mn7  1  0.000000  0.000000  0.499999  1
  W  W8  1  0.333301  0.666629  0.250001  1
  W  W9  1  0.666699  0.333371  0.750000  1
  S  S10  1  0.768773  0.953976  0.250001  1
  S  S11  1  0.231228  0.046024  0.750000  1
  S  S12  1  0.045979  0.815040  0.250001  1
  S  S13  1  0.185133  0.231165  0.250001  1
  S  S14  1  0.814868  0.768835  0.750000  1
  S  S15  1  0.954021  0.184960  0.750000  1
  O  O16  1  0.472962  0.634063  0.024413  1
  O  O17  1  0.527039  0.365937  0.524412  1
  O  O18  1  0.365854  0.838852  0.024440  1
  O  O19  1  0.161070  0.526988  0.024423  1
  O  O20  1  0.838930  0.473012  0.524424  1
  O  O21  1  0.634145  0.161148  0.524439  1
  O  O22  1  0.527039  0.365937  0.975588  1
  O  O23  1  0.472962  0.634063  0.475589  1
  O  O24  1  0.634145  0.161148  0.975561  1
  O  O25  1  0.838930  0.473012  0.975578  1
  O  O26  1  0.161070  0.526988  0.475576  1
  O  O27  1  0.365854  0.838852  0.475561  1
