# generated using pymatgen
data_Li3Ni(SbO3)4
_symmetry_space_group_name_H-M   'P 1'
_cell_length_a   5.57468197
_cell_length_b   11.13488956
_cell_length_c   9.83354207
_cell_angle_alpha   28.03489475
_cell_angle_beta   50.80410944
_cell_angle_gamma   56.13389378
_symmetry_Int_Tables_number   1
_chemical_formula_structural   Li3Ni(SbO3)4
_chemical_formula_sum   'Li3 Ni1 Sb4 O12'
_cell_volume   222.34012151
_cell_formula_units_Z   1
loop_
 _symmetry_equiv_pos_site_id
 _symmetry_equiv_pos_as_xyz
  1  'x, y, z'
loop_
 _atom_site_type_symbol
 _atom_site_label
 _atom_site_symmetry_multiplicity
 _atom_site_fract_x
 _atom_site_fract_y
 _atom_site_fract_z
 _atom_site_occupancy
  Li  Li0  1  0.275424  0.500709  0.286304  1
  Li  Li1  1  0.782300  0.999918  0.784466  1
  Li  Li2  1  0.780678  0.499964  0.779408  1
  Ni  Ni3  1  0.300201  0.000793  0.291553  1
  Sb  Sb4  1  0.003278  0.999554  0.991359  1
  Sb  Sb5  1  0.986377  0.499767  0.999633  1
  Sb  Sb6  1  0.498160  0.996564  0.503614  1
  Sb  Sb7  1  0.493923  0.503185  0.489953  1
  O  O8  1  0.373790  0.299319  0.111421  1
  O  O9  1  0.217836  0.136819  0.608226  1
  O  O10  1  0.109611  0.328718  0.720059  1
  O  O11  1  0.889611  0.190662  0.218341  1
  O  O12  1  0.380146  0.803997  0.106416  1
  O  O13  1  0.719869  0.363633  0.381331  1
  O  O14  1  0.215238  0.643535  0.598511  1
  O  O15  1  0.604750  0.172717  0.878632  1
  O  O16  1  0.108924  0.834949  0.706591  1
  O  O17  1  0.876647  0.698328  0.212394  1
  O  O18  1  0.708810  0.867206  0.373444  1
  O  O19  1  0.604027  0.659666  0.887941  1
