# generated using pymatgen
data_NdGa3
_symmetry_space_group_name_H-M   'P 1'
_cell_length_a   6.46144401
_cell_length_b   6.46170524
_cell_length_c   4.61568537
_cell_angle_alpha   89.96575031
_cell_angle_beta   90.03402802
_cell_angle_gamma   119.98856588
_symmetry_Int_Tables_number   1
_chemical_formula_structural   NdGa3
_chemical_formula_sum   'Nd2 Ga6'
_cell_volume   166.91427567
_cell_formula_units_Z   2
loop_
 _symmetry_equiv_pos_site_id
 _symmetry_equiv_pos_as_xyz
  1  'x, y, z'
loop_
 _atom_site_type_symbol
 _atom_site_label
 _atom_site_symmetry_multiplicity
 _atom_site_fract_x
 _atom_site_fract_y
 _atom_site_fract_z
 _atom_site_occupancy
  Nd  Nd0  1  0.666666  0.333368  0.249980  1
  Nd  Nd1  1  0.333337  0.666626  0.750018  1
  Ga  Ga2  1  0.856719  0.143320  0.750119  1
  Ga  Ga3  1  0.286654  0.143289  0.749914  1
  Ga  Ga4  1  0.856739  0.713369  0.749913  1
  Ga  Ga5  1  0.143273  0.856687  0.249877  1
  Ga  Ga6  1  0.713363  0.856724  0.250084  1
  Ga  Ga7  1  0.143248  0.286618  0.250087  1
