# generated using pymatgen
data_V3O5F
_symmetry_space_group_name_H-M   'P 1'
_cell_length_a   4.66361087
_cell_length_b   7.55285558
_cell_length_c   5.53686362
_cell_angle_alpha   95.23294149
_cell_angle_beta   91.29131971
_cell_angle_gamma   88.37520971
_symmetry_Int_Tables_number   1
_chemical_formula_structural   V3O5F
_chemical_formula_sum   'V6 O10 F2'
_cell_volume   194.09822449
_cell_formula_units_Z   2
loop_
 _symmetry_equiv_pos_site_id
 _symmetry_equiv_pos_as_xyz
  1  'x, y, z'
loop_
 _atom_site_type_symbol
 _atom_site_label
 _atom_site_symmetry_multiplicity
 _atom_site_fract_x
 _atom_site_fract_y
 _atom_site_fract_z
 _atom_site_occupancy
  V  V0  1  0.518604  0.669874  0.165373  1
  V  V1  1  0.493014  0.996974  0.491018  1
  V  V2  1  0.522551  0.340278  0.820814  1
  V  V3  1  0.998995  0.674362  0.679414  1
  V  V4  1  0.972778  0.319526  0.347049  1
  V  V5  1  0.994137  0.985311  0.990727  1
  O  O6  1  0.805118  0.436342  0.627387  1
  O  O7  1  0.801037  0.096008  0.290454  1
  O  O8  1  0.798906  0.771706  0.980039  1
  O  O9  1  0.689242  0.108863  0.794775  1
  O  O10  1  0.696231  0.778801  0.482540  1
  O  O11  1  0.716012  0.424615  0.133378  1
  O  O12  1  0.309664  0.551567  0.863176  1
  O  O13  1  0.298030  0.236511  0.522821  1
  O  O14  1  0.292624  0.904497  0.204118  1
  O  O15  1  0.199935  0.910446  0.709700  1
  F  F16  1  0.195032  0.228375  0.032236  1
  F  F17  1  0.198091  0.565944  0.364981  1
