# generated using pymatgen
data_LiNiPO4
_symmetry_space_group_name_H-M   'P 1'
_cell_length_a   11.14978825
_cell_length_b   6.08964689
_cell_length_c   4.92605016
_cell_angle_alpha   90.00000000
_cell_angle_beta   90.00000000
_cell_angle_gamma   90.00000000
_symmetry_Int_Tables_number   1
_chemical_formula_structural   LiNiPO4
_chemical_formula_sum   'Li4 Ni4 P4 O16'
_cell_volume   334.47030025
_cell_formula_units_Z   4
loop_
 _symmetry_equiv_pos_site_id
 _symmetry_equiv_pos_as_xyz
  1  'x, y, z'
loop_
 _atom_site_type_symbol
 _atom_site_label
 _atom_site_symmetry_multiplicity
 _atom_site_fract_x
 _atom_site_fract_y
 _atom_site_fract_z
 _atom_site_occupancy
  Li  Li0  1  0.066381  0.218687  0.990583  1
  Li  Li1  1  0.433619  0.718687  0.490583  1
  Li  Li2  1  0.566381  0.281313  0.990583  1
  Li  Li3  1  0.933619  0.781313  0.490583  1
  Ni  Ni4  1  0.171096  0.468782  0.486110  1
  Ni  Ni5  1  0.328904  0.968782  0.986110  1
  Ni  Ni6  1  0.671096  0.031218  0.486110  1
  Ni  Ni7  1  0.828904  0.531218  0.986110  1
  P  P8  1  0.086166  0.730525  0.997616  1
  P  P9  1  0.413834  0.230525  0.497616  1
  P  P10  1  0.586166  0.769475  0.997616  1
  P  P11  1  0.913834  0.269475  0.497616  1
  O  O12  1  0.045547  0.249360  0.393799  1
  O  O13  1  0.087669  0.716294  0.311873  1
  O  O14  1  0.154452  0.941335  0.908089  1
  O  O15  1  0.146859  0.519488  0.882820  1
  O  O16  1  0.353141  0.019488  0.382820  1
  O  O17  1  0.345548  0.441335  0.408089  1
  O  O18  1  0.412331  0.216294  0.811873  1
  O  O19  1  0.454452  0.749360  0.893799  1
  O  O20  1  0.545547  0.250640  0.393799  1
  O  O21  1  0.587669  0.783706  0.311873  1
  O  O22  1  0.654452  0.558665  0.908089  1
  O  O23  1  0.646859  0.980512  0.882820  1
  O  O24  1  0.853141  0.480512  0.382820  1
  O  O25  1  0.845548  0.058665  0.408089  1
  O  O26  1  0.912331  0.283706  0.811873  1
  O  O27  1  0.954453  0.750640  0.893799  1
