# generated using pymatgen
data_LiMnSiO4
_symmetry_space_group_name_H-M   'P 1'
_cell_length_a   6.01617669
_cell_length_b   10.04566962
_cell_length_c   4.82448339
_cell_angle_alpha   90.00000000
_cell_angle_beta   90.08881312
_cell_angle_gamma   90.00000000
_symmetry_Int_Tables_number   1
_chemical_formula_structural   LiMnSiO4
_chemical_formula_sum   'Li4 Mn4 Si4 O16'
_cell_volume   291.57465300
_cell_formula_units_Z   4
loop_
 _symmetry_equiv_pos_site_id
 _symmetry_equiv_pos_as_xyz
  1  'x, y, z'
loop_
 _atom_site_type_symbol
 _atom_site_label
 _atom_site_symmetry_multiplicity
 _atom_site_fract_x
 _atom_site_fract_y
 _atom_site_fract_z
 _atom_site_occupancy
  Li  Li0  1  0.256562  0.304013  0.248599  1
  Li  Li1  1  0.248423  0.786515  0.739125  1
  Li  Li2  1  0.751577  0.286515  0.260875  1
  Li  Li3  1  0.743438  0.804013  0.751401  1
  Mn  Mn4  1  0.996887  0.023060  0.270116  1
  Mn  Mn5  1  0.496718  0.071208  0.767961  1
  Mn  Mn6  1  0.503282  0.571208  0.232039  1
  Mn  Mn7  1  0.003113  0.523060  0.729884  1
  Si  Si8  1  0.016923  0.203967  0.816586  1
  Si  Si9  1  0.482606  0.891032  0.312709  1
  Si  Si10  1  0.517394  0.391032  0.687291  1
  Si  Si11  1  0.983077  0.703967  0.183414  1
  O  O12  1  0.021016  0.358204  0.933110  1
  O  O13  1  0.008140  0.192739  0.478987  1
  O  O14  1  0.190578  0.628218  0.017615  1
  O  O15  1  0.235660  0.133202  0.969449  1
  O  O16  1  0.259504  0.956267  0.465049  1
  O  O17  1  0.504943  0.237698  0.565744  1
  O  O18  1  0.488847  0.900556  0.974916  1
  O  O19  1  0.315316  0.472240  0.520664  1
  O  O20  1  0.684684  0.972240  0.479336  1
  O  O21  1  0.511153  0.400556  0.025084  1
  O  O22  1  0.495057  0.737698  0.434256  1
  O  O23  1  0.740496  0.456267  0.534951  1
  O  O24  1  0.764340  0.633202  0.030551  1
  O  O25  1  0.809422  0.128218  0.982385  1
  O  O26  1  0.991860  0.692739  0.521013  1
  O  O27  1  0.978984  0.858204  0.066890  1
