# generated using pymatgen
data_CaSnS3
_symmetry_space_group_name_H-M   'P 1'
_cell_length_a   7.09649768
_cell_length_b   17.47320837
_cell_length_c   16.05072400
_cell_angle_alpha   57.56220219
_cell_angle_beta   77.22841664
_cell_angle_gamma   78.28357048
_symmetry_Int_Tables_number   1
_chemical_formula_structural   CaSnS3
_chemical_formula_sum   'Ca12 Sn12 S36'
_cell_volume   1629.52202300
_cell_formula_units_Z   12
loop_
 _symmetry_equiv_pos_site_id
 _symmetry_equiv_pos_as_xyz
  1  'x, y, z'
loop_
 _atom_site_type_symbol
 _atom_site_label
 _atom_site_symmetry_multiplicity
 _atom_site_fract_x
 _atom_site_fract_y
 _atom_site_fract_z
 _atom_site_occupancy
  Ca  Ca0  1  0.702762  0.188079  0.565485  1
  Ca  Ca1  1  0.456326  0.811921  0.434515  1
  Ca  Ca2  1  0.820919  0.587305  0.914361  1
  Ca  Ca3  1  0.322585  0.412695  0.085639  1
  Ca  Ca4  1  0.284691  0.755789  0.732363  1
  Ca  Ca5  1  0.772843  0.244211  0.267637  1
  Ca  Ca6  1  0.003959  0.642187  0.605274  1
  Ca  Ca7  1  0.251420  0.357813  0.394726  1
  Ca  Ca8  1  0.731798  0.923565  0.836716  1
  Ca  Ca9  1  0.492079  0.076435  0.163284  1
  Ca  Ca10  1  0.173687  0.000000  0.000000  1
  Ca  Ca11  1  0.731206  0.500000  0.500000  1
  Sn  Sn12  1  0.551635  0.223360  0.803108  1
  Sn  Sn13  1  0.578103  0.776640  0.196892  1
  Sn  Sn14  1  0.049462  0.678424  0.323742  1
  Sn  Sn15  1  0.051628  0.321576  0.676258  1
  Sn  Sn16  1  0.213667  0.065886  0.706713  1
  Sn  Sn17  1  0.986266  0.934114  0.293287  1
  Sn  Sn18  1  0.480974  0.509406  0.769150  1
  Sn  Sn19  1  0.759530  0.490594  0.230850  1
  Sn  Sn20  1  0.211157  0.781525  0.006574  1
  Sn  Sn21  1  0.999256  0.218475  0.993426  1
  Sn  Sn22  1  0.843671  0.941390  0.515501  1
  Sn  Sn23  1  0.300561  0.058610  0.484499  1
  S  S24  1  0.514433  0.094137  0.763249  1
  S  S25  1  0.371819  0.905863  0.236751  1
  S  S26  1  0.937589  0.183348  0.840352  1
  S  S27  1  0.961289  0.816652  0.159648  1
  S  S28  1  0.357769  0.136888  0.982586  1
  S  S29  1  0.477243  0.863112  0.017414  1
  S  S30  1  0.788895  0.683868  0.447120  1
  S  S31  1  0.919883  0.316132  0.552880  1
  S  S32  1  0.001169  0.547272  0.322134  1
  S  S33  1  0.870575  0.452728  0.677866  1
  S  S34  1  0.328701  0.672092  0.414962  1
  S  S35  1  0.415755  0.327908  0.585038  1
  S  S36  1  0.934510  0.017166  0.598736  1
  S  S37  1  0.550412  0.982834  0.401264  1
  S  S38  1  0.061897  0.946773  0.885000  1
  S  S39  1  0.893670  0.053227  0.115000  1
  S  S40  1  0.422843  0.954128  0.652010  1
  S  S41  1  0.028982  0.045872  0.347990  1
  S  S42  1  0.657117  0.655197  0.718060  1
  S  S43  1  0.030374  0.344803  0.281940  1
  S  S44  1  0.353302  0.562437  0.560350  1
  S  S45  1  0.476089  0.437563  0.439650  1
  S  S46  1  0.148874  0.591327  0.785030  1
  S  S47  1  0.525230  0.408673  0.214970  1
  S  S48  1  0.498414  0.733702  0.883636  1
  S  S49  1  0.115752  0.266298  0.116364  1
  S  S50  1  0.998473  0.535618  0.076143  1
  S  S51  1  0.610234  0.464382  0.923857  1
  S  S52  1  0.957700  0.758376  0.872267  1
  S  S53  1  0.588343  0.241624  0.127733  1
  S  S54  1  0.742506  0.796968  0.782181  1
  S  S55  1  0.321655  0.203032  0.217819  1
  S  S56  1  0.619722  0.787791  0.592338  1
  S  S57  1  -0.000149  0.212209  0.407662  1
  S  S58  1  0.111853  0.814000  0.558535  1
  S  S59  1  0.484388  0.186000  0.441465  1
