# generated using pymatgen
data_Na2MnPCO7
_symmetry_space_group_name_H-M   'P 1'
_cell_length_a   10.37635168
_cell_length_b   6.76178277
_cell_length_c   10.42241080
_cell_angle_alpha   90.11620956
_cell_angle_beta   121.44764404
_cell_angle_gamma   90.62821474
_symmetry_Int_Tables_number   1
_chemical_formula_structural   Na2MnPCO7
_chemical_formula_sum   'Na8 Mn4 P4 C4 O28'
_cell_volume   623.79054959
_cell_formula_units_Z   4
loop_
 _symmetry_equiv_pos_site_id
 _symmetry_equiv_pos_as_xyz
  1  'x, y, z'
loop_
 _atom_site_type_symbol
 _atom_site_label
 _atom_site_symmetry_multiplicity
 _atom_site_fract_x
 _atom_site_fract_y
 _atom_site_fract_z
 _atom_site_occupancy
  Na  Na0  1  0.004932  0.015051  0.257047  1
  Na  Na1  1  0.001918  0.483382  0.255970  1
  Na  Na2  1  0.499222  0.006330  0.240851  1
  Na  Na3  1  0.497558  0.493322  0.239071  1
  Na  Na4  1  0.488077  0.986241  0.753417  1
  Na  Na5  1  0.012354  0.507053  0.750499  1
  Na  Na6  1  0.007965  0.996442  0.750083  1
  Na  Na7  1  0.833304  0.738372  0.915767  1
  Mn  Mn8  1  0.286407  0.748699  0.354498  1
  Mn  Mn9  1  0.786979  0.750814  0.351540  1
  Mn  Mn10  1  0.224665  0.261378  0.653052  1
  Mn  Mn11  1  0.714287  0.254473  0.650882  1
  P  P12  1  0.356186  0.248749  0.421696  1
  P  P13  1  0.857260  0.250958  0.422329  1
  P  P14  1  0.142312  0.752376  0.581968  1
  P  P15  1  0.643347  0.751218  0.578153  1
  C  C16  1  0.167587  0.749199  0.071176  1
  C  C17  1  0.674719  0.751281  0.070788  1
  C  C18  1  0.330399  0.248472  0.927931  1
  C  C19  1  0.828782  0.247015  0.927634  1
  O  O20  1  0.392635  0.246107  0.067725  1
  O  O21  1  0.897748  0.246693  0.068632  1
  O  O22  1  0.098045  0.746076  0.148889  1
  O  O23  1  0.603356  0.748248  0.145823  1
  O  O24  1  0.312977  0.748552  0.153923  1
  O  O25  1  0.823094  0.747653  0.160541  1
  O  O26  1  0.274249  0.061727  0.325156  1
  O  O27  1  0.275634  0.436170  0.330799  1
  O  O28  1  0.775701  0.063375  0.328476  1
  O  O29  1  0.777014  0.437215  0.330823  1
  O  O30  1  0.024965  0.252010  0.456189  1
  O  O31  1  0.132518  0.748061  0.427399  1
  O  O32  1  0.523588  0.250504  0.454339  1
  O  O33  1  0.633096  0.751707  0.424124  1
  O  O34  1  0.363965  0.241769  0.573424  1
  O  O35  1  0.476128  0.756731  0.543523  1
  O  O36  1  0.864185  0.250298  0.575232  1
  O  O37  1  0.971963  0.758307  0.545987  1
  O  O38  1  0.211128  0.565822  0.673561  1
  O  O39  1  0.223053  0.939661  0.672719  1
  O  O40  1  0.728025  0.569183  0.673272  1
  O  O41  1  0.729480  0.933549  0.677849  1
  O  O42  1  0.183512  0.251826  0.833617  1
  O  O43  1  0.683511  0.237707  0.836712  1
  O  O44  1  0.405996  0.248909  0.858470  1
  O  O45  1  0.902716  0.258845  0.854332  1
  O  O46  1  0.088156  0.752421  0.929251  1
  O  O47  1  0.610088  0.757947  0.931587  1
