# generated using pymatgen
data_Na6Mn2B4PO16
_symmetry_space_group_name_H-M   'P 1'
_cell_length_a   9.86549511
_cell_length_b   9.86542256
_cell_length_c   9.86536897
_cell_angle_alpha   60.00065570
_cell_angle_beta   60.00089176
_cell_angle_gamma   60.00101606
_symmetry_Int_Tables_number   1
_chemical_formula_structural   Na6Mn2B4PO16
_chemical_formula_sum   'Na12 Mn4 B8 P2 O32'
_cell_volume   678.95552397
_cell_formula_units_Z   2
loop_
 _symmetry_equiv_pos_site_id
 _symmetry_equiv_pos_as_xyz
  1  'x, y, z'
loop_
 _atom_site_type_symbol
 _atom_site_label
 _atom_site_symmetry_multiplicity
 _atom_site_fract_x
 _atom_site_fract_y
 _atom_site_fract_z
 _atom_site_occupancy
  Na  Na0  1  0.160447  0.089555  0.089555  1
  Na  Na1  1  0.160442  0.089557  0.660442  1
  Na  Na2  1  0.160445  0.660441  0.089556  1
  Na  Na3  1  0.410446  0.339553  0.339556  1
  Na  Na4  1  0.589554  0.089554  0.660448  1
  Na  Na5  1  0.589555  0.660447  0.089554  1
  Na  Na6  1  0.410446  0.339550  0.910448  1
  Na  Na7  1  0.410448  0.910448  0.339551  1
  Na  Na8  1  0.589555  0.660444  0.660444  1
  Na  Na9  1  0.839553  0.910447  0.339558  1
  Na  Na10  1  0.839556  0.339558  0.910444  1
  Na  Na11  1  0.839551  0.910447  0.910445  1
  Mn  Mn12  1  -0.000001  0.500000  0.000002  1
  Mn  Mn13  1  -0.000001  0.999999  0.500000  1
  Mn  Mn14  1  -0.000001  0.499999  0.500001  1
  Mn  Mn15  1  0.500002  0.500001  0.499998  1
  B  B16  1  0.131093  0.289638  0.289636  1
  B  B17  1  0.210363  0.710365  0.368907  1
  B  B18  1  0.210367  0.368907  0.710360  1
  B  B19  1  0.210366  0.710364  0.710362  1
  B  B20  1  0.789634  0.289635  0.289637  1
  B  B21  1  0.789633  0.631094  0.289640  1
  B  B22  1  0.789637  0.289635  0.631094  1
  B  B23  1  0.868908  0.710362  0.710364  1
  P  P24  1  0.624989  0.124994  0.125003  1
  P  P25  1  0.375009  0.875002  0.875002  1
  O  O26  1  0.137940  0.318377  0.134300  1
  O  O27  1  0.137940  0.134297  0.409387  1
  O  O28  1  0.137941  0.409383  0.318379  1
  O  O29  1  0.090617  0.681622  0.362060  1
  O  O30  1  0.560781  0.060780  0.060778  1
  O  O31  1  0.181626  0.362061  0.590614  1
  O  O32  1  0.090616  0.362061  0.865700  1
  O  O33  1  0.560778  0.317674  0.060775  1
  O  O34  1  0.560780  0.060778  0.317667  1
  O  O35  1  0.181626  0.865699  0.362060  1
  O  O36  1  0.365705  0.590611  0.362059  1
  O  O37  1  0.817678  0.060775  0.060774  1
  O  O38  1  0.090616  0.865703  0.681621  1
  O  O39  1  0.365705  0.362059  0.681623  1
  O  O40  1  0.181625  0.590614  0.865699  1
  O  O41  1  0.634294  0.318376  0.409388  1
  O  O42  1  0.365704  0.681625  0.590611  1
  O  O43  1  0.818375  0.409385  0.134300  1
  O  O44  1  0.634295  0.637944  0.318377  1
  O  O45  1  0.909383  0.134296  0.318379  1
  O  O46  1  0.182318  0.939226  0.939226  1
  O  O47  1  0.634296  0.409387  0.637943  1
  O  O48  1  0.818375  0.134299  0.637941  1
  O  O49  1  0.439224  0.939225  0.682323  1
  O  O50  1  0.439223  0.682323  0.939225  1
  O  O51  1  0.909383  0.637941  0.134298  1
  O  O52  1  0.818374  0.637940  0.409386  1
  O  O53  1  0.439221  0.939222  0.939223  1
  O  O54  1  0.909382  0.318377  0.637943  1
  O  O55  1  0.862061  0.590617  0.681622  1
  O  O56  1  0.862061  0.865702  0.590613  1
  O  O57  1  0.862062  0.681623  0.865700  1
