# generated using pymatgen
data_Al2H16S3O20
_symmetry_space_group_name_H-M   'P 1'
_cell_length_a   7.40073682
_cell_length_b   22.16769941
_cell_length_c   9.66053045
_cell_angle_alpha   90.00000000
_cell_angle_beta   91.45360586
_cell_angle_gamma   90.00000000
_symmetry_Int_Tables_number   1
_chemical_formula_structural   Al2H16S3O20
_chemical_formula_sum   'Al8 H64 S12 O80'
_cell_volume   1584.37060667
_cell_formula_units_Z   4
loop_
 _symmetry_equiv_pos_site_id
 _symmetry_equiv_pos_as_xyz
  1  'x, y, z'
loop_
 _atom_site_type_symbol
 _atom_site_label
 _atom_site_symmetry_multiplicity
 _atom_site_fract_x
 _atom_site_fract_y
 _atom_site_fract_z
 _atom_site_occupancy
  Al  Al0  1  0.194085  0.148496  0.951705  1
  Al  Al1  1  0.194085  0.351504  0.451705  1
  Al  Al2  1  0.225023  0.603346  0.997813  1
  Al  Al3  1  0.225023  0.896654  0.497813  1
  Al  Al4  1  0.774977  0.103346  0.502187  1
  Al  Al5  1  0.774977  0.396654  0.002187  1
  Al  Al6  1  0.805915  0.648496  0.548295  1
  Al  Al7  1  0.805915  0.851504  0.048295  1
  H  H8  1  0.015292  0.738636  0.607938  1
  H  H9  1  0.998181  0.955844  0.646070  1
  H  H10  1  0.015292  0.761364  0.107938  1
  H  H11  1  0.998181  0.544156  0.146070  1
  H  H12  1  0.089487  0.578713  0.540339  1
  H  H13  1  0.121683  0.860293  0.951690  1
  H  H14  1  0.089487  0.921287  0.040339  1
  H  H15  1  0.121683  0.639707  0.451690  1
  H  H16  1  0.149653  0.261688  0.996883  1
  H  H17  1  0.149653  0.238312  0.496883  1
  H  H18  1  0.155988  0.002748  0.599507  1
  H  H19  1  0.155988  0.497252  0.099507  1
  H  H20  1  0.228836  0.385830  0.699509  1
  H  H21  1  0.262746  0.033468  0.990416  1
  H  H22  1  0.228836  0.114170  0.199509  1
  H  H23  1  0.262746  0.466532  0.490416  1
  H  H24  1  0.278919  0.693442  0.830182  1
  H  H25  1  0.278919  0.806558  0.330182  1
  H  H26  1  0.350623  0.324467  0.695214  1
  H  H27  1  0.350623  0.175533  0.195214  1
  H  H28  1  0.376607  0.055151  0.858474  1
  H  H29  1  0.376607  0.444849  0.358474  1
  H  H30  1  0.444364  0.222416  0.861682  1
  H  H31  1  0.472167  0.674712  0.907436  1
  H  H32  1  0.444364  0.277584  0.361682  1
  H  H33  1  0.472167  0.825288  0.407436  1
  H  H34  1  0.439231  0.069525  0.517937  1
  H  H35  1  0.475973  0.956174  0.625645  1
  H  H36  1  0.439231  0.430475  0.017937  1
  H  H37  1  0.475973  0.543826  0.125645  1
  H  H38  1  0.527865  0.179608  0.981354  1
  H  H39  1  0.472135  0.679608  0.518646  1
  H  H40  1  0.527865  0.320392  0.481354  1
  H  H41  1  0.472135  0.820392  0.018646  1
  H  H42  1  0.524027  0.456174  0.874355  1
  H  H43  1  0.560770  0.569525  0.982063  1
  H  H44  1  0.524027  0.043826  0.374355  1
  H  H45  1  0.560770  0.930475  0.482063  1
  H  H46  1  0.527833  0.174712  0.592564  1
  H  H47  1  0.555636  0.722416  0.638318  1
  H  H48  1  0.527833  0.325288  0.092564  1
  H  H49  1  0.555636  0.777584  0.138318  1
  H  H50  1  0.623393  0.555151  0.641526  1
  H  H51  1  0.623393  0.944849  0.141526  1
  H  H52  1  0.649377  0.824467  0.804786  1
  H  H53  1  0.649377  0.675533  0.304786  1
  H  H54  1  0.721081  0.193442  0.669818  1
  H  H55  1  0.721081  0.306558  0.169818  1
  H  H56  1  0.737254  0.533468  0.509584  1
  H  H57  1  0.771164  0.885830  0.800491  1
  H  H58  1  0.737254  0.966532  0.009584  1
  H  H59  1  0.771164  0.614170  0.300491  1
  H  H60  1  0.844012  0.502748  0.900493  1
  H  H61  1  0.844012  0.997252  0.400493  1
  H  H62  1  0.850347  0.761688  0.503117  1
  H  H63  1  0.850347  0.738312  0.003117  1
  H  H64  1  0.878317  0.360293  0.548310  1
  H  H65  1  0.910513  0.078713  0.959661  1
  H  H66  1  0.878317  0.139707  0.048310  1
  H  H67  1  0.910513  0.421287  0.459661  1
  H  H68  1  0.001819  0.455844  0.853930  1
  H  H69  1  0.984708  0.238636  0.892062  1
  H  H70  1  0.001819  0.044156  0.353930  1
  H  H71  1  0.984708  0.261364  0.392062  1
  S  S72  1  0.168229  0.135702  0.619819  1
  S  S73  1  0.168229  0.364298  0.119819  1
  S  S74  1  0.268768  0.510516  0.737841  1
  S  S75  1  0.268768  0.989484  0.237841  1
  S  S76  1  0.306996  0.802236  0.751950  1
  S  S77  1  0.306996  0.697764  0.251950  1
  S  S78  1  0.693004  0.302236  0.748050  1
  S  S79  1  0.693004  0.197764  0.248050  1
  S  S80  1  0.731232  0.010516  0.762159  1
  S  S81  1  0.731232  0.489484  0.262159  1
  S  S82  1  0.831771  0.635702  0.880181  1
  S  S83  1  0.831771  0.864298  0.380181  1
  O  O84  1  0.000278  0.640767  0.967820  1
  O  O85  1  0.000278  0.859233  0.467820  1
  O  O86  1  0.026776  0.886276  0.993946  1
  O  O87  1  0.026776  0.613724  0.493946  1
  O  O88  1  0.083609  0.226227  0.958280  1
  O  O89  1  0.083609  0.273773  0.458280  1
  O  O90  1  0.115460  0.146828  0.764978  1
  O  O91  1  0.118198  0.959910  0.599278  1
  O  O92  1  0.115460  0.353172  0.264978  1
  O  O93  1  0.118198  0.540090  0.099278  1
  O  O94  1  0.193332  0.559954  0.824607  1
  O  O95  1  0.193885  0.747738  0.725041  1
  O  O96  1  0.195284  0.451624  0.786820  1
  O  O97  1  0.193332  0.940046  0.324607  1
  O  O98  1  0.193885  0.752262  0.225041  1
  O  O99  1  0.207449  0.521466  0.591945  1
  O  O100  1  0.195284  0.048376  0.286820  1
  O  O101  1  0.207449  0.978534  0.091945  1
  O  O102  1  0.235836  0.853545  0.668110  1
  O  O103  1  0.250842  0.075095  0.607158  1
  O  O104  1  0.235836  0.646455  0.168110  1
  O  O105  1  0.253612  0.348666  0.644743  1
  O  O106  1  0.250842  0.424905  0.107158  1
  O  O107  1  0.253612  0.151334  0.144743  1
  O  O108  1  0.298303  0.069455  0.933337  1
  O  O109  1  0.300256  0.820680  0.900159  1
  O  O110  1  0.292550  0.183187  0.572517  1
  O  O111  1  0.298303  0.430545  0.433337  1
  O  O112  1  0.300256  0.679320  0.400159  1
  O  O113  1  0.292550  0.316813  0.072517  1
  O  O114  1  0.340629  0.665972  0.899438  1
  O  O115  1  0.340629  0.834028  0.399438  1
  O  O116  1  0.425696  0.183292  0.911660  1
  O  O117  1  0.425696  0.316708  0.411660  1
  O  O118  1  0.450297  0.932398  0.539407  1
  O  O119  1  0.468948  0.508561  0.748258  1
  O  O120  1  0.450297  0.567602  0.039407  1
  O  O121  1  0.468948  0.991439  0.248258  1
  O  O122  1  0.498377  0.788170  0.717500  1
  O  O123  1  0.501623  0.288170  0.782500  1
  O  O124  1  0.498377  0.711830  0.217500  1
  O  O125  1  0.501623  0.211830  0.282500  1
  O  O126  1  0.531052  0.008561  0.751742  1
  O  O127  1  0.549703  0.432398  0.960593  1
  O  O128  1  0.531052  0.491439  0.251742  1
  O  O129  1  0.549703  0.067602  0.460593  1
  O  O130  1  0.574304  0.683292  0.588340  1
  O  O131  1  0.574304  0.816708  0.088340  1
  O  O132  1  0.659371  0.165972  0.600562  1
  O  O133  1  0.659371  0.334028  0.100562  1
  O  O134  1  0.707450  0.683187  0.927483  1
  O  O135  1  0.699744  0.320680  0.599841  1
  O  O136  1  0.701697  0.569455  0.566663  1
  O  O137  1  0.707450  0.816813  0.427483  1
  O  O138  1  0.699744  0.179320  0.099841  1
  O  O139  1  0.701697  0.930545  0.066663  1
  O  O140  1  0.746388  0.848666  0.855257  1
  O  O141  1  0.749158  0.575095  0.892842  1
  O  O142  1  0.746388  0.651334  0.355257  1
  O  O143  1  0.764164  0.353545  0.831890  1
  O  O144  1  0.749158  0.924905  0.392842  1
  O  O145  1  0.764164  0.146455  0.331890  1
  O  O146  1  0.792551  0.021466  0.908055  1
  O  O147  1  0.804716  0.951624  0.713180  1
  O  O148  1  0.792551  0.478534  0.408055  1
  O  O149  1  0.806115  0.247739  0.774959  1
  O  O150  1  0.806668  0.059954  0.675393  1
  O  O151  1  0.804716  0.548376  0.213180  1
  O  O152  1  0.806115  0.252262  0.274959  1
  O  O153  1  0.806668  0.440046  0.175393  1
  O  O154  1  0.881802  0.459910  0.900722  1
  O  O155  1  0.884540  0.646828  0.735022  1
  O  O156  1  0.881802  0.040090  0.400722  1
  O  O157  1  0.884540  0.853172  0.235022  1
  O  O158  1  0.916391  0.726227  0.541720  1
  O  O159  1  0.916391  0.773773  0.041720  1
  O  O160  1  0.973224  0.386276  0.506054  1
  O  O161  1  0.973224  0.113724  0.006054  1
  O  O162  1  0.999722  0.140767  0.532180  1
  O  O163  1  0.999722  0.359233  0.032180  1
