# generated using pymatgen
data_VPO4
_symmetry_space_group_name_H-M   'P 1'
_cell_length_a   8.57129180
_cell_length_b   8.62683757
_cell_length_c   8.62683743
_cell_angle_alpha   60.00000288
_cell_angle_beta   59.78539421
_cell_angle_gamma   59.78539804
_symmetry_Int_Tables_number   1
_chemical_formula_structural   VPO4
_chemical_formula_sum   'V6 P6 O24'
_cell_volume   449.59155790
_cell_formula_units_Z   6
loop_
 _symmetry_equiv_pos_site_id
 _symmetry_equiv_pos_as_xyz
  1  'x, y, z'
loop_
 _atom_site_type_symbol
 _atom_site_label
 _atom_site_symmetry_multiplicity
 _atom_site_fract_x
 _atom_site_fract_y
 _atom_site_fract_z
 _atom_site_occupancy
  V  V0  1  0.000000  0.000000  0.000000  1
  V  V1  1  0.069502  0.643499  0.643499  1
  V  V2  1  0.569502  0.143499  0.143499  1
  V  V3  1  0.500000  0.500000  0.500000  1
  V  V4  1  0.430498  0.856501  0.856501  1
  V  V5  1  0.930498  0.356501  0.356501  1
  P  P6  1  0.250000  0.250000  0.542876  1
  P  P7  1  0.250000  0.957124  0.250000  1
  P  P8  1  0.250000  0.542876  0.957124  1
  P  P9  1  0.750000  0.457124  0.042876  1
  P  P10  1  0.750000  0.042876  0.750000  1
  P  P11  1  0.750000  0.750000  0.457124  1
  O  O12  1  0.067853  0.112903  0.316596  1
  O  O13  1  0.067853  0.502648  0.112903  1
  O  O14  1  0.067853  0.316596  0.502648  1
  O  O15  1  0.230714  0.088578  0.740194  1
  O  O16  1  0.432147  0.183404  0.387097  1
  O  O17  1  0.269286  0.411422  0.559486  1
  O  O18  1  0.230714  0.940514  0.088578  1
  O  O19  1  0.269286  0.759806  0.411422  1
  O  O20  1  0.567853  0.612903  0.002648  1
  O  O21  1  0.269286  0.559486  0.759806  1
  O  O22  1  0.769286  0.259806  0.059486  1
  O  O23  1  0.567853  0.002648  0.816596  1
  O  O24  1  0.432147  0.997352  0.183404  1
  O  O25  1  0.230714  0.740194  0.940514  1
  O  O26  1  0.730714  0.440514  0.240194  1
  O  O27  1  0.432147  0.387097  0.997352  1
  O  O28  1  0.730714  0.240194  0.588578  1
  O  O29  1  0.769286  0.059486  0.911422  1
  O  O30  1  0.730714  0.588578  0.440514  1
  O  O31  1  0.567853  0.816596  0.612903  1
  O  O32  1  0.769286  0.911422  0.259806  1
  O  O33  1  0.932147  0.683404  0.497352  1
  O  O34  1  0.932147  0.497352  0.887097  1
  O  O35  1  0.932147  0.887097  0.683404  1
