# generated using pymatgen
data_Rb2Li2SiO4
_symmetry_space_group_name_H-M   'P 1'
_cell_length_a   5.53013397
_cell_length_b   5.71611552
_cell_length_c   8.86373071
_cell_angle_alpha   83.72698730
_cell_angle_beta   75.36871872
_cell_angle_gamma   85.69918886
_symmetry_Int_Tables_number   1
_chemical_formula_structural   Rb2Li2SiO4
_chemical_formula_sum   'Rb4 Li4 Si2 O8'
_cell_volume   269.15359759
_cell_formula_units_Z   2
loop_
 _symmetry_equiv_pos_site_id
 _symmetry_equiv_pos_as_xyz
  1  'x, y, z'
loop_
 _atom_site_type_symbol
 _atom_site_label
 _atom_site_symmetry_multiplicity
 _atom_site_fract_x
 _atom_site_fract_y
 _atom_site_fract_z
 _atom_site_occupancy
  Li  Li0  1  0.931732  0.188375  0.438260  1
  Li  Li1  1  0.068268  0.811625  0.561740  1
  Li  Li2  1  0.696902  0.593409  0.418498  1
  Li  Li3  1  0.303098  0.406591  0.581502  1
  O  O4  1  0.997791  0.557332  0.720850  1
  O  O5  1  0.002209  0.442668  0.279150  1
  O  O6  1  0.918454  0.867137  0.380221  1
  O  O7  1  0.081546  0.132863  0.619779  1
  O  O8  1  0.270779  0.797282  0.102473  1
  O  O9  1  0.729221  0.202718  0.897527  1
  O  O10  1  0.356243  0.641542  0.389967  1
  O  O11  1  0.643757  0.358458  0.610033  1
  Si  Si12  1  0.145735  0.687721  0.281121  1
  Si  Si13  1  0.854265  0.312279  0.718879  1
  Rb  Rb14  1  0.476680  0.850493  0.731403  1
  Rb  Rb15  1  0.523320  0.149507  0.268597  1
  Rb  Rb16  1  0.792130  0.728419  0.017975  1
  Rb  Rb17  1  0.207870  0.271581  0.982025  1
