# generated using pymatgen
data_Li5Mn6(BO3)6
_symmetry_space_group_name_H-M   'P 1'
_cell_length_a   5.93879462
_cell_length_b   13.99419026
_cell_length_c   5.22387746
_cell_angle_alpha   100.53320986
_cell_angle_beta   112.77156610
_cell_angle_gamma   99.17772820
_symmetry_Int_Tables_number   1
_chemical_formula_structural   Li5Mn6(BO3)6
_chemical_formula_sum   'Li5 Mn6 B6 O18'
_cell_volume   380.65703362
_cell_formula_units_Z   1
loop_
 _symmetry_equiv_pos_site_id
 _symmetry_equiv_pos_as_xyz
  1  'x, y, z'
loop_
 _atom_site_type_symbol
 _atom_site_label
 _atom_site_symmetry_multiplicity
 _atom_site_fract_x
 _atom_site_fract_y
 _atom_site_fract_z
 _atom_site_occupancy
  Li  Li0  1  0.679362  0.458032  0.982742  1
  Li  Li1  1  0.677034  0.791486  0.650037  1
  Li  Li2  1  0.346755  0.207071  0.356290  1
  Li  Li3  1  0.321214  0.540060  0.013814  1
  Li  Li4  1  0.318835  0.873886  0.683272  1
  Mn  Mn5  1  0.763323  0.248444  0.910133  1
  Mn  Mn6  1  0.761020  0.585769  0.572957  1
  Mn  Mn7  1  0.757160  0.923258  0.245599  1
  Mn  Mn8  1  0.251345  0.078896  0.770811  1
  Mn  Mn9  1  0.239030  0.415226  0.424650  1
  Mn  Mn10  1  0.242070  0.749632  0.093810  1
  B  B11  1  0.736221  0.022707  0.778570  1
  B  B12  1  0.739771  0.361545  0.455992  1
  B  B13  1  0.739325  0.694446  0.117826  1
  B  B14  1  0.260693  0.304588  0.883291  1
  B  B15  1  0.260991  0.641478  0.548000  1
  B  B16  1  0.258472  0.975868  0.213927  1
  O  O17  1  0.876046  0.044712  0.622566  1
  O  O18  1  0.826964  0.378315  0.247622  1
  O  O19  1  0.711116  0.270216  0.511436  1
  O  O20  1  0.702867  0.599400  0.158346  1
  O  O21  1  0.622513  0.095531  0.860287  1
  O  O22  1  0.672271  0.440057  0.595179  1
  O  O23  1  0.680451  0.772449  0.268403  1
  O  O24  1  0.828096  0.713123  0.913923  1
  O  O25  1  0.266821  0.067132  0.153113  1
  O  O26  1  0.696252  0.929571  0.825556  1
  O  O27  1  0.171587  0.286429  0.087534  1
  O  O28  1  0.326887  0.226462  0.742101  1
  O  O29  1  0.318292  0.564713  0.394517  1
  O  O30  1  0.334126  0.900631  0.078749  1
  O  O31  1  0.298450  0.399298  0.840437  1
  O  O32  1  0.295553  0.737033  0.508053  1
  O  O33  1  0.177201  0.623201  0.755661  1
  O  O34  1  0.173373  0.957339  0.422062  1
