# generated using pymatgen
data_Li4CrF6
_symmetry_space_group_name_H-M   'P 1'
_cell_length_a   8.78846390
_cell_length_b   8.78846421
_cell_length_c   10.46290569
_cell_angle_alpha   93.25616635
_cell_angle_beta   93.25616509
_cell_angle_gamma   62.50369573
_symmetry_Int_Tables_number   1
_chemical_formula_structural   Li4CrF6
_chemical_formula_sum   'Li24 Cr6 F36'
_cell_volume   715.25528416
_cell_formula_units_Z   6
loop_
 _symmetry_equiv_pos_site_id
 _symmetry_equiv_pos_as_xyz
  1  'x, y, z'
loop_
 _atom_site_type_symbol
 _atom_site_label
 _atom_site_symmetry_multiplicity
 _atom_site_fract_x
 _atom_site_fract_y
 _atom_site_fract_z
 _atom_site_occupancy
  Li  Li0  1  0.970613  0.703218  0.283987  1
  Li  Li1  1  0.946828  0.655833  0.041612  1
  Li  Li2  1  0.998224  0.338609  0.278120  1
  Li  Li3  1  0.689826  0.988244  0.777573  1
  Li  Li4  1  0.662020  0.938886  0.534569  1
  Li  Li5  1  0.846164  0.467386  0.516502  1
  Li  Li6  1  0.801856  0.198145  0.250001  1
  Li  Li7  1  0.467333  0.862579  0.017695  1
  Li  Li8  1  0.674530  0.369513  0.020213  1
  Li  Li9  1  0.821098  0.178902  0.750000  1
  Li  Li10  1  0.630487  0.325470  0.479787  1
  Li  Li11  1  0.661391  0.001776  0.221880  1
  Li  Li12  1  0.294578  0.969265  0.771214  1
  Li  Li13  1  0.489123  0.510877  0.750000  1
  Li  Li14  1  0.357500  0.684560  0.522013  1
  Li  Li15  1  0.203650  0.796350  0.250000  1
  Li  Li16  1  0.315440  0.642500  0.977987  1
  Li  Li17  1  0.532614  0.153836  0.983498  1
  Li  Li18  1  0.137421  0.532667  0.482305  1
  Li  Li19  1  0.344167  0.053172  0.458388  1
  Li  Li20  1  0.296780  0.029386  0.216013  1
  Li  Li21  1  0.030735  0.705422  0.728786  1
  Li  Li22  1  0.061114  0.337980  0.965431  1
  Li  Li23  1  0.011755  0.310179  0.722427  1
  Cr  Cr24  1  0.648778  0.660962  0.285191  1
  Cr  Cr25  1  0.683754  0.664792  0.789080  1
  Cr  Cr26  1  0.339038  0.351222  0.214809  1
  Cr  Cr27  1  0.335208  0.316246  0.710920  1
  Cr  Cr28  1  0.000372  0.002032  0.000984  1
  Cr  Cr29  1  0.997968  0.999628  0.499016  1
  F  F30  1  0.906082  0.936632  0.329074  1
  F  F31  1  0.920909  0.925560  0.833324  1
  F  F32  1  0.930232  0.556865  0.382684  1
  F  F33  1  0.919174  0.563164  0.882016  1
  F  F34  1  0.769243  0.752303  0.163060  1
  F  F35  1  0.770309  0.777259  0.665628  1
  F  F36  1  0.885228  0.264482  0.409886  1
  F  F37  1  0.568668  0.902883  0.375373  1
  F  F38  1  0.755738  0.429258  0.186693  1
  F  F39  1  0.908404  0.243194  0.923319  1
  F  F40  1  0.566304  0.935664  0.888953  1
  F  F41  1  0.768524  0.398225  0.673871  1
  F  F42  1  0.587996  0.570500  0.440246  1
  F  F43  1  0.735518  0.114772  0.090114  1
  F  F44  1  0.396183  0.787719  0.168937  1
  F  F45  1  0.576575  0.576582  0.917208  1
  F  F46  1  0.756806  0.091596  0.576681  1
  F  F47  1  0.453219  0.738068  0.689862  1
  F  F48  1  0.570742  0.244262  0.313307  1
  F  F49  1  0.240785  0.908176  0.420086  1
  F  F50  1  0.429500  0.412004  0.059754  1
  F  F51  1  0.601775  0.231476  0.826129  1
  F  F52  1  0.267812  0.882293  0.925040  1
  F  F53  1  0.423418  0.423425  0.582792  1
  F  F54  1  0.212281  0.603817  0.331063  1
  F  F55  1  0.443135  0.069768  0.117316  1
  F  F56  1  0.091824  0.759215  0.079914  1
  F  F57  1  0.261932  0.546781  0.810138  1
  F  F58  1  0.436836  0.080826  0.617984  1
  F  F59  1  0.117707  0.732188  0.574960  1
  F  F60  1  0.247697  0.230757  0.336940  1
  F  F61  1  0.222741  0.229691  0.834372  1
  F  F62  1  0.097117  0.431332  0.124627  1
  F  F63  1  0.064336  0.433696  0.611047  1
  F  F64  1  0.063368  0.093918  0.170925  1
  F  F65  1  0.074440  0.079091  0.666676  1
