# generated using pymatgen
data_LiMnP2O7
_symmetry_space_group_name_H-M   'P 1'
_cell_length_a   9.79540396
_cell_length_b   9.74282850
_cell_length_c   11.12347087
_cell_angle_alpha   89.96443833
_cell_angle_beta   101.58971259
_cell_angle_gamma   88.51050466
_symmetry_Int_Tables_number   1
_chemical_formula_structural   LiMnP2O7
_chemical_formula_sum   'Li8 Mn8 P16 O56'
_cell_volume   1039.55395104
_cell_formula_units_Z   8
loop_
 _symmetry_equiv_pos_site_id
 _symmetry_equiv_pos_as_xyz
  1  'x, y, z'
loop_
 _atom_site_type_symbol
 _atom_site_label
 _atom_site_symmetry_multiplicity
 _atom_site_fract_x
 _atom_site_fract_y
 _atom_site_fract_z
 _atom_site_occupancy
  Li  Li0  1  0.115383  0.708060  0.451787  1
  Li  Li1  1  0.089176  0.103009  0.021924  1
  Li  Li2  1  0.417367  0.596690  0.974231  1
  Li  Li3  1  0.404987  0.968152  0.506481  1
  Li  Li4  1  0.652887  0.108832  0.041323  1
  Li  Li5  1  0.909670  0.890804  0.979301  1
  Li  Li6  1  0.830066  0.578152  0.459114  1
  Li  Li7  1  0.886980  0.283039  0.549767  1
  Mn  Mn8  1  0.197270  0.927830  0.671128  1
  Mn  Mn9  1  0.276863  0.227536  0.836218  1
  Mn  Mn10  1  0.236788  0.708569  0.171157  1
  Mn  Mn11  1  0.299867  0.422667  0.332655  1
  Mn  Mn12  1  0.700817  0.576074  0.676330  1
  Mn  Mn13  1  0.760188  0.292791  0.828066  1
  Mn  Mn14  1  0.720018  0.770481  0.163316  1
  Mn  Mn15  1  0.803452  0.070227  0.334976  1
  P  P16  1  0.020699  0.447269  0.750275  1
  P  P17  1  0.119812  0.711061  0.880719  1
  P  P18  1  0.060650  0.930508  0.245030  1
  P  P19  1  0.128917  0.149148  0.435210  1
  P  P20  1  0.379892  0.650162  0.579163  1
  P  P21  1  0.429933  0.423137  0.758518  1
  P  P22  1  0.529123  0.060330  0.754600  1
  P  P23  1  0.381055  0.208896  0.115494  1
  P  P24  1  0.614397  0.789646  0.882909  1
  P  P25  1  0.462791  0.935853  0.239707  1
  P  P26  1  0.566656  0.575259  0.240799  1
  P  P27  1  0.622421  0.349281  0.417608  1
  P  P28  1  0.872952  0.852638  0.564859  1
  P  P29  1  0.936250  0.068355  0.756174  1
  P  P30  1  0.882173  0.286877  0.118502  1
  P  P31  1  0.974327  0.554387  0.241793  1
  O  O32  1  0.006885  0.426923  0.615114  1
  O  O33  1  0.026369  0.838768  0.553128  1
  O  O34  1  0.085108  0.078550  0.728238  1
  O  O35  1  0.103471  0.339956  0.838383  1
  O  O36  1  0.096963  0.589421  0.780202  1
  O  O37  1  0.191141  0.822000  0.816269  1
  O  O38  1  0.226264  0.653750  0.994920  1
  O  O39  1  0.023328  0.250354  0.097293  1
  O  O40  1  0.126636  0.066343  0.307171  1
  O  O41  1  0.063279  0.936642  0.110161  1
  O  O42  1  0.129449  0.541180  0.217880  1
  O  O43  1  0.190335  0.284535  0.414385  1
  O  O44  1  0.155250  0.807176  0.302819  1
  O  O45  1  0.220596  0.055366  0.534555  1
  O  O46  1  0.289665  0.579871  0.469104  1
  O  O47  1  0.331824  0.310598  0.694694  1
  O  O48  1  0.321813  0.796641  0.594301  1
  O  O49  1  0.385958  0.058187  0.798336  1
  O  O50  1  0.367243  0.569262  0.701835  1
  O  O51  1  0.415202  0.421120  0.891366  1
  O  O52  1  0.476641  0.758820  0.910529  1
  O  O53  1  0.268872  0.162967  0.001558  1
  O  O54  1  0.321883  0.331271  0.178839  1
  O  O55  1  0.391513  0.086405  0.215211  1
  O  O56  1  0.419084  0.589466  0.267342  1
  O  O57  1  0.370235  0.840922  0.146009  1
  O  O58  1  0.521455  0.084999  0.621529  1
  O  O59  1  0.470338  0.345376  0.431553  1
  O  O60  1  0.535534  0.653385  0.573862  1
  O  O61  1  0.468882  0.902849  0.371146  1
  O  O62  1  0.627080  0.152585  0.848853  1
  O  O63  1  0.579603  0.411848  0.733928  1
  O  O64  1  0.600058  0.909542  0.782189  1
  O  O65  1  0.691623  0.673335  0.827511  1
  O  O66  1  0.718279  0.849558  0.999136  1
  O  O67  1  0.518283  0.225873  0.080722  1
  O  O68  1  0.577090  0.592868  0.107806  1
  O  O69  1  0.625947  0.426058  0.289141  1
  O  O70  1  0.608485  0.940780  0.198972  1
  O  O71  1  0.689146  0.208020  0.406322  1
  O  O72  1  0.676222  0.678021  0.309670  1
  O  O73  1  0.715647  0.432580  0.519521  1
  O  O74  1  0.781630  0.938511  0.461809  1
  O  O75  1  0.843073  0.192871  0.699134  1
  O  O76  1  0.813418  0.712933  0.582839  1
  O  O77  1  0.866380  0.459732  0.783537  1
  O  O78  1  0.932540  0.058967  0.890818  1
  O  O79  1  0.869611  0.932825  0.691764  1
  O  O80  1  0.981271  0.747342  0.908695  1
  O  O81  1  0.775298  0.335082  0.002848  1
  O  O82  1  0.808131  0.173232  0.180983  1
  O  O83  1  0.898913  0.410753  0.217259  1
  O  O84  1  0.891351  0.659366  0.150428  1
  O  O85  1  0.910840  0.920078  0.271938  1
  O  O86  1  0.976691  0.159960  0.449903  1
  O  O87  1  0.976744  0.584249  0.374837  1
