# generated using pymatgen
data_SrCaI4
_symmetry_space_group_name_H-M   'P 1'
_cell_length_a   7.98727555
_cell_length_b   10.02407410
_cell_length_c   7.98727555
_cell_angle_alpha   66.52151334
_cell_angle_beta   90.00000000
_cell_angle_gamma   113.47848660
_symmetry_Int_Tables_number   1
_chemical_formula_structural   SrCaI4
_chemical_formula_sum   'Sr2 Ca2 I8'
_cell_volume   528.33332653
_cell_formula_units_Z   2
loop_
 _symmetry_equiv_pos_site_id
 _symmetry_equiv_pos_as_xyz
  1  'x, y, z'
loop_
 _atom_site_type_symbol
 _atom_site_label
 _atom_site_symmetry_multiplicity
 _atom_site_fract_x
 _atom_site_fract_y
 _atom_site_fract_z
 _atom_site_occupancy
  Sr  Sr0  1  0.625000  0.750000  0.125000  1
  Sr  Sr1  1  0.375000  0.250000  0.875000  1
  Ca  Ca2  1  0.875000  0.250000  0.375000  1
  Ca  Ca3  1  0.125000  0.750000  0.625000  1
  I  I4  1  0.600848  0.070871  0.189594  1
  I  I5  1  0.239536  0.429129  0.100848  1
  I  I6  1  0.689594  0.429129  0.470023  1
  I  I7  1  0.029977  0.929129  0.260464  1
  I  I8  1  0.970023  0.070871  0.739536  1
  I  I9  1  0.310406  0.570871  0.529977  1
  I  I10  1  0.760464  0.570871  0.899152  1
  I  I11  1  0.399152  0.929129  0.810406  1
