# generated using pymatgen
data_Li2Cr5(Si2O7)2
_symmetry_space_group_name_H-M   'P 1'
_cell_length_a   7.61409183
_cell_length_b   8.04789766
_cell_length_c   5.63854558
_cell_angle_alpha   90.96636053
_cell_angle_beta   105.72297427
_cell_angle_gamma   113.88217606
_symmetry_Int_Tables_number   1
_chemical_formula_structural   Li2Cr5(Si2O7)2
_chemical_formula_sum   'Li2 Cr5 Si4 O14'
_cell_volume   300.95022277
_cell_formula_units_Z   1
loop_
 _symmetry_equiv_pos_site_id
 _symmetry_equiv_pos_as_xyz
  1  'x, y, z'
loop_
 _atom_site_type_symbol
 _atom_site_label
 _atom_site_symmetry_multiplicity
 _atom_site_fract_x
 _atom_site_fract_y
 _atom_site_fract_z
 _atom_site_occupancy
  Li  Li0  1  0.107855  0.451929  0.233021  1
  Li  Li1  1  0.892145  0.548071  0.766979  1
  Cr  Cr2  1  0.000000  0.000000  0.000000  1
  Cr  Cr3  1  0.384261  0.812091  0.080064  1
  Cr  Cr4  1  0.574279  0.710308  0.664247  1
  Cr  Cr5  1  0.425721  0.289692  0.335753  1
  Cr  Cr6  1  0.615739  0.187909  0.919936  1
  Si  Si7  1  0.223238  0.856150  0.494435  1
  Si  Si8  1  0.209334  0.396785  0.795552  1
  Si  Si9  1  0.790666  0.603215  0.204448  1
  Si  Si10  1  0.776762  0.143850  0.505565  1
  O  O11  1  0.170263  0.569816  0.884877  1
  O  O12  1  0.347540  0.954040  0.781475  1
  O  O13  1  0.017379  0.276078  0.536900  1
  O  O14  1  0.324726  0.726492  0.408151  1
  O  O15  1  0.187163  0.271115  0.027173  1
  O  O16  1  0.408493  0.444687  0.707867  1
  O  O17  1  0.229123  0.011408  0.306655  1
  O  O18  1  0.770877  0.988592  0.693345  1
  O  O19  1  0.591507  0.555313  0.292133  1
  O  O20  1  0.812837  0.728885  0.972827  1
  O  O21  1  0.675274  0.273508  0.591849  1
  O  O22  1  0.982621  0.723922  0.463100  1
  O  O23  1  0.652460  0.045960  0.218525  1
  O  O24  1  0.829737  0.430184  0.115123  1
