# generated using pymatgen
data_Mn12O5F19
_symmetry_space_group_name_H-M   'P 1'
_cell_length_a   4.88063452
_cell_length_b   5.85260590
_cell_length_c   15.95973159
_cell_angle_alpha   88.65377959
_cell_angle_beta   89.69125028
_cell_angle_gamma   88.93676892
_symmetry_Int_Tables_number   1
_chemical_formula_structural   Mn12O5F19
_chemical_formula_sum   'Mn12 O5 F19'
_cell_volume   455.67074842
_cell_formula_units_Z   1
loop_
 _symmetry_equiv_pos_site_id
 _symmetry_equiv_pos_as_xyz
  1  'x, y, z'
loop_
 _atom_site_type_symbol
 _atom_site_label
 _atom_site_symmetry_multiplicity
 _atom_site_fract_x
 _atom_site_fract_y
 _atom_site_fract_z
 _atom_site_occupancy
  Mn  Mn0  1  0.030646  0.188477  0.422278  1
  Mn  Mn1  1  0.991714  0.850250  0.249634  1
  Mn  Mn2  1  0.972055  0.163478  0.085677  1
  Mn  Mn3  1  0.025597  0.151016  0.744559  1
  Mn  Mn4  1  0.003480  0.847669  0.585605  1
  Mn  Mn5  1  0.012595  0.848477  0.909144  1
  Mn  Mn6  1  0.474660  0.325014  0.585540  1
  Mn  Mn7  1  0.517895  0.335589  0.923741  1
  Mn  Mn8  1  0.517017  0.320653  0.245456  1
  Mn  Mn9  1  0.513846  0.647496  0.081102  1
  Mn  Mn10  1  0.497774  0.644685  0.419716  1
  Mn  Mn11  1  0.479906  0.673896  0.754203  1
  O  O12  1  0.207340  0.106251  0.637825  1
  O  O13  1  0.216485  0.902294  0.803596  1
  O  O14  1  0.298934  0.402154  0.476068  1
  O  O15  1  0.719468  0.374161  0.033201  1
  O  O16  1  0.786381  0.106885  0.189183  1
  F  F17  1  0.235031  0.103486  0.307883  1
  F  F18  1  0.203663  0.127209  0.978209  1
  F  F19  1  0.230984  0.892198  0.130582  1
  F  F20  1  0.235668  0.886049  0.472272  1
  F  F21  1  0.261698  0.394774  0.141384  1
  F  F22  1  0.267494  0.609632  0.304287  1
  F  F23  1  0.258224  0.604905  0.644458  1
  F  F24  1  0.275727  0.390185  0.812919  1
  F  F25  1  0.274141  0.621997  0.970520  1
  F  F26  1  0.730950  0.616185  0.195318  1
  F  F27  1  0.736107  0.393234  0.358386  1
  F  F28  1  0.739380  0.614934  0.533662  1
  F  F29  1  0.733460  0.615760  0.860886  1
  F  F30  1  0.722510  0.369908  0.694606  1
  F  F31  1  0.766378  0.109716  0.524670  1
  F  F32  1  0.758588  0.877942  0.365486  1
  F  F33  1  0.769421  0.877069  0.015064  1
  F  F34  1  0.782386  0.126621  0.852050  1
  F  F35  1  0.752390  0.879750  0.690834  1
