# generated using pymatgen
data_Fe5O7F3
_symmetry_space_group_name_H-M   'P 1'
_cell_length_a   4.66987280
_cell_length_b   4.67468235
_cell_length_c   15.21695500
_cell_angle_alpha   89.60903562
_cell_angle_beta   90.07515546
_cell_angle_gamma   92.74449941
_symmetry_Int_Tables_number   1
_chemical_formula_structural   Fe5O7F3
_chemical_formula_sum   'Fe10 O14 F6'
_cell_volume   331.79983397
_cell_formula_units_Z   2
loop_
 _symmetry_equiv_pos_site_id
 _symmetry_equiv_pos_as_xyz
  1  'x, y, z'
loop_
 _atom_site_type_symbol
 _atom_site_label
 _atom_site_symmetry_multiplicity
 _atom_site_fract_x
 _atom_site_fract_y
 _atom_site_fract_z
 _atom_site_occupancy
  Fe  Fe0  1  0.997261  0.996123  0.009208  1
  Fe  Fe1  1  0.017329  0.026830  0.195607  1
  Fe  Fe2  1  0.999521  0.993489  0.400090  1
  Fe  Fe3  1  0.013192  0.985426  0.598871  1
  Fe  Fe4  1  0.003970  0.994132  0.796365  1
  Fe  Fe5  1  0.489851  0.493809  0.094597  1
  Fe  Fe6  1  0.475612  0.522168  0.501525  1
  Fe  Fe7  1  0.524292  0.459791  0.305390  1
  Fe  Fe8  1  0.475890  0.522861  0.700472  1
  Fe  Fe9  1  0.500149  0.496465  0.899134  1
  O  O10  1  0.200257  0.804645  0.101352  1
  O  O11  1  0.180102  0.814000  0.497217  1
  O  O12  1  0.184988  0.813839  0.700535  1
  O  O13  1  0.302617  0.301557  0.991621  1
  O  O14  1  0.328217  0.313195  0.201072  1
  O  O15  1  0.301825  0.300099  0.403797  1
  O  O16  1  0.297357  0.314493  0.600491  1
  O  O17  1  0.306253  0.308617  0.800978  1
  O  O18  1  0.690045  0.690303  0.994324  1
  O  O19  1  0.694945  0.690377  0.402242  1
  O  O20  1  0.683642  0.701031  0.600491  1
  O  O21  1  0.689010  0.691914  0.801189  1
  O  O22  1  0.804243  0.201734  0.099804  1
  O  O23  1  0.826258  0.178388  0.302403  1
  F  F24  1  0.211208  0.796706  0.299014  1
  F  F25  1  0.189242  0.803217  0.898993  1
  F  F26  1  0.712578  0.697032  0.203798  1
  F  F27  1  0.795598  0.199311  0.502142  1
  F  F28  1  0.807345  0.186519  0.897356  1
  F  F29  1  0.797204  0.201930  0.699923  1
