# generated using pymatgen
data_MnV4NiO12
_symmetry_space_group_name_H-M   'P 1'
_cell_length_a   6.82946823
_cell_length_b   6.82946822
_cell_length_c   5.86392333
_cell_angle_alpha   74.55605168
_cell_angle_beta   105.44395087
_cell_angle_gamma   95.95776191
_symmetry_Int_Tables_number   1
_chemical_formula_structural   MnV4NiO12
_chemical_formula_sum   'Mn1 V4 Ni1 O12'
_cell_volume   253.94877898
_cell_formula_units_Z   1
loop_
 _symmetry_equiv_pos_site_id
 _symmetry_equiv_pos_as_xyz
  1  'x, y, z'
loop_
 _atom_site_type_symbol
 _atom_site_label
 _atom_site_symmetry_multiplicity
 _atom_site_fract_x
 _atom_site_fract_y
 _atom_site_fract_z
 _atom_site_occupancy
  Mn  Mn0  1  0.085372  0.085372  0.750000  1
  V  V1  1  0.204837  0.612593  0.761034  1
  V  V2  1  0.390905  0.794007  0.266385  1
  V  V3  1  0.612593  0.204837  0.738966  1
  V  V4  1  0.794007  0.390905  0.233615  1
  Ni  Ni5  1  0.913713  0.913713  0.250000  1
  O  O6  1  0.034045  0.803263  0.631543  1
  O  O7  1  0.086251  0.382991  0.790900  1
  O  O8  1  0.198859  0.963461  0.152253  1
  O  O9  1  0.365844  0.637498  0.557137  1
  O  O10  1  0.382991  0.086251  0.709100  1
  O  O11  1  0.355375  0.639300  0.053670  1
  O  O12  1  0.637498  0.365844  0.942863  1
  O  O13  1  0.622672  0.909014  0.291442  1
  O  O14  1  0.639300  0.355375  0.446330  1
  O  O15  1  0.803263  0.034045  0.868457  1
  O  O16  1  0.909014  0.622672  0.208558  1
  O  O17  1  0.963461  0.198859  0.347747  1
