# generated using pymatgen
data_CaB2(H7N)2
_symmetry_space_group_name_H-M   'P 1'
_cell_length_a   6.39161885
_cell_length_b   8.21570822
_cell_length_c   12.21028304
_cell_angle_alpha   90.00000000
_cell_angle_beta   90.00000000
_cell_angle_gamma   90.00000000
_symmetry_Int_Tables_number   1
_chemical_formula_structural   CaB2(H7N)2
_chemical_formula_sum   'Ca4 B8 H56 N8'
_cell_volume   641.18242107
_cell_formula_units_Z   4
loop_
 _symmetry_equiv_pos_site_id
 _symmetry_equiv_pos_as_xyz
  1  'x, y, z'
loop_
 _atom_site_type_symbol
 _atom_site_label
 _atom_site_symmetry_multiplicity
 _atom_site_fract_x
 _atom_site_fract_y
 _atom_site_fract_z
 _atom_site_occupancy
  Ca  Ca0  1  0.000000  0.243142  0.250000  1
  Ca  Ca1  1  0.500001  0.256858  0.750001  1
  Ca  Ca2  1  0.000000  0.756858  0.750001  1
  Ca  Ca3  1  0.500001  0.743143  0.250000  1
  B  B4  1  0.766262  0.521334  0.153418  1
  B  B5  1  0.733736  0.978666  0.653418  1
  B  B6  1  0.266265  0.978666  0.846582  1
  B  B7  1  0.233736  0.521334  0.346582  1
  B  B8  1  0.233736  0.478665  0.846582  1
  B  B9  1  0.266265  0.021334  0.346582  1
  B  B10  1  0.733736  0.021334  0.153418  1
  B  B11  1  0.766262  0.478665  0.653418  1
  H  H12  1  0.818580  0.335268  0.661392  1
  H  H13  1  0.681421  0.164732  0.161392  1
  H  H14  1  0.318581  0.164732  0.338608  1
  H  H15  1  0.181420  0.335268  0.838607  1
  H  H16  1  0.181420  0.664733  0.338608  1
  H  H17  1  0.318581  0.835268  0.838607  1
  H  H18  1  0.681421  0.835268  0.661392  1
  H  H19  1  0.818580  0.664733  0.161392  1
  H  H20  1  0.606206  0.489166  0.598586  1
  H  H21  1  0.893795  0.010834  0.098587  1
  H  H22  1  0.106205  0.010834  0.401415  1
  H  H23  1  0.393794  0.489166  0.901414  1
  H  H24  1  0.393794  0.510835  0.401415  1
  H  H25  1  0.106205  0.989166  0.901414  1
  H  H26  1  0.893795  0.989166  0.598586  1
  H  H27  1  0.606206  0.510835  0.098587  1
  H  H28  1  0.281815  0.352357  0.052045  1
  H  H29  1  0.218183  0.147643  0.552045  1
  H  H30  1  0.781816  0.147643  0.947955  1
  H  H31  1  0.718184  0.352357  0.447955  1
  H  H32  1  0.718184  0.647644  0.947955  1
  H  H33  1  0.781816  0.852356  0.447955  1
  H  H34  1  0.218183  0.852356  0.052045  1
  H  H35  1  0.281815  0.647644  0.552045  1
  H  H36  1  0.781938  0.833808  0.976035  1
  H  H37  1  0.718062  0.666192  0.476034  1
  H  H38  1  0.281937  0.666192  0.023965  1
  H  H39  1  0.218062  0.833808  0.523966  1
  H  H40  1  0.218062  0.166192  0.023965  1
  H  H41  1  0.281937  0.333809  0.523966  1
  H  H42  1  0.718062  0.333809  0.976035  1
  H  H43  1  0.781938  0.166192  0.476034  1
  H  H44  1  0.898682  0.297533  0.884956  1
  H  H45  1  0.601319  0.202466  0.384955  1
  H  H46  1  0.398681  0.202466  0.115044  1
  H  H47  1  0.101318  0.297533  0.615044  1
  H  H48  1  0.101318  0.702466  0.115044  1
  H  H49  1  0.398681  0.797535  0.615044  1
  H  H50  1  0.601319  0.797535  0.884956  1
  H  H51  1  0.898682  0.702466  0.384955  1
  H  H52  1  0.729711  0.531819  0.745381  1
  H  H53  1  0.770290  0.968180  0.245380  1
  H  H54  1  0.229710  0.968180  0.254619  1
  H  H55  1  0.270289  0.531819  0.754620  1
  H  H56  1  0.270289  0.468180  0.254619  1
  H  H57  1  0.229710  0.031819  0.754620  1
  H  H58  1  0.770290  0.031819  0.745381  1
  H  H59  1  0.729711  0.468180  0.245380  1
  H  H60  1  0.908948  0.552123  0.608898  1
  H  H61  1  0.591053  0.947878  0.108899  1
  H  H62  1  0.408947  0.947878  0.391102  1
  H  H63  1  0.091052  0.552123  0.891102  1
  H  H64  1  0.091052  0.447877  0.391102  1
  H  H65  1  0.408947  0.052123  0.891102  1
  H  H66  1  0.591053  0.052123  0.608898  1
  H  H67  1  0.908948  0.447877  0.108899  1
  N  N68  1  0.254809  0.241734  0.087951  1
  N  N69  1  0.245192  0.258265  0.587951  1
  N  N70  1  0.754808  0.258265  0.912049  1
  N  N71  1  0.745190  0.241734  0.412049  1
  N  N72  1  0.745190  0.758267  0.912049  1
  N  N73  1  0.754808  0.741734  0.412049  1
  N  N74  1  0.245192  0.741734  0.087951  1
  N  N75  1  0.254809  0.758267  0.587951  1
