# generated using pymatgen
data_FeOF
_symmetry_space_group_name_H-M   'P 1'
_cell_length_a   4.77175497
_cell_length_b   7.80676949
_cell_length_c   5.68002364
_cell_angle_alpha   94.95050930
_cell_angle_beta   94.00275690
_cell_angle_gamma   87.18793045
_symmetry_Int_Tables_number   1
_chemical_formula_structural   FeOF
_chemical_formula_sum   'Fe6 O6 F6'
_cell_volume   210.09140041
_cell_formula_units_Z   6
loop_
 _symmetry_equiv_pos_site_id
 _symmetry_equiv_pos_as_xyz
  1  'x, y, z'
loop_
 _atom_site_type_symbol
 _atom_site_label
 _atom_site_symmetry_multiplicity
 _atom_site_fract_x
 _atom_site_fract_y
 _atom_site_fract_z
 _atom_site_occupancy
  Fe  Fe0  1  0.521006  0.674449  0.131097  1
  Fe  Fe1  1  0.480318  0.014732  0.498447  1
  Fe  Fe2  1  0.503651  0.325974  0.840186  1
  Fe  Fe3  1  0.005463  0.661095  0.693436  1
  Fe  Fe4  1  0.002462  0.340845  0.329249  1
  Fe  Fe5  1  0.985824  0.986949  0.003743  1
  O  O6  1  0.811348  0.767471  0.956627  1
  O  O7  1  0.697956  0.098843  0.794068  1
  O  O8  1  0.700663  0.433954  0.134474  1
  O  O9  1  0.306894  0.556605  0.868088  1
  O  O10  1  0.293459  0.238901  0.535103  1
  O  O11  1  0.311728  0.900283  0.203829  1
  F  F12  1  0.798944  0.439579  0.626093  1
  F  F13  1  0.807701  0.102306  0.299996  1
  F  F14  1  0.703976  0.766494  0.466047  1
  F  F15  1  0.191569  0.225740  0.040534  1
  F  F16  1  0.181728  0.571640  0.380137  1
  F  F17  1  0.195311  0.894138  0.698848  1
