# generated using pymatgen
data_Li5Co7O3F13
_symmetry_space_group_name_H-M   'P 1'
_cell_length_a   6.03837008
_cell_length_b   6.10889812
_cell_length_c   10.59243112
_cell_angle_alpha   106.80413048
_cell_angle_beta   90.04405855
_cell_angle_gamma   60.18734017
_symmetry_Int_Tables_number   1
_chemical_formula_structural   Li5Co7O3F13
_chemical_formula_sum   'Li5 Co7 O3 F13'
_cell_volume   319.70026299
_cell_formula_units_Z   1
loop_
 _symmetry_equiv_pos_site_id
 _symmetry_equiv_pos_as_xyz
  1  'x, y, z'
loop_
 _atom_site_type_symbol
 _atom_site_label
 _atom_site_symmetry_multiplicity
 _atom_site_fract_x
 _atom_site_fract_y
 _atom_site_fract_z
 _atom_site_occupancy
  Li  Li0  1  0.238856  0.514648  0.250098  1
  Li  Li1  1  0.327787  0.867561  0.565155  1
  Li  Li2  1  0.674241  0.130360  0.435897  1
  Li  Li3  1  0.258204  0.496884  0.747263  1
  Li  Li4  1  0.184921  0.130974  0.935479  1
  Co  Co5  1  0.828039  0.852264  0.073921  1
  Co  Co6  1  0.479270  0.523843  0.008147  1
  Co  Co7  1  0.744634  0.513884  0.247738  1
  Co  Co8  1  0.256033  0.982363  0.240214  1
  Co  Co9  1  0.990339  0.509930  0.504786  1
  Co  Co10  1  0.743209  0.509801  0.741707  1
  Co  Co11  1  0.744084  0.991569  0.741877  1
  O  O12  1  0.618557  0.730839  0.129779  1
  O  O13  1  0.149560  0.741783  0.131790  1
  O  O14  1  0.661723  0.735737  0.630623  1
  F  F15  1  0.617075  0.260751  0.131154  1
  F  F16  1  0.383142  0.734064  0.368114  1
  F  F17  1  0.885190  0.734609  0.374630  1
  F  F18  1  0.118261  0.261411  0.136101  1
  F  F19  1  0.875977  0.262106  0.367891  1
  F  F20  1  0.342155  0.255381  0.373615  1
  F  F21  1  0.123684  0.741466  0.632157  1
  F  F22  1  0.887414  0.741028  0.867724  1
  F  F23  1  0.121960  0.268134  0.630306  1
  F  F24  1  0.384312  0.734406  0.868212  1
  F  F25  1  0.627165  0.252937  0.629856  1
  F  F26  1  0.846974  0.260098  0.864752  1
  F  F27  1  0.387234  0.261168  0.871012  1
