# generated using pymatgen
data_Na7Cr2O6
_symmetry_space_group_name_H-M   'P 1'
_cell_length_a   5.84670152
_cell_length_b   8.07495646
_cell_length_c   10.61940107
_cell_angle_alpha   76.00978507
_cell_angle_beta   90.00000003
_cell_angle_gamma   68.77528208
_symmetry_Int_Tables_number   1
_chemical_formula_structural   Na7Cr2O6
_chemical_formula_sum   'Na14 Cr4 O12'
_cell_volume   451.36213372
_cell_formula_units_Z   2
loop_
 _symmetry_equiv_pos_site_id
 _symmetry_equiv_pos_as_xyz
  1  'x, y, z'
loop_
 _atom_site_type_symbol
 _atom_site_label
 _atom_site_symmetry_multiplicity
 _atom_site_fract_x
 _atom_site_fract_y
 _atom_site_fract_z
 _atom_site_occupancy
  Na  Na0  1  0.700379  0.881383  0.649195  1
  Na  Na1  1  0.578404  0.664127  0.905352  1
  Na  Na2  1  0.418238  0.881383  0.149195  1
  Na  Na3  1  0.186664  0.547990  0.809025  1
  Na  Na4  1  0.757469  0.664127  0.405352  1
  Na  Na5  1  0.734653  0.452010  0.690975  1
  Na  Na6  1  0.265347  0.547990  0.309025  1
  Na  Na7  1  0.242531  0.335873  0.594648  1
  Na  Na8  1  0.813336  0.452010  0.190975  1
  Na  Na9  1  0.581762  0.118617  0.850805  1
  Na  Na10  1  0.421596  0.335873  0.094648  1
  Na  Na11  1  0.074154  0.000000  0.750000  1
  Na  Na12  1  0.299621  0.118617  0.350805  1
  Na  Na13  1  0.925846  1.000000  0.250000  1
  Cr  Cr14  1  0.226137  0.762330  0.539787  1
  Cr  Cr15  1  0.011533  0.762330  0.039787  1
  Cr  Cr16  1  0.988467  0.237670  0.960213  1
  Cr  Cr17  1  0.773863  0.237670  0.460213  1
  O  O18  1  0.866273  0.805750  0.875389  1
  O  O19  1  0.399500  0.754942  0.686524  1
  O  O20  1  0.327977  0.805750  0.375389  1
  O  O21  1  0.006353  0.649015  0.580137  1
  O  O22  1  0.845556  0.754942  0.186524  1
  O  O23  1  0.655367  0.350985  0.919863  1
  O  O24  1  0.344633  0.649015  0.080137  1
  O  O25  1  0.154444  0.245058  0.813476  1
  O  O26  1  0.993647  0.350985  0.419863  1
  O  O27  1  0.672023  0.194250  0.624611  1
  O  O28  1  0.600500  0.245058  0.313476  1
  O  O29  1  0.133727  0.194250  0.124611  1
