# generated using pymatgen
data_Mn4O7F
_symmetry_space_group_name_H-M   'P 1'
_cell_length_a   6.69800794
_cell_length_b   5.50849136
_cell_length_c   6.69800794
_cell_angle_alpha   89.89942571
_cell_angle_beta   96.08322022
_cell_angle_gamma   90.10057429
_symmetry_Int_Tables_number   1
_chemical_formula_structural   Mn4O7F
_chemical_formula_sum   'Mn8 O14 F2'
_cell_volume   245.73689386
_cell_formula_units_Z   2
loop_
 _symmetry_equiv_pos_site_id
 _symmetry_equiv_pos_as_xyz
  1  'x, y, z'
loop_
 _atom_site_type_symbol
 _atom_site_label
 _atom_site_symmetry_multiplicity
 _atom_site_fract_x
 _atom_site_fract_y
 _atom_site_fract_z
 _atom_site_occupancy
  Mn  Mn0  1  0.372865  0.352239  0.116881  1
  Mn  Mn1  1  0.116540  0.669857  0.376073  1
  Mn  Mn2  1  0.133119  0.852239  0.877135  1
  Mn  Mn3  1  0.873927  0.169857  0.133460  1
  Mn  Mn4  1  0.382556  0.130519  0.632332  1
  Mn  Mn5  1  0.623822  0.855528  0.371278  1
  Mn  Mn6  1  0.617668  0.630519  0.867444  1
  Mn  Mn7  1  0.878722  0.355528  0.626178  1
  O  O8  1  0.153164  0.114502  0.077350  1
  O  O9  1  0.172650  0.614502  0.096836  1
  O  O10  1  0.575200  0.607591  0.150779  1
  O  O11  1  0.080128  0.614887  0.657277  1
  O  O12  1  0.346476  0.889148  0.425511  1
  O  O13  1  0.099221  0.107591  0.674800  1
  O  O14  1  0.592723  0.114887  0.169872  1
  O  O15  1  0.410060  0.885316  0.832404  1
  O  O16  1  0.658885  0.106505  0.579138  1
  O  O17  1  0.898275  0.895566  0.320253  1
  O  O18  1  0.417596  0.385316  0.839940  1
  O  O19  1  0.670862  0.606505  0.591115  1
  O  O20  1  0.929747  0.395566  0.351725  1
  O  O21  1  0.824489  0.389148  0.903524  1
  F  F22  1  0.333433  0.378342  0.412129  1
  F  F23  1  0.837871  0.878342  0.916567  1
