# generated using pymatgen
data_Li2Mn(PO4)2
_symmetry_space_group_name_H-M   'P 1'
_cell_length_a   4.86520689
_cell_length_b   8.13166814
_cell_length_c   8.89394879
_cell_angle_alpha   115.38171083
_cell_angle_beta   104.15992055
_cell_angle_gamma   90.84074873
_symmetry_Int_Tables_number   1
_chemical_formula_structural   Li2Mn(PO4)2
_chemical_formula_sum   'Li4 Mn2 P4 O16'
_cell_volume   305.35805972
_cell_formula_units_Z   2
loop_
 _symmetry_equiv_pos_site_id
 _symmetry_equiv_pos_as_xyz
  1  'x, y, z'
loop_
 _atom_site_type_symbol
 _atom_site_label
 _atom_site_symmetry_multiplicity
 _atom_site_fract_x
 _atom_site_fract_y
 _atom_site_fract_z
 _atom_site_occupancy
  Li  Li0  1  0.116014  0.905788  0.691231  1
  Li  Li1  1  0.381092  0.614762  0.418425  1
  Li  Li2  1  0.618908  0.385238  0.581575  1
  Li  Li3  1  0.883986  0.094212  0.308769  1
  Mn  Mn4  1  0.277100  0.768911  0.051067  1
  Mn  Mn5  1  0.722900  0.231089  0.948933  1
  P  P6  1  0.141166  0.321967  0.759803  1
  P  P7  1  0.316642  0.203998  0.179728  1
  P  P8  1  0.683358  0.796002  0.820272  1
  P  P9  1  0.858834  0.678033  0.240197  1
  O  O10  1  0.019252  0.832481  0.880164  1
  O  O11  1  0.119217  0.517793  0.890649  1
  O  O12  1  0.004093  0.717496  0.427548  1
  O  O13  1  0.019286  0.818100  0.199485  1
  O  O14  1  0.461053  0.284859  0.772241  1
  O  O15  1  0.566220  0.970810  0.807868  1
  O  O16  1  0.575083  0.748567  0.947261  1
  O  O17  1  0.579614  0.641752  0.640435  1
  O  O18  1  0.420386  0.358248  0.359565  1
  O  O19  1  0.424917  0.251433  0.052739  1
  O  O20  1  0.433780  0.029190  0.192132  1
  O  O21  1  0.538947  0.715141  0.227759  1
  O  O22  1  0.980714  0.181900  0.800515  1
  O  O23  1  0.995907  0.282504  0.572452  1
  O  O24  1  0.880783  0.482207  0.109351  1
  O  O25  1  0.980748  0.167519  0.119836  1
