# generated using pymatgen
data_Mn12O5F19
_symmetry_space_group_name_H-M   'P 1'
_cell_length_a   4.89131521
_cell_length_b   5.85017530
_cell_length_c   15.94796071
_cell_angle_alpha   90.22670143
_cell_angle_beta   90.21336447
_cell_angle_gamma   87.72854727
_symmetry_Int_Tables_number   1
_chemical_formula_structural   Mn12O5F19
_chemical_formula_sum   'Mn12 O5 F19'
_cell_volume   455.98666981
_cell_formula_units_Z   1
loop_
 _symmetry_equiv_pos_site_id
 _symmetry_equiv_pos_as_xyz
  1  'x, y, z'
loop_
 _atom_site_type_symbol
 _atom_site_label
 _atom_site_symmetry_multiplicity
 _atom_site_fract_x
 _atom_site_fract_y
 _atom_site_fract_z
 _atom_site_occupancy
  Mn  Mn0  1  0.014552  0.145108  0.418352  1
  Mn  Mn1  1  0.979476  0.810732  0.242290  1
  Mn  Mn2  1  0.987708  0.174613  0.079652  1
  Mn  Mn3  1  0.014667  0.149862  0.752375  1
  Mn  Mn4  1  0.027443  0.835087  0.581920  1
  Mn  Mn5  1  0.013310  0.832201  0.909729  1
  Mn  Mn6  1  0.495156  0.353213  0.585882  1
  Mn  Mn7  1  0.511425  0.344162  0.922793  1
  Mn  Mn8  1  0.506833  0.344994  0.249788  1
  Mn  Mn9  1  0.528766  0.646342  0.086123  1
  Mn  Mn10  1  0.489921  0.678792  0.421235  1
  Mn  Mn11  1  0.469377  0.671924  0.745823  1
  O  O12  1  0.217177  0.886243  0.478964  1
  O  O13  1  0.220904  0.880237  0.801292  1
  O  O14  1  0.284195  0.627067  0.639900  1
  O  O15  1  0.720299  0.398540  0.028377  1
  O  O16  1  0.707973  0.596883  0.191655  1
  F  F17  1  0.235745  0.109325  0.301972  1
  F  F18  1  0.232652  0.128674  0.642298  1
  F  F19  1  0.227972  0.115346  0.970168  1
  F  F20  1  0.243735  0.880435  0.132716  1
  F  F21  1  0.248402  0.382765  0.143315  1
  F  F22  1  0.259380  0.609157  0.310187  1
  F  F23  1  0.271373  0.386271  0.471251  1
  F  F24  1  0.268026  0.383539  0.814886  1
  F  F25  1  0.281914  0.624252  0.980677  1
  F  F26  1  0.735553  0.390278  0.365300  1
  F  F27  1  0.740352  0.603538  0.527028  1
  F  F28  1  0.705499  0.626852  0.852932  1
  F  F29  1  0.728568  0.391199  0.702768  1
  F  F30  1  0.767232  0.098107  0.191922  1
  F  F31  1  0.769737  0.104544  0.533475  1
  F  F32  1  0.763316  0.895083  0.358786  1
  F  F33  1  0.777361  0.893823  0.020899  1
  F  F34  1  0.769661  0.118795  0.858600  1
  F  F35  1  0.784340  0.882010  0.684669  1
