# generated using pymatgen
data_CaSnS3
_symmetry_space_group_name_H-M   'P 1'
_cell_length_a   6.76279448
_cell_length_b   6.76279447
_cell_length_c   10.20624492
_cell_angle_alpha   70.65189444
_cell_angle_beta   70.65189442
_cell_angle_gamma   60.00000000
_symmetry_Int_Tables_number   1
_chemical_formula_structural   CaSnS3
_chemical_formula_sum   'Ca3 Sn3 S9'
_cell_volume   373.49807470
_cell_formula_units_Z   3
loop_
 _symmetry_equiv_pos_site_id
 _symmetry_equiv_pos_as_xyz
  1  'x, y, z'
loop_
 _atom_site_type_symbol
 _atom_site_label
 _atom_site_symmetry_multiplicity
 _atom_site_fract_x
 _atom_site_fract_y
 _atom_site_fract_z
 _atom_site_occupancy
  Ca  Ca0  1  0.000000  0.000000  0.000000  1
  Ca  Ca1  1  0.216744  0.216744  0.349767  1
  Ca  Ca2  1  0.783256  0.783256  0.650233  1
  Sn  Sn3  1  0.500000  0.500000  0.500000  1
  Sn  Sn4  1  0.389597  0.389597  0.831208  1
  Sn  Sn5  1  0.610403  0.610403  0.168792  1
  S  S6  1  0.000000  0.500000  0.000000  1
  S  S7  1  0.500000  0.500000  0.000000  1
  S  S8  1  0.500000  0.000000  0.000000  1
  S  S9  1  0.792119  0.271492  0.664898  1
  S  S10  1  0.271492  0.271492  0.664898  1
  S  S11  1  0.271492  0.792119  0.664898  1
  S  S12  1  0.207881  0.728508  0.335102  1
  S  S13  1  0.728508  0.728508  0.335102  1
  S  S14  1  0.728508  0.207881  0.335102  1
