# generated using pymatgen
data_LiVP3HO10
_symmetry_space_group_name_H-M   'P 1'
_cell_length_a   11.97653193
_cell_length_b   5.03852484
_cell_length_c   15.49976507
_cell_angle_alpha   90.00000000
_cell_angle_beta   90.00000000
_cell_angle_gamma   90.00000000
_symmetry_Int_Tables_number   1
_chemical_formula_structural   LiVP3HO10
_chemical_formula_sum   'Li4 V4 P12 H4 O40'
_cell_volume   935.31865458
_cell_formula_units_Z   4
loop_
 _symmetry_equiv_pos_site_id
 _symmetry_equiv_pos_as_xyz
  1  'x, y, z'
loop_
 _atom_site_type_symbol
 _atom_site_label
 _atom_site_symmetry_multiplicity
 _atom_site_fract_x
 _atom_site_fract_y
 _atom_site_fract_z
 _atom_site_occupancy
  Li  Li0  1  0.194384  0.057942  0.945564  1
  Li  Li1  1  0.305616  0.057942  0.445564  1
  Li  Li2  1  0.694384  0.942058  0.945564  1
  Li  Li3  1  0.805616  0.942058  0.445564  1
  V  V4  1  0.166589  0.994765  0.737207  1
  V  V5  1  0.333411  0.994765  0.237207  1
  V  V6  1  0.666589  0.005235  0.737207  1
  V  V7  1  0.833411  0.005235  0.237207  1
  P  P8  1  0.083852  0.256362  0.239080  1
  P  P9  1  0.080631  0.486779  0.623073  1
  P  P10  1  0.251898  0.498725  0.357632  1
  P  P11  1  0.248102  0.498725  0.857632  1
  P  P12  1  0.419369  0.486779  0.123073  1
  P  P13  1  0.416148  0.256362  0.739080  1
  P  P14  1  0.583852  0.743638  0.239080  1
  P  P15  1  0.580631  0.513221  0.623073  1
  P  P16  1  0.751898  0.501275  0.357632  1
  P  P17  1  0.748102  0.501275  0.857632  1
  P  P18  1  0.919369  0.513221  0.123073  1
  P  P19  1  0.916148  0.743638  0.739080  1
  H  H20  1  0.124204  0.492546  0.489821  1
  H  H21  1  0.375796  0.492546  0.989821  1
  H  H22  1  0.624204  0.507454  0.489821  1
  H  H23  1  0.875796  0.507454  0.989821  1
  O  O24  1  0.040962  0.451270  0.165250  1
  O  O25  1  0.012620  0.892913  0.778915  1
  O  O26  1  0.054961  0.545517  0.525954  1
  O  O27  1  0.131361  0.458622  0.309188  1
  O  O28  1  0.103977  0.192460  0.635056  1
  O  O29  1  0.176477  0.088702  0.201527  1
  O  O30  1  0.161159  0.322171  0.814734  1
  O  O31  1  0.168819  0.666966  0.661238  1
  O  O32  1  0.234518  0.409053  0.450559  1
  O  O33  1  0.224271  0.798601  0.850639  1
  O  O34  1  0.275729  0.798601  0.350639  1
  O  O35  1  0.265482  0.409053  0.950559  1
  O  O36  1  0.331181  0.666966  0.161238  1
  O  O37  1  0.338841  0.322171  0.314734  1
  O  O38  1  0.323523  0.088702  0.701527  1
  O  O39  1  0.396023  0.192460  0.135056  1
  O  O40  1  0.368639  0.458622  0.809188  1
  O  O41  1  0.445039  0.545517  0.025954  1
  O  O42  1  0.487380  0.892913  0.278915  1
  O  O43  1  0.459038  0.451270  0.665250  1
  O  O44  1  0.540962  0.548730  0.165250  1
  O  O45  1  0.512620  0.107087  0.778915  1
  O  O46  1  0.554961  0.454483  0.525954  1
  O  O47  1  0.631361  0.541378  0.309188  1
  O  O48  1  0.603977  0.807540  0.635056  1
  O  O49  1  0.676477  0.911298  0.201527  1
  O  O50  1  0.661159  0.677829  0.814734  1
  O  O51  1  0.668819  0.333034  0.661238  1
  O  O52  1  0.734518  0.590947  0.450559  1
  O  O53  1  0.724271  0.201399  0.850639  1
  O  O54  1  0.775729  0.201399  0.350639  1
  O  O55  1  0.765482  0.590947  0.950559  1
  O  O56  1  0.831181  0.333034  0.161238  1
  O  O57  1  0.838841  0.677829  0.314734  1
  O  O58  1  0.823523  0.911298  0.701527  1
  O  O59  1  0.896023  0.807540  0.135056  1
  O  O60  1  0.868639  0.541378  0.809188  1
  O  O61  1  0.945039  0.454483  0.025954  1
  O  O62  1  0.987380  0.107087  0.278915  1
  O  O63  1  0.959038  0.548730  0.665250  1
