# generated using pymatgen
data_Mn6O7F5
_symmetry_space_group_name_H-M   'P 1'
_cell_length_a   4.56044338
_cell_length_b   5.67847734
_cell_length_c   15.36794734
_cell_angle_alpha   89.95661285
_cell_angle_beta   89.85142605
_cell_angle_gamma   90.49170700
_symmetry_Int_Tables_number   1
_chemical_formula_structural   Mn6O7F5
_chemical_formula_sum   'Mn12 O14 F10'
_cell_volume   397.95800368
_cell_formula_units_Z   2
loop_
 _symmetry_equiv_pos_site_id
 _symmetry_equiv_pos_as_xyz
  1  'x, y, z'
loop_
 _atom_site_type_symbol
 _atom_site_label
 _atom_site_symmetry_multiplicity
 _atom_site_fract_x
 _atom_site_fract_y
 _atom_site_fract_z
 _atom_site_occupancy
  Mn  Mn0  1  0.023575  0.161158  0.409561  1
  Mn  Mn1  1  0.009919  0.846724  0.243647  1
  Mn  Mn2  1  0.028158  0.158303  0.078770  1
  Mn  Mn3  1  0.005522  0.152155  0.739988  1
  Mn  Mn4  1  0.016078  0.847589  0.572577  1
  Mn  Mn5  1  0.008556  0.846798  0.910331  1
  Mn  Mn6  1  0.501270  0.350185  0.586866  1
  Mn  Mn7  1  0.513776  0.347570  0.925621  1
  Mn  Mn8  1  0.501271  0.349212  0.254172  1
  Mn  Mn9  1  0.504249  0.636698  0.094496  1
  Mn  Mn10  1  0.505035  0.632984  0.425976  1
  Mn  Mn11  1  0.509322  0.650188  0.757816  1
  O  O12  1  0.219171  0.113787  0.300971  1
  O  O13  1  0.222440  0.112507  0.632650  1
  O  O14  1  0.222506  0.116191  0.969639  1
  O  O15  1  0.236711  0.885935  0.136812  1
  O  O16  1  0.239317  0.885803  0.467132  1
  O  O17  1  0.220358  0.884535  0.801181  1
  O  O18  1  0.280492  0.397139  0.147291  1
  O  O19  1  0.279575  0.397329  0.479369  1
  O  O20  1  0.732589  0.388621  0.032131  1
  O  O21  1  0.724798  0.619970  0.197559  1
  O  O22  1  0.727693  0.386196  0.361588  1
  O  O23  1  0.727754  0.617363  0.527985  1
  O  O24  1  0.721822  0.616086  0.866183  1
  O  O25  1  0.718362  0.382682  0.696465  1
  F  F26  1  0.259111  0.618032  0.320020  1
  F  F27  1  0.255085  0.616962  0.652830  1
  F  F28  1  0.255127  0.381113  0.821091  1
  F  F29  1  0.261714  0.619512  0.987671  1
  F  F30  1  0.773219  0.121118  0.182903  1
  F  F31  1  0.774018  0.123700  0.513666  1
  F  F32  1  0.753958  0.869558  0.356014  1
  F  F33  1  0.755176  0.872710  0.023927  1
  F  F34  1  0.756330  0.114668  0.847618  1
  F  F35  1  0.755948  0.878923  0.677481  1
