# generated using pymatgen
data_Nb3GeS6
_symmetry_space_group_name_H-M   'P 1'
_cell_length_a   5.82391938
_cell_length_b   5.82399655
_cell_length_c   13.65964682
_cell_angle_alpha   89.99981991
_cell_angle_beta   89.99957602
_cell_angle_gamma   119.99990658
_symmetry_Int_Tables_number   1
_chemical_formula_structural   Nb3GeS6
_chemical_formula_sum   'Nb6 Ge2 S12'
_cell_volume   401.24254349
_cell_formula_units_Z   2
loop_
 _symmetry_equiv_pos_site_id
 _symmetry_equiv_pos_as_xyz
  1  'x, y, z'
loop_
 _atom_site_type_symbol
 _atom_site_label
 _atom_site_symmetry_multiplicity
 _atom_site_fract_x
 _atom_site_fract_y
 _atom_site_fract_z
 _atom_site_occupancy
  Nb  Nb0  1  0.333337  0.666691  0.250000  1
  Nb  Nb1  1  -0.000008  0.000009  0.250001  1
  Nb  Nb2  1  -0.000006  0.999987  0.749999  1
  Nb  Nb3  1  0.333338  0.666671  0.750000  1
  Nb  Nb4  1  0.666656  0.333326  0.749999  1
  Nb  Nb5  1  0.666676  0.333343  0.250001  1
  Ge  Ge6  1  0.999996  0.999991  0.999978  1
  Ge  Ge7  1  0.999995  0.999990  0.500023  1
  S  S8  1  0.999983  0.665650  0.635135  1
  S  S9  1  0.999980  0.665648  0.864865  1
  S  S10  1  0.999996  0.334347  0.135130  1
  S  S11  1  0.999991  0.334338  0.364870  1
  S  S12  1  0.334314  0.334318  0.635125  1
  S  S13  1  0.334318  0.334317  0.864874  1
  S  S14  1  0.665652  0.665671  0.135128  1
  S  S15  1  0.665659  0.665680  0.364875  1
  S  S16  1  0.334344  0.000019  0.135128  1
  S  S17  1  0.334354  0.000028  0.364871  1
  S  S18  1  0.665661  0.999986  0.635134  1
  S  S19  1  0.665661  0.999990  0.864866  1
