# generated using pymatgen
data_Ag2H4(SO4)3
_symmetry_space_group_name_H-M   'P 1'
_cell_length_a   10.35222735
_cell_length_b   7.19595741
_cell_length_c   14.19269564
_cell_angle_alpha   90.00000000
_cell_angle_beta   90.00000000
_cell_angle_gamma   90.00000000
_symmetry_Int_Tables_number   1
_chemical_formula_structural   Ag2H4(SO4)3
_chemical_formula_sum   'Ag8 H16 S12 O48'
_cell_volume   1057.27332459
_cell_formula_units_Z   4
loop_
 _symmetry_equiv_pos_site_id
 _symmetry_equiv_pos_as_xyz
  1  'x, y, z'
loop_
 _atom_site_type_symbol
 _atom_site_label
 _atom_site_symmetry_multiplicity
 _atom_site_fract_x
 _atom_site_fract_y
 _atom_site_fract_z
 _atom_site_occupancy
  Ag  Ag0  1  0.129845  0.247436  0.163103  1
  Ag  Ag1  1  0.155983  0.376485  0.810829  1
  Ag  Ag2  1  0.344017  0.876485  0.310829  1
  Ag  Ag3  1  0.370155  0.747436  0.663103  1
  Ag  Ag4  1  0.629845  0.252564  0.163103  1
  Ag  Ag5  1  0.655983  0.123515  0.810829  1
  Ag  Ag6  1  0.844017  0.623515  0.310829  1
  Ag  Ag7  1  0.870155  0.752564  0.663103  1
  H  H8  1  0.055584  0.080034  0.367021  1
  H  H9  1  0.049854  0.081922  0.579515  1
  H  H10  1  0.177038  0.704425  0.005800  1
  H  H11  1  0.240038  0.550423  0.480423  1
  H  H12  1  0.259962  0.050423  0.980423  1
  H  H13  1  0.322962  0.204425  0.505800  1
  H  H14  1  0.450146  0.581922  0.079515  1
  H  H15  1  0.444416  0.580034  0.867021  1
  H  H16  1  0.555584  0.419966  0.367021  1
  H  H17  1  0.549854  0.418078  0.579515  1
  H  H18  1  0.677038  0.795575  0.005800  1
  H  H19  1  0.740038  0.949577  0.480423  1
  H  H20  1  0.759962  0.449577  0.980423  1
  H  H21  1  0.822962  0.295575  0.505800  1
  H  H22  1  0.950146  0.918078  0.079515  1
  H  H23  1  0.944416  0.919966  0.867021  1
  S  S24  1  0.078309  0.713115  0.138652  1
  S  S25  1  0.095418  0.774969  0.481161  1
  S  S26  1  0.145868  0.864404  0.830390  1
  S  S27  1  0.354132  0.364404  0.330390  1
  S  S28  1  0.404582  0.274969  0.981161  1
  S  S29  1  0.421691  0.213115  0.638652  1
  S  S30  1  0.578309  0.786885  0.138652  1
  S  S31  1  0.595418  0.725031  0.481161  1
  S  S32  1  0.645868  0.635596  0.830390  1
  S  S33  1  0.854132  0.135596  0.330390  1
  S  S34  1  0.904582  0.225031  0.981161  1
  S  S35  1  0.921691  0.286885  0.638652  1
  O  O36  1  0.004038  0.181944  0.334781  1
  O  O37  1  0.006193  0.642930  0.439999  1
  O  O38  1  0.043387  0.565103  0.203284  1
  O  O39  1  0.046332  0.224562  0.586103  1
  O  O40  1  0.045827  0.867831  0.567467  1
  O  O41  1  0.146344  0.915864  0.414665  1
  O  O42  1  0.144229  0.874481  0.176175  1
  O  O43  1  0.164752  0.043427  0.785025  1
  O  O44  1  0.161167  0.615882  0.061220  1
  O  O45  1  0.193781  0.865716  0.929878  1
  O  O46  1  0.197442  0.706490  0.776659  1
  O  O47  1  0.216378  0.662388  0.520243  1
  O  O48  1  0.283622  0.162388  0.020243  1
  O  O49  1  0.302558  0.206490  0.276659  1
  O  O50  1  0.306219  0.365716  0.429878  1
  O  O51  1  0.338833  0.115882  0.561220  1
  O  O52  1  0.335248  0.543427  0.285025  1
  O  O53  1  0.355771  0.374481  0.676175  1
  O  O54  1  0.353656  0.415865  0.914665  1
  O  O55  1  0.454173  0.367831  0.067467  1
  O  O56  1  0.453668  0.724562  0.086103  1
  O  O57  1  0.456613  0.065103  0.703284  1
  O  O58  1  0.493807  0.142930  0.939999  1
  O  O59  1  0.495962  0.681944  0.834781  1
  O  O60  1  0.504038  0.318056  0.334781  1
  O  O61  1  0.506193  0.857070  0.439999  1
  O  O62  1  0.543387  0.934897  0.203284  1
  O  O63  1  0.546332  0.275438  0.586103  1
  O  O64  1  0.545827  0.632169  0.567467  1
  O  O65  1  0.646344  0.584136  0.414665  1
  O  O66  1  0.644229  0.625519  0.176175  1
  O  O67  1  0.664752  0.456573  0.785025  1
  O  O68  1  0.661167  0.884118  0.061220  1
  O  O69  1  0.693781  0.634284  0.929878  1
  O  O70  1  0.697442  0.793510  0.776659  1
  O  O71  1  0.716378  0.837612  0.520243  1
  O  O72  1  0.783622  0.337612  0.020243  1
  O  O73  1  0.802558  0.293510  0.276659  1
  O  O74  1  0.806219  0.134284  0.429878  1
  O  O75  1  0.838833  0.384118  0.561220  1
  O  O76  1  0.835248  0.956573  0.285025  1
  O  O77  1  0.855771  0.125519  0.676175  1
  O  O78  1  0.853656  0.084136  0.914665  1
  O  O79  1  0.954173  0.132169  0.067467  1
  O  O80  1  0.953668  0.775438  0.086103  1
  O  O81  1  0.956613  0.434897  0.703284  1
  O  O82  1  0.993807  0.357070  0.939999  1
  O  O83  1  0.995962  0.818056  0.834781  1
