# generated using pymatgen
data_Th3Au4
_symmetry_space_group_name_H-M   'P 1'
_cell_length_a   6.27228786
_cell_length_b   8.30299451
_cell_length_c   8.30299466
_cell_angle_alpha   113.88416395
_cell_angle_beta   104.58454375
_cell_angle_gamma   104.58454402
_symmetry_Int_Tables_number   1
_chemical_formula_structural   Th3Au4
_chemical_formula_sum   'Th6 Au8'
_cell_volume   350.73316389
_cell_formula_units_Z   2
loop_
 _symmetry_equiv_pos_site_id
 _symmetry_equiv_pos_as_xyz
  1  'x, y, z'
loop_
 _atom_site_type_symbol
 _atom_site_label
 _atom_site_symmetry_multiplicity
 _atom_site_fract_x
 _atom_site_fract_y
 _atom_site_fract_z
 _atom_site_occupancy
  Th  Th0  1  0.404094  0.377931  0.120696  1
  Th  Th1  1  0.283398  0.879304  0.257236  1
  Th  Th2  1  0.973839  0.257235  0.377932  1
  Th  Th3  1  0.026162  0.742765  0.622068  1
  Th  Th4  1  0.716602  0.120696  0.742765  1
  Th  Th5  1  0.595906  0.622069  0.879304  1
  Au  Au6  1  0.000000  0.000000  0.000000  1
  Au  Au7  1  0.500001  0.000000  0.000000  1
  Au  Au8  1  0.932533  0.494321  0.161442  1
  Au  Au9  1  0.771091  0.838558  0.332879  1
  Au  Au10  1  0.561788  0.332879  0.494321  1
  Au  Au11  1  0.438212  0.667121  0.505680  1
  Au  Au12  1  0.228909  0.161442  0.667121  1
  Au  Au13  1  0.067467  0.505679  0.838558  1
