# generated using pymatgen
data_Mn6P4H2O17
_symmetry_space_group_name_H-M   'P 1'
_cell_length_a   9.46039347
_cell_length_b   10.03455204
_cell_length_c   8.24874020
_cell_angle_alpha   88.76449046
_cell_angle_beta   92.62169876
_cell_angle_gamma   118.12462220
_symmetry_Int_Tables_number   1
_chemical_formula_structural   Mn6P4H2O17
_chemical_formula_sum   'Mn12 P8 H4 O34'
_cell_volume   689.87650301
_cell_formula_units_Z   2
loop_
 _symmetry_equiv_pos_site_id
 _symmetry_equiv_pos_as_xyz
  1  'x, y, z'
loop_
 _atom_site_type_symbol
 _atom_site_label
 _atom_site_symmetry_multiplicity
 _atom_site_fract_x
 _atom_site_fract_y
 _atom_site_fract_z
 _atom_site_occupancy
  Mn  Mn0  1  0.183099  0.830050  0.424019  1
  Mn  Mn1  1  0.069167  0.254520  0.836345  1
  Mn  Mn2  1  0.319665  0.621797  0.027790  1
  Mn  Mn3  1  0.244202  0.405737  0.374053  1
  Mn  Mn4  1  0.470173  0.759635  0.600710  1
  Mn  Mn5  1  0.353048  0.169950  0.924019  1
  Mn  Mn6  1  0.716472  0.834530  0.959983  1
  Mn  Mn7  1  0.814647  0.745480  0.336345  1
  Mn  Mn8  1  0.697868  0.378203  0.527790  1
  Mn  Mn9  1  0.838465  0.594263  0.874053  1
  Mn  Mn10  1  0.710538  0.240365  0.100710  1
  Mn  Mn11  1  0.881942  0.165470  0.459983  1
  P  P12  1  0.016152  0.936481  0.690284  1
  P  P13  1  0.087167  0.520377  0.672698  1
  P  P14  1  0.079671  0.063519  0.190284  1
  P  P15  1  0.571409  0.898907  0.291149  1
  P  P16  1  0.465209  0.490050  0.724993  1
  P  P17  1  0.566790  0.479623  0.172698  1
  P  P18  1  0.672503  0.101093  0.791149  1
  P  P19  1  0.975159  0.509950  0.224993  1
  H  H20  1  0.217154  0.835440  0.881224  1
  H  H21  1  0.222292  0.850679  0.070857  1
  H  H22  1  0.371614  0.149321  0.570857  1
  H  H23  1  0.381714  0.164560  0.381224  1
  O  O24  1  0.193927  0.991394  0.748842  1
  O  O25  1  0.213063  0.781467  0.983650  1
  O  O26  1  0.212716  0.677464  0.608699  1
  O  O27  1  0.138701  0.492568  0.846711  1
  O  O28  1  0.075384  0.385157  0.570756  1
  O  O29  1  0.144803  0.521741  0.223726  1
  O  O30  1  0.414341  0.865625  0.375111  1
  O  O31  1  0.073800  0.176498  0.315351  1
  O  O32  1  0.140083  0.149509  0.027565  1
  O  O33  1  0.610746  0.928734  0.772701  1
  O  O34  1  0.534731  0.821373  0.122666  1
  O  O35  1  0.330524  0.338852  0.787270  1
  O  O36  1  0.420843  0.527701  0.552328  1
  O  O37  1  0.488796  0.628623  0.829405  1
  O  O38  1  0.404099  0.482091  0.173443  1
  O  O39  1  0.202533  0.008606  0.248842  1
  O  O40  1  0.658429  0.836610  0.412244  1
  O  O41  1  0.431596  0.218533  0.483650  1
  O  O42  1  0.623062  0.478259  0.723726  1
  O  O43  1  0.535252  0.322536  0.108699  1
  O  O44  1  0.646134  0.507432  0.346711  1
  O  O45  1  0.690227  0.614843  0.070756  1
  O  O46  1  0.908091  0.929332  0.163290  1
  O  O47  1  0.548717  0.134375  0.875111  1
  O  O48  1  0.897302  0.823502  0.815351  1
  O  O49  1  0.990574  0.850491  0.527565  1
  O  O50  1  0.713358  0.178627  0.622666  1
  O  O51  1  0.682012  0.071266  0.272701  1
  O  O52  1  0.922008  0.517909  0.673443  1
  O  O53  1  0.991672  0.661148  0.287270  1
  O  O54  1  0.893142  0.472299  0.052328  1
  O  O55  1  0.860174  0.371377  0.329405  1
  O  O56  1  0.821820  0.163390  0.912244  1
  O  O57  1  0.978758  0.070668  0.663290  1
