# generated using pymatgen
data_Li3V3P8O29
_symmetry_space_group_name_H-M   'P 1'
_cell_length_a   9.76398086
_cell_length_b   9.76394029
_cell_length_c   14.29960069
_cell_angle_alpha   89.43725354
_cell_angle_beta   89.43831813
_cell_angle_gamma   59.74041184
_symmetry_Int_Tables_number   1
_chemical_formula_structural   Li3V3P8O29
_chemical_formula_sum   'Li6 V6 P16 O58'
_cell_volume   1177.43461016
_cell_formula_units_Z   2
loop_
 _symmetry_equiv_pos_site_id
 _symmetry_equiv_pos_as_xyz
  1  'x, y, z'
loop_
 _atom_site_type_symbol
 _atom_site_label
 _atom_site_symmetry_multiplicity
 _atom_site_fract_x
 _atom_site_fract_y
 _atom_site_fract_z
 _atom_site_occupancy
  Li  Li0  1  0.903916  0.768969  0.057638  1
  Li  Li1  1  0.318222  0.768199  0.554384  1
  Li  Li2  1  0.231821  0.681762  0.945639  1
  Li  Li3  1  0.231024  0.096066  0.442384  1
  Li  Li4  1  0.991732  0.072168  0.992130  1
  Li  Li5  1  0.927753  0.008135  0.507971  1
  V  V6  1  0.568806  0.431184  0.250009  1
  V  V7  1  0.442197  0.557807  0.750004  1
  V  V8  1  0.565351  0.999668  0.754904  1
  V  V9  1  0.440451  0.997039  0.243906  1
  V  V10  1  0.002961  0.559536  0.256059  1
  V  V11  1  0.000329  0.434664  0.745098  1
  P  P12  1  0.915135  0.770564  0.840647  1
  P  P13  1  0.774428  0.914311  0.341826  1
  P  P14  1  0.915569  0.302196  0.340702  1
  P  P15  1  0.671661  0.663117  0.132168  1
  P  P16  1  0.663627  0.671041  0.633802  1
  P  P17  1  0.783791  0.303369  0.840143  1
  P  P18  1  0.696581  0.216243  0.659816  1
  P  P19  1  0.303870  0.912893  0.841746  1
  P  P20  1  0.697793  0.084451  0.159269  1
  P  P21  1  0.314163  0.775648  0.339405  1
  P  P22  1  0.224337  0.685852  0.160603  1
  P  P23  1  0.336880  0.328305  0.367829  1
  P  P24  1  0.328966  0.336381  0.866214  1
  P  P25  1  0.087073  0.696216  0.658304  1
  P  P26  1  0.229434  0.084857  0.659386  1
  P  P27  1  0.085672  0.225580  0.158146  1
  O  O28  1  0.008745  0.801273  0.577152  1
  O  O29  1  0.908966  0.737755  0.329865  1
  O  O30  1  0.795051  0.995866  0.076801  1
  O  O31  1  0.743314  0.912757  0.835515  1
  O  O32  1  0.911895  0.616382  0.823028  1
  O  O33  1  0.817417  0.667866  0.172272  1
  O  O34  1  0.916324  0.461650  0.328917  1
  O  O35  1  0.013044  0.211070  0.071977  1
  O  O36  1  0.915974  0.346383  0.827285  1
  O  O37  1  0.662224  0.815114  0.682804  1
  O  O38  1  0.614777  0.920002  0.326628  1
  O  O39  1  0.812879  0.521384  0.674468  1
  O  O40  1  0.663894  0.672625  0.028668  1
  O  O41  1  0.648424  0.680098  0.530578  1
  O  O42  1  0.667553  0.518297  0.177640  1
  O  O43  1  0.458167  0.921255  0.832106  1
  O  O44  1  0.522402  0.813217  0.179410  1
  O  O45  1  0.741408  0.341140  0.334810  1
  O  O46  1  0.801889  0.198130  0.749964  1
  O  O47  1  0.787782  0.198930  0.573623  1
  O  O48  1  0.801110  0.212081  0.926314  1
  O  O49  1  0.620411  0.459859  0.826934  1
  O  O50  1  0.513358  0.670396  0.678106  1
  O  O51  1  0.658797  0.258626  0.165170  1
  O  O52  1  0.471593  0.617497  0.323622  1
  O  O53  1  0.342346  0.919142  0.333363  1
  O  O54  1  0.797900  0.002390  0.252486  1
  O  O55  1  0.788956  0.986883  0.427999  1
  O  O56  1  0.233128  0.003498  0.569887  1
  O  O57  1  0.653577  0.084052  0.672718  1
  O  O58  1  0.540089  0.379618  0.673056  1
  O  O59  1  0.345994  0.735188  0.836779  1
  O  O60  1  0.481715  0.332424  0.322382  1
  O  O61  1  0.382480  0.528415  0.176383  1
  O  O62  1  0.217952  0.765741  0.070130  1
  O  O63  1  0.234320  0.782001  0.429890  1
  O  O64  1  0.204102  0.795884  0.250010  1
  O  O65  1  0.264780  0.654070  0.663269  1
  O  O66  1  0.478602  0.187119  0.825542  1
  O  O67  1  0.538363  0.083642  0.171033  1
  O  O68  1  0.329626  0.486652  0.821920  1
  O  O69  1  0.319924  0.351565  0.969438  1
  O  O70  1  0.327380  0.336016  0.471328  1
  O  O71  1  0.186774  0.477568  0.320581  1
  O  O72  1  0.383624  0.088096  0.676990  1
  O  O73  1  0.332159  0.182560  0.327685  1
  O  O74  1  0.080840  0.657665  0.166623  1
  O  O75  1  0.010377  0.792443  0.755266  1
  O  O76  1  0.996514  0.766838  0.930148  1
  O  O77  1  0.078643  0.541967  0.667858  1
  O  O78  1  0.184895  0.337823  0.817180  1
  O  O79  1  0.079980  0.385234  0.173319  1
  O  O80  1  0.262220  0.091037  0.170103  1
  O  O81  1  0.198930  0.991247  0.922901  1
  O  O82  1  0.207608  0.989600  0.744779  1
  O  O83  1  0.087246  0.256680  0.664507  1
  O  O84  1  0.004188  0.204967  0.423172  1
  O  O85  1  0.997617  0.202098  0.247488  1
