# generated using pymatgen
data_Li3Mn4(BO3)4
_symmetry_space_group_name_H-M   'P 1'
_cell_length_a   7.84272779
_cell_length_b   5.29149444
_cell_length_c   6.20734276
_cell_angle_alpha   87.53834419
_cell_angle_beta   79.14850963
_cell_angle_gamma   87.42971106
_symmetry_Int_Tables_number   1
_chemical_formula_structural   Li3Mn4(BO3)4
_chemical_formula_sum   'Li3 Mn4 B4 O12'
_cell_volume   252.58593253
_cell_formula_units_Z   1
loop_
 _symmetry_equiv_pos_site_id
 _symmetry_equiv_pos_as_xyz
  1  'x, y, z'
loop_
 _atom_site_type_symbol
 _atom_site_label
 _atom_site_symmetry_multiplicity
 _atom_site_fract_x
 _atom_site_fract_y
 _atom_site_fract_z
 _atom_site_occupancy
  Li  Li0  1  0.811619  0.574552  0.871587  1
  Li  Li1  1  0.687673  0.931435  0.632240  1
  Li  Li2  1  0.204853  0.412298  0.140394  1
  Mn  Mn3  1  0.827855  0.421595  0.417796  1
  Mn  Mn4  1  0.667940  0.084647  0.088681  1
  Mn  Mn5  1  0.313624  0.912774  0.933501  1
  Mn  Mn6  1  0.185057  0.580131  0.575606  1
  B  B7  1  0.497886  0.427227  0.764493  1
  B  B8  1  0.994780  0.923727  0.259390  1
  B  B9  1  0.003268  0.076519  0.754804  1
  B  B10  1  0.504340  0.575162  0.217142  1
  O  O11  1  0.982527  0.332493  0.701023  1
  O  O12  1  0.861621  0.932325  0.837347  1
  O  O13  1  0.828702  0.029292  0.342265  1
  O  O14  1  0.514220  0.167409  0.802462  1
  O  O15  1  0.634767  0.571104  0.665570  1
  O  O16  1  0.335242  0.545667  0.845326  1
  O  O17  1  0.674828  0.474441  0.156894  1
  O  O18  1  0.376271  0.435004  0.333112  1
  O  O19  1  0.472449  0.825519  0.141349  1
  O  O20  1  0.169587  0.954206  0.707894  1
  O  O21  1  0.119621  0.078635  0.143556  1
  O  O22  1  0.031381  0.667731  0.298943  1
