# generated using pymatgen
data_Mn3(O2F)2
_symmetry_space_group_name_H-M   'P 1'
_cell_length_a   7.39034726
_cell_length_b   5.54907779
_cell_length_c   5.54566757
_cell_angle_alpha   70.93303650
_cell_angle_beta   71.34834993
_cell_angle_gamma   71.49634835
_symmetry_Int_Tables_number   1
_chemical_formula_structural   Mn3(O2F)2
_chemical_formula_sum   'Mn6 O8 F4'
_cell_volume   197.82066792
_cell_formula_units_Z   2
loop_
 _symmetry_equiv_pos_site_id
 _symmetry_equiv_pos_as_xyz
  1  'x, y, z'
loop_
 _atom_site_type_symbol
 _atom_site_label
 _atom_site_symmetry_multiplicity
 _atom_site_fract_x
 _atom_site_fract_y
 _atom_site_fract_z
 _atom_site_occupancy
  Mn  Mn0  1  0.837825  0.680945  0.690703  1
  Mn  Mn1  1  0.671528  0.331853  0.342118  1
  Mn  Mn2  1  0.317898  0.646815  0.658864  1
  Mn  Mn3  1  0.170752  0.316509  0.328230  1
  Mn  Mn4  1  0.496754  0.991595  0.003345  1
  Mn  Mn5  1  0.001083  0.028644  0.979408  1
  O  O6  1  0.669581  0.026903  0.650111  1
  O  O7  1  0.331827  0.349915  0.971085  1
  O  O8  1  0.961420  0.234763  0.226315  1
  O  O9  1  0.034833  0.780208  0.770917  1
  O  O10  1  0.374741  0.429065  0.430509  1
  O  O11  1  0.331169  0.959186  0.360851  1
  O  O12  1  0.668490  0.638221  0.036909  1
  O  O13  1  0.999344  0.325207  0.681119  1
  F  F14  1  0.308959  0.873914  0.884766  1
  F  F15  1  0.630488  0.576761  0.577473  1
  F  F16  1  0.693534  0.099202  0.111611  1
  F  F17  1  0.999772  0.710292  0.295668  1
