# generated using pymatgen
data_Ca2SnS4
_symmetry_space_group_name_H-M   'P 1'
_cell_length_a   3.97592587
_cell_length_b   7.08499186
_cell_length_c   11.51915434
_cell_angle_alpha   90.00014097
_cell_angle_beta   90.00002243
_cell_angle_gamma   90.00003221
_symmetry_Int_Tables_number   1
_chemical_formula_structural   Ca2SnS4
_chemical_formula_sum   'Ca4 Sn2 S8'
_cell_volume   324.48769420
_cell_formula_units_Z   2
loop_
 _symmetry_equiv_pos_site_id
 _symmetry_equiv_pos_as_xyz
  1  'x, y, z'
loop_
 _atom_site_type_symbol
 _atom_site_label
 _atom_site_symmetry_multiplicity
 _atom_site_fract_x
 _atom_site_fract_y
 _atom_site_fract_z
 _atom_site_occupancy
  Ca  Ca0  1  0.499999  0.414639  0.814900  1
  Ca  Ca1  1  0.500000  0.585361  0.185100  1
  Ca  Ca2  1  0.499998  0.914638  0.685100  1
  Ca  Ca3  1  0.500005  0.085363  0.314901  1
  Sn  Sn4  1  0.000001  0.500001  0.500000  1
  Sn  Sn5  1  0.000001  0.999999  -0.000001  1
  S  S6  1  0.500000  0.264772  0.552361  1
  S  S7  1  0.500001  0.735229  0.447639  1
  S  S8  1  0.499999  0.764770  0.947640  1
  S  S9  1  0.499999  0.235230  0.052360  1
  S  S10  1  0.999998  0.132288  0.797957  1
  S  S11  1  0.000003  0.867712  0.202044  1
  S  S12  1  0.999997  0.632290  0.702043  1
  S  S13  1  0.999999  0.367710  0.297956  1
