# generated using pymatgen
data_Li9V6(P8O29)2
_symmetry_space_group_name_H-M   'P 1'
_cell_length_a   9.79751879
_cell_length_b   9.77913607
_cell_length_c   14.03941860
_cell_angle_alpha   90.22046102
_cell_angle_beta   90.20178527
_cell_angle_gamma   60.20313206
_symmetry_Int_Tables_number   1
_chemical_formula_structural   Li9V6(P8O29)2
_chemical_formula_sum   'Li9 V6 P16 O58'
_cell_volume   1167.28715672
_cell_formula_units_Z   1
loop_
 _symmetry_equiv_pos_site_id
 _symmetry_equiv_pos_as_xyz
  1  'x, y, z'
loop_
 _atom_site_type_symbol
 _atom_site_label
 _atom_site_symmetry_multiplicity
 _atom_site_fract_x
 _atom_site_fract_y
 _atom_site_fract_z
 _atom_site_occupancy
  Li  Li0  1  0.768418  0.902408  0.562204  1
  Li  Li1  1  0.911756  0.318578  0.564474  1
  Li  Li2  1  0.674898  0.664717  0.885242  1
  Li  Li3  1  0.767933  0.319071  0.056400  1
  Li  Li4  1  0.322148  0.910300  0.059251  1
  Li  Li5  1  0.684300  0.227249  0.442194  1
  Li  Li6  1  0.326641  0.770654  0.563078  1
  Li  Li7  1  0.092624  0.679626  0.439308  1
  Li  Li8  1  0.981316  0.973181  0.995977  1
  V  V9  1  0.564342  0.437751  0.246569  1
  V  V10  1  0.430539  0.569029  0.751610  1
  V  V11  1  0.564348  0.007131  0.754786  1
  V  V12  1  0.432553  0.003469  0.248930  1
  V  V13  1  0.996839  0.567465  0.245814  1
  V  V14  1  0.004370  0.429480  0.752038  1
  P  P15  1  0.913301  0.777963  0.841809  1
  P  P16  1  0.768875  0.913077  0.341670  1
  P  P17  1  0.912373  0.319742  0.344042  1
  P  P18  1  0.663740  0.669246  0.127188  1
  P  P19  1  0.666660  0.667602  0.628537  1
  P  P20  1  0.774240  0.317445  0.842909  1
  P  P21  1  0.680405  0.232111  0.659647  1
  P  P22  1  0.315703  0.911830  0.844597  1
  P  P23  1  0.691325  0.083898  0.156931  1
  P  P24  1  0.319777  0.770955  0.341734  1
  P  P25  1  0.222331  0.690290  0.158992  1
  P  P26  1  0.335362  0.336005  0.368669  1
  P  P27  1  0.330669  0.336530  0.873214  1
  P  P28  1  0.085341  0.682641  0.656756  1
  P  P29  1  0.229594  0.083609  0.659993  1
  P  P30  1  0.083097  0.224992  0.159846  1
  O  O31  1  0.998436  0.756841  0.565490  1
  O  O32  1  0.916374  0.749067  0.339542  1
  O  O33  1  0.788257  0.004163  0.073179  1
  O  O34  1  0.740266  0.918789  0.832598  1
  O  O35  1  0.899487  0.627298  0.834027  1
  O  O36  1  0.803989  0.676210  0.170685  1
  O  O37  1  0.903869  0.479311  0.322056  1
  O  O38  1  0.992737  0.211126  0.078714  1
  O  O39  1  0.918551  0.341524  0.834466  1
  O  O40  1  0.668025  0.817410  0.671546  1
  O  O41  1  0.617774  0.903495  0.319795  1
  O  O42  1  0.813953  0.514428  0.667711  1
  O  O43  1  0.659364  0.660270  0.020660  1
  O  O44  1  0.667163  0.670918  0.521801  1
  O  O45  1  0.667733  0.513788  0.167632  1
  O  O46  1  0.481215  0.897909  0.829281  1
  O  O47  1  0.507777  0.815299  0.165455  1
  O  O48  1  0.742552  0.341594  0.333822  1
  O  O49  1  0.788945  0.209865  0.751219  1
  O  O50  1  0.759831  0.238618  0.569751  1
  O  O51  1  0.778352  0.233164  0.932133  1
  O  O52  1  0.627247  0.482429  0.829531  1
  O  O53  1  0.512820  0.672037  0.666803  1
  O  O54  1  0.654391  0.259451  0.162986  1
  O  O55  1  0.479763  0.618696  0.320443  1
  O  O56  1  0.345314  0.913644  0.332946  1
  O  O57  1  0.787499  0.008765  0.254906  1
  O  O58  1  0.753258  0.001094  0.432545  1
  O  O59  1  0.237296  0.988920  0.575529  1
  O  O60  1  0.661580  0.083131  0.660201  1
  O  O61  1  0.522153  0.382256  0.675841  1
  O  O62  1  0.342582  0.742466  0.835144  1
  O  O63  1  0.486106  0.334838  0.324337  1
  O  O64  1  0.381452  0.532803  0.173204  1
  O  O65  1  0.218120  0.787249  0.076980  1
  O  O66  1  0.250172  0.755963  0.432586  1
  O  O67  1  0.204202  0.788499  0.256190  1
  O  O68  1  0.250190  0.666334  0.658226  1
  O  O69  1  0.481941  0.182233  0.825693  1
  O  O70  1  0.534419  0.081369  0.170250  1
  O  O71  1  0.335427  0.479380  0.829489  1
  O  O72  1  0.345360  0.321946  0.978564  1
  O  O73  1  0.349708  0.326251  0.474002  1
  O  O74  1  0.186440  0.485533  0.332113  1
  O  O75  1  0.383144  0.088975  0.679526  1
  O  O76  1  0.340287  0.185116  0.320409  1
  O  O77  1  0.086269  0.655257  0.163982  1
  O  O78  1  0.992308  0.795791  0.744468  1
  O  O79  1  0.995494  0.796335  0.924994  1
  O  O80  1  0.093375  0.524120  0.676940  1
  O  O81  1  0.191946  0.325941  0.827971  1
  O  O82  1  0.090873  0.376592  0.170074  1
  O  O83  1  0.255969  0.081014  0.163382  1
  O  O84  1  0.240054  0.986607  0.936308  1
  O  O85  1  0.206085  0.007045  0.756794  1
  O  O86  1  0.084772  0.251574  0.659289  1
  O  O87  1  0.984146  0.250475  0.436868  1
  O  O88  1  0.008235  0.202966  0.258031  1
