# generated using pymatgen
data_Li9V6(P8O29)2
_symmetry_space_group_name_H-M   'P 1'
_cell_length_a   9.82327943
_cell_length_b   9.78634081
_cell_length_c   14.03718417
_cell_angle_alpha   90.08845392
_cell_angle_beta   90.08982832
_cell_angle_gamma   59.82896610
_symmetry_Int_Tables_number   1
_chemical_formula_structural   Li9V6(P8O29)2
_chemical_formula_sum   'Li9 V6 P16 O58'
_cell_volume   1166.63686577
_cell_formula_units_Z   1
loop_
 _symmetry_equiv_pos_site_id
 _symmetry_equiv_pos_as_xyz
  1  'x, y, z'
loop_
 _atom_site_type_symbol
 _atom_site_label
 _atom_site_symmetry_multiplicity
 _atom_site_fract_x
 _atom_site_fract_y
 _atom_site_fract_z
 _atom_site_occupancy
  Li  Li0  1  0.908178  0.765122  0.060202  1
  Li  Li1  1  0.912194  0.316169  0.559820  1
  Li  Li2  1  0.661557  0.669009  0.885585  1
  Li  Li3  1  0.770367  0.321578  0.061331  1
  Li  Li4  1  0.325710  0.908104  0.062385  1
  Li  Li5  1  0.681647  0.227254  0.441386  1
  Li  Li6  1  0.320971  0.772900  0.558421  1
  Li  Li7  1  0.084804  0.691696  0.439724  1
  Li  Li8  1  0.002634  0.003408  0.993894  1
  V  V9  1  0.567364  0.433548  0.246064  1
  V  V10  1  0.427453  0.570547  0.752007  1
  V  V11  1  0.569484  0.002847  0.746428  1
  V  V12  1  0.432791  0.003177  0.252759  1
  V  V13  1  0.998757  0.566587  0.249528  1
  V  V14  1  0.008187  0.427088  0.751568  1
  P  P15  1  0.909251  0.775392  0.841013  1
  P  P16  1  0.768579  0.916122  0.343694  1
  P  P17  1  0.911668  0.319886  0.343246  1
  P  P18  1  0.665367  0.669076  0.125802  1
  P  P19  1  0.666824  0.665299  0.628737  1
  P  P20  1  0.776859  0.316206  0.843397  1
  P  P21  1  0.682301  0.232690  0.660743  1
  P  P22  1  0.316220  0.913107  0.845493  1
  P  P23  1  0.689641  0.080966  0.156770  1
  P  P24  1  0.320522  0.768363  0.341024  1
  P  P25  1  0.224381  0.689986  0.158408  1
  P  P26  1  0.335820  0.335678  0.370639  1
  P  P27  1  0.335042  0.331253  0.871506  1
  P  P28  1  0.085327  0.683795  0.657440  1
  P  P29  1  0.230243  0.082757  0.659958  1
  P  P30  1  0.085583  0.223151  0.160257  1
  O  O31  1  0.002664  0.751040  0.566255  1
  O  O32  1  0.913975  0.748153  0.341641  1
  O  O33  1  0.785930  0.992102  0.072494  1
  O  O34  1  0.738194  0.917236  0.832530  1
  O  O35  1  0.898503  0.622073  0.829237  1
  O  O36  1  0.810362  0.678786  0.162630  1
  O  O37  1  0.901025  0.481015  0.319162  1
  O  O38  1  0.997388  0.205733  0.078577  1
  O  O39  1  0.921216  0.340630  0.831966  1
  O  O40  1  0.661100  0.815765  0.677063  1
  O  O41  1  0.617046  0.905811  0.322433  1
  O  O42  1  0.817915  0.516446  0.672442  1
  O  O43  1  0.658573  0.673890  0.018182  1
  O  O44  1  0.672081  0.665710  0.523151  1
  O  O45  1  0.676564  0.512306  0.162182  1
  O  O46  1  0.479433  0.898793  0.831583  1
  O  O47  1  0.510634  0.814731  0.166936  1
  O  O48  1  0.745621  0.338329  0.335403  1
  O  O49  1  0.792602  0.208856  0.751627  1
  O  O50  1  0.758683  0.242683  0.571023  1
  O  O51  1  0.791079  0.228043  0.932681  1
  O  O52  1  0.627410  0.480169  0.832342  1
  O  O53  1  0.515472  0.668178  0.667164  1
  O  O54  1  0.658698  0.253831  0.158138  1
  O  O55  1  0.480642  0.616994  0.320897  1
  O  O56  1  0.343630  0.912857  0.332867  1
  O  O57  1  0.791267  0.001562  0.251612  1
  O  O58  1  0.753687  0.009524  0.430354  1
  O  O59  1  0.234857  0.990940  0.574808  1
  O  O60  1  0.658780  0.087457  0.664041  1
  O  O61  1  0.524248  0.383913  0.679904  1
  O  O62  1  0.343742  0.742358  0.833877  1
  O  O63  1  0.487455  0.330309  0.329964  1
  O  O64  1  0.379242  0.533392  0.168959  1
  O  O65  1  0.210933  0.793584  0.076911  1
  O  O66  1  0.247865  0.758646  0.432833  1
  O  O67  1  0.202492  0.787513  0.256944  1
  O  O68  1  0.251863  0.664692  0.660770  1
  O  O69  1  0.478046  0.181127  0.823126  1
  O  O70  1  0.532357  0.082585  0.171142  1
  O  O71  1  0.332782  0.477595  0.829221  1
  O  O72  1  0.331378  0.320568  0.975903  1
  O  O73  1  0.339256  0.325739  0.476251  1
  O  O74  1  0.185827  0.486584  0.331667  1
  O  O75  1  0.382159  0.089830  0.677232  1
  O  O76  1  0.337075  0.186074  0.321164  1
  O  O77  1  0.082971  0.659605  0.161365  1
  O  O78  1  0.997049  0.793397  0.749249  1
  O  O79  1  0.984847  0.783466  0.931303  1
  O  O80  1  0.095072  0.524179  0.682118  1
  O  O81  1  0.183489  0.333326  0.824490  1
  O  O82  1  0.085936  0.378854  0.169173  1
  O  O83  1  0.258673  0.080919  0.162571  1
  O  O84  1  0.232354  0.986023  0.935994  1
  O  O85  1  0.205280  0.008481  0.756673  1
  O  O86  1  0.084999  0.254343  0.659949  1
  O  O87  1  0.988106  0.255098  0.436114  1
  O  O88  1  0.010133  0.202098  0.258012  1
