# generated using pymatgen
data_Li3Fe4(BO3)4
_symmetry_space_group_name_H-M   'P 1'
_cell_length_a   5.25652256
_cell_length_b   9.09491838
_cell_length_c   10.20398881
_cell_angle_alpha   89.97700976
_cell_angle_beta   91.49272108
_cell_angle_gamma   90.37462560
_symmetry_Int_Tables_number   1
_chemical_formula_structural   Li3Fe4(BO3)4
_chemical_formula_sum   'Li6 Fe8 B8 O24'
_cell_volume   487.65267543
_cell_formula_units_Z   2
loop_
 _symmetry_equiv_pos_site_id
 _symmetry_equiv_pos_as_xyz
  1  'x, y, z'
loop_
 _atom_site_type_symbol
 _atom_site_label
 _atom_site_symmetry_multiplicity
 _atom_site_fract_x
 _atom_site_fract_y
 _atom_site_fract_z
 _atom_site_occupancy
  Li  Li0  1  0.653588  0.008893  0.080963  1
  Li  Li1  1  0.163737  0.500564  0.096884  1
  Li  Li2  1  0.834869  0.491289  0.339354  1
  Li  Li3  1  0.845886  0.514091  0.831396  1
  Li  Li4  1  0.332526  0.988552  0.343375  1
  Li  Li5  1  0.655859  0.997841  0.591827  1
  Fe  Fe6  1  0.163355  0.162158  0.119673  1
  Fe  Fe7  1  0.837917  0.160025  0.369315  1
  Fe  Fe8  1  0.341867  0.327428  0.862836  1
  Fe  Fe9  1  0.659955  0.342517  0.613083  1
  Fe  Fe10  1  0.330927  0.656878  0.372194  1
  Fe  Fe11  1  0.162923  0.829301  0.625423  1
  Fe  Fe12  1  0.658179  0.665773  0.118875  1
  Fe  Fe13  1  0.841780  0.847399  0.870961  1
  B  B14  1  0.158013  0.157621  0.625544  1
  B  B15  1  0.333921  0.330699  0.368053  1
  B  B16  1  0.831379  0.177806  0.874732  1
  B  B17  1  0.666260  0.332340  0.120622  1
  B  B18  1  0.340036  0.657580  0.867366  1
  B  B19  1  0.663651  0.676880  0.625117  1
  B  B20  1  0.162125  0.833738  0.122875  1
  B  B21  1  0.828221  0.829579  0.377037  1
  O  O22  1  0.291302  0.026608  0.616678  1
  O  O23  1  0.087886  0.187053  0.911605  1
  O  O24  1  0.701828  0.048217  0.882591  1
  O  O25  1  0.220681  0.194569  0.336500  1
  O  O26  1  0.289078  0.282751  0.670495  1
  O  O27  1  0.776950  0.197898  0.154655  1
  O  O28  1  0.901015  0.163060  0.588576  1
  O  O29  1  0.413300  0.334617  0.072014  1
  O  O30  1  0.191588  0.455936  0.360560  1
  O  O31  1  0.593818  0.337193  0.404314  1
  O  O32  1  0.708842  0.309795  0.837157  1
  O  O33  1  0.206343  0.524866  0.882245  1
  O  O34  1  0.803570  0.461729  0.135523  1
  O  O35  1  0.274680  0.697899  0.149731  1
  O  O36  1  0.413897  0.688615  0.578412  1
  O  O37  1  0.779709  0.546581  0.643294  1
  O  O38  1  0.598460  0.664726  0.901703  1
  O  O39  1  0.087750  0.832554  0.415500  1
  O  O40  1  0.206823  0.779391  0.820306  1
  O  O41  1  0.715633  0.698660  0.334531  1
  O  O42  1  0.795196  0.811324  0.653197  1
  O  O43  1  0.306938  0.960865  0.140523  1
  O  O44  1  0.906563  0.841298  0.082747  1
  O  O45  1  0.687000  0.957319  0.386591  1
