# generated using pymatgen
data_Rb4Zr6CCl18
_symmetry_space_group_name_H-M   'P 1'
_cell_length_a   10.33285104
_cell_length_b   10.33285104
_cell_length_c   10.01703394
_cell_angle_alpha   77.27577364
_cell_angle_beta   102.72422636
_cell_angle_gamma   62.48676959
_symmetry_Int_Tables_number   1
_chemical_formula_structural   Rb4Zr6CCl18
_chemical_formula_sum   'Rb4 Zr6 C1 Cl18'
_cell_volume   858.76593455
_cell_formula_units_Z   1
loop_
 _symmetry_equiv_pos_site_id
 _symmetry_equiv_pos_as_xyz
  1  'x, y, z'
loop_
 _atom_site_type_symbol
 _atom_site_label
 _atom_site_symmetry_multiplicity
 _atom_site_fract_x
 _atom_site_fract_y
 _atom_site_fract_z
 _atom_site_occupancy
  Rb  Rb0  1  0.230143  0.446028  0.681958  1
  Rb  Rb1  1  0.446029  0.230142  0.318042  1
  Rb  Rb2  1  0.769858  0.553971  0.318042  1
  Rb  Rb3  1  0.553972  0.769857  0.681958  1
  Zr  Zr4  1  0.878191  0.121809  0.143304  1
  Zr  Zr5  1  0.121809  0.878191  0.856695  1
  Zr  Zr6  1  0.051860  0.764224  0.148903  1
  Zr  Zr7  1  0.764223  0.051861  0.851097  1
  Zr  Zr8  1  0.948139  0.235778  0.851097  1
  Zr  Zr9  1  0.235777  0.948140  0.148903  1
  C  C10  1  0.000000  0.000000  0.000000  1
  Cl  Cl11  1  0.192334  0.602820  0.007922  1
  Cl  Cl12  1  0.602820  0.192334  0.992079  1
  Cl  Cl13  1  0.807666  0.397180  0.992079  1
  Cl  Cl14  1  0.397180  0.807665  0.007922  1
  Cl  Cl15  1  0.795489  0.795489  0.000000  1
  Cl  Cl16  1  0.204511  0.204511  0.000000  1
  Cl  Cl17  1  0.680107  0.319892  0.672695  1
  Cl  Cl18  1  0.319893  0.680107  0.327306  1
  Cl  Cl19  1  0.111937  0.493537  0.324016  1
  Cl  Cl20  1  0.493536  0.111938  0.675983  1
  Cl  Cl21  1  0.888062  0.506465  0.675983  1
  Cl  Cl22  1  0.506463  0.888063  0.324016  1
  Cl  Cl23  1  0.737770  0.262229  0.301160  1
  Cl  Cl24  1  0.262230  0.737769  0.698840  1
  Cl  Cl25  1  0.922180  0.873154  0.319980  1
  Cl  Cl26  1  0.873155  0.922179  0.680021  1
  Cl  Cl27  1  0.077821  0.126846  0.680021  1
  Cl  Cl28  1  0.126846  0.077821  0.319980  1
