# generated using pymatgen
data_CrSbO4
_symmetry_space_group_name_H-M   'P 1'
_cell_length_a   6.25837245
_cell_length_b   6.13951408
_cell_length_c   6.13951416
_cell_angle_alpha   59.23245878
_cell_angle_beta   59.35749754
_cell_angle_gamma   59.35749712
_symmetry_Int_Tables_number   1
_chemical_formula_structural   CrSbO4
_chemical_formula_sum   'Cr2 Sb2 O8'
_cell_volume   164.20809971
_cell_formula_units_Z   2
loop_
 _symmetry_equiv_pos_site_id
 _symmetry_equiv_pos_as_xyz
  1  'x, y, z'
loop_
 _atom_site_type_symbol
 _atom_site_label
 _atom_site_symmetry_multiplicity
 _atom_site_fract_x
 _atom_site_fract_y
 _atom_site_fract_z
 _atom_site_occupancy
  Cr  Cr0  1  0.500000  0.000000  0.500000  1
  Cr  Cr1  1  0.500000  0.500000  0.000000  1
  Sb  Sb2  1  0.000000  0.500000  0.500000  1
  Sb  Sb3  1  0.500000  0.500000  0.500000  1
  O  O4  1  0.264434  0.270580  0.270580  1
  O  O5  1  0.260846  0.265761  0.712546  1
  O  O6  1  0.260846  0.712546  0.265761  1
  O  O7  1  0.694407  0.270580  0.270580  1
  O  O8  1  0.305593  0.729420  0.729420  1
  O  O9  1  0.739154  0.734239  0.287454  1
  O  O10  1  0.739154  0.287454  0.734239  1
  O  O11  1  0.735566  0.729420  0.729420  1
