# generated using pymatgen
data_Li2VF5
_symmetry_space_group_name_H-M   'P 1'
_cell_length_a   9.12366169
_cell_length_b   6.16533480
_cell_length_c   6.32420548
_cell_angle_alpha   90.00000000
_cell_angle_beta   90.00000000
_cell_angle_gamma   90.00000000
_symmetry_Int_Tables_number   1
_chemical_formula_structural   Li2VF5
_chemical_formula_sum   'Li8 V4 F20'
_cell_volume   355.73927083
_cell_formula_units_Z   4
loop_
 _symmetry_equiv_pos_site_id
 _symmetry_equiv_pos_as_xyz
  1  'x, y, z'
loop_
 _atom_site_type_symbol
 _atom_site_label
 _atom_site_symmetry_multiplicity
 _atom_site_fract_x
 _atom_site_fract_y
 _atom_site_fract_z
 _atom_site_occupancy
  Li  Li0  1  0.168759  0.548379  0.779920  1
  Li  Li1  1  0.171210  0.548723  0.223423  1
  Li  Li2  1  0.328790  0.048723  0.723423  1
  Li  Li3  1  0.331241  0.048379  0.279920  1
  Li  Li4  1  0.668759  0.951621  0.779920  1
  Li  Li5  1  0.671210  0.951277  0.223423  1
  Li  Li6  1  0.828790  0.451277  0.723423  1
  Li  Li7  1  0.831241  0.451621  0.279920  1
  V  V8  1  0.016302  0.064404  0.002313  1
  V  V9  1  0.483698  0.564404  0.502313  1
  V  V10  1  0.516302  0.435596  0.002313  1
  V  V11  1  0.983698  0.935596  0.502313  1
  F  F12  1  0.050822  0.391894  0.004048  1
  F  F13  1  0.065726  0.826478  0.216791  1
  F  F14  1  0.067701  0.828659  0.787220  1
  F  F15  1  0.181277  0.078455  0.500383  1
  F  F16  1  0.237027  0.083553  0.002681  1
  F  F17  1  0.262973  0.583553  0.502681  1
  F  F18  1  0.318723  0.578455  0.000383  1
  F  F19  1  0.432298  0.328659  0.287220  1
  F  F20  1  0.434274  0.326478  0.716791  1
  F  F21  1  0.449178  0.891894  0.504048  1
  F  F22  1  0.550822  0.108106  0.004048  1
  F  F23  1  0.565726  0.673522  0.216791  1
  F  F24  1  0.567701  0.671341  0.787220  1
  F  F25  1  0.681277  0.421545  0.500383  1
  F  F26  1  0.737027  0.416447  0.002681  1
  F  F27  1  0.762973  0.916447  0.502681  1
  F  F28  1  0.818723  0.921545  0.000383  1
  F  F29  1  0.932299  0.171341  0.287220  1
  F  F30  1  0.934274  0.173522  0.716791  1
  F  F31  1  0.949178  0.608106  0.504048  1
