# generated using pymatgen
data_Li2MnVP2(HO5)2
_symmetry_space_group_name_H-M   'P 1'
_cell_length_a   5.39757842
_cell_length_b   7.46963097
_cell_length_c   10.47209197
_cell_angle_alpha   108.64639914
_cell_angle_beta   98.39141398
_cell_angle_gamma   106.06801650
_symmetry_Int_Tables_number   1
_chemical_formula_structural   Li2MnVP2(HO5)2
_chemical_formula_sum   'Li4 Mn2 V2 P4 H4 O20'
_cell_volume   371.46177442
_cell_formula_units_Z   2
loop_
 _symmetry_equiv_pos_site_id
 _symmetry_equiv_pos_as_xyz
  1  'x, y, z'
loop_
 _atom_site_type_symbol
 _atom_site_label
 _atom_site_symmetry_multiplicity
 _atom_site_fract_x
 _atom_site_fract_y
 _atom_site_fract_z
 _atom_site_occupancy
  Li  Li0  1  0.397968  0.822112  0.873902  1
  Li  Li1  1  0.397786  0.831751  0.372487  1
  Li  Li2  1  0.602214  0.168249  0.627513  1
  Li  Li3  1  0.602032  0.177888  0.126098  1
  Mn  Mn4  1  0.000000  0.500000  0.000000  1
  Mn  Mn5  1  0.000000  0.000000  0.500000  1
  V  V6  1  0.000000  0.500000  0.500000  1
  V  V7  1  0.000000  0.000000  0.000000  1
  P  P8  1  0.367537  0.235718  0.841050  1
  P  P9  1  0.632616  0.771086  0.657497  1
  P  P10  1  0.367384  0.228914  0.342503  1
  P  P11  1  0.632463  0.764282  0.158950  1
  H  H12  1  0.065535  0.350826  0.678337  1
  H  H13  1  0.061499  0.333703  0.179086  1
  H  H14  1  0.938501  0.666297  0.820914  1
  H  H15  1  0.934465  0.649174  0.321663  1
  O  O16  1  0.049434  0.729598  0.917012  1
  O  O17  1  0.049917  0.704771  0.417765  1
  O  O18  1  0.212654  0.383269  0.860370  1
  O  O19  1  0.337552  0.648690  0.646698  1
  O  O20  1  0.200345  0.371319  0.371762  1
  O  O21  1  0.330292  0.656819  0.145655  1
  O  O22  1  0.268547  0.077876  0.691437  1
  O  O23  1  0.339868  0.126822  0.947269  1
  O  O24  1  0.263671  0.079981  0.189257  1
  O  O25  1  0.360715  0.117270  0.443032  1
  O  O26  1  0.639285  0.882730  0.556968  1
  O  O27  1  0.736329  0.920019  0.810743  1
  O  O28  1  0.660132  0.873178  0.052731  1
  O  O29  1  0.731453  0.922124  0.308563  1
  O  O30  1  0.669708  0.343181  0.854345  1
  O  O31  1  0.799655  0.628681  0.628238  1
  O  O32  1  0.662448  0.351310  0.353302  1
  O  O33  1  0.787346  0.616731  0.139630  1
  O  O34  1  0.950083  0.295229  0.582235  1
  O  O35  1  0.950566  0.270402  0.082988  1
