# generated using pymatgen
data_BaAl2O6
_symmetry_space_group_name_H-M   'P 1'
_cell_length_a   12.79071434
_cell_length_b   12.38833419
_cell_length_c   7.26560717
_cell_angle_alpha   90.00000000
_cell_angle_beta   90.00000000
_cell_angle_gamma   90.00000000
_symmetry_Int_Tables_number   1
_chemical_formula_structural   BaAl2O6
_chemical_formula_sum   'Ba8 Al16 O48'
_cell_volume   1151.27646152
_cell_formula_units_Z   8
loop_
 _symmetry_equiv_pos_site_id
 _symmetry_equiv_pos_as_xyz
  1  'x, y, z'
loop_
 _atom_site_type_symbol
 _atom_site_label
 _atom_site_symmetry_multiplicity
 _atom_site_fract_x
 _atom_site_fract_y
 _atom_site_fract_z
 _atom_site_occupancy
  Ba  Ba0  1  0.572020  0.346819  0.108305  1
  Ba  Ba1  1  0.072020  0.153181  0.891695  1
  Ba  Ba2  1  0.427980  0.846819  0.391695  1
  Ba  Ba3  1  0.927980  0.653181  0.608305  1
  Ba  Ba4  1  0.427980  0.653181  0.891695  1
  Ba  Ba5  1  0.927980  0.846819  0.108305  1
  Ba  Ba6  1  0.572020  0.153181  0.608305  1
  Ba  Ba7  1  0.072020  0.346819  0.391695  1
  Al  Al8  1  0.646492  0.009191  0.121351  1
  Al  Al9  1  0.146492  0.490809  0.878649  1
  Al  Al10  1  0.353508  0.509191  0.378649  1
  Al  Al11  1  0.853508  0.990809  0.621351  1
  Al  Al12  1  0.353508  0.990809  0.878649  1
  Al  Al13  1  0.853508  0.509191  0.121351  1
  Al  Al14  1  0.646492  0.490809  0.621351  1
  Al  Al15  1  0.146492  0.009191  0.378649  1
  Al  Al16  1  0.829110  0.154463  0.270694  1
  Al  Al17  1  0.329110  0.345537  0.729306  1
  Al  Al18  1  0.170890  0.654463  0.229306  1
  Al  Al19  1  0.670890  0.845537  0.770694  1
  Al  Al20  1  0.170890  0.845537  0.729306  1
  Al  Al21  1  0.670890  0.654463  0.270694  1
  Al  Al22  1  0.829110  0.345537  0.770694  1
  Al  Al23  1  0.329110  0.154463  0.229306  1
  O  O24  1  0.937962  0.223026  0.174355  1
  O  O25  1  0.437962  0.276974  0.825645  1
  O  O26  1  0.062038  0.723026  0.325645  1
  O  O27  1  0.562038  0.776974  0.674355  1
  O  O28  1  0.062038  0.776974  0.825645  1
  O  O29  1  0.562038  0.723026  0.174355  1
  O  O30  1  0.937962  0.276974  0.674355  1
  O  O31  1  0.437962  0.223026  0.325645  1
  O  O32  1  0.578657  0.003155  0.333800  1
  O  O33  1  0.078657  0.496845  0.666200  1
  O  O34  1  0.421343  0.503155  0.166200  1
  O  O35  1  0.921343  0.996845  0.833800  1
  O  O36  1  0.421343  0.996845  0.666200  1
  O  O37  1  0.921343  0.503155  0.333800  1
  O  O38  1  0.578657  0.496845  0.833800  1
  O  O39  1  0.078657  0.003155  0.166200  1
  O  O40  1  0.711195  0.228491  0.305411  1
  O  O41  1  0.211195  0.271509  0.694589  1
  O  O42  1  0.288805  0.728491  0.194589  1
  O  O43  1  0.788805  0.771509  0.805411  1
  O  O44  1  0.288805  0.771509  0.694589  1
  O  O45  1  0.788805  0.728491  0.305411  1
  O  O46  1  0.711195  0.271509  0.805411  1
  O  O47  1  0.211195  0.228491  0.194589  1
  O  O48  1  0.580684  0.125155  0.025507  1
  O  O49  1  0.080684  0.374845  0.974493  1
  O  O50  1  0.419316  0.625155  0.474493  1
  O  O51  1  0.919316  0.874845  0.525507  1
  O  O52  1  0.419316  0.874845  0.974493  1
  O  O53  1  0.919316  0.625155  0.025507  1
  O  O54  1  0.580684  0.374845  0.525507  1
  O  O55  1  0.080684  0.125155  0.474493  1
  O  O56  1  0.778362  0.044589  0.139335  1
  O  O57  1  0.278362  0.455411  0.860665  1
  O  O58  1  0.221638  0.544589  0.360665  1
  O  O59  1  0.721638  0.955411  0.639335  1
  O  O60  1  0.221638  0.955411  0.860665  1
  O  O61  1  0.721638  0.544589  0.139335  1
  O  O62  1  0.778362  0.455411  0.639335  1
  O  O63  1  0.278362  0.044589  0.360665  1
  O  O64  1  0.872115  0.108089  0.487572  1
  O  O65  1  0.372115  0.391911  0.512428  1
  O  O66  1  0.127885  0.608089  0.012428  1
  O  O67  1  0.627885  0.891911  0.987572  1
  O  O68  1  0.127885  0.891911  0.512428  1
  O  O69  1  0.627885  0.608089  0.487572  1
  O  O70  1  0.872115  0.391911  0.987572  1
  O  O71  1  0.372115  0.108089  0.012428  1
