# generated using pymatgen
data_Mn12O5F19
_symmetry_space_group_name_H-M   'P 1'
_cell_length_a   4.90827802
_cell_length_b   5.88737714
_cell_length_c   15.82534937
_cell_angle_alpha   88.20971362
_cell_angle_beta   90.21903313
_cell_angle_gamma   87.68960036
_symmetry_Int_Tables_number   1
_chemical_formula_structural   Mn12O5F19
_chemical_formula_sum   'Mn12 O5 F19'
_cell_volume   456.70258296
_cell_formula_units_Z   1
loop_
 _symmetry_equiv_pos_site_id
 _symmetry_equiv_pos_as_xyz
  1  'x, y, z'
loop_
 _atom_site_type_symbol
 _atom_site_label
 _atom_site_symmetry_multiplicity
 _atom_site_fract_x
 _atom_site_fract_y
 _atom_site_fract_z
 _atom_site_occupancy
  Mn  Mn0  1  0.005124  0.142797  0.423123  1
  Mn  Mn1  1  0.993330  0.853396  0.244498  1
  Mn  Mn2  1  0.969043  0.169150  0.081557  1
  Mn  Mn3  1  0.045824  0.199807  0.756205  1
  Mn  Mn4  1  0.018344  0.825476  0.587274  1
  Mn  Mn5  1  0.991734  0.836072  0.914105  1
  Mn  Mn6  1  0.489993  0.346821  0.585062  1
  Mn  Mn7  1  0.502380  0.347994  0.917843  1
  Mn  Mn8  1  0.518148  0.320519  0.249665  1
  Mn  Mn9  1  0.510108  0.644806  0.083008  1
  Mn  Mn10  1  0.477306  0.680414  0.418131  1
  Mn  Mn11  1  0.485488  0.646089  0.745994  1
  O  O12  1  0.206582  0.886637  0.479581  1
  O  O13  1  0.282511  0.606959  0.642058  1
  O  O14  1  0.302619  0.408187  0.811701  1
  O  O15  1  0.707155  0.374255  0.022956  1
  O  O16  1  0.784588  0.116827  0.186415  1
  F  F17  1  0.236148  0.102590  0.310487  1
  F  F18  1  0.236293  0.109740  0.642609  1
  F  F19  1  0.203784  0.125846  0.975061  1
  F  F20  1  0.229855  0.896243  0.130139  1
  F  F21  1  0.239881  0.901374  0.808387  1
  F  F22  1  0.259649  0.391941  0.141117  1
  F  F23  1  0.270460  0.613223  0.301223  1
  F  F24  1  0.265951  0.384018  0.470233  1
  F  F25  1  0.271831  0.605984  0.970158  1
  F  F26  1  0.732420  0.611366  0.197704  1
  F  F27  1  0.736761  0.381261  0.366920  1
  F  F28  1  0.730843  0.606730  0.525649  1
  F  F29  1  0.725340  0.625611  0.851265  1
  F  F30  1  0.746326  0.376087  0.690549  1
  F  F31  1  0.764188  0.104856  0.534620  1
  F  F32  1  0.762892  0.897984  0.358422  1
  F  F33  1  0.762753  0.876709  0.023429  1
  F  F34  1  0.763507  0.127812  0.860615  1
  F  F35  1  0.770844  0.854417  0.692242  1
