# generated using pymatgen
data_Li3Mn5Cr2O12
_symmetry_space_group_name_H-M   'P 1'
_cell_length_a   5.23144761
_cell_length_b   5.23144790
_cell_length_c   10.07266149
_cell_angle_alpha   84.67300750
_cell_angle_beta   95.32699244
_cell_angle_gamma   58.30797416
_symmetry_Int_Tables_number   1
_chemical_formula_structural   Li3Mn5Cr2O12
_chemical_formula_sum   'Li3 Mn5 Cr2 O12'
_cell_volume   230.26359754
_cell_formula_units_Z   1
loop_
 _symmetry_equiv_pos_site_id
 _symmetry_equiv_pos_as_xyz
  1  'x, y, z'
loop_
 _atom_site_type_symbol
 _atom_site_label
 _atom_site_symmetry_multiplicity
 _atom_site_fract_x
 _atom_site_fract_y
 _atom_site_fract_z
 _atom_site_occupancy
  Li  Li0  1  0.316765  0.846207  0.983681  1
  Li  Li1  1  0.846207  0.316765  0.516319  1
  Li  Li2  1  0.918194  0.918194  0.750000  1
  Mn  Mn3  1  0.081794  0.081794  0.250000  1
  Mn  Mn4  1  0.416634  0.416634  0.250000  1
  Mn  Mn5  1  0.576522  0.576522  0.750000  1
  Mn  Mn6  1  0.515860  0.001159  0.510477  1
  Mn  Mn7  1  0.001159  0.515860  0.989523  1
  Cr  Cr8  1  0.255946  0.255946  0.750000  1
  Cr  Cr9  1  0.750394  0.750394  0.250000  1
  O  O10  1  0.120382  0.362532  0.364324  1
  O  O11  1  0.057517  0.764383  0.140231  1
  O  O12  1  0.362532  0.120382  0.135676  1
  O  O13  1  0.288049  0.549543  0.856944  1
  O  O14  1  0.549543  0.288049  0.643056  1
  O  O15  1  0.246426  0.960584  0.636628  1
  O  O16  1  0.764383  0.057517  0.359769  1
  O  O17  1  0.455922  0.732610  0.356003  1
  O  O18  1  0.602979  0.850842  0.863210  1
  O  O19  1  0.732610  0.455922  0.143997  1
  O  O20  1  0.960584  0.246426  0.863372  1
  O  O21  1  0.850842  0.602979  0.636790  1
