# generated using pymatgen
data_Li2Cr(SO4)2
_symmetry_space_group_name_H-M   'P 1'
_cell_length_a   9.42321123
_cell_length_b   9.44830893
_cell_length_c   13.98071037
_cell_angle_alpha   90.00000000
_cell_angle_beta   90.00000000
_cell_angle_gamma   90.00000000
_symmetry_Int_Tables_number   1
_chemical_formula_structural   Li2Cr(SO4)2
_chemical_formula_sum   'Li16 Cr8 S16 O64'
_cell_volume   1244.75032984
_cell_formula_units_Z   8
loop_
 _symmetry_equiv_pos_site_id
 _symmetry_equiv_pos_as_xyz
  1  'x, y, z'
loop_
 _atom_site_type_symbol
 _atom_site_label
 _atom_site_symmetry_multiplicity
 _atom_site_fract_x
 _atom_site_fract_y
 _atom_site_fract_z
 _atom_site_occupancy
  Li  Li0  1  0.032919  0.219711  0.374639  1
  Li  Li1  1  0.032919  0.280289  0.874639  1
  Li  Li2  1  0.222786  0.954020  0.372977  1
  Li  Li3  1  0.222786  0.545980  0.872977  1
  Li  Li4  1  0.277214  0.045980  0.872977  1
  Li  Li5  1  0.277214  0.454020  0.372977  1
  Li  Li6  1  0.467081  0.719711  0.374639  1
  Li  Li7  1  0.467081  0.780289  0.874639  1
  Li  Li8  1  0.532919  0.219711  0.125361  1
  Li  Li9  1  0.532919  0.280289  0.625361  1
  Li  Li10  1  0.722786  0.545980  0.627023  1
  Li  Li11  1  0.722786  0.954020  0.127023  1
  Li  Li12  1  0.777214  0.454020  0.127023  1
  Li  Li13  1  0.777214  0.045980  0.627023  1
  Li  Li14  1  0.967081  0.780289  0.625361  1
  Li  Li15  1  0.967081  0.719711  0.125361  1
  Cr  Cr16  1  0.140315  0.103210  0.124773  1
  Cr  Cr17  1  0.140315  0.396790  0.624773  1
  Cr  Cr18  1  0.359685  0.603210  0.124773  1
  Cr  Cr19  1  0.359685  0.896790  0.624773  1
  Cr  Cr20  1  0.640315  0.103210  0.375227  1
  Cr  Cr21  1  0.640315  0.396790  0.875227  1
  Cr  Cr22  1  0.859685  0.603210  0.375227  1
  Cr  Cr23  1  0.859685  0.896790  0.875227  1
  S  S24  1  0.070335  0.067737  0.730383  1
  S  S25  1  0.070335  0.432263  0.230383  1
  S  S26  1  0.164529  0.690582  0.490127  1
  S  S27  1  0.164529  0.809418  0.990127  1
  S  S28  1  0.335471  0.190582  0.490127  1
  S  S29  1  0.335471  0.309418  0.990127  1
  S  S30  1  0.429665  0.932263  0.230383  1
  S  S31  1  0.429665  0.567737  0.730383  1
  S  S32  1  0.570335  0.432263  0.269617  1
  S  S33  1  0.570335  0.067737  0.769617  1
  S  S34  1  0.664529  0.690582  0.009873  1
  S  S35  1  0.664529  0.809418  0.509873  1
  S  S36  1  0.835471  0.190582  0.009873  1
  S  S37  1  0.835471  0.309418  0.509873  1
  S  S38  1  0.929665  0.567737  0.769617  1
  S  S39  1  0.929665  0.932263  0.269617  1
  O  O40  1  0.008024  0.703024  0.479175  1
  O  O41  1  0.008024  0.796976  0.979175  1
  O  O42  1  0.018540  0.999356  0.344018  1
  O  O43  1  0.018540  0.500644  0.844018  1
  O  O44  1  0.018112  0.467507  0.329977  1
  O  O45  1  0.018112  0.032493  0.829977  1
  O  O46  1  0.066721  0.225279  0.726356  1
  O  O47  1  0.066721  0.274721  0.226356  1
  O  O48  1  0.194806  0.730614  0.081375  1
  O  O49  1  0.194806  0.769386  0.581375  1
  O  O50  1  0.208934  0.959953  0.999646  1
  O  O51  1  0.208934  0.540047  0.499646  1
  O  O52  1  0.219408  0.015422  0.725861  1
  O  O53  1  0.219408  0.484578  0.225861  1
  O  O54  1  0.242912  0.751774  0.407586  1
  O  O55  1  0.242912  0.748226  0.907586  1
  O  O56  1  0.257088  0.251774  0.407586  1
  O  O57  1  0.257088  0.248226  0.907586  1
  O  O58  1  0.280592  0.984578  0.225861  1
  O  O59  1  0.280592  0.515422  0.725861  1
  O  O60  1  0.291066  0.040047  0.499646  1
  O  O61  1  0.291066  0.459953  0.999646  1
  O  O62  1  0.305194  0.230614  0.081375  1
  O  O63  1  0.305194  0.269386  0.581375  1
  O  O64  1  0.433279  0.774721  0.226356  1
  O  O65  1  0.433279  0.725279  0.726356  1
  O  O66  1  0.481888  0.532493  0.829977  1
  O  O67  1  0.481888  0.967507  0.329977  1
  O  O68  1  0.481461  0.499356  0.344018  1
  O  O69  1  0.481461  0.000644  0.844018  1
  O  O70  1  0.491976  0.203024  0.479175  1
  O  O71  1  0.491976  0.296976  0.979175  1
  O  O72  1  0.508024  0.703024  0.020825  1
  O  O73  1  0.508024  0.796976  0.520825  1
  O  O74  1  0.518540  0.500644  0.655982  1
  O  O75  1  0.518540  0.999356  0.155982  1
  O  O76  1  0.518112  0.467507  0.170023  1
  O  O77  1  0.518112  0.032493  0.670023  1
  O  O78  1  0.566721  0.274721  0.273644  1
  O  O79  1  0.566721  0.225279  0.773644  1
  O  O80  1  0.694806  0.730614  0.418625  1
  O  O81  1  0.694806  0.769386  0.918625  1
  O  O82  1  0.708934  0.540047  0.000354  1
  O  O83  1  0.708934  0.959953  0.500354  1
  O  O84  1  0.719408  0.484578  0.274139  1
  O  O85  1  0.719408  0.015422  0.774139  1
  O  O86  1  0.742912  0.751774  0.092414  1
  O  O87  1  0.742912  0.748226  0.592414  1
  O  O88  1  0.757088  0.251774  0.092414  1
  O  O89  1  0.757088  0.248226  0.592414  1
  O  O90  1  0.780592  0.515422  0.774139  1
  O  O91  1  0.780592  0.984578  0.274139  1
  O  O92  1  0.791066  0.459953  0.500354  1
  O  O93  1  0.791066  0.040047  0.000354  1
  O  O94  1  0.805194  0.230614  0.418625  1
  O  O95  1  0.805194  0.269386  0.918625  1
  O  O96  1  0.933279  0.725279  0.773644  1
  O  O97  1  0.933279  0.774721  0.273644  1
  O  O98  1  0.981888  0.532493  0.670023  1
  O  O99  1  0.981888  0.967507  0.170023  1
  O  O100  1  0.981460  0.000644  0.655982  1
  O  O101  1  0.981460  0.499356  0.155982  1
  O  O102  1  0.991976  0.203024  0.020825  1
  O  O103  1  0.991976  0.296976  0.520825  1
