# generated using pymatgen
data_Fe10O9F11
_symmetry_space_group_name_H-M   'P 1'
_cell_length_a   4.75999876
_cell_length_b   4.75999876
_cell_length_c   15.49677625
_cell_angle_alpha   90.14487721
_cell_angle_beta   90.14487721
_cell_angle_gamma   92.21053054
_symmetry_Int_Tables_number   1
_chemical_formula_structural   Fe10O9F11
_chemical_formula_sum   'Fe10 O9 F11'
_cell_volume   350.85595360
_cell_formula_units_Z   1
loop_
 _symmetry_equiv_pos_site_id
 _symmetry_equiv_pos_as_xyz
  1  'x, y, z'
loop_
 _atom_site_type_symbol
 _atom_site_label
 _atom_site_symmetry_multiplicity
 _atom_site_fract_x
 _atom_site_fract_y
 _atom_site_fract_z
 _atom_site_occupancy
  Fe  Fe0  1  0.015338  0.993941  0.997144  1
  Fe  Fe1  1  0.980406  0.964137  0.208928  1
  Fe  Fe2  1  0.035863  0.019594  0.391072  1
  Fe  Fe3  1  0.006059  0.984662  0.602856  1
  Fe  Fe4  1  0.024571  0.975429  0.800000  1
  Fe  Fe5  1  0.519305  0.502428  0.097662  1
  Fe  Fe6  1  0.497572  0.480695  0.502338  1
  Fe  Fe7  1  0.476593  0.523407  0.300000  1
  Fe  Fe8  1  0.476491  0.523163  0.687848  1
  Fe  Fe9  1  0.476837  0.523509  0.912152  1
  O  O10  1  0.200570  0.799430  0.300000  1
  O  O11  1  0.188954  0.806495  0.701655  1
  O  O12  1  0.193505  0.811046  0.898345  1
  O  O13  1  0.304102  0.302683  0.003268  1
  O  O14  1  0.323116  0.321465  0.400759  1
  O  O15  1  0.297531  0.296069  0.598668  1
  O  O16  1  0.703931  0.702469  0.001332  1
  O  O17  1  0.678535  0.676884  0.199241  1
  O  O18  1  0.697317  0.695898  0.596732  1
  F  F19  1  0.194494  0.798624  0.099615  1
  F  F20  1  0.201376  0.805506  0.500385  1
  F  F21  1  0.288000  0.290153  0.197969  1
  F  F22  1  0.305982  0.313683  0.800106  1
  F  F23  1  0.709847  0.712000  0.402031  1
  F  F24  1  0.686317  0.694018  0.799894  1
  F  F25  1  0.809807  0.186272  0.099670  1
  F  F26  1  0.813728  0.190193  0.500330  1
  F  F27  1  0.786170  0.213830  0.300000  1
  F  F28  1  0.805936  0.198254  0.895129  1
  F  F29  1  0.801746  0.194064  0.704871  1
