# generated using pymatgen
data_Sb2H8Pt(OF3)4
_symmetry_space_group_name_H-M   'P 1'
_cell_length_a   5.06396631
_cell_length_b   7.88736459
_cell_length_c   8.62353518
_cell_angle_alpha   69.40070250
_cell_angle_beta   83.77323899
_cell_angle_gamma   75.81523036
_symmetry_Int_Tables_number   1
_chemical_formula_structural   Sb2H8Pt(OF3)4
_chemical_formula_sum   'Sb2 H8 Pt1 O4 F12'
_cell_volume   312.48956850
_cell_formula_units_Z   1
loop_
 _symmetry_equiv_pos_site_id
 _symmetry_equiv_pos_as_xyz
  1  'x, y, z'
loop_
 _atom_site_type_symbol
 _atom_site_label
 _atom_site_symmetry_multiplicity
 _atom_site_fract_x
 _atom_site_fract_y
 _atom_site_fract_z
 _atom_site_occupancy
  Sb  Sb0  1  0.350287  0.336552  0.333920  1
  Sb  Sb1  1  0.649713  0.663448  0.666079  1
  H  H2  1  0.731881  0.758251  0.010310  1
  H  H3  1  0.802449  0.724112  0.195445  1
  H  H4  1  0.230068  0.863659  0.291185  1
  H  H5  1  0.949677  0.012996  0.296401  1
  H  H6  1  0.050324  0.987003  0.703601  1
  H  H7  1  0.769933  0.136341  0.708815  1
  H  H8  1  0.197553  0.275888  0.804554  1
  H  H9  1  0.268120  0.241749  0.989690  1
  Pt  Pt10  1  -0.000000  0.000001  0.000001  1
  O  O11  1  0.739400  0.823234  0.089918  1
  O  O12  1  0.109106  0.980880  0.226563  1
  O  O13  1  0.890896  0.019120  0.773438  1
  O  O14  1  0.260603  0.176765  0.910083  1
  F  F15  1  0.226347  0.371158  0.117919  1
  F  F16  1  0.629448  0.467373  0.230697  1
  F  F17  1  0.590967  0.107386  0.327209  1
  F  F18  1  0.110550  0.570840  0.327061  1
  F  F19  1  0.527882  0.707196  0.447818  1
  F  F20  1  0.068139  0.206221  0.437360  1
  F  F21  1  0.931860  0.793778  0.562638  1
  F  F22  1  0.472118  0.292805  0.552183  1
  F  F23  1  0.889451  0.429159  0.672937  1
  F  F24  1  0.409033  0.892612  0.672793  1
  F  F25  1  0.370552  0.532626  0.769302  1
  F  F26  1  0.773655  0.628842  0.882080  1
