# generated using pymatgen
data_Li4Mn3Cu3(WO8)2
_symmetry_space_group_name_H-M   'P 1'
_cell_length_a   5.96257200
_cell_length_b   5.90394276
_cell_length_c   9.90704651
_cell_angle_alpha   89.88744799
_cell_angle_beta   86.06603707
_cell_angle_gamma   119.62445979
_symmetry_Int_Tables_number   1
_chemical_formula_structural   Li4Mn3Cu3(WO8)2
_chemical_formula_sum   'Li4 Mn3 Cu3 W2 O16'
_cell_volume   302.19355346
_cell_formula_units_Z   1
loop_
 _symmetry_equiv_pos_site_id
 _symmetry_equiv_pos_as_xyz
  1  'x, y, z'
loop_
 _atom_site_type_symbol
 _atom_site_label
 _atom_site_symmetry_multiplicity
 _atom_site_fract_x
 _atom_site_fract_y
 _atom_site_fract_z
 _atom_site_occupancy
  Li  Li0  1  0.340323  0.671030  0.914129  1
  Li  Li1  1  0.993183  0.996754  0.986561  1
  Li  Li2  1  0.997030  0.998356  0.479715  1
  Li  Li3  1  0.690467  0.345010  0.407809  1
  Mn  Mn4  1  0.655513  0.827947  0.216590  1
  Mn  Mn5  1  0.828218  0.661448  0.713239  1
  Mn  Mn6  1  0.828741  0.167367  0.713638  1
  Cu  Cu7  1  0.164932  0.830347  0.209761  1
  Cu  Cu8  1  0.164642  0.334467  0.209658  1
  Cu  Cu9  1  0.335605  0.167642  0.712881  1
  W  W10  1  0.341012  0.670042  0.484301  1
  W  W11  1  0.665050  0.334035  0.988060  1
  O  O12  1  0.157739  0.820929  0.579786  1
  O  O13  1  0.061409  0.530109  0.353427  1
  O  O14  1  0.346583  0.673520  0.123597  1
  O  O15  1  0.983830  0.991744  0.292545  1
  O  O16  1  0.988507  0.993521  0.796864  1
  O  O17  1  0.158368  0.334872  0.580561  1
  O  O18  1  0.522675  0.974991  0.351750  1
  O  O19  1  0.522482  0.547048  0.351792  1
  O  O20  1  0.319643  0.159704  0.078765  1
  O  O21  1  0.638344  0.819178  0.588255  1
  O  O22  1  0.536520  0.495743  0.854366  1
  O  O23  1  0.535613  0.042309  0.852927  1
  O  O24  1  0.676799  0.338884  0.620352  1
  O  O25  1  0.785937  0.645010  0.090730  1
  O  O26  1  0.975585  0.487448  0.865794  1
  O  O27  1  0.785251  0.140844  0.089987  1
