# generated using pymatgen
data_LiFeP2O7
_symmetry_space_group_name_H-M   'P 1'
_cell_length_a   9.70418830
_cell_length_b   9.70751558
_cell_length_c   11.09988229
_cell_angle_alpha   89.81947869
_cell_angle_beta   101.84381881
_cell_angle_gamma   90.06063689
_symmetry_Int_Tables_number   1
_chemical_formula_structural   LiFeP2O7
_chemical_formula_sum   'Li8 Fe8 P16 O56'
_cell_volume   1023.38213236
_cell_formula_units_Z   8
loop_
 _symmetry_equiv_pos_site_id
 _symmetry_equiv_pos_as_xyz
  1  'x, y, z'
loop_
 _atom_site_type_symbol
 _atom_site_label
 _atom_site_symmetry_multiplicity
 _atom_site_fract_x
 _atom_site_fract_y
 _atom_site_fract_z
 _atom_site_occupancy
  Li  Li0  1  0.171869  0.424362  0.541993  1
  Li  Li1  1  0.414186  0.597360  0.974217  1
  Li  Li2  1  0.350779  0.934955  0.472279  1
  Li  Li3  1  0.848587  0.585039  0.956865  1
  Li  Li4  1  0.648105  0.101385  0.043112  1
  Li  Li5  1  0.917725  0.900499  0.972808  1
  Li  Li6  1  0.826841  0.585576  0.456712  1
  Li  Li7  1  0.878081  0.278698  0.549072  1
  Fe  Fe8  1  0.203228  0.920306  0.674499  1
  Fe  Fe9  1  0.250342  0.208151  0.828670  1
  Fe  Fe10  1  0.246161  0.717413  0.175615  1
  Fe  Fe11  1  0.297355  0.418262  0.321557  1
  Fe  Fe12  1  0.699632  0.582592  0.671998  1
  Fe  Fe13  1  0.746344  0.287008  0.826783  1
  Fe  Fe14  1  0.745995  0.783631  0.177285  1
  Fe  Fe15  1  0.793174  0.073548  0.331616  1
  P  P16  1  0.023471  0.448974  0.754388  1
  P  P17  1  0.117104  0.710183  0.886406  1
  P  P18  1  0.065323  0.922125  0.240063  1
  P  P19  1  0.121513  0.147013  0.422376  1
  P  P20  1  0.377201  0.646501  0.575823  1
  P  P21  1  0.434173  0.423821  0.763369  1
  P  P22  1  0.521673  0.051902  0.745456  1
  P  P23  1  0.384717  0.209385  0.112276  1
  P  P24  1  0.611981  0.791089  0.885406  1
  P  P25  1  0.474153  0.946205  0.246694  1
  P  P26  1  0.565424  0.577971  0.240010  1
  P  P27  1  0.619684  0.351893  0.421077  1
  P  P28  1  0.877169  0.855859  0.574651  1
  P  P29  1  0.934054  0.076640  0.763223  1
  P  P30  1  0.892098  0.285663  0.112852  1
  P  P31  1  0.976781  0.548970  0.247340  1
  O  O32  1  0.016552  0.419036  0.619851  1
  O  O33  1  0.033389  0.845820  0.570609  1
  O  O34  1  0.086508  0.086941  0.735257  1
  O  O35  1  0.104141  0.592611  0.780889  1
  O  O36  1  0.107498  0.345567  0.843798  1
  O  O37  1  0.176219  0.831753  0.825585  1
  O  O38  1  0.223347  0.656755  0.001564  1
  O  O39  1  0.033324  0.262076  0.088977  1
  O  O40  1  0.116968  0.071484  0.292895  1
  O  O41  1  0.071839  0.911793  0.106682  1
  O  O42  1  0.130283  0.541280  0.221707  1
  O  O43  1  0.179868  0.291663  0.406866  1
  O  O44  1  0.172334  0.816862  0.310058  1
  O  O45  1  0.211987  0.059115  0.522087  1
  O  O46  1  0.285943  0.559991  0.476424  1
  O  O47  1  0.328721  0.315011  0.697259  1
  O  O48  1  0.321570  0.791953  0.593201  1
  O  O49  1  0.368371  0.038299  0.774782  1
  O  O50  1  0.376058  0.570398  0.705471  1
  O  O51  1  0.431758  0.425637  0.897073  1
  O  O52  1  0.471986  0.762932  0.912189  1
  O  O53  1  0.279229  0.158520  0.996279  1
  O  O54  1  0.324913  0.330986  0.174211  1
  O  O55  1  0.394456  0.090191  0.217653  1
  O  O56  1  0.412355  0.588844  0.265234  1
  O  O57  1  0.391104  0.844324  0.152538  1
  O  O58  1  0.467352  0.345921  0.432861  1
  O  O59  1  0.525053  0.085228  0.617003  1
  O  O60  1  0.479780  0.911570  0.377598  1
  O  O61  1  0.532493  0.652461  0.565927  1
  O  O62  1  0.608983  0.146046  0.848982  1
  O  O63  1  0.587362  0.412100  0.734176  1
  O  O64  1  0.599580  0.904111  0.778440  1
  O  O65  1  0.686474  0.669234  0.832687  1
  O  O66  1  0.720320  0.849489  0.001412  1
  O  O67  1  0.528056  0.229158  0.087608  1
  O  O68  1  0.575071  0.590297  0.107074  1
  O  O69  1  0.623007  0.431137  0.293107  1
  O  O70  1  0.627864  0.961983  0.215344  1
  O  O71  1  0.689253  0.213144  0.407359  1
  O  O72  1  0.673298  0.683954  0.310589  1
  O  O73  1  0.717852  0.435993  0.522769  1
  O  O74  1  0.790709  0.935115  0.467663  1
  O  O75  1  0.840966  0.197402  0.700030  1
  O  O76  1  0.818670  0.710713  0.594113  1
  O  O77  1  0.870757  0.467939  0.782855  1
  O  O78  1  0.921563  0.071948  0.894760  1
  O  O79  1  0.869450  0.936128  0.700303  1
  O  O80  1  0.973103  0.728100  0.913741  1
  O  O81  1  0.786489  0.346068  0.995436  1
  O  O82  1  0.816399  0.166162  0.168711  1
  O  O83  1  0.888713  0.647773  0.148790  1
  O  O84  1  0.899280  0.403735  0.218900  1
  O  O85  1  0.910736  0.908956  0.264480  1
  O  O86  1  0.967135  0.159279  0.436900  1
  O  O87  1  0.974221  0.581451  0.377916  1
