# generated using pymatgen
data_V2Sn4H24C8O9
_symmetry_space_group_name_H-M   'P 1'
_cell_length_a   12.84900372
_cell_length_b   13.71636120
_cell_length_c   13.56576508
_cell_angle_alpha   90.00000000
_cell_angle_beta   90.00000000
_cell_angle_gamma   90.00000000
_symmetry_Int_Tables_number   1
_chemical_formula_structural   V2Sn4H24C8O9
_chemical_formula_sum   'V8 Sn16 H96 C32 O36'
_cell_volume   2390.85181848
_cell_formula_units_Z   4
loop_
 _symmetry_equiv_pos_site_id
 _symmetry_equiv_pos_as_xyz
  1  'x, y, z'
loop_
 _atom_site_type_symbol
 _atom_site_label
 _atom_site_symmetry_multiplicity
 _atom_site_fract_x
 _atom_site_fract_y
 _atom_site_fract_z
 _atom_site_occupancy
  V  V0  1  0.476454  0.369871  0.748332  1
  V  V1  1  0.523546  0.630129  0.748332  1
  V  V2  1  0.976454  0.130129  0.751668  1
  V  V3  1  0.023546  0.869871  0.751668  1
  V  V4  1  0.523546  0.630129  0.251668  1
  V  V5  1  0.476454  0.369871  0.251668  1
  V  V6  1  0.023546  0.869871  0.248332  1
  V  V7  1  0.976454  0.130129  0.248332  1
  Sn  Sn8  1  0.130084  0.214869  0.500000  1
  Sn  Sn9  1  0.869916  0.785131  0.500000  1
  Sn  Sn10  1  0.630084  0.285131  0.000000  1
  Sn  Sn11  1  0.369916  0.714869  0.000000  1
  Sn  Sn12  1  0.377814  0.301833  0.500000  1
  Sn  Sn13  1  0.622186  0.698167  0.500000  1
  Sn  Sn14  1  0.877814  0.198167  0.000000  1
  Sn  Sn15  1  0.122186  0.801833  0.000000  1
  Sn  Sn16  1  0.207842  0.269326  0.743860  1
  Sn  Sn17  1  0.792158  0.730674  0.743860  1
  Sn  Sn18  1  0.707842  0.230674  0.756140  1
  Sn  Sn19  1  0.292158  0.769326  0.756140  1
  Sn  Sn20  1  0.792158  0.730674  0.256140  1
  Sn  Sn21  1  0.207842  0.269326  0.256140  1
  Sn  Sn22  1  0.292158  0.769326  0.243860  1
  Sn  Sn23  1  0.707842  0.230674  0.243860  1
  H  H24  1  0.229639  0.042460  0.500000  1
  H  H25  1  0.770361  0.957540  0.500000  1
  H  H26  1  0.729639  0.457540  0.000000  1
  H  H27  1  0.270361  0.542460  0.000000  1
  H  H28  1  0.110350  0.029586  0.566657  1
  H  H29  1  0.889650  0.970414  0.566657  1
  H  H30  1  0.610350  0.470414  0.933343  1
  H  H31  1  0.389650  0.529586  0.933343  1
  H  H32  1  0.889650  0.970414  0.433343  1
  H  H33  1  0.110350  0.029586  0.433343  1
  H  H34  1  0.389650  0.529586  0.066657  1
  H  H35  1  0.610350  0.470414  0.066657  1
  H  H36  1  0.050695  0.396866  0.500000  1
  H  H37  1  0.949305  0.603134  0.500000  1
  H  H38  1  0.550695  0.103134  0.000000  1
  H  H39  1  0.449305  0.896866  0.000000  1
  H  H40  1  0.964672  0.317463  0.433521  1
  H  H41  1  0.035328  0.682537  0.433521  1
  H  H42  1  0.464672  0.182537  0.066479  1
  H  H43  1  0.535328  0.817463  0.066479  1
  H  H44  1  0.035328  0.682537  0.566479  1
  H  H45  1  0.964672  0.317463  0.566479  1
  H  H46  1  0.535328  0.817463  0.933521  1
  H  H47  1  0.464672  0.182537  0.933521  1
  H  H48  1  0.376479  0.104083  0.500000  1
  H  H49  1  0.623521  0.895917  0.500000  1
  H  H50  1  0.876479  0.395917  0.000000  1
  H  H51  1  0.123521  0.604083  0.000000  1
  H  H52  1  0.488206  0.147405  0.434213  1
  H  H53  1  0.511794  0.852595  0.434213  1
  H  H54  1  0.988206  0.352595  0.065787  1
  H  H55  1  0.011794  0.647405  0.065787  1
  H  H56  1  0.511794  0.852595  0.565787  1
  H  H57  1  0.488206  0.147405  0.565787  1
  H  H58  1  0.011794  0.647405  0.934213  1
  H  H59  1  0.988206  0.352595  0.934213  1
  H  H60  1  0.263773  0.467418  0.500000  1
  H  H61  1  0.736227  0.532582  0.500000  1
  H  H62  1  0.763773  0.032582  0.000000  1
  H  H63  1  0.236227  0.967418  0.000000  1
  H  H64  1  0.383294  0.487443  0.565859  1
  H  H65  1  0.616706  0.512557  0.565859  1
  H  H66  1  0.883294  0.012557  0.934141  1
  H  H67  1  0.116706  0.987443  0.934141  1
  H  H68  1  0.616706  0.512557  0.434141  1
  H  H69  1  0.383294  0.487443  0.434141  1
  H  H70  1  0.116706  0.987443  0.065859  1
  H  H71  1  0.883294  0.012557  0.065859  1
  H  H72  1  0.304331  0.097103  0.771629  1
  H  H73  1  0.695669  0.902897  0.771629  1
  H  H74  1  0.804331  0.402897  0.728371  1
  H  H75  1  0.195669  0.597103  0.728371  1
  H  H76  1  0.695669  0.902897  0.228371  1
  H  H77  1  0.304331  0.097103  0.228371  1
  H  H78  1  0.195669  0.597103  0.271629  1
  H  H79  1  0.804331  0.402897  0.271629  1
  H  H80  1  0.306671  0.164324  0.885043  1
  H  H81  1  0.693329  0.835676  0.885043  1
  H  H82  1  0.806671  0.335676  0.614957  1
  H  H83  1  0.193329  0.664324  0.614957  1
  H  H84  1  0.693329  0.835676  0.114957  1
  H  H85  1  0.306671  0.164324  0.114957  1
  H  H86  1  0.193329  0.664324  0.385043  1
  H  H87  1  0.806671  0.335676  0.385043  1
  H  H88  1  0.191041  0.101107  0.848624  1
  H  H89  1  0.808959  0.898893  0.848624  1
  H  H90  1  0.691041  0.398893  0.651376  1
  H  H91  1  0.308959  0.601107  0.651376  1
  H  H92  1  0.808959  0.898893  0.151376  1
  H  H93  1  0.191041  0.101107  0.151376  1
  H  H94  1  0.308959  0.601107  0.348624  1
  H  H95  1  0.691041  0.398893  0.348624  1
  H  H96  1  0.110693  0.441736  0.713831  1
  H  H97  1  0.889307  0.558264  0.713831  1
  H  H98  1  0.610693  0.058264  0.786169  1
  H  H99  1  0.389307  0.941736  0.786169  1
  H  H100  1  0.889307  0.558264  0.286169  1
  H  H101  1  0.110693  0.441736  0.286169  1
  H  H102  1  0.389307  0.941736  0.213831  1
  H  H103  1  0.610693  0.058264  0.213831  1
  H  H104  1  0.037973  0.373171  0.802041  1
  H  H105  1  0.962027  0.626829  0.802041  1
  H  H106  1  0.537973  0.126829  0.697959  1
  H  H107  1  0.462027  0.873171  0.697959  1
  H  H108  1  0.962027  0.626829  0.197959  1
  H  H109  1  0.037973  0.373171  0.197959  1
  H  H110  1  0.462027  0.873171  0.302041  1
  H  H111  1  0.537973  0.126829  0.302041  1
  H  H112  1  0.154251  0.435964  0.839379  1
  H  H113  1  0.845749  0.564036  0.839379  1
  H  H114  1  0.654251  0.064035  0.660621  1
  H  H115  1  0.345749  0.935964  0.660621  1
  H  H116  1  0.845749  0.564036  0.160621  1
  H  H117  1  0.154251  0.435964  0.160621  1
  H  H118  1  0.345749  0.935964  0.339379  1
  H  H119  1  0.654251  0.064035  0.339379  1
  C  C120  1  0.146301  0.059293  0.500000  1
  C  C121  1  0.853699  0.940707  0.500000  1
  C  C122  1  0.646301  0.440707  0.000000  1
  C  C123  1  0.353699  0.559293  0.000000  1
  C  C124  1  0.012056  0.325633  0.500000  1
  C  C125  1  0.987944  0.674367  0.500000  1
  C  C126  1  0.512056  0.174367  0.000000  1
  C  C127  1  0.487944  0.825633  0.000000  1
  C  C128  1  0.440307  0.156732  0.500000  1
  C  C129  1  0.559693  0.843268  0.500000  1
  C  C130  1  0.940307  0.343268  0.000000  1
  C  C131  1  0.059693  0.656732  0.000000  1
  C  C132  1  0.348022  0.455484  0.500000  1
  C  C133  1  0.651978  0.544516  0.500000  1
  C  C134  1  0.848022  0.044516  0.000000  1
  C  C135  1  0.151978  0.955484  0.000000  1
  C  C136  1  0.258459  0.142035  0.822421  1
  C  C137  1  0.741541  0.857965  0.822421  1
  C  C138  1  0.758459  0.357965  0.677579  1
  C  C139  1  0.241541  0.642035  0.677579  1
  C  C140  1  0.741541  0.857965  0.177579  1
  C  C141  1  0.258459  0.142035  0.177579  1
  C  C142  1  0.241541  0.642035  0.322421  1
  C  C143  1  0.758459  0.357965  0.322421  1
  C  C144  1  0.116092  0.395707  0.779715  1
  C  C145  1  0.883908  0.604293  0.779715  1
  C  C146  1  0.616092  0.104293  0.720285  1
  C  C147  1  0.383908  0.895707  0.720285  1
  C  C148  1  0.883908  0.604293  0.220285  1
  C  C149  1  0.116092  0.395707  0.220285  1
  C  C150  1  0.383908  0.895707  0.279715  1
  C  C151  1  0.616092  0.104293  0.279715  1
  O  O152  1  0.246909  0.265303  0.597890  1
  O  O153  1  0.753091  0.734697  0.597890  1
  O  O154  1  0.746909  0.234697  0.902110  1
  O  O155  1  0.253091  0.765303  0.902110  1
  O  O156  1  0.753091  0.734697  0.402110  1
  O  O157  1  0.246909  0.265303  0.402110  1
  O  O158  1  0.253091  0.765303  0.097890  1
  O  O159  1  0.746909  0.234697  0.097890  1
  O  O160  1  0.351004  0.345386  0.784175  1
  O  O161  1  0.648996  0.654614  0.784175  1
  O  O162  1  0.851004  0.154614  0.715825  1
  O  O163  1  0.148996  0.845386  0.715825  1
  O  O164  1  0.648996  0.654614  0.215825  1
  O  O165  1  0.351004  0.345386  0.215825  1
  O  O166  1  0.148996  0.845386  0.284175  1
  O  O167  1  0.851004  0.154614  0.284175  1
  O  O168  1  0.492502  0.330965  0.630825  1
  O  O169  1  0.507498  0.669035  0.630825  1
  O  O170  1  0.992502  0.169035  0.869175  1
  O  O171  1  0.007498  0.830965  0.869175  1
  O  O172  1  0.507498  0.669035  0.369175  1
  O  O173  1  0.492502  0.330965  0.369175  1
  O  O174  1  0.007498  0.830965  0.130825  1
  O  O175  1  0.992502  0.169035  0.130825  1
  O  O176  1  0.567827  0.308070  0.821711  1
  O  O177  1  0.432173  0.691930  0.821711  1
  O  O178  1  0.067827  0.191930  0.678289  1
  O  O179  1  0.932173  0.808070  0.678289  1
  O  O180  1  0.432173  0.691930  0.178289  1
  O  O181  1  0.567827  0.308070  0.178289  1
  O  O182  1  0.932173  0.808070  0.321711  1
  O  O183  1  0.067827  0.191930  0.321711  1
  O  O184  1  0.500000  0.500000  0.756584  1
  O  O185  1  0.000000  0.000000  0.743416  1
  O  O186  1  0.500000  0.500000  0.243416  1
  O  O187  1  0.000000  0.000000  0.256584  1
