# generated using pymatgen
data_KYSiS4
_symmetry_space_group_name_H-M   'P 1'
_cell_length_a   6.42476894
_cell_length_b   6.63912070
_cell_length_c   8.69949043
_cell_angle_alpha   90.00000000
_cell_angle_beta   107.98505975
_cell_angle_gamma   90.00000000
_symmetry_Int_Tables_number   1
_chemical_formula_structural   KYSiS4
_chemical_formula_sum   'K2 Y2 Si2 S8'
_cell_volume   352.94334486
_cell_formula_units_Z   2
loop_
 _symmetry_equiv_pos_site_id
 _symmetry_equiv_pos_as_xyz
  1  'x, y, z'
loop_
 _atom_site_type_symbol
 _atom_site_label
 _atom_site_symmetry_multiplicity
 _atom_site_fract_x
 _atom_site_fract_y
 _atom_site_fract_z
 _atom_site_occupancy
  K  K0  1  0.270013  0.021873  0.064321  1
  K  K1  1  0.729987  0.521873  0.935679  1
  Y  Y2  1  0.769602  0.501140  0.450660  1
  Y  Y3  1  0.230399  0.001141  0.549341  1
  Si  Si4  1  0.218657  0.537735  0.325854  1
  Si  Si5  1  0.781343  0.037734  0.674145  1
  S  S6  1  0.413968  0.536465  0.170528  1
  S  S7  1  0.976922  0.770067  0.279512  1
  S  S8  1  0.020212  0.272629  0.298347  1
  S  S9  1  0.578792  0.093090  0.432882  1
  S  S10  1  0.421207  0.593090  0.567118  1
  S  S11  1  0.979789  0.772629  0.701653  1
  S  S12  1  0.023078  0.270068  0.720488  1
  S  S13  1  0.586032  0.036465  0.829471  1
