# generated using pymatgen
data_Mg2ZnB2Ir5
_symmetry_space_group_name_H-M   'P 1'
_cell_length_a   9.49069203
_cell_length_b   9.49068158
_cell_length_c   2.94724483
_cell_angle_alpha   90.00003032
_cell_angle_beta   89.99999914
_cell_angle_gamma   90.00024438
_symmetry_Int_Tables_number   1
_chemical_formula_structural   Mg2ZnB2Ir5
_chemical_formula_sum   'Mg4 Zn2 B4 Ir10'
_cell_volume   265.46758449
_cell_formula_units_Z   2
loop_
 _symmetry_equiv_pos_site_id
 _symmetry_equiv_pos_as_xyz
  1  'x, y, z'
loop_
 _atom_site_type_symbol
 _atom_site_label
 _atom_site_symmetry_multiplicity
 _atom_site_fract_x
 _atom_site_fract_y
 _atom_site_fract_z
 _atom_site_occupancy
  Mg  Mg0  1  0.323228  0.823228  0.000000  1
  Mg  Mg1  1  0.676774  0.176772  0.000000  1
  Mg  Mg2  1  0.823224  0.676775  0.000000  1
  Mg  Mg3  1  0.176773  0.323226  1.000000  1
  Zn  Zn4  1  -0.000002  1.000000  1.000000  1
  Zn  Zn5  1  0.500001  0.500001  1.000000  1
  B  B6  1  0.126895  0.626895  0.000000  1
  B  B7  1  0.873105  0.373107  1.000000  1
  B  B8  1  0.626895  0.873105  1.000000  1
  B  B9  1  0.373104  0.126897  1.000000  1
  Ir  Ir10  1  0.215629  0.070542  0.500001  1
  Ir  Ir11  1  0.784374  0.929458  0.500000  1
  Ir  Ir12  1  0.715628  0.429458  0.500000  1
  Ir  Ir13  1  0.284369  0.570541  0.500000  1
  Ir  Ir14  1  0.429458  0.284372  0.500000  1
  Ir  Ir15  1  0.570542  0.715628  0.499999  1
  Ir  Ir16  1  0.070542  0.784372  0.500000  1
  Ir  Ir17  1  0.929460  0.215630  0.500000  1
  Ir  Ir18  1  -0.000000  0.499998  0.500000  1
  Ir  Ir19  1  0.500001  -0.000002  0.500001  1
