# generated using pymatgen
data_Na6V2C4SO16
_symmetry_space_group_name_H-M   'P 1'
_cell_length_a   10.00869026
_cell_length_b   10.00869036
_cell_length_c   10.00869026
_cell_angle_alpha   60.00000156
_cell_angle_beta   119.99999909
_cell_angle_gamma   89.99999815
_symmetry_Int_Tables_number   1
_chemical_formula_structural   Na6V2C4SO16
_chemical_formula_sum   'Na12 V4 C8 S2 O32'
_cell_volume   708.95188872
_cell_formula_units_Z   2
loop_
 _symmetry_equiv_pos_site_id
 _symmetry_equiv_pos_as_xyz
  1  'x, y, z'
loop_
 _atom_site_type_symbol
 _atom_site_label
 _atom_site_symmetry_multiplicity
 _atom_site_fract_x
 _atom_site_fract_y
 _atom_site_fract_z
 _atom_site_occupancy
  Na  Na0  1  0.090887  0.659113  0.181773  1
  Na  Na1  1  0.340887  0.340887  0.250000  1
  Na  Na2  1  0.090887  0.090887  0.750000  1
  Na  Na3  1  0.659113  0.090887  0.318227  1
  Na  Na4  1  0.090887  0.659113  0.750000  1
  Na  Na5  1  0.909113  0.340887  0.250000  1
  Na  Na6  1  0.340887  0.909113  0.250000  1
  Na  Na7  1  0.659113  0.090887  0.750000  1
  Na  Na8  1  0.340887  0.909113  0.681773  1
  Na  Na9  1  0.909113  0.340887  0.818227  1
  Na  Na10  1  0.909113  0.909113  0.250000  1
  Na  Na11  1  0.659113  0.659113  0.750000  1
  V  V12  1  0.500000  0.000000  0.000000  1
  V  V13  1  0.000000  0.500000  0.500000  1
  V  V14  1  0.500000  0.500000  0.000000  1
  V  V15  1  0.500000  0.500000  0.500000  1
  C  C16  1  0.342950  0.719016  0.061966  1
  C  C17  1  0.280984  0.280984  0.561966  1
  C  C18  1  0.280984  0.280984  0.938034  1
  C  C19  1  0.280984  0.657050  0.561966  1
  C  C20  1  0.719016  0.342950  0.438034  1
  C  C21  1  0.719016  0.719016  0.061966  1
  C  C22  1  0.657050  0.280984  0.938034  1
  C  C23  1  0.719016  0.719016  0.438034  1
  S  S24  1  0.125000  0.125000  0.250000  1
  S  S25  1  0.875000  0.875000  0.750000  1
  O  O26  1  0.063877  0.063877  0.127755  1
  O  O27  1  0.063877  0.063877  0.372245  1
  O  O28  1  0.063877  0.308368  0.127755  1
  O  O29  1  0.397959  0.140990  0.057159  1
  O  O30  1  0.308368  0.063877  0.372245  1
  O  O31  1  0.140990  0.397959  0.442841  1
  O  O32  1  0.659202  0.301849  0.057159  1
  O  O33  1  0.301849  0.140990  0.699808  1
  O  O34  1  0.340798  0.602041  0.199808  1
  O  O35  1  0.602041  0.340798  0.300192  1
  O  O36  1  0.140990  0.301849  0.800192  1
  O  O37  1  0.397959  0.301849  0.538949  1
  O  O38  1  0.340798  0.859010  0.038949  1
  O  O39  1  0.698151  0.602041  0.038949  1
  O  O40  1  0.140990  0.659202  0.538949  1
  O  O41  1  0.301849  0.659202  0.442841  1
  O  O42  1  0.698151  0.340798  0.557159  1
  O  O43  1  0.301849  0.397959  0.961051  1
  O  O44  1  0.859010  0.340798  0.461051  1
  O  O45  1  0.659202  0.140990  0.961051  1
  O  O46  1  0.602041  0.698151  0.461051  1
  O  O47  1  0.859010  0.698151  0.199808  1
  O  O48  1  0.397959  0.659202  0.699808  1
  O  O49  1  0.659202  0.397959  0.800192  1
  O  O50  1  0.698151  0.859010  0.300192  1
  O  O51  1  0.340798  0.698151  0.942841  1
  O  O52  1  0.859010  0.602041  0.557159  1
  O  O53  1  0.691632  0.936123  0.627755  1
  O  O54  1  0.602041  0.859010  0.942841  1
  O  O55  1  0.936123  0.691632  0.872245  1
  O  O56  1  0.936123  0.936123  0.627755  1
  O  O57  1  0.936123  0.936123  0.872245  1
