# generated using pymatgen
data_Li4Ni(PO3)6
_symmetry_space_group_name_H-M   'P 1'
_cell_length_a   7.60253057
_cell_length_b   7.30581844
_cell_length_c   7.46753065
_cell_angle_alpha   65.58497505
_cell_angle_beta   105.77707063
_cell_angle_gamma   80.49888973
_symmetry_Int_Tables_number   1
_chemical_formula_structural   Li4Ni(PO3)6
_chemical_formula_sum   'Li4 Ni1 P6 O18'
_cell_volume   344.74862673
_cell_formula_units_Z   1
loop_
 _symmetry_equiv_pos_site_id
 _symmetry_equiv_pos_as_xyz
  1  'x, y, z'
loop_
 _atom_site_type_symbol
 _atom_site_label
 _atom_site_symmetry_multiplicity
 _atom_site_fract_x
 _atom_site_fract_y
 _atom_site_fract_z
 _atom_site_occupancy
  Li  Li0  1  0.142552  0.640310  0.539278  1
  Li  Li1  1  0.545310  0.522907  0.012380  1
  Li  Li2  1  0.841488  0.371967  0.442472  1
  Li  Li3  1  0.885721  0.771373  0.072790  1
  Ni  Ni4  1  0.159053  0.225045  0.922629  1
  P  P5  1  0.233884  0.970796  0.697204  1
  P  P6  1  0.206539  0.328743  0.317683  1
  P  P7  1  0.485400  0.219765  0.724883  1
  P  P8  1  0.501144  0.791731  0.267596  1
  P  P9  1  0.781879  0.661488  0.685488  1
  P  P10  1  0.780900  0.014793  0.312467  1
  O  O11  1  0.080640  0.099182  0.732311  1
  O  O12  1  0.055231  0.491425  0.316531  1
  O  O13  1  0.191420  0.095130  0.445711  1
  O  O14  1  0.262473  0.742547  0.763078  1
  O  O15  1  0.343062  0.353282  0.768949  1
  O  O16  1  0.441470  0.993773  0.796688  1
  O  O17  1  0.221215  0.349155  0.115236  1
  O  O18  1  0.285778  0.887421  0.165403  1
  O  O19  1  0.414857  0.312732  0.467633  1
  O  O20  1  0.571218  0.692590  0.524869  1
  O  O21  1  0.694595  0.181273  0.813029  1
  O  O22  1  0.764376  0.637810  0.887153  1
  O  O23  1  0.575734  0.996175  0.201060  1
  O  O24  1  0.606440  0.629678  0.226557  1
  O  O25  1  0.750436  0.242712  0.253494  1
  O  O26  1  0.808924  0.889927  0.562691  1
  O  O27  1  0.934054  0.497003  0.685046  1
  O  O28  1  0.934206  0.889270  0.279691  1
