# generated using pymatgen
data_LiMnP2O7
_symmetry_space_group_name_H-M   'P 1'
_cell_length_a   6.22504519
_cell_length_b   7.15995665
_cell_length_c   6.28250511
_cell_angle_alpha   68.03181982
_cell_angle_beta   80.73530934
_cell_angle_gamma   75.93571979
_symmetry_Int_Tables_number   1
_chemical_formula_structural   LiMnP2O7
_chemical_formula_sum   'Li2 Mn2 P4 O14'
_cell_volume   251.13614486
_cell_formula_units_Z   2
loop_
 _symmetry_equiv_pos_site_id
 _symmetry_equiv_pos_as_xyz
  1  'x, y, z'
loop_
 _atom_site_type_symbol
 _atom_site_label
 _atom_site_symmetry_multiplicity
 _atom_site_fract_x
 _atom_site_fract_y
 _atom_site_fract_z
 _atom_site_occupancy
  Li  Li0  1  0.336491  0.162266  0.914237  1
  Li  Li1  1  0.663509  0.837734  0.085763  1
  Mn  Mn2  1  0.058885  0.779574  0.736198  1
  Mn  Mn3  1  0.941115  0.220426  0.263802  1
  P  P4  1  0.179812  0.751104  0.220568  1
  P  P5  1  0.392968  0.296466  0.369516  1
  P  P6  1  0.607032  0.703534  0.630484  1
  P  P7  1  0.820188  0.248896  0.779432  1
  O  O8  1  0.992103  0.262569  0.926794  1
  O  O9  1  0.057697  0.857378  0.398262  1
  O  O10  1  0.248442  0.268392  0.205750  1
  O  O11  1  0.270706  0.523232  0.387765  1
  O  O12  1  0.352248  0.861923  0.070314  1
  O  O13  1  0.386419  0.149673  0.608874  1
  O  O14  1  0.376332  0.667979  0.751867  1
  O  O15  1  0.623668  0.332021  0.248133  1
  O  O16  1  0.613581  0.850327  0.391126  1
  O  O17  1  0.647752  0.138077  0.929686  1
  O  O18  1  0.729294  0.476768  0.612235  1
  O  O19  1  0.751558  0.731608  0.794250  1
  O  O20  1  0.942303  0.142622  0.601738  1
  O  O21  1  0.007897  0.737431  0.073206  1
