# generated using pymatgen
data_Li2VF6
_symmetry_space_group_name_H-M   'P 1'
_cell_length_a   5.55682556
_cell_length_b   5.55682547
_cell_length_c   8.61522679
_cell_angle_alpha   89.99990391
_cell_angle_beta   90.00010006
_cell_angle_gamma   58.50090686
_symmetry_Int_Tables_number   1
_chemical_formula_structural   Li2VF6
_chemical_formula_sum   'Li4 V2 F12'
_cell_volume   226.82464162
_cell_formula_units_Z   2
loop_
 _symmetry_equiv_pos_site_id
 _symmetry_equiv_pos_as_xyz
  1  'x, y, z'
loop_
 _atom_site_type_symbol
 _atom_site_label
 _atom_site_symmetry_multiplicity
 _atom_site_fract_x
 _atom_site_fract_y
 _atom_site_fract_z
 _atom_site_occupancy
  Li  Li0  1  0.068270  0.067587  0.977363  1
  Li  Li1  1  0.229914  0.230785  0.469243  1
  Li  Li2  1  0.769215  0.770086  0.969243  1
  Li  Li3  1  0.932413  0.931730  0.477363  1
  V  V4  1  0.384162  0.384216  0.759662  1
  V  V5  1  0.615784  0.615838  0.259662  1
  F  F6  1  0.197601  0.194359  0.805882  1
  F  F7  1  0.109121  0.578223  0.598988  1
  F  F8  1  0.149624  0.665146  0.910265  1
  F  F9  1  0.578061  0.111720  0.597910  1
  F  F10  1  0.334854  0.850376  0.410265  1
  F  F11  1  0.562729  0.565760  0.721484  1
  F  F12  1  0.434240  0.437271  0.221484  1
  F  F13  1  0.667223  0.149109  0.909204  1
  F  F14  1  0.421777  0.890879  0.098988  1
  F  F15  1  0.850891  0.332777  0.409204  1
  F  F16  1  0.888280  0.421939  0.097910  1
  F  F17  1  0.805641  0.802399  0.305882  1
