# generated using pymatgen
data_Li2Cr(PO3)5
_symmetry_space_group_name_H-M   'P 1'
_cell_length_a   6.71896034
_cell_length_b   6.71896034
_cell_length_c   13.49164202
_cell_angle_alpha   83.10257468
_cell_angle_beta   96.89742532
_cell_angle_gamma   68.77576609
_symmetry_Int_Tables_number   1
_chemical_formula_structural   Li2Cr(PO3)5
_chemical_formula_sum   'Li4 Cr2 P10 O30'
_cell_volume   554.77637806
_cell_formula_units_Z   2
loop_
 _symmetry_equiv_pos_site_id
 _symmetry_equiv_pos_as_xyz
  1  'x, y, z'
loop_
 _atom_site_type_symbol
 _atom_site_label
 _atom_site_symmetry_multiplicity
 _atom_site_fract_x
 _atom_site_fract_y
 _atom_site_fract_z
 _atom_site_occupancy
  Li  Li0  1  0.229624  0.267708  0.723384  1
  Li  Li1  1  0.732292  0.770376  0.223384  1
  Li  Li2  1  0.811173  0.472833  0.564687  1
  Li  Li3  1  0.527167  0.188827  0.064687  1
  Cr  Cr4  1  0.817358  0.914253  0.777448  1
  Cr  Cr5  1  0.085747  0.182642  0.277448  1
  P  P6  1  0.658570  0.958984  0.529798  1
  P  P7  1  0.292533  0.584650  0.557193  1
  P  P8  1  0.378225  0.810445  0.831134  1
  P  P9  1  0.041016  0.341430  0.029798  1
  P  P10  1  0.415350  0.707467  0.057193  1
  P  P11  1  0.189555  0.621775  0.331134  1
  P  P12  1  0.178205  0.085867  0.527795  1
  P  P13  1  0.914133  0.821795  0.027795  1
  P  P14  1  0.765222  0.423190  0.828036  1
  P  P15  1  0.576810  0.234778  0.328036  1
  O  O16  1  0.143003  0.853292  0.798273  1
  O  O17  1  0.146708  0.856997  0.298273  1
  O  O18  1  0.179729  0.520155  0.635336  1
  O  O19  1  0.479845  0.820271  0.135336  1
  O  O20  1  0.208710  0.843306  0.540540  1
  O  O21  1  0.156694  0.791290  0.040540  1
  O  O22  1  0.434419  0.827095  0.946560  1
  O  O23  1  0.172905  0.565581  0.446560  1
  O  O24  1  0.470323  0.957035  0.771760  1
  O  O25  1  0.042965  0.529677  0.271760  1
  O  O26  1  0.236843  0.307188  0.982624  1
  O  O27  1  0.692812  0.763157  0.482624  1
  O  O28  1  0.806942  0.918374  0.918656  1
  O  O29  1  0.531238  0.479720  0.566801  1
  O  O30  1  0.081626  0.193058  0.418656  1
  O  O31  1  0.510380  0.559700  0.824579  1
  O  O32  1  0.520280  0.468762  0.066801  1
  O  O33  1  0.440300  0.489620  0.324579  1
  O  O34  1  0.057419  0.196573  0.603971  1
  O  O35  1  0.803427  0.942581  0.103971  1
  O  O36  1  0.418116  0.080668  0.550902  1
  O  O37  1  0.919332  0.581884  0.050902  1
  O  O38  1  0.867556  0.579970  0.790226  1
  O  O39  1  0.420030  0.132444  0.290226  1
  O  O40  1  0.855155  0.321831  0.946271  1
  O  O41  1  0.678169  0.144845  0.446271  1
  O  O42  1  0.778350  0.240539  0.770907  1
  O  O43  1  0.759461  0.221650  0.270906  1
  O  O44  1  0.799794  0.940292  0.628921  1
  O  O45  1  0.059708  0.200206  0.128921  1
