# generated using pymatgen
data_CaSnS3
_symmetry_space_group_name_H-M   'P 1'
_cell_length_a   12.32244492
_cell_length_b   13.00183036
_cell_length_c   17.19045011
_cell_angle_alpha   79.10423108
_cell_angle_beta   86.54603464
_cell_angle_gamma   65.48717883
_symmetry_Int_Tables_number   1
_chemical_formula_structural   CaSnS3
_chemical_formula_sum   'Ca18 Sn18 S54'
_cell_volume   2460.23577733
_cell_formula_units_Z   18
loop_
 _symmetry_equiv_pos_site_id
 _symmetry_equiv_pos_as_xyz
  1  'x, y, z'
loop_
 _atom_site_type_symbol
 _atom_site_label
 _atom_site_symmetry_multiplicity
 _atom_site_fract_x
 _atom_site_fract_y
 _atom_site_fract_z
 _atom_site_occupancy
  Ca  Ca0  1  0.556062  0.894524  0.887905  1
  Ca  Ca1  1  0.443938  0.105476  0.112095  1
  Ca  Ca2  1  0.318108  0.892858  0.251265  1
  Ca  Ca3  1  0.681892  0.107142  0.748735  1
  Ca  Ca4  1  0.963818  0.821636  0.637096  1
  Ca  Ca5  1  0.036182  0.178364  0.362904  1
  Ca  Ca6  1  0.618971  0.371818  0.956258  1
  Ca  Ca7  1  0.381029  0.628182  0.043742  1
  Ca  Ca8  1  0.233822  0.446143  0.247151  1
  Ca  Ca9  1  0.766178  0.553857  0.752849  1
  Ca  Ca10  1  0.902377  0.379327  0.531074  1
  Ca  Ca11  1  0.097623  0.620673  0.468926  1
  Ca  Ca12  1  0.779093  0.009877  0.001399  1
  Ca  Ca13  1  0.220907  0.990123  0.998601  1
  Ca  Ca14  1  0.483705  0.045358  0.371738  1
  Ca  Ca15  1  0.516295  0.954642  0.628262  1
  Ca  Ca16  1  0.087634  0.077370  0.696901  1
  Ca  Ca17  1  0.912366  0.922630  0.303099  1
  Sn  Sn18  1  0.568334  0.242486  0.225924  1
  Sn  Sn19  1  0.431666  0.757514  0.774076  1
  Sn  Sn20  1  0.250128  0.286996  0.511522  1
  Sn  Sn21  1  0.749872  0.713004  0.488478  1
  Sn  Sn22  1  0.988385  0.293885  0.882753  1
  Sn  Sn23  1  0.011615  0.706115  0.117247  1
  Sn  Sn24  1  0.833229  0.468014  0.060759  1
  Sn  Sn25  1  0.166771  0.531986  0.939241  1
  Sn  Sn26  1  0.482960  0.444669  0.392709  1
  Sn  Sn27  1  0.517040  0.555331  0.607291  1
  Sn  Sn28  1  0.142395  0.520189  0.687878  1
  Sn  Sn29  1  0.857605  0.479811  0.312122  1
  Sn  Sn30  1  0.684020  0.799518  0.168898  1
  Sn  Sn31  1  0.315980  0.200482  0.831102  1
  Sn  Sn32  1  0.281720  0.852833  0.489327  1
  Sn  Sn33  1  0.718280  0.147167  0.510673  1
  Sn  Sn34  1  0.996286  0.780971  0.875136  1
  Sn  Sn35  1  0.003714  0.219029  0.124864  1
  S  S36  1  0.378917  0.220810  0.241491  1
  S  S37  1  0.621083  0.779190  0.758509  1
  S  S38  1  0.117269  0.191499  0.520744  1
  S  S39  1  0.882731  0.808501  0.479256  1
  S  S40  1  0.748702  0.217234  0.852991  1
  S  S41  1  0.251298  0.782766  0.147009  1
  S  S42  1  0.615044  0.204532  0.091438  1
  S  S43  1  0.384956  0.795468  0.908562  1
  S  S44  1  0.263096  0.440259  0.406909  1
  S  S45  1  0.736904  0.559741  0.593091  1
  S  S46  1  0.166112  0.116930  0.837328  1
  S  S47  1  0.833888  0.883070  0.162672  1
  S  S48  1  0.686524  0.098649  0.337082  1
  S  S49  1  0.313476  0.901351  0.662918  1
  S  S50  1  0.452937  0.156131  0.514220  1
  S  S51  1  0.547063  0.843869  0.485780  1
  S  S52  1  0.916991  0.321758  0.748326  1
  S  S53  1  0.083009  0.678242  0.251674  1
  S  S54  1  0.856732  0.654109  0.059027  1
  S  S55  1  0.143268  0.345891  0.940973  1
  S  S56  1  0.379610  0.680147  0.362374  1
  S  S57  1  0.620390  0.319853  0.637626  1
  S  S58  1  0.197072  0.655172  0.598925  1
  S  S59  1  0.802928  0.344828  0.401075  1
  S  S60  1  0.628469  0.491202  0.074201  1
  S  S61  1  0.371531  0.508798  0.925799  1
  S  S62  1  0.480182  0.446859  0.242078  1
  S  S63  1  0.519818  0.553141  0.757922  1
  S  S64  1  0.957265  0.629260  0.745694  1
  S  S65  1  0.042735  0.370740  0.254306  1
  S  S66  1  0.809125  0.462752  0.916772  1
  S  S67  1  0.190875  0.537248  0.083228  1
  S  S68  1  0.681514  0.613754  0.235503  1
  S  S69  1  0.318486  0.386246  0.764497  1
  S  S70  1  0.097944  0.421960  0.591840  1
  S  S71  1  0.902056  0.578040  0.408160  1
  S  S72  1  0.599369  0.913672  0.042418  1
  S  S73  1  0.400631  0.086328  0.957582  1
  S  S74  1  0.270149  0.014459  0.375860  1
  S  S75  1  0.729851  0.985541  0.624140  1
  S  S76  1  0.075878  0.863799  0.761558  1
  S  S77  1  0.924122  0.136201  0.238442  1
  S  S78  1  0.530974  0.922797  0.246572  1
  S  S79  1  0.469026  0.077203  0.753428  1
  S  S80  1  0.059992  0.967563  0.547880  1
  S  S81  1  0.940008  0.032437  0.452120  1
  S  S82  1  0.784158  0.902092  0.868104  1
  S  S83  1  0.215841  0.097908  0.131896  1
  S  S84  1  0.400734  0.809822  0.104129  1
  S  S85  1  0.599266  0.190178  0.895871  1
  S  S86  1  0.197850  0.770699  0.383254  1
  S  S87  1  0.802150  0.229301  0.616746  1
  S  S88  1  0.033757  0.847638  0.999111  1
  S  S89  1  0.966243  0.152362  0.000889  1
