# generated using pymatgen
data_MnOF
_symmetry_space_group_name_H-M   'P 1'
_cell_length_a   9.31606668
_cell_length_b   5.74311974
_cell_length_c   5.12794786
_cell_angle_alpha   90.00000000
_cell_angle_beta   88.84383876
_cell_angle_gamma   90.00000000
_symmetry_Int_Tables_number   1
_chemical_formula_structural   MnOF
_chemical_formula_sum   'Mn8 O8 F8'
_cell_volume   274.30620728
_cell_formula_units_Z   8
loop_
 _symmetry_equiv_pos_site_id
 _symmetry_equiv_pos_as_xyz
  1  'x, y, z'
loop_
 _atom_site_type_symbol
 _atom_site_label
 _atom_site_symmetry_multiplicity
 _atom_site_fract_x
 _atom_site_fract_y
 _atom_site_fract_z
 _atom_site_occupancy
  Mn  Mn0  1  0.991108  0.150871  0.260547  1
  Mn  Mn1  1  0.008892  0.849129  0.739453  1
  Mn  Mn2  1  0.250000  0.405336  0.750000  1
  Mn  Mn3  1  0.250000  0.698657  0.250000  1
  Mn  Mn4  1  0.491108  0.849129  0.760547  1
  Mn  Mn5  1  0.508892  0.150871  0.239453  1
  Mn  Mn6  1  0.750000  0.301343  0.750000  1
  Mn  Mn7  1  0.750000  0.594664  0.250000  1
  O  O8  1  0.113307  0.910490  0.414118  1
  O  O9  1  0.143630  0.646849  0.928676  1
  O  O10  1  0.356370  0.646849  0.571324  1
  O  O11  1  0.386693  0.910490  0.085882  1
  O  O12  1  0.613307  0.089510  0.914118  1
  O  O13  1  0.643630  0.353151  0.428676  1
  O  O14  1  0.856370  0.353151  0.071324  1
  O  O15  1  0.886693  0.089510  0.585882  1
  F  F16  1  0.120709  0.157116  0.927340  1
  F  F17  1  0.128755  0.418586  0.404615  1
  F  F18  1  0.371245  0.418586  0.095385  1
  F  F19  1  0.379291  0.157116  0.572660  1
  F  F20  1  0.620709  0.842884  0.427340  1
  F  F21  1  0.628755  0.581414  0.904615  1
  F  F22  1  0.871245  0.581414  0.595385  1
  F  F23  1  0.879291  0.842884  0.072660  1
