# generated using pymatgen
data_CuBiPtS3
_symmetry_space_group_name_H-M   'P 1'
_cell_length_a   7.78113505
_cell_length_b   12.69328866
_cell_length_c   4.96325228
_cell_angle_alpha   89.99846636
_cell_angle_beta   89.99969703
_cell_angle_gamma   90.00387220
_symmetry_Int_Tables_number   1
_chemical_formula_structural   CuBiPtS3
_chemical_formula_sum   'Cu4 Bi4 Pt4 S12'
_cell_volume   490.21145951
_cell_formula_units_Z   4
loop_
 _symmetry_equiv_pos_site_id
 _symmetry_equiv_pos_as_xyz
  1  'x, y, z'
loop_
 _atom_site_type_symbol
 _atom_site_label
 _atom_site_symmetry_multiplicity
 _atom_site_fract_x
 _atom_site_fract_y
 _atom_site_fract_z
 _atom_site_occupancy
  Cu  Cu0  1  0.386100  0.441119  0.972835  1
  Cu  Cu1  1  0.113884  0.558925  0.472839  1
  Cu  Cu2  1  0.886132  0.058901  0.027097  1
  Cu  Cu3  1  0.613873  0.941058  0.527098  1
  Bi  Bi4  1  0.384617  0.131424  0.899156  1
  Bi  Bi5  1  0.115390  0.868574  0.399159  1
  Bi  Bi6  1  0.884629  0.368597  0.100840  1
  Bi  Bi7  1  0.615372  0.631400  0.600845  1
  Pt  Pt8  1  0.136184  0.249135  0.504979  1
  Pt  Pt9  1  0.363833  0.750869  0.004980  1
  Pt  Pt10  1  0.636136  0.250914  0.495022  1
  Pt  Pt11  1  0.863854  0.749088  0.995023  1
  S  S12  1  0.132788  0.088341  0.259636  1
  S  S13  1  0.367233  0.911655  0.759621  1
  S  S14  1  0.632705  0.411662  0.740459  1
  S  S15  1  0.867271  0.588334  0.240436  1
  S  S16  1  0.384667  0.296575  0.258882  1
  S  S17  1  0.115333  0.703437  0.758905  1
  S  S18  1  0.884664  0.203479  0.741087  1
  S  S19  1  0.615338  0.796524  0.241085  1
  S  S20  1  0.138694  0.412352  0.734929  1
  S  S21  1  0.361325  0.587647  0.234909  1
  S  S22  1  0.638616  0.087675  0.265110  1
  S  S23  1  0.861362  0.912312  0.765069  1
