# generated using pymatgen
data_Fe4O3F5
_symmetry_space_group_name_H-M   'P 1'
_cell_length_a   4.81504640
_cell_length_b   10.09325150
_cell_length_c   6.16886336
_cell_angle_alpha   72.21623129
_cell_angle_beta   89.80645538
_cell_angle_gamma   88.89699312
_symmetry_Int_Tables_number   1
_chemical_formula_structural   Fe4O3F5
_chemical_formula_sum   'Fe8 O6 F10'
_cell_volume   285.42380836
_cell_formula_units_Z   2
loop_
 _symmetry_equiv_pos_site_id
 _symmetry_equiv_pos_as_xyz
  1  'x, y, z'
loop_
 _atom_site_type_symbol
 _atom_site_label
 _atom_site_symmetry_multiplicity
 _atom_site_fract_x
 _atom_site_fract_y
 _atom_site_fract_z
 _atom_site_occupancy
  Fe  Fe0  1  0.426819  0.245476  0.626438  1
  Fe  Fe1  1  0.533908  0.728614  0.887275  1
  Fe  Fe2  1  0.573182  0.754524  0.373562  1
  Fe  Fe3  1  0.466092  0.271386  0.112725  1
  Fe  Fe4  1  0.000000  0.000000  0.500000  1
  Fe  Fe5  1  0.998524  0.500320  0.734065  1
  Fe  Fe6  1  0.000000  0.000000  0.000000  1
  Fe  Fe7  1  0.001476  0.499680  0.265935  1
  O  O8  1  0.822447  0.907690  0.309236  1
  O  O9  1  0.714251  0.649702  0.175654  1
  O  O10  1  0.705908  0.647723  0.676339  1
  O  O11  1  0.285749  0.350298  0.824346  1
  O  O12  1  0.294092  0.352277  0.323661  1
  O  O13  1  0.177553  0.092310  0.690764  1
  F  F14  1  0.785966  0.389911  0.554358  1
  F  F15  1  0.797871  0.399132  0.050421  1
  F  F16  1  0.784964  0.898636  0.786297  1
  F  F17  1  0.686103  0.156932  0.416236  1
  F  F18  1  0.669557  0.159564  0.922610  1
  F  F19  1  0.330443  0.840436  0.077390  1
  F  F20  1  0.313897  0.843068  0.583764  1
  F  F21  1  0.202129  0.600868  0.949579  1
  F  F22  1  0.215036  0.101364  0.213703  1
  F  F23  1  0.214034  0.610089  0.445642  1
