# generated using pymatgen
data_LiMn4(PO4)3
_symmetry_space_group_name_H-M   'P 1'
_cell_length_a   13.57957409
_cell_length_b   8.56627754
_cell_length_c   10.15987749
_cell_angle_alpha   90.00000000
_cell_angle_beta   90.00000000
_cell_angle_gamma   90.00000000
_symmetry_Int_Tables_number   1
_chemical_formula_structural   LiMn4(PO4)3
_chemical_formula_sum   'Li4 Mn16 P12 O48'
_cell_volume   1181.86197824
_cell_formula_units_Z   4
loop_
 _symmetry_equiv_pos_site_id
 _symmetry_equiv_pos_as_xyz
  1  'x, y, z'
loop_
 _atom_site_type_symbol
 _atom_site_label
 _atom_site_symmetry_multiplicity
 _atom_site_fract_x
 _atom_site_fract_y
 _atom_site_fract_z
 _atom_site_occupancy
  Li  Li0  1  0.250000  0.750000  0.704345  1
  Li  Li1  1  0.250000  0.750000  0.204345  1
  Li  Li2  1  0.750000  0.250000  0.295655  1
  Li  Li3  1  0.750000  0.250000  0.795655  1
  Mn  Mn4  1  0.044882  0.095018  0.189957  1
  Mn  Mn5  1  0.044882  0.404982  0.689957  1
  Mn  Mn6  1  0.147842  0.418263  0.996235  1
  Mn  Mn7  1  0.147842  0.081737  0.496235  1
  Mn  Mn8  1  0.352158  0.418263  0.496235  1
  Mn  Mn9  1  0.352158  0.081737  0.996235  1
  Mn  Mn10  1  0.455118  0.095018  0.689957  1
  Mn  Mn11  1  0.455118  0.404982  0.189957  1
  Mn  Mn12  1  0.544882  0.595018  0.810043  1
  Mn  Mn13  1  0.544882  0.904982  0.310043  1
  Mn  Mn14  1  0.647842  0.581737  0.503765  1
  Mn  Mn15  1  0.647842  0.918263  0.003765  1
  Mn  Mn16  1  0.852158  0.581737  0.003765  1
  Mn  Mn17  1  0.852158  0.918263  0.503765  1
  Mn  Mn18  1  0.955118  0.595018  0.310043  1
  Mn  Mn19  1  0.955118  0.904982  0.810043  1
  P  P20  1  0.074959  0.752491  0.071724  1
  P  P21  1  0.074959  0.747509  0.571724  1
  P  P22  1  0.250000  0.250000  0.250316  1
  P  P23  1  0.250000  0.250000  0.750317  1
  P  P24  1  0.425041  0.747509  0.071724  1
  P  P25  1  0.425041  0.752491  0.571724  1
  P  P26  1  0.574959  0.247509  0.428276  1
  P  P27  1  0.574959  0.252491  0.928276  1
  P  P28  1  0.750000  0.750000  0.249684  1
  P  P29  1  0.750000  0.750000  0.749683  1
  P  P30  1  0.925041  0.247509  0.928276  1
  P  P31  1  0.925041  0.252491  0.428276  1
  O  O32  1  0.019276  0.151640  0.391780  1
  O  O33  1  0.019276  0.348360  0.891780  1
  O  O34  1  0.058514  0.664916  0.439961  1
  O  O35  1  0.058514  0.835084  0.939961  1
  O  O36  1  0.097070  0.869872  0.184184  1
  O  O37  1  0.097070  0.630128  0.684184  1
  O  O38  1  0.163681  0.638425  0.069461  1
  O  O39  1  0.163681  0.861575  0.569461  1
  O  O40  1  0.158009  0.264080  0.156144  1
  O  O41  1  0.158009  0.235920  0.656144  1
  O  O42  1  0.238099  0.102233  0.334164  1
  O  O43  1  0.238099  0.397767  0.834164  1
  O  O44  1  0.261901  0.102233  0.834164  1
  O  O45  1  0.261901  0.397767  0.334164  1
  O  O46  1  0.341991  0.264080  0.656144  1
  O  O47  1  0.341991  0.235920  0.156144  1
  O  O48  1  0.336319  0.861575  0.069461  1
  O  O49  1  0.336319  0.638425  0.569461  1
  O  O50  1  0.402930  0.869872  0.684184  1
  O  O51  1  0.402930  0.630128  0.184184  1
  O  O52  1  0.441486  0.835084  0.439961  1
  O  O53  1  0.441486  0.664916  0.939961  1
  O  O54  1  0.480724  0.348360  0.391780  1
  O  O55  1  0.480724  0.151640  0.891780  1
  O  O56  1  0.519276  0.651640  0.608220  1
  O  O57  1  0.519276  0.848360  0.108220  1
  O  O58  1  0.558514  0.164916  0.560039  1
  O  O59  1  0.558514  0.335084  0.060039  1
  O  O60  1  0.597070  0.130128  0.315816  1
  O  O61  1  0.597070  0.369872  0.815816  1
  O  O62  1  0.663681  0.138425  0.930539  1
  O  O63  1  0.663681  0.361575  0.430539  1
  O  O64  1  0.658009  0.735920  0.343856  1
  O  O65  1  0.658009  0.764080  0.843856  1
  O  O66  1  0.738099  0.602233  0.665836  1
  O  O67  1  0.738099  0.897767  0.165836  1
  O  O68  1  0.761901  0.602233  0.165836  1
  O  O69  1  0.761901  0.897767  0.665836  1
  O  O70  1  0.841991  0.735920  0.843856  1
  O  O71  1  0.841991  0.764080  0.343856  1
  O  O72  1  0.836319  0.138425  0.430539  1
  O  O73  1  0.836319  0.361575  0.930539  1
  O  O74  1  0.902930  0.130128  0.815816  1
  O  O75  1  0.902930  0.369872  0.315816  1
  O  O76  1  0.941486  0.164916  0.060039  1
  O  O77  1  0.941486  0.335084  0.560039  1
  O  O78  1  0.980724  0.651640  0.108220  1
  O  O79  1  0.980724  0.848360  0.608220  1
