# generated using pymatgen
data_Ca3Sn2S7
_symmetry_space_group_name_H-M   'P 1'
_cell_length_a   5.00451196
_cell_length_b   5.00451196
_cell_length_c   12.25480916
_cell_angle_alpha   101.78183100
_cell_angle_beta   101.78183100
_cell_angle_gamma   90.00000000
_symmetry_Int_Tables_number   1
_chemical_formula_structural   Ca3Sn2S7
_chemical_formula_sum   'Ca3 Sn2 S7'
_cell_volume   293.84874420
_cell_formula_units_Z   1
loop_
 _symmetry_equiv_pos_site_id
 _symmetry_equiv_pos_as_xyz
  1  'x, y, z'
loop_
 _atom_site_type_symbol
 _atom_site_label
 _atom_site_symmetry_multiplicity
 _atom_site_fract_x
 _atom_site_fract_y
 _atom_site_fract_z
 _atom_site_occupancy
  Ca  Ca0  1  0.500000  0.500000  0.000000  1
  Ca  Ca1  1  0.328230  0.328230  0.656460  1
  Ca  Ca2  1  0.671770  0.671770  0.343540  1
  Sn  Sn3  1  0.111290  0.111290  0.222581  1
  Sn  Sn4  1  0.888710  0.888710  0.777419  1
  S  S5  1  0.000000  0.000000  0.000000  1
  S  S6  1  0.590259  0.090259  0.180519  1
  S  S7  1  0.090259  0.590259  0.180519  1
  S  S8  1  0.409741  0.909741  0.819481  1
  S  S9  1  0.909741  0.409741  0.819481  1
  S  S10  1  0.213461  0.213461  0.426922  1
  S  S11  1  0.786539  0.786539  0.573078  1
