# generated using pymatgen
data_Zr5Ti7O24
_symmetry_space_group_name_H-M   'P 1'
_cell_length_a   4.81217188
_cell_length_b   5.65111077
_cell_length_c   15.21061423
_cell_angle_alpha   90.00000000
_cell_angle_beta   88.43309658
_cell_angle_gamma   90.00000000
_symmetry_Int_Tables_number   1
_chemical_formula_structural   Zr5Ti7O24
_chemical_formula_sum   'Zr5 Ti7 O24'
_cell_volume   413.48454411
_cell_formula_units_Z   1
loop_
 _symmetry_equiv_pos_site_id
 _symmetry_equiv_pos_as_xyz
  1  'x, y, z'
loop_
 _atom_site_type_symbol
 _atom_site_label
 _atom_site_symmetry_multiplicity
 _atom_site_fract_x
 _atom_site_fract_y
 _atom_site_fract_z
 _atom_site_occupancy
  Zr  Zr0  1  0.000000  0.813943  0.250000  1
  Zr  Zr1  1  0.000000  0.205409  0.750000  1
  Zr  Zr2  1  0.988899  0.803516  0.584063  1
  Zr  Zr3  1  0.011101  0.803516  0.915937  1
  Zr  Zr4  1  0.500000  0.310537  0.250000  1
  Ti  Ti5  1  0.011627  0.189191  0.079727  1
  Ti  Ti6  1  0.988373  0.189191  0.420273  1
  Ti  Ti7  1  0.487428  0.322569  0.579778  1
  Ti  Ti8  1  0.512572  0.322569  0.920222  1
  Ti  Ti9  1  0.488626  0.686107  0.416888  1
  Ti  Ti10  1  0.511374  0.686107  0.083112  1
  Ti  Ti11  1  0.500000  0.671389  0.750000  1
  O  O12  1  0.241819  0.888133  0.800675  1
  O  O13  1  0.199813  0.113385  0.313292  1
  O  O14  1  0.259625  0.894046  0.137823  1
  O  O15  1  0.212705  0.882501  0.467519  1
  O  O16  1  0.228911  0.110773  0.634029  1
  O  O17  1  0.241414  0.122565  0.972972  1
  O  O18  1  0.286531  0.609125  0.311790  1
  O  O19  1  0.247278  0.383439  0.476358  1
  O  O20  1  0.289031  0.395879  0.817351  1
  O  O21  1  0.260849  0.390954  0.136767  1
  O  O22  1  0.260542  0.591575  0.650407  1
  O  O23  1  0.318452  0.615605  0.976684  1
  O  O24  1  0.752722  0.383439  0.023642  1
  O  O25  1  0.713469  0.609125  0.188210  1
  O  O26  1  0.739151  0.390954  0.363233  1
  O  O27  1  0.710969  0.395879  0.682649  1
  O  O28  1  0.681548  0.615605  0.523316  1
  O  O29  1  0.739458  0.591575  0.849593  1
  O  O30  1  0.800187  0.113385  0.186708  1
  O  O31  1  0.758586  0.122565  0.527028  1
  O  O32  1  0.787295  0.882501  0.032481  1
  O  O33  1  0.740375  0.894046  0.362177  1
  O  O34  1  0.758181  0.888133  0.699325  1
  O  O35  1  0.771089  0.110773  0.865971  1
