# generated using pymatgen
data_Mn2Fe3Sn(PO4)6
_symmetry_space_group_name_H-M   'P 1'
_cell_length_a   8.67517258
_cell_length_b   8.67517190
_cell_length_c   8.67517232
_cell_angle_alpha   60.15159632
_cell_angle_beta   60.15159322
_cell_angle_gamma   60.15159015
_symmetry_Int_Tables_number   1
_chemical_formula_structural   Mn2Fe3Sn(PO4)6
_chemical_formula_sum   'Mn2 Fe3 Sn1 P6 O24'
_cell_volume   463.24208373
_cell_formula_units_Z   1
loop_
 _symmetry_equiv_pos_site_id
 _symmetry_equiv_pos_as_xyz
  1  'x, y, z'
loop_
 _atom_site_type_symbol
 _atom_site_label
 _atom_site_symmetry_multiplicity
 _atom_site_fract_x
 _atom_site_fract_y
 _atom_site_fract_z
 _atom_site_occupancy
  Mn  Mn0  1  0.003531  0.003531  0.003531  1
  Mn  Mn1  1  0.499337  0.499337  0.499337  1
  Fe  Fe2  1  0.146094  0.146094  0.146094  1
  Fe  Fe3  1  0.353466  0.353466  0.353466  1
  Fe  Fe4  1  0.645415  0.645415  0.645415  1
  Sn  Sn5  1  0.855456  0.855456  0.855456  1
  P  P6  1  0.253385  0.540594  0.954846  1
  P  P7  1  0.540594  0.954846  0.253385  1
  P  P8  1  0.954846  0.253385  0.540594  1
  P  P9  1  0.047122  0.747958  0.451988  1
  P  P10  1  0.451988  0.047122  0.747958  1
  P  P11  1  0.747958  0.451988  0.047122  1
  O  O12  1  0.109967  0.315755  0.503254  1
  O  O13  1  0.315755  0.503254  0.109967  1
  O  O14  1  0.062000  0.911009  0.259735  1
  O  O15  1  0.503254  0.109967  0.315755  1
  O  O16  1  0.015967  0.809939  0.607125  1
  O  O17  1  0.241679  0.586579  0.436749  1
  O  O18  1  0.259735  0.062000  0.911009  1
  O  O19  1  0.436749  0.241679  0.586579  1
  O  O20  1  0.186746  0.387825  0.994046  1
  O  O21  1  0.586579  0.436749  0.241679  1
  O  O22  1  0.090291  0.738774  0.940840  1
  O  O23  1  0.387825  0.994046  0.186746  1
  O  O24  1  0.607125  0.015967  0.809939  1
  O  O25  1  0.911009  0.259735  0.062000  1
  O  O26  1  0.412568  0.558977  0.758713  1
  O  O27  1  0.809939  0.607125  0.015967  1
  O  O28  1  0.558977  0.758713  0.412568  1
  O  O29  1  0.738774  0.940840  0.090291  1
  O  O30  1  0.758713  0.412568  0.558977  1
  O  O31  1  0.994046  0.186746  0.387825  1
  O  O32  1  0.497309  0.887241  0.687720  1
  O  O33  1  0.940840  0.090291  0.738774  1
  O  O34  1  0.687720  0.497309  0.887241  1
  O  O35  1  0.887241  0.687720  0.497309  1
