# generated using pymatgen
data_K6Nb11O30
_symmetry_space_group_name_H-M   'P 1'
_cell_length_a   12.88427436
_cell_length_b   12.84999305
_cell_length_c   8.04968884
_cell_angle_alpha   90.00000000
_cell_angle_beta   90.00000000
_cell_angle_gamma   90.00128384
_symmetry_Int_Tables_number   1
_chemical_formula_structural   K6Nb11O30
_chemical_formula_sum   'K12 Nb22 O60'
_cell_volume   1332.72931294
_cell_formula_units_Z   2
loop_
 _symmetry_equiv_pos_site_id
 _symmetry_equiv_pos_as_xyz
  1  'x, y, z'
loop_
 _atom_site_type_symbol
 _atom_site_label
 _atom_site_symmetry_multiplicity
 _atom_site_fract_x
 _atom_site_fract_y
 _atom_site_fract_z
 _atom_site_occupancy
  K  K0  1  0.003713  0.004723  0.250000  1
  K  K1  1  0.005567  0.000924  0.750000  1
  K  K2  1  0.178753  0.673160  0.250000  1
  K  K3  1  0.176511  0.670244  0.750000  1
  K  K4  1  0.321267  0.173171  0.750000  1
  K  K5  1  0.323534  0.170250  0.250000  1
  K  K6  1  0.496280  0.504736  0.750000  1
  K  K7  1  0.494461  0.500916  0.250000  1
  K  K8  1  0.666244  0.825974  0.250000  1
  K  K9  1  0.668827  0.824813  0.750000  1
  K  K10  1  0.833778  0.325939  0.750000  1
  K  K11  1  0.831177  0.324837  0.250000  1
  Nb  Nb12  1  0.007280  0.490533  0.009778  1
  Nb  Nb13  1  0.007280  0.490533  0.490222  1
  Nb  Nb14  1  0.083727  0.208780  0.000133  1
  Nb  Nb15  1  0.083727  0.208780  0.499867  1
  Nb  Nb16  1  0.209084  0.923440  0.000052  1
  Nb  Nb17  1  0.209084  0.923440  0.499948  1
  Nb  Nb18  1  0.290927  0.423459  0.999949  1
  Nb  Nb19  1  0.290927  0.423459  0.500051  1
  Nb  Nb20  1  0.416281  0.708802  0.999871  1
  Nb  Nb21  1  0.416281  0.708802  0.500129  1
  Nb  Nb22  1  0.492733  0.990550  0.509779  1
  Nb  Nb23  1  0.492733  0.990550  0.990221  1
  Nb  Nb24  1  0.574258  0.295465  0.991936  1
  Nb  Nb25  1  0.574258  0.295465  0.508064  1
  Nb  Nb26  1  0.618786  0.117628  0.250000  1
  Nb  Nb27  1  0.704252  0.578522  0.008760  1
  Nb  Nb28  1  0.704252  0.578522  0.491240  1
  Nb  Nb29  1  0.795746  0.078491  0.991272  1
  Nb  Nb30  1  0.795746  0.078491  0.508728  1
  Nb  Nb31  1  0.881246  0.617576  0.750000  1
  Nb  Nb32  1  0.925734  0.795452  0.008081  1
  Nb  Nb33  1  0.925734  0.795452  0.491919  1
  O  O34  1  0.990280  0.509246  0.250000  1
  O  O35  1  0.997440  0.504741  0.750000  1
  O  O36  1  0.988568  0.652986  0.953735  1
  O  O37  1  0.988568  0.652986  0.546265  1
  O  O38  1  0.066351  0.856053  0.999654  1
  O  O39  1  0.066351  0.856053  0.500346  1
  O  O40  1  0.076477  0.208265  0.250000  1
  O  O41  1  0.074495  0.206574  0.750000  1
  O  O42  1  0.140305  0.068618  0.000205  1
  O  O43  1  0.140305  0.068618  0.499795  1
  O  O44  1  0.155076  0.504702  0.000495  1
  O  O45  1  0.155076  0.504702  0.499505  1
  O  O46  1  0.212962  0.286931  0.998544  1
  O  O47  1  0.212962  0.286931  0.501456  1
  O  O48  1  0.205237  0.922664  0.250000  1
  O  O49  1  0.206780  0.923386  0.750000  1
  O  O50  1  0.293229  0.423402  0.250000  1
  O  O51  1  0.294761  0.422676  0.750000  1
  O  O52  1  0.287043  0.786925  0.001469  1
  O  O53  1  0.287043  0.786925  0.498531  1
  O  O54  1  0.344923  0.004695  -0.000497  1
  O  O55  1  0.344923  0.004695  0.500497  1
  O  O56  1  0.359696  0.568612  0.999790  1
  O  O57  1  0.359696  0.568612  0.500210  1
  O  O58  1  0.423515  0.708274  0.750000  1
  O  O59  1  0.425512  0.706554  0.250000  1
  O  O60  1  0.433642  0.356062  0.000288  1
  O  O61  1  0.433642  0.356062  0.499712  1
  O  O62  1  0.511418  0.152992  0.453776  1
  O  O63  1  0.511418  0.152992  0.046224  1
  O  O64  1  0.509729  0.009225  0.750000  1
  O  O65  1  0.502580  0.004794  0.250000  1
  O  O66  1  0.505996  0.844757  0.999252  1
  O  O67  1  0.505996  0.844757  0.500748  1
  O  O68  1  0.571429  0.640177  0.997724  1
  O  O69  1  0.571429  0.640177  0.502276  1
  O  O70  1  0.575929  0.285689  0.750000  1
  O  O71  1  0.589319  0.280313  0.250000  1
  O  O72  1  0.645216  0.429820  0.002398  1
  O  O73  1  0.645216  0.429820  0.497602  1
  O  O74  1  0.651253  0.010467  0.048847  1
  O  O75  1  0.651253  0.010467  0.451153  1
  O  O76  1  0.709590  0.208387  0.015990  1
  O  O77  1  0.709590  0.208387  0.484010  1
  O  O78  1  0.716892  0.574677  0.250000  1
  O  O79  1  0.720417  0.585614  0.750000  1
  O  O80  1  0.779635  0.085510  0.250000  1
  O  O81  1  0.783080  0.074785  0.750000  1
  O  O82  1  0.790367  0.708425  0.984315  1
  O  O83  1  0.790367  0.708425  0.515685  1
  O  O84  1  0.848746  0.510470  0.951131  1
  O  O85  1  0.848746  0.510470  0.548869  1
  O  O86  1  0.854792  0.929823  0.997517  1
  O  O87  1  0.854792  0.929823  0.502483  1
  O  O88  1  0.924131  0.785736  0.250000  1
  O  O89  1  0.910559  0.780248  0.750000  1
  O  O90  1  0.928576  0.140188  0.002255  1
  O  O91  1  0.928576  0.140188  0.497745  1
  O  O92  1  0.994000  0.344752  0.000781  1
  O  O93  1  0.994000  0.344752  0.499219  1
