# generated using pymatgen
data_LiAlB14
_symmetry_space_group_name_H-M   'P 1'
_cell_length_a   5.85398613
_cell_length_b   7.20160187
_cell_length_c   7.20160187
_cell_angle_alpha   68.75067897
_cell_angle_beta   66.01882990
_cell_angle_gamma   66.01882992
_symmetry_Int_Tables_number   1
_chemical_formula_structural   LiAlB14
_chemical_formula_sum   'Li2 Al2 B28'
_cell_volume   246.27729596
_cell_formula_units_Z   2
loop_
 _symmetry_equiv_pos_site_id
 _symmetry_equiv_pos_as_xyz
  1  'x, y, z'
loop_
 _atom_site_type_symbol
 _atom_site_label
 _atom_site_symmetry_multiplicity
 _atom_site_fract_x
 _atom_site_fract_y
 _atom_site_fract_z
 _atom_site_occupancy
  Li  Li0  1  0.750000  0.600151  0.899849  1
  Li  Li1  1  0.250000  0.399849  0.100151  1
  B  B2  1  0.596703  0.397767  0.726522  1
  B  B3  1  0.649479  0.970172  0.730871  1
  B  B4  1  0.830851  0.963851  0.876733  1
  B  B5  1  0.671436  0.036149  0.123267  1
  B  B6  1  0.669149  0.623267  0.536149  1
  B  B7  1  0.828564  0.376733  0.463851  1
  B  B8  1  0.169149  0.036149  0.123267  1
  B  B9  1  0.328564  0.963851  0.876733  1
  B  B10  1  0.330851  0.376733  0.463851  1
  B  B11  1  0.171436  0.623267  0.536149  1
  B  B12  1  0.903297  0.773478  0.102233  1
  B  B13  1  0.779008  0.226522  0.897767  1
  B  B14  1  0.096703  0.226522  0.897767  1
  B  B15  1  0.720992  0.602233  0.273478  1
  B  B16  1  0.220992  0.773478  0.102233  1
  B  B17  1  0.850521  0.769129  0.529828  1
  B  B18  1  0.403297  0.602233  0.273478  1
  B  B19  1  0.279008  0.397767  0.726522  1
  B  B20  1  0.085354  0.084698  0.744594  1
  B  B21  1  0.914646  0.915302  0.255406  1
  B  B22  1  0.414646  0.755406  0.415302  1
  B  B23  1  0.585354  0.244594  0.584698  1
  B  B24  1  0.166463  0.801707  0.865367  1
  B  B25  1  0.833537  0.198293  0.134633  1
  B  B26  1  0.333537  0.634633  0.698293  1
  B  B27  1  0.666463  0.365367  0.301707  1
  B  B28  1  0.149479  0.230871  0.470172  1
  B  B29  1  0.350521  0.029828  0.269129  1
  Al  Al30  1  0.000000  0.000000  0.500000  1
  Al  Al31  1  0.500000  0.000000  0.500000  1
