# generated using pymatgen
data_K2Mn3P4(HO3)4
_symmetry_space_group_name_H-M   'P 1'
_cell_length_a   5.51535594
_cell_length_b   5.51555693
_cell_length_c   12.27376442
_cell_angle_alpha   77.01923455
_cell_angle_beta   102.98137077
_cell_angle_gamma   119.99464742
_symmetry_Int_Tables_number   1
_chemical_formula_structural   K2Mn3P4(HO3)4
_chemical_formula_sum   'K2 Mn3 P4 H4 O12'
_cell_volume   312.29864784
_cell_formula_units_Z   1
loop_
 _symmetry_equiv_pos_site_id
 _symmetry_equiv_pos_as_xyz
  1  'x, y, z'
loop_
 _atom_site_type_symbol
 _atom_site_label
 _atom_site_symmetry_multiplicity
 _atom_site_fract_x
 _atom_site_fract_y
 _atom_site_fract_z
 _atom_site_occupancy
  K  K0  1  0.813050  0.186933  0.438904  1
  K  K1  1  0.186950  0.813066  0.561096  1
  Mn  Mn2  1  0.000000  0.000000  0.000000  1
  Mn  Mn3  1  0.085282  0.914750  0.255788  1
  Mn  Mn4  1  0.914718  0.085250  0.744212  1
  P  P5  1  0.695991  0.303978  0.087955  1
  P  P6  1  0.441607  0.558479  0.324743  1
  P  P7  1  0.558393  0.441522  0.675257  1
  P  P8  1  0.304009  0.696021  0.912045  1
  H  H9  1  0.343728  0.656240  0.031235  1
  H  H10  1  0.401962  0.597999  0.205879  1
  H  H11  1  0.598038  0.402000  0.794121  1
  H  H12  1  0.656272  0.343761  0.968765  1
  O  O13  1  0.863945  0.136074  0.123301  1
  O  O14  1  0.395428  0.136041  0.123300  1
  O  O15  1  0.863968  0.604602  0.123307  1
  O  O16  1  0.762961  0.699626  0.363664  1
  O  O17  1  0.300356  0.699602  0.363650  1
  O  O18  1  0.300365  0.236953  0.363678  1
  O  O19  1  0.699636  0.763047  0.636322  1
  O  O20  1  0.699644  0.300397  0.636350  1
  O  O21  1  0.237037  0.300372  0.636336  1
  O  O22  1  0.136032  0.395399  0.876693  1
  O  O23  1  0.604572  0.863960  0.876701  1
  O  O24  1  0.136056  0.863927  0.876699  1
