# generated using pymatgen
data_Li4Ni2(PO4)3
_symmetry_space_group_name_H-M   'P 1'
_cell_length_a   8.89770765
_cell_length_b   12.23551927
_cell_length_c   8.75161346
_cell_angle_alpha   90.03173215
_cell_angle_beta   90.00325950
_cell_angle_gamma   90.00309792
_symmetry_Int_Tables_number   1
_chemical_formula_structural   Li4Ni2(PO4)3
_chemical_formula_sum   'Li16 Ni8 P12 O48'
_cell_volume   952.77114741
_cell_formula_units_Z   4
loop_
 _symmetry_equiv_pos_site_id
 _symmetry_equiv_pos_as_xyz
  1  'x, y, z'
loop_
 _atom_site_type_symbol
 _atom_site_label
 _atom_site_symmetry_multiplicity
 _atom_site_fract_x
 _atom_site_fract_y
 _atom_site_fract_z
 _atom_site_occupancy
  Li  Li0  1  0.052454  0.286482  0.428112  1
  Li  Li1  1  0.052435  0.713500  0.071865  1
  Li  Li2  1  0.202595  0.180744  0.762366  1
  Li  Li3  1  0.202574  0.819256  0.737631  1
  Li  Li4  1  0.297225  0.319448  0.262219  1
  Li  Li5  1  0.297270  0.680549  0.237745  1
  Li  Li6  1  0.447375  0.213675  0.928089  1
  Li  Li7  1  0.447444  0.786350  0.571891  1
  Li  Li8  1  0.552504  0.213682  0.428206  1
  Li  Li9  1  0.552520  0.786325  0.071816  1
  Li  Li10  1  0.702690  0.319415  0.762253  1
  Li  Li11  1  0.702693  0.680582  0.737729  1
  Li  Li12  1  0.797569  0.180809  0.262473  1
  Li  Li13  1  0.797540  0.819207  0.237541  1
  Li  Li14  1  0.947708  0.286522  0.928142  1
  Li  Li15  1  0.947613  0.713491  0.571886  1
  Ni  Ni16  1  0.251556  0.890946  0.043712  1
  Ni  Ni17  1  0.251568  0.109087  0.456297  1
  Ni  Ni18  1  0.248418  0.390878  0.956217  1
  Ni  Ni19  1  0.248419  0.609050  0.543775  1
  Ni  Ni20  1  0.751610  0.390978  0.456297  1
  Ni  Ni21  1  0.751596  0.609083  0.043725  1
  Ni  Ni22  1  0.748464  0.109082  0.956245  1
  Ni  Ni23  1  0.748435  0.890906  0.543768  1
  P  P24  1  0.047512  0.499987  0.250005  1
  P  P25  1  0.452855  -0.000000  0.750001  1
  P  P26  1  0.547087  -0.000011  0.250002  1
  P  P27  1  0.952484  0.499982  0.750012  1
  P  P28  1  0.105878  0.149224  0.105559  1
  P  P29  1  0.105905  0.850805  0.394446  1
  P  P30  1  0.394123  0.350838  0.605498  1
  P  P31  1  0.394134  0.649198  0.894472  1
  P  P32  1  0.605881  0.350851  0.105528  1
  P  P33  1  0.605885  0.649114  0.394488  1
  P  P34  1  0.894074  0.149152  0.605541  1
  P  P35  1  0.894098  0.850789  0.894436  1
  O  O36  1  0.044698  0.424719  0.855661  1
  O  O37  1  0.044708  0.575286  0.644342  1
  O  O38  1  0.067128  0.167888  0.593378  1
  O  O39  1  0.067126  0.832130  0.906625  1
  O  O40  1  0.152925  0.420485  0.162401  1
  O  O41  1  0.152943  0.579509  0.337591  1
  O  O42  1  0.155755  0.189452  0.266629  1
  O  O43  1  0.155769  0.810550  0.233340  1
  O  O44  1  0.153037  0.032736  0.075293  1
  O  O45  1  0.153039  0.967248  0.424712  1
  O  O46  1  0.175305  0.223984  0.977549  1
  O  O47  1  0.175327  0.776006  0.522446  1
  O  O48  1  0.324665  0.276016  0.477501  1
  O  O49  1  0.324648  0.723979  0.022486  1
  O  O50  1  0.346955  0.467214  0.575322  1
  O  O51  1  0.346951  0.532708  0.924711  1
  O  O52  1  0.344207  0.689427  0.733360  1
  O  O53  1  0.344222  0.310549  0.766609  1
  O  O54  1  0.346926  0.079561  0.662408  1
  O  O55  1  0.346897  0.920447  0.837585  1
  O  O56  1  0.432892  0.332125  0.093379  1
  O  O57  1  0.432891  0.667852  0.406617  1
  O  O58  1  0.455307  0.075378  0.355667  1
  O  O59  1  0.455302  0.924624  0.144327  1
  O  O60  1  0.544632  0.924704  0.644379  1
  O  O61  1  0.544642  0.075312  0.855638  1
  O  O62  1  0.567079  0.332146  0.593372  1
  O  O63  1  0.567088  0.667870  0.906622  1
  O  O64  1  0.653170  0.079586  0.162491  1
  O  O65  1  0.653151  0.920429  0.337510  1
  O  O66  1  0.655793  0.310568  0.266670  1
  O  O67  1  0.655778  0.689439  0.233331  1
  O  O68  1  0.653012  0.467180  0.075306  1
  O  O69  1  0.652988  0.532853  0.424671  1
  O  O70  1  0.675323  0.276011  0.977514  1
  O  O71  1  0.675327  0.723990  0.522472  1
  O  O72  1  0.824685  0.223998  0.477567  1
  O  O73  1  0.824683  0.776006  0.022450  1
  O  O74  1  0.846977  0.032792  0.575317  1
  O  O75  1  0.846951  0.967261  0.924704  1
  O  O76  1  0.844248  0.189456  0.766657  1
  O  O77  1  0.844241  0.810547  0.733366  1
  O  O78  1  0.847029  0.420524  0.662439  1
  O  O79  1  0.847032  0.579489  0.837595  1
  O  O80  1  0.932892  0.167888  0.093376  1
  O  O81  1  0.932882  0.832108  0.406624  1
  O  O82  1  0.955293  0.424716  0.355693  1
  O  O83  1  0.955296  0.575280  0.144307  1
