# generated using pymatgen
data_V4CuNiO12
_symmetry_space_group_name_H-M   'P 1'
_cell_length_a   6.64024421
_cell_length_b   6.64024461
_cell_length_c   5.93376387
_cell_angle_alpha   75.92666609
_cell_angle_beta   104.07333728
_cell_angle_gamma   95.70988871
_symmetry_Int_Tables_number   1
_chemical_formula_structural   V4CuNiO12
_chemical_formula_sum   'V4 Cu1 Ni1 O12'
_cell_volume   245.93972428
_cell_formula_units_Z   1
loop_
 _symmetry_equiv_pos_site_id
 _symmetry_equiv_pos_as_xyz
  1  'x, y, z'
loop_
 _atom_site_type_symbol
 _atom_site_label
 _atom_site_symmetry_multiplicity
 _atom_site_fract_x
 _atom_site_fract_y
 _atom_site_fract_z
 _atom_site_occupancy
  V  V0  1  0.203757  0.611031  0.761752  1
  V  V1  1  0.392088  0.788938  0.269704  1
  V  V2  1  0.611031  0.203757  0.738248  1
  V  V3  1  0.788938  0.392088  0.230296  1
  Cu  Cu4  1  0.082851  0.082851  0.750000  1
  Ni  Ni5  1  0.919211  0.919211  0.250000  1
  O  O6  1  0.030965  0.811388  0.642163  1
  O  O7  1  0.083118  0.372486  0.778948  1
  O  O8  1  0.205953  0.966147  0.174051  1
  O  O9  1  0.370262  0.637246  0.561461  1
  O  O10  1  0.372486  0.083118  0.721052  1
  O  O11  1  0.352141  0.632664  0.050413  1
  O  O12  1  0.637246  0.370262  0.938539  1
  O  O13  1  0.626248  0.913505  0.287183  1
  O  O14  1  0.632664  0.352141  0.449587  1
  O  O15  1  0.811388  0.030965  0.857837  1
  O  O16  1  0.913505  0.626248  0.212817  1
  O  O17  1  0.966147  0.205953  0.325949  1
