# generated using pymatgen
data_K2Pu2O5
_symmetry_space_group_name_H-M   'P 1'
_cell_length_a   8.65958605
_cell_length_b   4.29807593
_cell_length_c   4.29770726
_cell_angle_alpha   89.99966752
_cell_angle_beta   90.00016861
_cell_angle_gamma   90.00004854
_symmetry_Int_Tables_number   1
_chemical_formula_structural   K2Pu2O5
_chemical_formula_sum   'K2 Pu2 O5'
_cell_volume   159.95876620
_cell_formula_units_Z   1
loop_
 _symmetry_equiv_pos_site_id
 _symmetry_equiv_pos_as_xyz
  1  'x, y, z'
loop_
 _atom_site_type_symbol
 _atom_site_label
 _atom_site_symmetry_multiplicity
 _atom_site_fract_x
 _atom_site_fract_y
 _atom_site_fract_z
 _atom_site_occupancy
  K  K0  1  0.999994  0.999998  0.999999  1
  K  K1  1  0.500009  0.000000  0.000002  1
  Pu  Pu2  1  0.251589  0.499995  0.499998  1
  Pu  Pu3  1  0.748402  0.500008  0.499999  1
  O  O4  1  0.218540  0.500000  -0.000002  1
  O  O5  1  0.781466  0.499999  0.000001  1
  O  O6  1  0.499995  0.500001  0.500000  1
  O  O7  1  0.218540  -0.000003  0.500001  1
  O  O8  1  0.781465  0.000001  0.500002  1
