# generated using pymatgen
data_InH4NCl4
_symmetry_space_group_name_H-M   'P 1'
_cell_length_a   9.32151970
_cell_length_b   7.16438325
_cell_length_c   7.16438325
_cell_angle_alpha   90.00000000
_cell_angle_beta   112.59983831
_cell_angle_gamma   112.59983831
_symmetry_Int_Tables_number   1
_chemical_formula_structural   InH4NCl4
_chemical_formula_sum   'In2 H8 N2 Cl8'
_cell_volume   401.63119532
_cell_formula_units_Z   2
loop_
 _symmetry_equiv_pos_site_id
 _symmetry_equiv_pos_as_xyz
  1  'x, y, z'
loop_
 _atom_site_type_symbol
 _atom_site_label
 _atom_site_symmetry_multiplicity
 _atom_site_fract_x
 _atom_site_fract_y
 _atom_site_fract_z
 _atom_site_occupancy
  In  In0  1  0.750000  0.875000  0.125000  1
  In  In1  1  0.250000  0.125000  0.875000  1
  H  H2  1  0.326872  0.660798  0.296564  1
  H  H3  1  0.173128  0.703436  0.333927  1
  H  H4  1  0.173128  0.469691  0.339202  1
  H  H5  1  0.673128  0.333927  0.469693  1
  H  H6  1  0.326872  0.666073  0.530307  1
  H  H7  1  0.826872  0.530307  0.660798  1
  H  H8  1  0.826872  0.296564  0.666073  1
  H  H9  1  0.673128  0.339202  0.703436  1
  N  N10  1  0.250000  0.625000  0.375000  1
  N  N11  1  0.750000  0.375000  0.625000  1
  Cl  Cl12  1  0.918946  0.197625  0.062707  1
  Cl  Cl13  1  0.418945  0.356239  0.197625  1
  Cl  Cl14  1  0.581055  0.937294  0.278680  1
  Cl  Cl15  1  0.918946  0.721321  0.356239  1
  Cl  Cl16  1  0.081055  0.278680  0.643761  1
  Cl  Cl17  1  0.418945  0.062706  0.721320  1
  Cl  Cl18  1  0.581055  0.643761  0.802375  1
  Cl  Cl19  1  0.081055  0.802376  0.937294  1
