# generated using pymatgen
data_Li2Cu(Si2O5)2
_symmetry_space_group_name_H-M   'P 1'
_cell_length_a   10.93994876
_cell_length_b   7.77876406
_cell_length_c   10.78186130
_cell_angle_alpha   90.00000000
_cell_angle_beta   111.56516655
_cell_angle_gamma   90.00000000
_symmetry_Int_Tables_number   1
_chemical_formula_structural   Li2Cu(Si2O5)2
_chemical_formula_sum   'Li8 Cu4 Si16 O40'
_cell_volume   853.30174010
_cell_formula_units_Z   4
loop_
 _symmetry_equiv_pos_site_id
 _symmetry_equiv_pos_as_xyz
  1  'x, y, z'
loop_
 _atom_site_type_symbol
 _atom_site_label
 _atom_site_symmetry_multiplicity
 _atom_site_fract_x
 _atom_site_fract_y
 _atom_site_fract_z
 _atom_site_occupancy
  Li  Li0  1  0.097597  0.250000  0.381701  1
  Li  Li1  1  0.992508  0.250000  0.080117  1
  Li  Li2  1  0.371602  0.250000  0.874423  1
  Li  Li3  1  0.433102  0.250000  0.523684  1
  Li  Li4  1  0.566897  0.750000  0.476316  1
  Li  Li5  1  0.628398  0.750000  0.125577  1
  Li  Li6  1  0.007492  0.750000  0.919883  1
  Li  Li7  1  0.902403  0.750000  0.618299  1
  Cu  Cu8  1  0.216948  -0.000096  0.276657  1
  Cu  Cu9  1  0.216948  0.500096  0.276657  1
  Cu  Cu10  1  0.783052  0.499904  0.723343  1
  Cu  Cu11  1  0.783052  0.000096  0.723343  1
  Si  Si12  1  0.076632  0.054132  0.736845  1
  Si  Si13  1  0.076632  0.445868  0.736845  1
  Si  Si14  1  0.249955  0.951185  0.582530  1
  Si  Si15  1  0.249955  0.548815  0.582530  1
  Si  Si16  1  0.253782  0.562433  0.996083  1
  Si  Si17  1  0.253782  0.937567  0.996083  1
  Si  Si18  1  0.527375  0.956814  0.772964  1
  Si  Si19  1  0.527375  0.543186  0.772964  1
  Si  Si20  1  0.472625  0.043186  0.227036  1
  Si  Si21  1  0.472625  0.456814  0.227036  1
  Si  Si22  1  0.746218  0.062433  0.003917  1
  Si  Si23  1  0.746218  0.437567  0.003917  1
  Si  Si24  1  0.750045  0.048815  0.417470  1
  Si  Si25  1  0.750045  0.451185  0.417470  1
  Si  Si26  1  0.923368  0.554132  0.263155  1
  Si  Si27  1  0.923368  0.945868  0.263155  1
  O  O28  1  0.025267  0.250000  0.686624  1
  O  O29  1  0.213263  0.077396  0.871492  1
  O  O30  1  0.213263  0.422604  0.871492  1
  O  O31  1  0.225278  0.750000  0.919421  1
  O  O32  1  0.118031  0.537509  0.620321  1
  O  O33  1  0.118031  0.962491  0.620321  1
  O  O34  1  0.030011  0.064203  0.233802  1
  O  O35  1  0.030011  0.435797  0.233802  1
  O  O36  1  0.277211  0.750000  0.555186  1
  O  O37  1  0.244604  0.072291  0.460391  1
  O  O38  1  0.244604  0.427709  0.460391  1
  O  O39  1  0.168611  0.539727  0.087843  1
  O  O40  1  0.168611  0.960273  0.087843  1
  O  O41  1  0.372113  0.481086  0.718404  1
  O  O42  1  0.372113  0.018914  0.718404  1
  O  O43  1  0.540244  0.750000  0.804064  1
  O  O44  1  0.586205  0.046474  0.922742  1
  O  O45  1  0.586205  0.453526  0.922742  1
  O  O46  1  0.407262  0.979025  0.329940  1
  O  O47  1  0.407262  0.520975  0.329940  1
  O  O48  1  0.592738  0.479025  0.670060  1
  O  O49  1  0.592738  0.020975  0.670060  1
  O  O50  1  0.413795  0.546474  0.077258  1
  O  O51  1  0.413795  0.953526  0.077258  1
  O  O52  1  0.459756  0.250000  0.195936  1
  O  O53  1  0.627887  0.518914  0.281596  1
  O  O54  1  0.627887  0.981086  0.281596  1
  O  O55  1  0.831389  0.039727  0.912157  1
  O  O56  1  0.831389  0.460273  0.912157  1
  O  O57  1  0.755396  0.572291  0.539609  1
  O  O58  1  0.755396  0.927709  0.539609  1
  O  O59  1  0.722789  0.250000  0.444814  1
  O  O60  1  0.969989  0.564203  0.766198  1
  O  O61  1  0.969989  0.935797  0.766198  1
  O  O62  1  0.881969  0.037509  0.379679  1
  O  O63  1  0.881969  0.462491  0.379679  1
  O  O64  1  0.774722  0.250000  0.080579  1
  O  O65  1  0.786737  0.577396  0.128508  1
  O  O66  1  0.786737  0.922604  0.128508  1
  O  O67  1  0.974733  0.750000  0.313376  1
