# generated using pymatgen
data_BaP4O11
_symmetry_space_group_name_H-M   'P 1'
_cell_length_a   11.04071785
_cell_length_b   9.18910669
_cell_length_c   12.12826001
_cell_angle_alpha   90.00000000
_cell_angle_beta   102.45449767
_cell_angle_gamma   90.00000000
_symmetry_Int_Tables_number   1
_chemical_formula_structural   BaP4O11
_chemical_formula_sum   'Ba4 P16 O44'
_cell_volume   1201.50874608
_cell_formula_units_Z   4
loop_
 _symmetry_equiv_pos_site_id
 _symmetry_equiv_pos_as_xyz
  1  'x, y, z'
loop_
 _atom_site_type_symbol
 _atom_site_label
 _atom_site_symmetry_multiplicity
 _atom_site_fract_x
 _atom_site_fract_y
 _atom_site_fract_z
 _atom_site_occupancy
  Ba  Ba0  1  0.046252  0.012447  0.784904  1
  Ba  Ba1  1  0.453748  0.512447  0.715096  1
  Ba  Ba2  1  0.546252  0.487553  0.284904  1
  Ba  Ba3  1  0.953748  0.987553  0.215096  1
  P  P4  1  0.155399  0.430624  0.841432  1
  P  P5  1  0.076656  0.390348  0.228419  1
  P  P6  1  0.344601  0.930624  0.658568  1
  P  P7  1  0.272195  0.012143  0.419816  1
  P  P8  1  0.269342  0.350494  0.440636  1
  P  P9  1  0.230658  0.850494  0.059364  1
  P  P10  1  0.227805  0.512143  0.080184  1
  P  P11  1  0.423344  0.890348  0.271581  1
  P  P12  1  0.576656  0.109652  0.728419  1
  P  P13  1  0.772195  0.487857  0.919816  1
  P  P14  1  0.769342  0.149506  0.940636  1
  P  P15  1  0.730658  0.649506  0.559364  1
  P  P16  1  0.727805  0.987857  0.580184  1
  P  P17  1  0.655399  0.069376  0.341432  1
  P  P18  1  0.923344  0.609652  0.771581  1
  P  P19  1  0.844601  0.569376  0.158568  1
  O  O20  1  0.058893  0.555117  0.774531  1
  O  O21  1  0.133454  0.456201  0.971329  1
  O  O22  1  0.105045  0.284951  0.804506  1
  O  O23  1  0.232364  0.908970  0.945792  1
  O  O24  1  0.218145  0.980471  0.663084  1
  O  O25  1  0.081823  0.245688  0.176205  1
  O  O26  1  0.159626  0.924047  0.381111  1
  O  O27  1  0.135591  0.399553  0.358703  1
  O  O28  1  0.127393  0.877624  0.117342  1
  O  O29  1  0.139045  0.520240  0.170144  1
  O  O30  1  0.242798  0.174126  0.442848  1
  O  O31  1  0.281855  0.480471  0.836916  1
  O  O32  1  0.267636  0.408970  0.554208  1
  O  O33  1  0.394955  0.784951  0.695494  1
  O  O34  1  0.366546  0.956201  0.528671  1
  O  O35  1  0.441107  0.055117  0.725469  1
  O  O36  1  0.257202  0.674126  0.057152  1
  O  O37  1  0.360955  0.020240  0.329856  1
  O  O38  1  0.372607  0.377624  0.382658  1
  O  O39  1  0.364409  0.899553  0.141297  1
  O  O40  1  0.340374  0.424047  0.118889  1
  O  O41  1  0.418177  0.745688  0.323795  1
  O  O42  1  0.581823  0.254311  0.676205  1
  O  O43  1  0.659626  0.575953  0.881111  1
  O  O44  1  0.635590  0.100447  0.858703  1
  O  O45  1  0.627393  0.622376  0.617342  1
  O  O46  1  0.639045  0.979760  0.670144  1
  O  O47  1  0.742798  0.325874  0.942848  1
  O  O48  1  0.558893  0.944883  0.274531  1
  O  O49  1  0.633454  0.043799  0.471329  1
  O  O50  1  0.605045  0.215049  0.304506  1
  O  O51  1  0.732364  0.591030  0.445792  1
  O  O52  1  0.718145  0.519529  0.163084  1
  O  O53  1  0.757202  0.825874  0.557152  1
  O  O54  1  0.860955  0.479760  0.829856  1
  O  O55  1  0.872607  0.122376  0.882658  1
  O  O56  1  0.864410  0.600447  0.641297  1
  O  O57  1  0.840374  0.075953  0.618889  1
  O  O58  1  0.918177  0.754312  0.823795  1
  O  O59  1  0.781855  0.019529  0.336916  1
  O  O60  1  0.767636  0.091030  0.054208  1
  O  O61  1  0.894955  0.715049  0.195494  1
  O  O62  1  0.866546  0.543799  0.028671  1
  O  O63  1  0.941107  0.444883  0.225469  1
