# generated using pymatgen
data_Mn3VSn2(PO4)6
_symmetry_space_group_name_H-M   'P 1'
_cell_length_a   8.87510538
_cell_length_b   8.73447945
_cell_length_c   8.73448017
_cell_angle_alpha   60.00000080
_cell_angle_beta   60.52277465
_cell_angle_gamma   60.52277687
_symmetry_Int_Tables_number   1
_chemical_formula_structural   Mn3VSn2(PO4)6
_chemical_formula_sum   'Mn3 V1 Sn2 P6 O24'
_cell_volume   482.52462696
_cell_formula_units_Z   1
loop_
 _symmetry_equiv_pos_site_id
 _symmetry_equiv_pos_as_xyz
  1  'x, y, z'
loop_
 _atom_site_type_symbol
 _atom_site_label
 _atom_site_symmetry_multiplicity
 _atom_site_fract_x
 _atom_site_fract_y
 _atom_site_fract_z
 _atom_site_occupancy
  Mn  Mn0  1  0.044266  0.651911  0.651911  1
  Mn  Mn1  1  0.445767  0.851411  0.851411  1
  Mn  Mn2  1  0.951506  0.349498  0.349498  1
  V  V3  1  0.563619  0.145461  0.145461  1
  Sn  Sn4  1  0.015014  0.994995  0.994995  1
  Sn  Sn5  1  0.502802  0.499066  0.499066  1
  P  P6  1  0.263660  0.248150  0.537080  1
  P  P7  1  0.263660  0.951110  0.248150  1
  P  P8  1  0.263660  0.537080  0.951110  1
  P  P9  1  0.735283  0.458339  0.052749  1
  P  P10  1  0.735283  0.052749  0.753629  1
  P  P11  1  0.735283  0.753629  0.458339  1
  O  O12  1  0.081577  0.090618  0.314189  1
  O  O13  1  0.081577  0.513615  0.090618  1
  O  O14  1  0.081577  0.314189  0.513615  1
  O  O15  1  0.258964  0.084137  0.729877  1
  O  O16  1  0.429100  0.182218  0.378881  1
  O  O17  1  0.297051  0.407492  0.542306  1
  O  O18  1  0.258964  0.927022  0.084137  1
  O  O19  1  0.297051  0.753150  0.407492  1
  O  O20  1  0.564692  0.617925  0.009301  1
  O  O21  1  0.297051  0.542306  0.753150  1
  O  O22  1  0.731113  0.267105  0.082761  1
  O  O23  1  0.564692  0.009301  0.808082  1
  O  O24  1  0.429100  0.009801  0.182218  1
  O  O25  1  0.258964  0.729877  0.927022  1
  O  O26  1  0.713470  0.440785  0.252176  1
  O  O27  1  0.429100  0.378881  0.009801  1
  O  O28  1  0.713470  0.252176  0.593568  1
  O  O29  1  0.731113  0.082761  0.919021  1
  O  O30  1  0.713470  0.593568  0.440785  1
  O  O31  1  0.564692  0.808082  0.617925  1
  O  O32  1  0.731113  0.919021  0.267105  1
  O  O33  1  0.917431  0.697897  0.476502  1
  O  O34  1  0.917431  0.476502  0.908171  1
  O  O35  1  0.917431  0.908171  0.697897  1
