# generated using pymatgen
data_Fe10O9F11
_symmetry_space_group_name_H-M   'P 1'
_cell_length_a   4.77461518
_cell_length_b   4.78551136
_cell_length_c   15.41743487
_cell_angle_alpha   90.00000000
_cell_angle_beta   90.00000000
_cell_angle_gamma   94.66565635
_symmetry_Int_Tables_number   1
_chemical_formula_structural   Fe10O9F11
_chemical_formula_sum   'Fe10 O9 F11'
_cell_volume   351.10526955
_cell_formula_units_Z   1
loop_
 _symmetry_equiv_pos_site_id
 _symmetry_equiv_pos_as_xyz
  1  'x, y, z'
loop_
 _atom_site_type_symbol
 _atom_site_label
 _atom_site_symmetry_multiplicity
 _atom_site_fract_x
 _atom_site_fract_y
 _atom_site_fract_z
 _atom_site_occupancy
  Fe  Fe0  1  0.995706  0.994800  0.997743  1
  Fe  Fe1  1  0.998632  0.998362  0.200000  1
  Fe  Fe2  1  0.995706  0.994800  0.402257  1
  Fe  Fe3  1  0.029443  0.010890  0.609564  1
  Fe  Fe4  1  0.029443  0.010890  0.790436  1
  Fe  Fe5  1  0.498958  0.498861  0.102122  1
  Fe  Fe6  1  0.492428  0.485700  0.491958  1
  Fe  Fe7  1  0.498958  0.498861  0.297878  1
  Fe  Fe8  1  0.451443  0.506377  0.700000  1
  Fe  Fe9  1  0.492428  0.485700  0.908042  1
  O  O10  1  0.201360  0.797912  0.700000  1
  O  O11  1  0.296702  0.293672  0.004033  1
  O  O12  1  0.297068  0.297324  0.200000  1
  O  O13  1  0.296702  0.293672  0.395967  1
  O  O14  1  0.314919  0.318750  0.594765  1
  O  O15  1  0.314919  0.318750  0.805235  1
  O  O16  1  0.699137  0.695696  0.001541  1
  O  O17  1  0.699087  0.699124  0.200000  1
  O  O18  1  0.699137  0.695696  0.398459  1
  F  F19  1  0.189945  0.805165  0.100446  1
  F  F20  1  0.189945  0.805165  0.299554  1
  F  F21  1  0.198296  0.802846  0.497509  1
  F  F22  1  0.198296  0.802846  0.902491  1
  F  F23  1  0.704161  0.708079  0.596748  1
  F  F24  1  0.704161  0.708079  0.803252  1
  F  F25  1  0.805719  0.188821  0.100249  1
  F  F26  1  0.806767  0.191854  0.498736  1
  F  F27  1  0.805719  0.188821  0.299751  1
  F  F28  1  0.806767  0.191854  0.901264  1
  F  F29  1  0.788050  0.210632  0.700000  1
