# generated using pymatgen
data_LiNi(PO3)3
_symmetry_space_group_name_H-M   'P 1'
_cell_length_a   10.21665283
_cell_length_b   12.79355025
_cell_length_c   5.19366169
_cell_angle_alpha   90.00000000
_cell_angle_beta   90.00000000
_cell_angle_gamma   90.00000000
_symmetry_Int_Tables_number   1
_chemical_formula_structural   LiNi(PO3)3
_chemical_formula_sum   'Li4 Ni4 P12 O36'
_cell_volume   678.84929597
_cell_formula_units_Z   4
loop_
 _symmetry_equiv_pos_site_id
 _symmetry_equiv_pos_as_xyz
  1  'x, y, z'
loop_
 _atom_site_type_symbol
 _atom_site_label
 _atom_site_symmetry_multiplicity
 _atom_site_fract_x
 _atom_site_fract_y
 _atom_site_fract_z
 _atom_site_occupancy
  Li  Li0  1  0.062262  0.899377  0.572667  1
  Li  Li1  1  0.437738  0.100623  0.072667  1
  Li  Li2  1  0.562262  0.600623  0.427333  1
  Li  Li3  1  0.937738  0.399377  0.927333  1
  Ni  Ni4  1  0.112663  0.154028  0.096229  1
  Ni  Ni5  1  0.387337  0.845972  0.596229  1
  Ni  Ni6  1  0.612663  0.345972  0.903771  1
  Ni  Ni7  1  0.887337  0.654028  0.403771  1
  P  P8  1  0.083310  0.627120  0.884678  1
  P  P9  1  0.127113  0.368772  0.394273  1
  P  P10  1  0.228384  0.808140  0.081303  1
  P  P11  1  0.271616  0.191860  0.581303  1
  P  P12  1  0.372887  0.631228  0.894273  1
  P  P13  1  0.416690  0.372880  0.384678  1
  P  P14  1  0.583310  0.872880  0.115322  1
  P  P15  1  0.627113  0.131228  0.605727  1
  P  P16  1  0.728384  0.691860  0.918697  1
  P  P17  1  0.771616  0.308140  0.418697  1
  P  P18  1  0.872887  0.868772  0.105727  1
  P  P19  1  0.916690  0.127120  0.615322  1
  O  O20  1  0.991985  0.560611  0.040385  1
  O  O21  1  0.045869  0.661317  0.617314  1
  O  O22  1  0.031376  0.438114  0.522241  1
  O  O23  1  0.105428  0.731084  0.063534  1
  O  O24  1  0.096460  0.318200  0.135006  1
  O  O25  1  0.153684  0.273515  0.595327  1
  O  O26  1  0.229179  0.864123  0.335752  1
  O  O27  1  0.236156  0.869912  0.833142  1
  O  O28  1  0.228629  0.577393  0.878707  1
  O  O29  1  0.271371  0.422607  0.378707  1
  O  O30  1  0.263844  0.130088  0.333142  1
  O  O31  1  0.270821  0.135877  0.835752  1
  O  O32  1  0.346316  0.726485  0.095327  1
  O  O33  1  0.403540  0.681801  0.635006  1
  O  O34  1  0.394572  0.268916  0.563534  1
  O  O35  1  0.468624  0.561886  0.022241  1
  O  O36  1  0.454131  0.338683  0.117314  1
  O  O37  1  0.508015  0.439389  0.540385  1
  O  O38  1  0.491985  0.939389  0.959615  1
  O  O39  1  0.545869  0.838683  0.382686  1
  O  O40  1  0.531376  0.061886  0.477759  1
  O  O41  1  0.605428  0.768916  0.936466  1
  O  O42  1  0.596460  0.181801  0.864994  1
  O  O43  1  0.653684  0.226485  0.404673  1
  O  O44  1  0.729179  0.635877  0.664248  1
  O  O45  1  0.736156  0.630088  0.166858  1
  O  O46  1  0.728629  0.922607  0.121293  1
  O  O47  1  0.771371  0.077393  0.621293  1
  O  O48  1  0.763844  0.369912  0.666858  1
  O  O49  1  0.770821  0.364123  0.164248  1
  O  O50  1  0.846316  0.773515  0.904673  1
  O  O51  1  0.903540  0.818199  0.364994  1
  O  O52  1  0.894572  0.231084  0.436466  1
  O  O53  1  0.968624  0.938114  0.977759  1
  O  O54  1  0.954131  0.161317  0.882686  1
  O  O55  1  0.008015  0.060611  0.459615  1
