# generated using pymatgen
data_Li2MnSn(PO4)2
_symmetry_space_group_name_H-M   'P 1'
_cell_length_a   10.99308958
_cell_length_b   6.48888113
_cell_length_c   4.87036796
_cell_angle_alpha   90.00000000
_cell_angle_beta   89.37732412
_cell_angle_gamma   90.00000000
_symmetry_Int_Tables_number   1
_chemical_formula_structural   Li2MnSn(PO4)2
_chemical_formula_sum   'Li4 Mn2 Sn2 P4 O16'
_cell_volume   347.39671881
_cell_formula_units_Z   2
loop_
 _symmetry_equiv_pos_site_id
 _symmetry_equiv_pos_as_xyz
  1  'x, y, z'
loop_
 _atom_site_type_symbol
 _atom_site_label
 _atom_site_symmetry_multiplicity
 _atom_site_fract_x
 _atom_site_fract_y
 _atom_site_fract_z
 _atom_site_occupancy
  Li  Li0  1  0.000000  0.000000  0.000000  1
  Li  Li1  1  0.000000  0.500000  0.000000  1
  Li  Li2  1  0.500000  0.000000  0.500000  1
  Li  Li3  1  0.500000  0.500000  0.500000  1
  Mn  Mn4  1  0.213152  0.750000  0.470183  1
  Mn  Mn5  1  0.786848  0.250000  0.529817  1
  Sn  Sn6  1  0.278910  0.250000  0.973268  1
  Sn  Sn7  1  0.721090  0.750000  0.026732  1
  P  P8  1  0.077328  0.250000  0.421740  1
  P  P9  1  0.405861  0.750000  0.880557  1
  P  P10  1  0.594139  0.250000  0.119443  1
  P  P11  1  0.922672  0.750000  0.578260  1
  O  O12  1  0.048826  0.750000  0.723494  1
  O  O13  1  0.064968  0.250000  0.736754  1
  O  O14  1  0.149402  0.055787  0.310694  1
  O  O15  1  0.149402  0.444213  0.310694  1
  O  O16  1  0.341935  0.560982  0.742166  1
  O  O17  1  0.341935  0.939018  0.742166  1
  O  O18  1  0.395756  0.750000  0.195877  1
  O  O19  1  0.460854  0.250000  0.235531  1
  O  O20  1  0.539146  0.750000  0.764469  1
  O  O21  1  0.604244  0.250000  0.804123  1
  O  O22  1  0.658065  0.060982  0.257834  1
  O  O23  1  0.658065  0.439018  0.257834  1
  O  O24  1  0.850598  0.555787  0.689306  1
  O  O25  1  0.850598  0.944213  0.689306  1
  O  O26  1  0.935032  0.750000  0.263246  1
  O  O27  1  0.951174  0.250000  0.276506  1
