# generated using pymatgen
data_Li3Fe2(PO4)3
_symmetry_space_group_name_H-M   'P 1'
_cell_length_a   8.48920184
_cell_length_b   8.99193050
_cell_length_c   8.51172117
_cell_angle_alpha   89.64086386
_cell_angle_beta   60.03625106
_cell_angle_gamma   118.24176729
_symmetry_Int_Tables_number   1
_chemical_formula_structural   Li3Fe2(PO4)3
_chemical_formula_sum   'Li6 Fe4 P6 O24'
_cell_volume   470.16587546
_cell_formula_units_Z   2
loop_
 _symmetry_equiv_pos_site_id
 _symmetry_equiv_pos_as_xyz
  1  'x, y, z'
loop_
 _atom_site_type_symbol
 _atom_site_label
 _atom_site_symmetry_multiplicity
 _atom_site_fract_x
 _atom_site_fract_y
 _atom_site_fract_z
 _atom_site_occupancy
  Li  Li0  1  0.170392  0.335205  0.594495  1
  Li  Li1  1  0.568147  0.315882  0.839170  1
  Li  Li2  1  0.809352  0.144932  0.274351  1
  Li  Li3  1  0.190648  0.855068  0.725649  1
  Li  Li4  1  0.431853  0.684118  0.160830  1
  Li  Li5  1  0.829608  0.664795  0.405505  1
  Fe  Fe6  1  0.695442  0.041113  0.657811  1
  Fe  Fe7  1  0.712250  0.567589  0.137243  1
  Fe  Fe8  1  0.287750  0.432411  0.862757  1
  Fe  Fe9  1  0.304558  0.958887  0.342189  1
  P  P10  1  0.783883  0.247274  0.968309  1
  P  P11  1  0.789720  0.744233  0.746210  1
  P  P12  1  0.498331  0.246716  0.543437  1
  P  P13  1  0.501669  0.753284  0.456563  1
  P  P14  1  0.210280  0.255767  0.253790  1
  P  P15  1  0.216117  0.752726  0.031691  1
  O  O16  1  0.707820  0.191955  0.833781  1
  O  O17  1  0.871804  0.740079  0.871589  1
  O  O18  1  0.971027  0.798702  0.530700  1
  O  O19  1  0.676496  0.217078  0.513083  1
  O  O20  1  0.597834  0.553490  0.796319  1
  O  O21  1  0.986817  0.718369  0.129176  1
  O  O22  1  0.709818  0.871092  0.788310  1
  O  O23  1  0.634592  0.102871  0.166145  1
  O  O24  1  0.382159  0.264979  0.744496  1
  O  O25  1  0.787684  0.417978  0.993687  1
  O  O26  1  0.607148  0.421644  0.391906  1
  O  O27  1  0.321182  0.084724  0.535458  1
  O  O28  1  0.678818  0.915276  0.464542  1
  O  O29  1  0.392852  0.578356  0.608094  1
  O  O30  1  0.212316  0.582022  0.006313  1
  O  O31  1  0.617841  0.735021  0.255504  1
  O  O32  1  0.365408  0.897129  0.833855  1
  O  O33  1  0.290182  0.128908  0.211690  1
  O  O34  1  0.013183  0.281631  0.870824  1
  O  O35  1  0.402166  0.446510  0.203681  1
  O  O36  1  0.323504  0.782922  0.486917  1
  O  O37  1  0.028973  0.201298  0.469300  1
  O  O38  1  0.128196  0.259921  0.128411  1
  O  O39  1  0.292180  0.808045  0.166219  1
