# generated using pymatgen
data_Li2Fe2(SiO3)3
_symmetry_space_group_name_H-M   'P 1'
_cell_length_a   10.13087491
_cell_length_b   10.13087554
_cell_length_c   12.32763539
_cell_angle_alpha   90.00000000
_cell_angle_beta   90.00000000
_cell_angle_gamma   120.00000039
_symmetry_Int_Tables_number   1
_chemical_formula_structural   Li2Fe2(SiO3)3
_chemical_formula_sum   'Li12 Fe12 Si18 O54'
_cell_volume   1095.73199692
_cell_formula_units_Z   6
loop_
 _symmetry_equiv_pos_site_id
 _symmetry_equiv_pos_as_xyz
  1  'x, y, z'
loop_
 _atom_site_type_symbol
 _atom_site_label
 _atom_site_symmetry_multiplicity
 _atom_site_fract_x
 _atom_site_fract_y
 _atom_site_fract_z
 _atom_site_occupancy
  Li  Li0  1  0.139391  0.969516  0.186110  1
  Li  Li1  1  0.295870  0.822375  0.014317  1
  Li  Li2  1  0.177625  0.473495  0.680984  1
  Li  Li3  1  0.030484  0.169875  0.852777  1
  Li  Li4  1  0.526505  0.704130  0.347650  1
  Li  Li5  1  0.173892  0.045164  0.687558  1
  Li  Li6  1  0.343152  0.328464  0.761596  1
  Li  Li7  1  0.830125  0.860609  0.519444  1
  Li  Li8  1  0.871272  0.826108  0.020891  1
  Li  Li9  1  0.671536  0.014689  0.428262  1
  Li  Li10  1  0.985311  0.656848  0.094929  1
  Li  Li11  1  0.954836  0.128728  0.354225  1
  Fe  Fe12  1  0.341565  0.836648  0.496209  1
  Fe  Fe13  1  0.163352  0.504917  0.162876  1
  Fe  Fe14  1  0.495083  0.658435  0.829543  1
  Fe  Fe15  1  0.337255  0.325543  0.239034  1
  Fe  Fe16  1  0.366980  0.331466  0.001018  1
  Fe  Fe17  1  0.492498  0.159313  0.839064  1
  Fe  Fe18  1  0.666815  0.507502  0.172397  1
  Fe  Fe19  1  0.988287  0.662745  0.572367  1
  Fe  Fe20  1  0.964485  0.633020  0.334351  1
  Fe  Fe21  1  0.668534  0.035515  0.667684  1
  Fe  Fe22  1  0.674457  0.011713  0.905700  1
  Fe  Fe23  1  0.840687  0.333185  0.505730  1
  Si  Si24  1  0.134581  0.952670  0.916402  1
  Si  Si25  1  0.287971  0.812875  0.758700  1
  Si  Si26  1  0.177984  0.510088  0.902419  1
  Si  Si27  1  0.332104  0.822016  0.235752  1
  Si  Si28  1  0.047330  0.181911  0.583068  1
  Si  Si29  1  0.187125  0.475096  0.425367  1
  Si  Si30  1  0.176003  0.010363  0.436005  1
  Si  Si31  1  0.489912  0.667896  0.569086  1
  Si  Si32  1  0.524904  0.712029  0.092033  1
  Si  Si33  1  0.618499  0.495765  0.446813  1
  Si  Si34  1  0.473465  0.191573  0.571981  1
  Si  Si35  1  0.818089  0.865419  0.249735  1
  Si  Si36  1  0.834359  0.823997  0.769339  1
  Si  Si37  1  0.718108  0.526535  0.905315  1
  Si  Si38  1  0.504235  0.122733  0.113479  1
  Si  Si39  1  0.877267  0.381501  0.780146  1
  Si  Si40  1  0.808427  0.281892  0.238648  1
  Si  Si41  1  0.989637  0.165641  0.102672  1
  O  O42  1  0.086330  0.823210  0.437633  1
  O  O43  1  0.095838  0.878173  0.035750  1
  O  O44  1  0.184344  0.853958  0.837623  1
  O  O45  1  0.150037  0.699998  0.231160  1
  O  O46  1  0.060053  0.525708  0.441498  1
  O  O47  1  0.022643  0.377142  0.841345  1
  O  O48  1  0.219746  0.775854  0.636295  1
  O  O49  1  0.145681  0.574244  0.012489  1
  O  O50  1  0.354500  0.977357  0.174679  1
  O  O51  1  0.258375  0.648431  0.809785  1
  O  O52  1  0.146042  0.330386  0.504290  1
  O  O53  1  0.428564  0.854319  0.345823  1
  O  O54  1  0.121827  0.217664  0.702417  1
  O  O55  1  0.224146  0.443891  0.302962  1
  O  O56  1  0.465655  0.939947  0.774832  1
  O  O57  1  0.390056  0.741625  0.143118  1
  O  O58  1  0.300002  0.450040  0.897827  1
  O  O59  1  0.176790  0.263120  0.104300  1
  O  O60  1  0.080228  0.050852  0.527466  1
  O  O61  1  0.351569  0.609944  0.476451  1
  O  O62  1  0.201309  0.101405  0.324482  1
  O  O63  1  0.425756  0.571436  0.679156  1
  O  O64  1  0.549960  0.849963  0.564494  1
  O  O65  1  0.556109  0.780254  0.969628  1
  O  O66  1  0.256881  0.131638  0.901875  1
  O  O67  1  0.474292  0.534345  0.108165  1
  O  O68  1  0.669614  0.815656  0.170956  1
  O  O69  1  0.622858  0.645500  0.508012  1
  O  O70  1  0.340766  0.049662  0.496024  1
  O  O71  1  0.736880  0.913670  0.770966  1
  O  O72  1  0.551664  0.488362  0.323815  1
  O  O73  1  0.402604  0.178697  0.692343  1
  O  O74  1  0.782336  0.904162  0.369083  1
  O  O75  1  0.494745  0.346259  0.514166  1
  O  O76  1  0.477986  0.268188  0.126700  1
  O  O77  1  0.550832  0.377314  0.896265  1
  O  O78  1  0.708896  0.659234  0.829357  1
  O  O79  1  0.511638  0.063302  0.990481  1
  O  O80  1  0.776093  0.597396  0.025676  1
  O  O81  1  0.900097  0.798691  0.657815  1
  O  O82  1  0.874757  0.743119  0.235208  1
  O  O83  1  0.622686  0.173517  0.562932  1
  O  O84  1  0.790203  0.522014  0.460034  1
  O  O85  1  0.970624  0.919772  0.860800  1
  O  O86  1  0.653741  0.148486  0.180833  1
  O  O87  1  0.851514  0.505255  0.847499  1
  O  O88  1  0.826483  0.449168  0.229599  1
  O  O89  1  0.731812  0.209797  0.793367  1
  O  O90  1  0.821303  0.223907  0.359010  1
  O  O91  1  0.936698  0.448336  0.657148  1
  O  O92  1  0.868362  0.125243  0.568542  1
  O  O93  1  0.950338  0.291104  0.162690  1
  O  O94  1  0.898595  0.099903  0.991149  1
  O  O95  1  0.949148  0.029376  0.194133  1
