# generated using pymatgen
data_HoAl3(PbO4)2
_symmetry_space_group_name_H-M   'P 1'
_cell_length_a   9.52803804
_cell_length_b   9.52803804
_cell_length_c   9.52803804
_cell_angle_alpha   90.00000000
_cell_angle_beta   90.00000000
_cell_angle_gamma   90.00000000
_symmetry_Int_Tables_number   1
_chemical_formula_structural   HoAl3(PbO4)2
_chemical_formula_sum   'Ho4 Al12 Pb8 O32'
_cell_volume   864.98872612
_cell_formula_units_Z   4
loop_
 _symmetry_equiv_pos_site_id
 _symmetry_equiv_pos_as_xyz
  1  'x, y, z'
loop_
 _atom_site_type_symbol
 _atom_site_label
 _atom_site_symmetry_multiplicity
 _atom_site_fract_x
 _atom_site_fract_y
 _atom_site_fract_z
 _atom_site_occupancy
  O  O0  1  0.765387  0.409005  0.409005  1
  O  O1  1  0.765387  0.090995  0.090995  1
  O  O2  1  0.409005  0.409005  0.765387  1
  O  O3  1  0.090995  0.409005  0.734613  1
  O  O4  1  0.409005  0.765387  0.409005  1
  O  O5  1  0.090995  0.734613  0.409005  1
  O  O6  1  0.265387  0.909005  0.590995  1
  O  O7  1  0.265387  0.590995  0.909005  1
  O  O8  1  0.234613  0.909005  0.909005  1
  O  O9  1  0.590995  0.909005  0.265387  1
  O  O10  1  0.909005  0.234613  0.909005  1
  O  O11  1  0.909005  0.265387  0.590995  1
  O  O12  1  0.909005  0.590995  0.265387  1
  O  O13  1  0.590995  0.265387  0.909005  1
  O  O14  1  0.909005  0.909005  0.234613  1
  O  O15  1  0.590995  0.590995  0.234613  1
  O  O16  1  0.590995  0.234613  0.590995  1
  O  O17  1  0.090995  0.765387  0.090995  1
  O  O18  1  0.409005  0.734613  0.090995  1
  O  O19  1  0.409005  0.090995  0.734613  1
  O  O20  1  0.090995  0.090995  0.765387  1
  O  O21  1  0.734613  0.090995  0.409005  1
  O  O22  1  0.734613  0.409005  0.090995  1
  O  O23  1  0.234613  0.590995  0.590995  1
  O  O24  1  0.863266  0.863266  0.863266  1
  O  O25  1  0.363266  0.136734  0.363266  1
  O  O26  1  0.363266  0.363266  0.136734  1
  O  O27  1  0.136734  0.363266  0.363266  1
  O  O28  1  0.636734  0.636734  0.863266  1
  O  O29  1  0.863266  0.636734  0.636734  1
  O  O30  1  0.636734  0.863266  0.636734  1
  O  O31  1  0.136734  0.136734  0.136734  1
  Al  Al32  1  0.750000  0.250000  0.500000  1
  Al  Al33  1  0.000000  0.750000  0.250000  1
  Al  Al34  1  0.500000  0.750000  0.250000  1
  Al  Al35  1  0.250000  0.500000  0.750000  1
  Al  Al36  1  0.250000  0.000000  0.750000  1
  Al  Al37  1  0.750000  0.250000  0.000000  1
  Al  Al38  1  0.250000  0.750000  0.500000  1
  Al  Al39  1  0.000000  0.250000  0.750000  1
  Al  Al40  1  0.500000  0.250000  0.750000  1
  Al  Al41  1  0.750000  0.500000  0.250000  1
  Al  Al42  1  0.750000  0.000000  0.250000  1
  Al  Al43  1  0.250000  0.750000  0.000000  1
  Ho  Ho44  1  0.500000  0.000000  0.500000  1
  Ho  Ho45  1  0.000000  0.500000  0.500000  1
  Ho  Ho46  1  0.000000  0.000000  0.000000  1
  Ho  Ho47  1  0.500000  0.500000  0.000000  1
  Pb  Pb48  1  0.616076  0.616076  0.616076  1
  Pb  Pb49  1  0.116076  0.383924  0.116076  1
  Pb  Pb50  1  0.383924  0.116076  0.116076  1
  Pb  Pb51  1  0.116076  0.116076  0.383924  1
  Pb  Pb52  1  0.616076  0.883924  0.883924  1
  Pb  Pb53  1  0.883924  0.883924  0.616076  1
  Pb  Pb54  1  0.883924  0.616076  0.883924  1
  Pb  Pb55  1  0.383924  0.383924  0.383924  1
