# generated using pymatgen
data_LiFeP3(H7O8)2
_symmetry_space_group_name_H-M   'P 1'
_cell_length_a   7.50737711
_cell_length_b   10.90160481
_cell_length_c   9.01698624
_cell_angle_alpha   107.94075578
_cell_angle_beta   108.87351632
_cell_angle_gamma   79.89314457
_symmetry_Int_Tables_number   1
_chemical_formula_structural   LiFeP3(H7O8)2
_chemical_formula_sum   'Li2 Fe2 P6 H28 O32'
_cell_volume   661.97915808
_cell_formula_units_Z   2
loop_
 _symmetry_equiv_pos_site_id
 _symmetry_equiv_pos_as_xyz
  1  'x, y, z'
loop_
 _atom_site_type_symbol
 _atom_site_label
 _atom_site_symmetry_multiplicity
 _atom_site_fract_x
 _atom_site_fract_y
 _atom_site_fract_z
 _atom_site_occupancy
  Li  Li0  1  0.990207  0.508437  0.486941  1
  Li  Li1  1  0.409323  0.609950  0.362388  1
  Fe  Fe2  1  0.999748  0.999894  0.998996  1
  Fe  Fe3  1  0.583052  0.404286  0.628211  1
  P  P4  1  0.154962  0.200180  0.866739  1
  P  P5  1  0.040319  0.787136  0.470268  1
  P  P6  1  0.295259  0.927235  0.771740  1
  P  P7  1  0.705713  0.070331  0.226396  1
  P  P8  1  0.955023  0.212542  0.532180  1
  P  P9  1  0.847070  0.797706  0.132246  1
  H  H10  1  0.090801  0.280065  0.340153  1
  H  H11  1  0.048162  0.316465  0.176266  1
  H  H12  1  0.284339  0.391535  0.731499  1
  H  H13  1  0.197256  0.068674  0.325545  1
  H  H14  1  0.299046  0.748904  0.920793  1
  H  H15  1  0.322982  0.537074  0.773337  1
  H  H16  1  0.492893  0.677570  0.001490  1
  H  H17  1  0.339706  0.058870  0.224931  1
  H  H18  1  0.415495  0.185684  0.600161  1
  H  H19  1  0.300648  0.378694  0.351610  1
  H  H20  1  0.221002  0.474013  0.052053  1
  H  H21  1  0.627117  0.139868  0.686214  1
  H  H22  1  0.260662  0.612666  0.068735  1
  H  H23  1  0.483469  0.297475  0.312631  1
  H  H24  1  0.513571  0.686311  0.688898  1
  H  H25  1  0.732214  0.387727  0.934236  1
  H  H26  1  0.377082  0.860886  0.312931  1
  H  H27  1  0.773767  0.527151  0.943718  1
  H  H28  1  0.706053  0.622746  0.653962  1
  H  H29  1  0.585371  0.815998  0.402171  1
  H  H30  1  0.658924  0.942018  0.773930  1
  H  H31  1  0.507006  0.322096  0.996925  1
  H  H32  1  0.681036  0.466212  0.234148  1
  H  H33  1  0.701150  0.250067  0.075743  1
  H  H34  1  0.801198  0.931978  0.673210  1
  H  H35  1  0.719123  0.609449  0.273697  1
  H  H36  1  0.955258  0.685612  0.824481  1
  H  H37  1  0.910346  0.721468  0.660080  1
  O  O38  1  0.075790  0.182092  0.991074  1
  O  O39  1  0.247909  0.320860  0.898788  1
  O  O40  1  0.140587  0.195412  0.492306  1
  O  O41  1  0.310274  0.081160  0.822563  1
  O  O42  1  0.076045  0.354616  0.295073  1
  O  O43  1  0.186608  0.894523  0.868244  1
  O  O44  1  0.013447  0.820140  0.300943  1
  O  O45  1  0.148974  0.658584  0.472275  1
  O  O46  1  0.311152  0.453926  0.684137  1
  O  O47  1  0.237341  0.013381  0.229635  1
  O  O48  1  0.358656  0.664825  0.940966  1
  O  O49  1  0.168279  0.906142  0.585206  1
  O  O50  1  0.232040  0.560553  0.129364  1
  O  O51  1  0.547225  0.207278  0.636603  1
  O  O52  1  0.441456  0.381522  0.380212  1
  O  O53  1  0.489493  0.861838  0.782259  1
  O  O54  1  0.511087  0.135849  0.215879  1
  O  O55  1  0.570239  0.605831  0.627805  1
  O  O56  1  0.453845  0.793626  0.363155  1
  O  O57  1  0.760136  0.438315  0.869904  1
  O  O58  1  0.831501  0.092943  0.414012  1
  O  O59  1  0.642697  0.333329  0.052076  1
  O  O60  1  0.760192  0.988550  0.769000  1
  O  O61  1  0.708103  0.545563  0.326037  1
  O  O62  1  0.839436  0.339969  0.534316  1
  O  O63  1  0.984533  0.176755  0.699477  1
  O  O64  1  0.814210  0.105342  0.131761  1
  O  O65  1  0.928105  0.646864  0.705869  1
  O  O66  1  0.690715  0.917282  0.176228  1
  O  O67  1  0.854364  0.811951  0.511282  1
  O  O68  1  0.752067  0.676988  0.093959  1
  O  O69  1  0.927144  0.819017  0.009939  1
