# generated using pymatgen
data_Ba3Dy4O9
_symmetry_space_group_name_H-M   'P 1'
_cell_length_a   9.26097227
_cell_length_b   9.26097227
_cell_length_c   9.26097227
_cell_angle_alpha   38.79252026
_cell_angle_beta   38.79252023
_cell_angle_gamma   38.79252019
_symmetry_Int_Tables_number   1
_chemical_formula_structural   Ba3Dy4O9
_chemical_formula_sum   'Ba3 Dy4 O9'
_cell_volume   280.25791212
_cell_formula_units_Z   1
loop_
 _symmetry_equiv_pos_site_id
 _symmetry_equiv_pos_as_xyz
  1  'x, y, z'
loop_
 _atom_site_type_symbol
 _atom_site_label
 _atom_site_symmetry_multiplicity
 _atom_site_fract_x
 _atom_site_fract_y
 _atom_site_fract_z
 _atom_site_occupancy
  O  O0  1  0.452064  0.583814  0.041105  1
  O  O1  1  0.583814  0.041105  0.452064  1
  O  O2  1  0.041105  0.452064  0.583814  1
  O  O3  1  0.586251  0.701595  0.125621  1
  O  O4  1  0.701595  0.125621  0.586251  1
  O  O5  1  0.125621  0.586251  0.701595  1
  O  O6  1  0.017756  0.579393  0.145059  1
  O  O7  1  0.145059  0.017756  0.579393  1
  O  O8  1  0.579393  0.145059  0.017756  1
  Ba  Ba9  1  0.997397  0.997397  0.997397  1
  Ba  Ba10  1  0.163567  0.163567  0.163567  1
  Ba  Ba11  1  0.575410  0.575410  0.575410  1
  Dy  Dy12  1  0.424388  0.424388  0.424388  1
  Dy  Dy13  1  0.862717  0.862717  0.862717  1
  Dy  Dy14  1  0.736829  0.736829  0.736829  1
  Dy  Dy15  1  0.299134  0.299134  0.299134  1
