# generated using pymatgen
data_NaCrH22N6(Cl2O)2
_symmetry_space_group_name_H-M   'P 1'
_cell_length_a   7.14630586
_cell_length_b   9.27510032
_cell_length_c   22.85414679
_cell_angle_alpha   90.00000000
_cell_angle_beta   90.00000000
_cell_angle_gamma   90.00000000
_symmetry_Int_Tables_number   1
_chemical_formula_structural   NaCrH22N6(Cl2O)2
_chemical_formula_sum   'Na4 Cr4 H88 N24 Cl16 O8'
_cell_volume   1514.83464157
_cell_formula_units_Z   4
loop_
 _symmetry_equiv_pos_site_id
 _symmetry_equiv_pos_as_xyz
  1  'x, y, z'
loop_
 _atom_site_type_symbol
 _atom_site_label
 _atom_site_symmetry_multiplicity
 _atom_site_fract_x
 _atom_site_fract_y
 _atom_site_fract_z
 _atom_site_occupancy
  Na  Na0  1  0.103079  0.093409  0.873726  1
  Na  Na1  1  0.396921  0.906591  0.373726  1
  Na  Na2  1  0.603079  0.406591  0.126274  1
  Na  Na3  1  0.896921  0.593409  0.626274  1
  Cr  Cr4  1  0.099076  0.903360  0.121616  1
  Cr  Cr5  1  0.400924  0.096640  0.621616  1
  Cr  Cr6  1  0.599076  0.596640  0.878384  1
  Cr  Cr7  1  0.900924  0.403360  0.378384  1
  H  H8  1  0.007768  0.630460  0.095391  1
  H  H9  1  0.042705  0.647098  0.336027  1
  H  H10  1  0.046689  0.835308  0.440226  1
  H  H11  1  0.064032  0.366271  0.276934  1
  H  H12  1  0.074317  0.494726  0.477442  1
  H  H13  1  0.083623  0.716619  0.035598  1
  H  H14  1  0.083809  0.089525  0.679017  1
  H  H15  1  0.103341  0.465320  0.731716  1
  H  H16  1  0.086564  0.107425  0.561841  1
  H  H17  1  0.129439  0.092874  0.206518  1
  H  H18  1  0.129494  0.227025  0.318470  1
  H  H19  1  0.136688  0.932471  0.572324  1
  H  H20  1  0.138620  0.265193  0.672201  1
  H  H21  1  0.176332  0.180599  0.143745  1
  H  H22  1  0.183027  0.560718  0.419681  1
  H  H23  1  0.212784  0.389021  0.438410  1
  H  H24  1  0.209925  0.774325  0.479078  1
  H  H25  1  0.229642  0.391328  0.326123  1
  H  H26  1  0.234283  0.652041  0.083674  1
  H  H27  1  0.238350  0.164527  0.723208  1
  H  H28  1  0.241787  0.025093  0.519800  1
  H  H29  1  0.244533  0.520715  0.684394  1
  H  H30  1  0.255467  0.479285  0.184394  1
  H  H31  1  0.258213  0.974907  0.019800  1
  H  H32  1  0.261650  0.835473  0.223208  1
  H  H33  1  0.265717  0.347959  0.583674  1
  H  H34  1  0.270358  0.608672  0.826123  1
  H  H35  1  0.290075  0.225675  0.979078  1
  H  H36  1  0.287216  0.610979  0.938410  1
  H  H37  1  0.316973  0.439282  0.919681  1
  H  H38  1  0.323668  0.819401  0.643745  1
  H  H39  1  0.361380  0.734807  0.172201  1
  H  H40  1  0.363312  0.067529  0.072324  1
  H  H41  1  0.370506  0.772975  0.818470  1
  H  H42  1  0.370561  0.907126  0.706518  1
  H  H43  1  0.413436  0.892575  0.061841  1
  H  H44  1  0.396659  0.534680  0.231716  1
  H  H45  1  0.416191  0.910475  0.179017  1
  H  H46  1  0.416377  0.283381  0.535598  1
  H  H47  1  0.425683  0.505274  0.977442  1
  H  H48  1  0.435968  0.633729  0.776934  1
  H  H49  1  0.453311  0.164692  0.940226  1
  H  H50  1  0.457295  0.352902  0.836027  1
  H  H51  1  0.492232  0.369540  0.595391  1
  H  H52  1  0.507768  0.869540  0.904609  1
  H  H53  1  0.542705  0.852902  0.663973  1
  H  H54  1  0.546689  0.664692  0.559774  1
  H  H55  1  0.564032  0.133729  0.723066  1
  H  H56  1  0.574317  0.005274  0.522558  1
  H  H57  1  0.583623  0.783381  0.964402  1
  H  H58  1  0.583809  0.410475  0.320983  1
  H  H59  1  0.603341  0.034680  0.268284  1
  H  H60  1  0.586564  0.392575  0.438159  1
  H  H61  1  0.629439  0.407126  0.793482  1
  H  H62  1  0.629494  0.272975  0.681530  1
  H  H63  1  0.636688  0.567529  0.427676  1
  H  H64  1  0.638620  0.234807  0.327799  1
  H  H65  1  0.676332  0.319401  0.856255  1
  H  H66  1  0.683027  0.939282  0.580319  1
  H  H67  1  0.712784  0.110979  0.561590  1
  H  H68  1  0.709925  0.725675  0.520922  1
  H  H69  1  0.729642  0.108672  0.673877  1
  H  H70  1  0.734283  0.847959  0.916326  1
  H  H71  1  0.738350  0.335473  0.276792  1
  H  H72  1  0.741787  0.474907  0.480200  1
  H  H73  1  0.744533  0.979285  0.315606  1
  H  H74  1  0.755467  0.020715  0.815606  1
  H  H75  1  0.758213  0.525093  0.980200  1
  H  H76  1  0.761650  0.664527  0.776792  1
  H  H77  1  0.765717  0.152041  0.416326  1
  H  H78  1  0.770358  0.891328  0.173877  1
  H  H79  1  0.790075  0.274325  0.020922  1
  H  H80  1  0.787216  0.889021  0.061590  1
  H  H81  1  0.816973  0.060718  0.080319  1
  H  H82  1  0.823668  0.680599  0.356255  1
  H  H83  1  0.861380  0.765193  0.827799  1
  H  H84  1  0.863312  0.432471  0.927676  1
  H  H85  1  0.870506  0.727025  0.181530  1
  H  H86  1  0.870561  0.592874  0.293482  1
  H  H87  1  0.913436  0.607425  0.938159  1
  H  H88  1  0.896659  0.965320  0.768284  1
  H  H89  1  0.916191  0.589525  0.820983  1
  H  H90  1  0.916377  0.216619  0.464402  1
  H  H91  1  0.925683  0.994726  0.022558  1
  H  H92  1  0.935968  0.866271  0.223066  1
  H  H93  1  0.953311  0.335308  0.059774  1
  H  H94  1  0.957295  0.147098  0.163973  1
  H  H95  1  0.992232  0.130460  0.404609  1
  N  N96  1  0.090876  0.105272  0.163433  1
  N  N97  1  0.106097  0.701609  0.079772  1
  N  N98  1  0.106208  0.336960  0.318490  1
  N  N99  1  0.114735  0.471071  0.435400  1
  N  N100  1  0.191858  0.163877  0.680643  1
  N  N101  1  0.192832  0.031392  0.561961  1
  N  N102  1  0.307168  0.968608  0.061961  1
  N  N103  1  0.308142  0.836123  0.180643  1
  N  N104  1  0.385265  0.528929  0.935400  1
  N  N105  1  0.393792  0.663041  0.818490  1
  N  N106  1  0.393903  0.298391  0.579772  1
  N  N107  1  0.409124  0.894728  0.663433  1
  N  N108  1  0.590876  0.394728  0.836567  1
  N  N109  1  0.606097  0.798391  0.920228  1
  N  N110  1  0.606208  0.163041  0.681510  1
  N  N111  1  0.614735  0.028929  0.564600  1
  N  N112  1  0.691858  0.336123  0.319357  1
  N  N113  1  0.692832  0.468608  0.438039  1
  N  N114  1  0.807168  0.531392  0.938039  1
  N  N115  1  0.808142  0.663877  0.819357  1
  N  N116  1  0.885265  0.971071  0.064600  1
  N  N117  1  0.893792  0.836959  0.181510  1
  N  N118  1  0.893903  0.201609  0.420228  1
  N  N119  1  0.909124  0.605272  0.336567  1
  Cl  Cl120  1  0.078520  0.979683  0.302853  1
  Cl  Cl121  1  0.099222  0.389128  0.823474  1
  Cl  Cl122  1  0.097748  0.807670  0.938635  1
  Cl  Cl123  1  0.232412  0.663290  0.561182  1
  Cl  Cl124  1  0.267588  0.336710  0.061182  1
  Cl  Cl125  1  0.402252  0.192330  0.438635  1
  Cl  Cl126  1  0.400778  0.610871  0.323474  1
  Cl  Cl127  1  0.421480  0.020317  0.802853  1
  Cl  Cl128  1  0.578520  0.520317  0.697147  1
  Cl  Cl129  1  0.599222  0.110872  0.176526  1
  Cl  Cl130  1  0.597748  0.692330  0.061365  1
  Cl  Cl131  1  0.732412  0.836710  0.438818  1
  Cl  Cl132  1  0.767588  0.163290  0.938818  1
  Cl  Cl133  1  0.902252  0.307670  0.561365  1
  Cl  Cl134  1  0.900778  0.889129  0.676526  1
  Cl  Cl135  1  0.921480  0.479683  0.197147  1
  O  O136  1  0.113740  0.489260  0.689734  1
  O  O137  1  0.184200  0.823904  0.441587  1
  O  O138  1  0.315800  0.176096  0.941587  1
  O  O139  1  0.386260  0.510740  0.189734  1
  O  O140  1  0.613740  0.010740  0.310266  1
  O  O141  1  0.684200  0.676096  0.558413  1
  O  O142  1  0.815800  0.323904  0.058413  1
  O  O143  1  0.886260  0.989260  0.810266  1
