# generated using pymatgen
data_Pr(Al2Cu)4
_symmetry_space_group_name_H-M   'P 1'
_cell_length_a   5.20189024
_cell_length_b   6.81688381
_cell_length_c   6.81688381
_cell_angle_alpha   98.37065124
_cell_angle_beta   67.57060919
_cell_angle_gamma   112.42939081
_symmetry_Int_Tables_number   1
_chemical_formula_structural   Pr(Al2Cu)4
_chemical_formula_sum   'Pr1 Al8 Cu4'
_cell_volume   206.54099675
_cell_formula_units_Z   1
loop_
 _symmetry_equiv_pos_site_id
 _symmetry_equiv_pos_as_xyz
  1  'x, y, z'
loop_
 _atom_site_type_symbol
 _atom_site_label
 _atom_site_symmetry_multiplicity
 _atom_site_fract_x
 _atom_site_fract_y
 _atom_site_fract_z
 _atom_site_occupancy
  Pr  Pr0  1  0.000000  0.000000  0.000000  1
  Al  Al1  1  0.500000  0.221811  0.221811  1
  Al  Al2  1  0.278188  0.778188  0.221812  1
  Al  Al3  1  0.000000  0.349249  0.349249  1
  Al  Al4  1  0.650751  0.650752  0.349249  1
  Al  Al5  1  0.000000  0.650751  0.650751  1
  Al  Al6  1  0.349248  0.349249  0.650752  1
  Al  Al7  1  0.500000  0.778188  0.778188  1
  Al  Al8  1  0.721811  0.221812  0.778188  1
  Cu  Cu9  1  0.000000  0.500000  0.000000  1
  Cu  Cu10  1  0.500000  0.500000  0.000000  1
  Cu  Cu11  1  0.999999  0.000000  0.500000  1
  Cu  Cu12  1  0.499999  0.000000  0.500000  1
