# generated using pymatgen
data_Li5Mn6(BO3)6
_symmetry_space_group_name_H-M   'P 1'
_cell_length_a   6.36567312
_cell_length_b   14.38452119
_cell_length_c   8.82749913
_cell_angle_alpha   90.55548256
_cell_angle_beta   68.86545041
_cell_angle_gamma   90.00000000
_symmetry_Int_Tables_number   1
_chemical_formula_structural   Li5Mn6(BO3)6
_chemical_formula_sum   'Li10 Mn12 B12 O36'
_cell_volume   753.89842994
_cell_formula_units_Z   2
loop_
 _symmetry_equiv_pos_site_id
 _symmetry_equiv_pos_as_xyz
  1  'x, y, z'
loop_
 _atom_site_type_symbol
 _atom_site_label
 _atom_site_symmetry_multiplicity
 _atom_site_fract_x
 _atom_site_fract_y
 _atom_site_fract_z
 _atom_site_occupancy
  Li  Li0  1  0.104566  0.990059  0.290866  1
  Li  Li1  1  0.078817  0.358407  0.342365  1
  Li  Li2  1  0.315043  0.148592  0.869915  1
  Li  Li3  1  0.329672  0.858062  0.840655  1
  Li  Li4  1  0.355211  0.491730  0.789576  1
  Li  Li5  1  0.564752  0.649395  0.370494  1
  Li  Li6  1  0.580365  0.358882  0.339271  1
  Li  Li7  1  0.603999  0.990686  0.292001  1
  Li  Li8  1  0.829544  0.859000  0.840913  1
  Li  Li9  1  0.852998  0.488354  0.794005  1
  Mn  Mn10  1  0.175425  0.010672  0.643395  1
  Mn  Mn11  1  0.159057  0.309697  0.677650  1
  Mn  Mn12  1  0.424002  0.510809  0.143630  1
  Mn  Mn13  1  0.409692  0.809543  0.177405  1
  Mn  Mn14  1  0.156654  0.680505  0.681719  1
  Mn  Mn15  1  0.411664  0.180686  0.181224  1
  Mn  Mn16  1  0.907112  0.180686  0.181224  1
  Mn  Mn17  1  0.661628  0.680505  0.681719  1
  Mn  Mn18  1  0.912904  0.809543  0.177405  1
  Mn  Mn19  1  0.932367  0.510809  0.143630  1
  Mn  Mn20  1  0.663293  0.309697  0.677650  1
  Mn  Mn21  1  0.681179  0.010672  0.643395  1
  B  B22  1  0.002856  0.996253  0.003252  1
  B  B23  1  0.249804  0.335013  0.000392  1
  B  B24  1  0.999860  0.837305  0.500281  1
  B  B25  1  0.003966  0.166338  0.492069  1
  B  B26  1  0.493891  0.996253  0.003252  1
  B  B27  1  0.253071  0.496430  0.503411  1
  B  B28  1  0.501052  0.167495  0.497895  1
  B  B29  1  0.750776  0.667655  0.998449  1
  B  B30  1  0.254151  0.666246  0.991698  1
  B  B31  1  0.499204  0.836337  0.501593  1
  B  B32  1  0.748988  0.339538  0.002025  1
  B  B33  1  0.743518  0.496430  0.503411  1
  O  O34  1  0.081937  0.127913  0.336125  1
  O  O35  1  0.243199  0.762894  0.013603  1
  O  O36  1  0.180822  0.280732  0.138357  1
  O  O37  1  0.187213  0.609771  0.125575  1
  O  O38  1  0.243975  0.430948  0.012050  1
  O  O39  1  0.078312  0.803095  0.343376  1
  O  O40  1  0.171741  0.455089  0.656187  1
  O  O41  1  0.317386  0.440018  0.364047  1
  O  O42  1  0.069146  0.939813  0.863797  1
  O  O43  1  0.424649  0.954899  0.156020  1
  O  O44  1  0.024275  0.090884  0.988692  1
  O  O45  1  0.274157  0.591117  0.488850  1
  O  O46  1  0.430883  0.780974  0.638233  1
  O  O47  1  0.431903  0.112459  0.636194  1
  O  O48  1  0.492350  0.932383  0.515301  1
  O  O49  1  0.325653  0.290818  0.848692  1
  O  O50  1  0.491599  0.264211  0.516800  1
  O  O51  1  0.575322  0.792775  0.349356  1
  O  O52  1  0.578100  0.127763  0.343800  1
  O  O53  1  0.683110  0.280074  0.133780  1
  O  O54  1  0.681191  0.613730  0.137617  1
  O  O55  1  0.741862  0.764501  0.016276  1
  O  O56  1  0.736254  0.435228  0.027491  1
  O  O57  1  0.332239  0.628228  0.835523  1
  O  O58  1  0.736992  0.591117  0.488850  1
  O  O59  1  0.487033  0.090884  0.988692  1
  O  O60  1  0.919330  0.954899  0.156020  1
  O  O61  1  0.567057  0.939813  0.863797  1
  O  O62  1  0.818567  0.440018  0.364047  1
  O  O63  1  0.672072  0.455089  0.656187  1
  O  O64  1  0.933059  0.779152  0.633881  1
  O  O65  1  0.827625  0.627268  0.844752  1
  O  O66  1  0.936723  0.110568  0.626553  1
  O  O67  1  0.993202  0.263125  0.513597  1
  O  O68  1  0.988386  0.933013  0.523229  1
  O  O69  1  0.827932  0.306494  0.844136  1
