# generated using pymatgen
data_Li5Fe5Si7O24
_symmetry_space_group_name_H-M   'P 1'
_cell_length_a   7.86660447
_cell_length_b   7.90733795
_cell_length_c   9.36778204
_cell_angle_alpha   90.37915826
_cell_angle_beta   89.05739282
_cell_angle_gamma   89.01111448
_symmetry_Int_Tables_number   1
_chemical_formula_structural   Li5Fe5Si7O24
_chemical_formula_sum   'Li5 Fe5 Si7 O24'
_cell_volume   582.53306576
_cell_formula_units_Z   1
loop_
 _symmetry_equiv_pos_site_id
 _symmetry_equiv_pos_as_xyz
  1  'x, y, z'
loop_
 _atom_site_type_symbol
 _atom_site_label
 _atom_site_symmetry_multiplicity
 _atom_site_fract_x
 _atom_site_fract_y
 _atom_site_fract_z
 _atom_site_occupancy
  Li  Li0  1  0.422482  0.706285  0.257446  1
  Li  Li1  1  0.519727  0.234685  0.757189  1
  Li  Li2  1  0.748986  0.455750  0.733577  1
  Li  Li3  1  0.775253  0.005211  0.002410  1
  Li  Li4  1  0.013570  0.742672  0.977763  1
  Fe  Fe5  1  0.382287  0.847320  0.003186  1
  Fe  Fe6  1  0.410333  0.405112  0.996254  1
  Fe  Fe7  1  0.573308  0.580442  0.495548  1
  Fe  Fe8  1  0.674010  0.875960  0.744938  1
  Fe  Fe9  1  0.844021  0.379634  0.010099  1
  Si  Si10  1  0.084272  0.929186  0.744478  1
  Si  Si11  1  0.128796  0.325130  0.736575  1
  Si  Si12  1  0.150698  0.627043  0.510585  1
  Si  Si13  1  0.318032  0.117403  0.259249  1
  Si  Si14  1  0.616181  0.163806  0.483360  1
  Si  Si15  1  0.872783  0.681906  0.261154  1
  Si  Si16  1  0.925910  0.078734  0.261272  1
  O  O17  1  0.013768  0.631400  0.380467  1
  O  O18  1  0.106324  0.124316  0.688699  1
  O  O19  1  0.125111  0.448209  0.595276  1
  O  O20  1  0.115979  0.118184  0.315046  1
  O  O21  1  0.110963  0.795215  0.610817  1
  O  O22  1  0.201657  0.872552  0.877390  1
  O  O23  1  0.307884  0.339886  0.818600  1
  O  O24  1  0.349446  0.264545  0.144591  1
  O  O25  1  0.344629  0.632892  0.446041  1
  O  O26  1  0.361742  0.930551  0.193581  1
  O  O27  1  0.377990  0.622989  0.065249  1
  O  O28  1  0.440467  0.146295  0.397031  1
  O  O29  1  0.574382  0.938773  0.920528  1
  O  O30  1  0.630401  0.355316  0.550554  1
  O  O31  1  0.602304  0.051297  0.627214  1
  O  O32  1  0.635592  0.365265  0.916172  1
  O  O33  1  0.655404  0.663213  0.666195  1
  O  O34  1  0.679731  0.659067  0.323668  1
  O  O35  1  0.786358  0.111986  0.388995  1
  O  O36  1  0.874402  0.180770  0.116755  1
  O  O37  1  0.896766  0.902967  0.822303  1
  O  O38  1  0.904746  0.579451  0.109817  1
  O  O39  1  0.906209  0.879181  0.204705  1
  O  O40  1  0.966538  0.392932  0.834078  1
