# generated using pymatgen
data_Li4MnCo3O8
_symmetry_space_group_name_H-M   'P 1'
_cell_length_a   5.96664085
_cell_length_b   5.82359106
_cell_length_c   5.86697606
_cell_angle_alpha   90.53691380
_cell_angle_beta   119.08743864
_cell_angle_gamma   118.78589254
_symmetry_Int_Tables_number   1
_chemical_formula_structural   Li4MnCo3O8
_chemical_formula_sum   'Li4 Mn1 Co3 O8'
_cell_volume   148.03629790
_cell_formula_units_Z   1
loop_
 _symmetry_equiv_pos_site_id
 _symmetry_equiv_pos_as_xyz
  1  'x, y, z'
loop_
 _atom_site_type_symbol
 _atom_site_label
 _atom_site_symmetry_multiplicity
 _atom_site_fract_x
 _atom_site_fract_y
 _atom_site_fract_z
 _atom_site_occupancy
  Li  Li0  1  -0.000001  0.500002  0.499997  1
  Li  Li1  1  0.499998  0.500001  0.499996  1
  Li  Li2  1  0.999990  0.999997  0.500000  1
  Li  Li3  1  0.499996  0.000002  0.499999  1
  Mn  Mn4  1  0.000036  0.000025  0.000011  1
  Co  Co5  1  0.999993  0.500004  0.000001  1
  Co  Co6  1  0.500009  0.500009  -0.000003  1
  Co  Co7  1  0.499994  0.999991  0.999991  1
  O  O8  1  0.013975  0.763206  0.775632  1
  O  O9  1  0.483682  0.744087  0.764287  1
  O  O10  1  0.480180  0.738561  0.231049  1
  O  O11  1  0.013944  0.251665  0.776346  1
  O  O12  1  0.986037  0.748325  0.223639  1
  O  O13  1  0.519813  0.261434  0.768947  1
  O  O14  1  0.516301  0.255903  0.235715  1
  O  O15  1  0.986011  0.236784  0.224375  1
