# generated using pymatgen
data_LiPrGe2
_symmetry_space_group_name_H-M   'P 1'
_cell_length_a   7.85642305
_cell_length_b   3.99812403
_cell_length_c   10.79963609
_cell_angle_alpha   89.99980808
_cell_angle_beta   89.99998897
_cell_angle_gamma   89.99995453
_symmetry_Int_Tables_number   1
_chemical_formula_structural   LiPrGe2
_chemical_formula_sum   'Li4 Pr4 Ge8'
_cell_volume   339.22687013
_cell_formula_units_Z   4
loop_
 _symmetry_equiv_pos_site_id
 _symmetry_equiv_pos_as_xyz
  1  'x, y, z'
loop_
 _atom_site_type_symbol
 _atom_site_label
 _atom_site_symmetry_multiplicity
 _atom_site_fract_x
 _atom_site_fract_y
 _atom_site_fract_z
 _atom_site_occupancy
  Li  Li0  1  0.509268  0.750001  0.111030  1
  Li  Li1  1  0.009268  0.750001  0.388970  1
  Li  Li2  1  0.990732  0.250001  0.611030  1
  Li  Li3  1  0.490733  0.250001  0.888970  1
  Pr  Pr4  1  0.139716  0.250002  0.134114  1
  Pr  Pr5  1  0.639716  0.250002  0.365886  1
  Pr  Pr6  1  0.360285  0.750001  0.634114  1
  Pr  Pr7  1  0.860285  0.750002  0.865886  1
  Ge  Ge8  1  0.719620  0.250000  0.066834  1
  Ge  Ge9  1  0.842818  0.750001  0.183385  1
  Ge  Ge10  1  0.342818  0.749999  0.316615  1
  Ge  Ge11  1  0.219623  0.249999  0.433166  1
  Ge  Ge12  1  0.780378  0.750003  0.566834  1
  Ge  Ge13  1  0.657182  0.250002  0.683386  1
  Ge  Ge14  1  0.157182  0.250001  0.816615  1
  Ge  Ge15  1  0.280378  0.750000  0.933166  1
