# generated using pymatgen
data_Ba3Er2Cu2PtO10
_symmetry_space_group_name_H-M   'P 1'
_cell_length_a   5.85798213
_cell_length_b   6.92003695
_cell_length_c   7.49914094
_cell_angle_alpha   104.24652803
_cell_angle_beta   90.00000000
_cell_angle_gamma   115.04072503
_symmetry_Int_Tables_number   1
_chemical_formula_structural   Ba3Er2Cu2PtO10
_chemical_formula_sum   'Ba3 Er2 Cu2 Pt1 O10'
_cell_volume   265.06757066
_cell_formula_units_Z   1
loop_
 _symmetry_equiv_pos_site_id
 _symmetry_equiv_pos_as_xyz
  1  'x, y, z'
loop_
 _atom_site_type_symbol
 _atom_site_label
 _atom_site_symmetry_multiplicity
 _atom_site_fract_x
 _atom_site_fract_y
 _atom_site_fract_z
 _atom_site_occupancy
  O  O0  1  0.668425  0.336850  0.555527  1
  O  O1  1  0.331575  0.663150  0.444473  1
  O  O2  1  0.544309  0.631982  0.877069  1
  O  O3  1  0.912327  0.368018  0.122931  1
  O  O4  1  0.455691  0.368018  0.122931  1
  O  O5  1  0.087673  0.631982  0.877069  1
  O  O6  1  0.701569  0.963928  0.280376  1
  O  O7  1  0.737642  0.036072  0.719624  1
  O  O8  1  0.262358  0.963928  0.280376  1
  O  O9  1  0.298431  0.036072  0.719624  1
  Cu  Cu10  1  0.588901  0.177803  0.197281  1
  Cu  Cu11  1  0.411099  0.822197  0.802719  1
  Ba  Ba12  1  0.000000  0.000000  0.000000  1
  Ba  Ba13  1  0.845963  0.691926  0.454937  1
  Ba  Ba14  1  0.154037  0.308074  0.545063  1
  Er  Er15  1  0.689239  0.378477  0.874409  1
  Er  Er16  1  0.310761  0.621523  0.125591  1
  Pt  Pt17  1  0.500000  0.000000  0.500000  1
