# generated using pymatgen
data_LiMnPO4
_symmetry_space_group_name_H-M   'P 1'
_cell_length_a   7.43178069
_cell_length_b   4.81528615
_cell_length_c   18.23539470
_cell_angle_alpha   90.00000000
_cell_angle_beta   89.10107925
_cell_angle_gamma   90.00000000
_symmetry_Int_Tables_number   1
_chemical_formula_structural   LiMnPO4
_chemical_formula_sum   'Li8 Mn8 P8 O32'
_cell_volume   652.49426789
_cell_formula_units_Z   8
loop_
 _symmetry_equiv_pos_site_id
 _symmetry_equiv_pos_as_xyz
  1  'x, y, z'
loop_
 _atom_site_type_symbol
 _atom_site_label
 _atom_site_symmetry_multiplicity
 _atom_site_fract_x
 _atom_site_fract_y
 _atom_site_fract_z
 _atom_site_occupancy
  Li  Li0  1  0.145695  0.767168  0.770576  1
  Li  Li1  1  0.145695  0.732832  0.270576  1
  Li  Li2  1  0.330940  0.223047  0.518273  1
  Li  Li3  1  0.330940  0.276953  0.018273  1
  Li  Li4  1  0.669060  0.723047  0.981727  1
  Li  Li5  1  0.669060  0.776953  0.481727  1
  Li  Li6  1  0.854305  0.267168  0.729424  1
  Li  Li7  1  0.854305  0.232832  0.229424  1
  Mn  Mn8  1  0.029274  0.757540  0.599089  1
  Mn  Mn9  1  0.029274  0.742460  0.099089  1
  Mn  Mn10  1  0.479758  0.327201  0.832445  1
  Mn  Mn11  1  0.479758  0.172799  0.332445  1
  Mn  Mn12  1  0.520242  0.827200  0.667555  1
  Mn  Mn13  1  0.520242  0.672800  0.167555  1
  Mn  Mn14  1  0.970726  0.257540  0.900911  1
  Mn  Mn15  1  0.970726  0.242460  0.400911  1
  P  P16  1  0.240824  0.328793  0.678334  1
  P  P17  1  0.240824  0.171207  0.178334  1
  P  P18  1  0.257473  0.715308  0.930676  1
  P  P19  1  0.257473  0.784692  0.430676  1
  P  P20  1  0.742527  0.215308  0.569324  1
  P  P21  1  0.742527  0.284692  0.069324  1
  P  P22  1  0.759176  0.828793  0.821666  1
  P  P23  1  0.759176  0.671207  0.321666  1
  O  O24  1  0.073581  0.450028  0.717248  1
  O  O25  1  0.073581  0.049972  0.217249  1
  O  O26  1  0.176381  0.614366  0.004477  1
  O  O27  1  0.153646  0.575992  0.866367  1
  O  O28  1  0.235144  0.438241  0.598649  1
  O  O29  1  0.249475  0.004798  0.682242  1
  O  O30  1  0.176381  0.885634  0.504477  1
  O  O31  1  0.153646  0.924008  0.366367  1
  O  O32  1  0.235144  0.061759  0.098649  1
  O  O33  1  0.249475  0.495202  0.182242  1
  O  O34  1  0.250765  0.038170  0.922505  1
  O  O35  1  0.250765  0.461830  0.422505  1
  O  O36  1  0.413679  0.447926  0.717668  1
  O  O37  1  0.413679  0.052074  0.217668  1
  O  O38  1  0.453249  0.599619  0.924365  1
  O  O39  1  0.453249  0.900381  0.424365  1
  O  O40  1  0.546751  0.099619  0.575635  1
  O  O41  1  0.546751  0.400381  0.075635  1
  O  O42  1  0.586321  0.947926  0.782332  1
  O  O43  1  0.586321  0.552074  0.282332  1
  O  O44  1  0.749235  0.538170  0.577495  1
  O  O45  1  0.749235  0.961830  0.077495  1
  O  O46  1  0.750525  0.504798  0.817758  1
  O  O47  1  0.764856  0.938241  0.901351  1
  O  O48  1  0.846354  0.075992  0.633633  1
  O  O49  1  0.823619  0.114366  0.495523  1
  O  O50  1  0.750525  0.995202  0.317758  1
  O  O51  1  0.764856  0.561759  0.401350  1
  O  O52  1  0.846354  0.424008  0.133633  1
  O  O53  1  0.823619  0.385634  0.995523  1
  O  O54  1  0.926419  0.950028  0.782752  1
  O  O55  1  0.926419  0.549972  0.282752  1
