# generated using pymatgen
data_LiFeSiO4
_symmetry_space_group_name_H-M   'P 1'
_cell_length_a   8.65707295
_cell_length_b   8.65703379
_cell_length_c   8.65706438
_cell_angle_alpha   107.96418719
_cell_angle_beta   107.96458759
_cell_angle_gamma   107.96404094
_symmetry_Int_Tables_number   1
_chemical_formula_structural   LiFeSiO4
_chemical_formula_sum   'Li6 Fe6 Si6 O24'
_cell_volume   525.46643767
_cell_formula_units_Z   6
loop_
 _symmetry_equiv_pos_site_id
 _symmetry_equiv_pos_as_xyz
  1  'x, y, z'
loop_
 _atom_site_type_symbol
 _atom_site_label
 _atom_site_symmetry_multiplicity
 _atom_site_fract_x
 _atom_site_fract_y
 _atom_site_fract_z
 _atom_site_occupancy
  Li  Li0  1  0.125904  0.913192  0.745174  1
  Li  Li1  1  0.254829  0.874099  0.086811  1
  Li  Li2  1  0.086812  0.254827  0.874097  1
  Li  Li3  1  0.913188  0.745173  0.125903  1
  Li  Li4  1  0.745171  0.125901  0.913189  1
  Li  Li5  1  0.874096  0.086808  0.254826  1
  Fe  Fe6  1  0.393352  0.809967  0.576561  1
  Fe  Fe7  1  0.190032  0.423446  0.606643  1
  Fe  Fe8  1  0.423441  0.606649  0.190040  1
  Fe  Fe9  1  0.576559  0.393351  0.809960  1
  Fe  Fe10  1  0.809968  0.576554  0.393357  1
  Fe  Fe11  1  0.606648  0.190033  0.423439  1
  Si  Si12  1  0.052904  0.461985  0.230368  1
  Si  Si13  1  0.538011  0.769627  0.947095  1
  Si  Si14  1  0.769630  0.947092  0.538012  1
  Si  Si15  1  0.230370  0.052908  0.461988  1
  Si  Si16  1  0.461989  0.230373  0.052905  1
  Si  Si17  1  0.947096  0.538015  0.769632  1
  O  O18  1  0.319204  0.028670  0.983831  1
  O  O19  1  0.016172  0.680797  0.971338  1
  O  O20  1  0.257156  0.938978  0.583322  1
  O  O21  1  0.416677  0.742842  0.061023  1
  O  O22  1  0.631621  0.954517  0.635474  1
  O  O23  1  0.276784  0.615751  0.324969  1
  O  O24  1  0.061021  0.416676  0.742845  1
  O  O25  1  0.384247  0.675034  0.723212  1
  O  O26  1  0.045479  0.364522  0.368377  1
  O  O27  1  0.364528  0.368386  0.045487  1
  O  O28  1  0.675035  0.723209  0.384249  1
  O  O29  1  0.971333  0.016171  0.680800  1
  O  O30  1  0.028667  0.983829  0.319200  1
  O  O31  1  0.324965  0.276791  0.615751  1
  O  O32  1  0.635472  0.631614  0.954513  1
  O  O33  1  0.954521  0.635478  0.631623  1
  O  O34  1  0.615753  0.324966  0.276788  1
  O  O35  1  0.938979  0.583324  0.257155  1
  O  O36  1  0.723216  0.384249  0.675031  1
  O  O37  1  0.368379  0.045483  0.364526  1
  O  O38  1  0.583323  0.257158  0.938977  1
  O  O39  1  0.742844  0.061022  0.416678  1
  O  O40  1  0.983828  0.319203  0.028662  1
  O  O41  1  0.680796  0.971330  0.016169  1
