# generated using pymatgen
data_H16RhN5(Cl2O)3
_symmetry_space_group_name_H-M   'P 1'
_cell_length_a   6.92858304
_cell_length_b   6.92862172
_cell_length_c   9.33810866
_cell_angle_alpha   111.78001141
_cell_angle_beta   90.00000333
_cell_angle_gamma   119.99980664
_symmetry_Int_Tables_number   1
_chemical_formula_structural   H16RhN5(Cl2O)3
_chemical_formula_sum   'H16 Rh1 N5 Cl6 O3'
_cell_volume   350.78638727
_cell_formula_units_Z   1
loop_
 _symmetry_equiv_pos_site_id
 _symmetry_equiv_pos_as_xyz
  1  'x, y, z'
loop_
 _atom_site_type_symbol
 _atom_site_label
 _atom_site_symmetry_multiplicity
 _atom_site_fract_x
 _atom_site_fract_y
 _atom_site_fract_z
 _atom_site_occupancy
  H  H0  1  0.663218  0.326450  0.989692  1
  H  H1  1  0.336768  0.673551  0.010308  1
  H  H2  1  0.247138  0.637637  0.170134  1
  H  H3  1  0.532560  0.779617  0.170160  1
  H  H4  1  0.390504  0.922829  0.170121  1
  H  H5  1  0.126492  0.252936  0.379409  1
  H  H6  1  0.748456  0.476324  0.459097  1
  H  H7  1  0.983018  0.731356  0.459065  1
  H  H8  1  0.727923  0.710680  0.459129  1
  H  H9  1  0.017243  0.289319  0.540871  1
  H  H10  1  0.251661  0.268644  0.540935  1
  H  H11  1  0.272132  0.523676  0.540903  1
  H  H12  1  0.873555  0.747063  0.620591  1
  H  H13  1  0.467674  0.077170  0.829879  1
  H  H14  1  0.752941  0.220383  0.829839  1
  H  H15  1  0.609501  0.362364  0.829866  1
  Rh  Rh16  1  0.999989  0.000000  0.000000  1
  N  N17  1  0.377551  0.755653  0.133135  1
  N  N18  1  0.832282  0.665093  0.497816  1
  N  N19  1  0.499327  1.000000  0.499999  1
  N  N20  1  0.167190  0.334907  0.502184  1
  N  N21  1  0.621898  0.244347  0.866866  1
  Cl  Cl22  1  0.910901  0.286064  0.171361  1
  Cl  Cl23  1  0.375164  0.260429  0.171364  1
  Cl  Cl24  1  0.885268  0.796209  0.171363  1
  Cl  Cl25  1  0.089059  0.203792  0.828636  1
  Cl  Cl26  1  0.114737  0.739573  0.828636  1
  Cl  Cl27  1  0.624838  0.713936  0.828639  1
  O  O28  1  0.683549  0.183444  0.499983  1
  O  O29  1  0.317158  1.000000  0.499999  1
  O  O30  1  0.500105  0.816557  0.500017  1
