# generated using pymatgen
data_FeP6(WO8)3
_symmetry_space_group_name_H-M   'P 1'
_cell_length_a   8.91247345
_cell_length_b   8.91247334
_cell_length_c   8.91247334
_cell_angle_alpha   58.96039803
_cell_angle_beta   58.96039101
_cell_angle_gamma   58.96039410
_symmetry_Int_Tables_number   1
_chemical_formula_structural   FeP6(WO8)3
_chemical_formula_sum   'Fe1 P6 W3 O24'
_cell_volume   488.71358636
_cell_formula_units_Z   1
loop_
 _symmetry_equiv_pos_site_id
 _symmetry_equiv_pos_as_xyz
  1  'x, y, z'
loop_
 _atom_site_type_symbol
 _atom_site_label
 _atom_site_symmetry_multiplicity
 _atom_site_fract_x
 _atom_site_fract_y
 _atom_site_fract_z
 _atom_site_occupancy
  Fe  Fe0  1  0.858280  0.858280  0.858280  1
  P  P1  1  0.034923  0.751028  0.467975  1
  P  P2  1  0.467975  0.034923  0.751028  1
  P  P3  1  0.751028  0.467975  0.034923  1
  P  P4  1  0.245468  0.540926  0.963049  1
  P  P5  1  0.540926  0.963049  0.245468  1
  P  P6  1  0.963049  0.245468  0.540926  1
  W  W7  1  0.142298  0.142298  0.142298  1
  W  W8  1  0.357226  0.357226  0.357226  1
  W  W9  1  0.642148  0.642148  0.642148  1
  O  O10  1  0.131813  0.285575  0.503884  1
  O  O11  1  0.285575  0.503884  0.131813  1
  O  O12  1  0.062706  0.920428  0.285592  1
  O  O13  1  0.503884  0.131813  0.285575  1
  O  O14  1  0.212662  0.580679  0.432561  1
  O  O15  1  0.009440  0.776620  0.634592  1
  O  O16  1  0.285592  0.062706  0.920428  1
  O  O17  1  0.432561  0.212662  0.580679  1
  O  O18  1  0.580679  0.432561  0.212662  1
  O  O19  1  0.221688  0.365128  0.992317  1
  O  O20  1  0.079150  0.714000  0.940838  1
  O  O21  1  0.365128  0.992317  0.221688  1
  O  O22  1  0.634592  0.009440  0.776620  1
  O  O23  1  0.920428  0.285592  0.062706  1
  O  O24  1  0.776620  0.634592  0.009440  1
  O  O25  1  0.423049  0.559101  0.788369  1
  O  O26  1  0.559101  0.788369  0.423049  1
  O  O27  1  0.714000  0.940838  0.079150  1
  O  O28  1  0.992317  0.221688  0.365128  1
  O  O29  1  0.788369  0.423049  0.559101  1
  O  O30  1  0.490004  0.866685  0.719796  1
  O  O31  1  0.940838  0.079150  0.714000  1
  O  O32  1  0.719796  0.490004  0.866685  1
  O  O33  1  0.866685  0.719796  0.490004  1
