# generated using pymatgen
data_Li3Mn5(CuO6)2
_symmetry_space_group_name_H-M   'P 1'
_cell_length_a   5.17573997
_cell_length_b   5.17574018
_cell_length_c   9.75420806
_cell_angle_alpha   85.77704936
_cell_angle_beta   94.22295334
_cell_angle_gamma   62.08941178
_symmetry_Int_Tables_number   1
_chemical_formula_structural   Li3Mn5(CuO6)2
_chemical_formula_sum   'Li3 Mn5 Cu2 O12'
_cell_volume   228.53797418
_cell_formula_units_Z   1
loop_
 _symmetry_equiv_pos_site_id
 _symmetry_equiv_pos_as_xyz
  1  'x, y, z'
loop_
 _atom_site_type_symbol
 _atom_site_label
 _atom_site_symmetry_multiplicity
 _atom_site_fract_x
 _atom_site_fract_y
 _atom_site_fract_z
 _atom_site_occupancy
  Li  Li0  1  0.323465  0.860479  0.986340  1
  Li  Li1  1  0.860479  0.323465  0.513660  1
  Li  Li2  1  0.918464  0.918464  0.750000  1
  Mn  Mn3  1  0.075261  0.075261  0.250000  1
  Mn  Mn4  1  0.410456  0.410456  0.250000  1
  Mn  Mn5  1  0.582510  0.582510  0.750000  1
  Mn  Mn6  1  0.503701  0.997835  0.507054  1
  Mn  Mn7  1  0.997835  0.503701  0.992946  1
  Cu  Cu8  1  0.264026  0.264026  0.750000  1
  Cu  Cu9  1  0.749161  0.749161  0.250000  1
  O  O10  1  0.167780  0.313978  0.382548  1
  O  O11  1  0.068897  0.743208  0.138571  1
  O  O12  1  0.313978  0.167780  0.117452  1
  O  O13  1  0.287282  0.553460  0.856974  1
  O  O14  1  0.255707  0.962819  0.644696  1
  O  O15  1  0.553460  0.287282  0.643026  1
  O  O16  1  0.431981  0.737328  0.349680  1
  O  O17  1  0.743208  0.068897  0.361429  1
  O  O18  1  0.737328  0.431981  0.150320  1
  O  O19  1  0.656732  0.809450  0.882217  1
  O  O20  1  0.962819  0.255707  0.855304  1
  O  O21  1  0.809450  0.656732  0.617783  1
