# generated using pymatgen
data_Ho2S3
_symmetry_space_group_name_H-M   'P 1'
_cell_length_a   4.01428142
_cell_length_b   10.15995695
_cell_length_c   17.60158648
_cell_angle_alpha   98.61127621
_cell_angle_beta   90.00000000
_cell_angle_gamma   90.00000000
_symmetry_Int_Tables_number   1
_chemical_formula_structural   Ho2S3
_chemical_formula_sum   'Ho12 S18'
_cell_volume   709.78670602
_cell_formula_units_Z   6
loop_
 _symmetry_equiv_pos_site_id
 _symmetry_equiv_pos_as_xyz
  1  'x, y, z'
loop_
 _atom_site_type_symbol
 _atom_site_label
 _atom_site_symmetry_multiplicity
 _atom_site_fract_x
 _atom_site_fract_y
 _atom_site_fract_z
 _atom_site_occupancy
  S  S0  1  0.750000  0.632602  0.468584  1
  S  S1  1  0.250000  0.367398  0.531416  1
  S  S2  1  0.750000  0.681258  0.818602  1
  S  S3  1  0.250000  0.318742  0.181398  1
  S  S4  1  0.750000  0.048753  0.075714  1
  S  S5  1  0.250000  0.951247  0.924286  1
  S  S6  1  0.750000  0.289818  0.368904  1
  S  S7  1  0.250000  0.710182  0.631096  1
  S  S8  1  0.750000  0.992630  0.731771  1
  S  S9  1  0.250000  0.007370  0.268229  1
  S  S10  1  0.750000  0.362406  0.718147  1
  S  S11  1  0.250000  0.637594  0.281853  1
  S  S12  1  0.250000  0.052074  0.575198  1
  S  S13  1  0.750000  0.947926  0.424802  1
  S  S14  1  0.250000  0.268762  0.873045  1
  S  S15  1  0.750000  0.731238  0.126955  1
  S  S16  1  0.250000  0.615289  0.967278  1
  S  S17  1  0.750000  0.384711  0.032722  1
  Ho  Ho18  1  0.750000  0.450911  0.885351  1
  Ho  Ho19  1  0.250000  0.549089  0.114649  1
  Ho  Ho20  1  0.750000  0.513244  0.600679  1
  Ho  Ho21  1  0.250000  0.486756  0.399321  1
  Ho  Ho22  1  0.750000  0.812143  0.279321  1
  Ho  Ho23  1  0.250000  0.187857  0.720679  1
  Ho  Ho24  1  0.750000  0.170369  0.218382  1
  Ho  Ho25  1  0.250000  0.829631  0.781618  1
  Ho  Ho26  1  0.750000  0.876042  0.570128  1
  Ho  Ho27  1  0.250000  0.123958  0.429872  1
  Ho  Ho28  1  0.750000  0.811077  0.979510  1
  Ho  Ho29  1  0.250000  0.188923  0.020490  1
