# generated using pymatgen
data_LiCo3OF5
_symmetry_space_group_name_H-M   'P 1'
_cell_length_a   8.56798865
_cell_length_b   8.40263558
_cell_length_c   8.44949158
_cell_angle_alpha   109.14774729
_cell_angle_beta   110.03888120
_cell_angle_gamma   109.39981762
_symmetry_Int_Tables_number   1
_chemical_formula_structural   LiCo3OF5
_chemical_formula_sum   'Li4 Co12 O4 F20'
_cell_volume   467.25353246
_cell_formula_units_Z   4
loop_
 _symmetry_equiv_pos_site_id
 _symmetry_equiv_pos_as_xyz
  1  'x, y, z'
loop_
 _atom_site_type_symbol
 _atom_site_label
 _atom_site_symmetry_multiplicity
 _atom_site_fract_x
 _atom_site_fract_y
 _atom_site_fract_z
 _atom_site_occupancy
  Li  Li0  1  0.516060  0.996644  0.993174  1
  Li  Li1  1  0.997348  0.517137  0.001777  1
  Li  Li2  1  0.971003  0.004189  0.500817  1
  Li  Li3  1  0.500746  0.491116  0.477774  1
  Co  Co4  1  0.950119  0.237635  0.191315  1
  Co  Co5  1  0.773115  0.026949  0.748989  1
  Co  Co6  1  0.703063  0.465284  0.244677  1
  Co  Co7  1  0.764726  0.795007  0.019431  1
  Co  Co8  1  0.746250  0.259501  0.528629  1
  Co  Co9  1  0.466037  0.251049  0.711878  1
  Co  Co10  1  0.540644  0.748830  0.289435  1
  Co  Co11  1  0.246331  0.709296  0.463844  1
  Co  Co12  1  0.266489  0.234864  0.987178  1
  Co  Co13  1  0.197632  0.959690  0.240518  1
  Co  Co14  1  0.281219  0.530547  0.749132  1
  Co  Co15  1  0.030457  0.753061  0.801005  1
  O  O16  1  0.742873  0.021493  0.503081  1
  O  O17  1  0.965883  0.744651  0.000472  1
  O  O18  1  0.472013  0.472437  0.222994  1
  O  O19  1  0.740352  0.997090  0.955493  1
  F  F20  1  0.023466  0.071519  0.303858  1
  F  F21  1  0.958937  0.508400  0.239956  1
  F  F22  1  0.729803  0.229994  0.272163  1
  F  F23  1  0.456668  0.222199  0.450946  1
  F  F24  1  0.791666  0.735325  0.258488  1
  F  F25  1  0.778818  0.538196  0.546535  1
  F  F26  1  0.729973  0.288500  0.784105  1
  F  F27  1  0.489533  0.753595  0.027202  1
  F  F28  1  0.507401  0.221942  0.946428  1
  F  F29  1  0.275696  0.731226  0.232700  1
  F  F30  1  0.207140  0.448765  0.460641  1
  F  F31  1  0.293643  0.020004  0.056864  1
  F  F32  1  0.231830  0.270506  0.734674  1
  F  F33  1  0.513785  0.749356  0.550419  1
  F  F34  1  0.530267  0.527351  0.758158  1
  F  F35  1  0.247963  0.962666  0.509312  1
  F  F36  1  0.252589  0.764665  0.724061  1
  F  F37  1  0.054946  0.290803  0.007657  1
  F  F38  1  0.039443  0.483626  0.761099  1
  F  F39  1  0.014076  0.964889  0.743124  1
