# generated using pymatgen
data_Li2MnOF3
_symmetry_space_group_name_H-M   'P 1'
_cell_length_a   5.73302092
_cell_length_b   5.73302092
_cell_length_c   5.85598043
_cell_angle_alpha   63.32217219
_cell_angle_beta   81.85828830
_cell_angle_gamma   113.37441075
_symmetry_Int_Tables_number   1
_chemical_formula_structural   Li2MnOF3
_chemical_formula_sum   'Li4 Mn2 O2 F6'
_cell_volume   145.37818751
_cell_formula_units_Z   2
loop_
 _symmetry_equiv_pos_site_id
 _symmetry_equiv_pos_as_xyz
  1  'x, y, z'
loop_
 _atom_site_type_symbol
 _atom_site_label
 _atom_site_symmetry_multiplicity
 _atom_site_fract_x
 _atom_site_fract_y
 _atom_site_fract_z
 _atom_site_occupancy
  Li  Li0  1  0.478845  0.978973  0.505146  1
  Li  Li1  1  0.510507  0.501919  0.487575  1
  Li  Li2  1  0.888494  0.746791  0.864715  1
  Li  Li3  1  0.015880  0.516009  0.505146  1
  Mn  Mn4  1  0.509683  0.988081  0.002237  1
  Mn  Mn5  1  0.042769  0.275554  0.181678  1
  O  O6  1  0.716124  0.963495  0.227072  1
  O  O7  1  0.309433  0.556803  0.227072  1
  F  F8  1  0.799037  0.037642  0.663320  1
  F  F9  1  0.800596  0.458532  0.240870  1
  F  F10  1  0.706994  0.439024  0.769115  1
  F  F11  1  0.291860  0.023891  0.769115  1
  F  F12  1  0.209169  0.993915  0.296916  1
  F  F13  1  0.220608  0.519371  0.760021  1
