# generated using pymatgen
data_Pb3NO6
_symmetry_space_group_name_H-M   'P 1'
_cell_length_a   14.32658944
_cell_length_b   8.92777568
_cell_length_c   5.69407972
_cell_angle_alpha   90.00000000
_cell_angle_beta   90.00000000
_cell_angle_gamma   90.00000000
_symmetry_Int_Tables_number   1
_chemical_formula_structural   Pb3NO6
_chemical_formula_sum   'Pb12 N4 O24'
_cell_volume   728.29885674
_cell_formula_units_Z   4
loop_
 _symmetry_equiv_pos_site_id
 _symmetry_equiv_pos_as_xyz
  1  'x, y, z'
loop_
 _atom_site_type_symbol
 _atom_site_label
 _atom_site_symmetry_multiplicity
 _atom_site_fract_x
 _atom_site_fract_y
 _atom_site_fract_z
 _atom_site_occupancy
  Pb  Pb0  1  0.836531  0.733027  0.101981  1
  Pb  Pb1  1  0.163469  0.266973  0.601981  1
  Pb  Pb2  1  0.663469  0.733027  0.601981  1
  Pb  Pb3  1  0.336531  0.266973  0.101981  1
  Pb  Pb4  1  0.665295  0.043466  0.083458  1
  Pb  Pb5  1  0.334705  0.956534  0.583458  1
  Pb  Pb6  1  0.834705  0.043466  0.583458  1
  Pb  Pb7  1  0.165295  0.956534  0.083458  1
  Pb  Pb8  1  0.664869  0.425037  0.092929  1
  Pb  Pb9  1  0.335131  0.574963  0.592929  1
  Pb  Pb10  1  0.835131  0.425037  0.592929  1
  Pb  Pb11  1  0.164869  0.574963  0.092929  1
  N  N12  1  0.489480  0.730582  0.066360  1
  N  N13  1  0.510520  0.269418  0.566360  1
  N  N14  1  0.010520  0.730582  0.566360  1
  N  N15  1  0.989480  0.269418  0.066360  1
  O  O16  1  0.755063  0.572344  0.851688  1
  O  O17  1  0.244937  0.427656  0.351688  1
  O  O18  1  0.744937  0.572344  0.351688  1
  O  O19  1  0.255063  0.427656  0.851688  1
  O  O20  1  0.757009  0.896021  0.848214  1
  O  O21  1  0.242991  0.103979  0.348214  1
  O  O22  1  0.742991  0.896021  0.348214  1
  O  O23  1  0.257009  0.103979  0.848214  1
  O  O24  1  0.577618  0.730619  0.115932  1
  O  O25  1  0.422382  0.269381  0.615932  1
  O  O26  1  0.922382  0.730619  0.615932  1
  O  O27  1  0.077618  0.269381  0.115932  1
  O  O28  1  0.756769  0.231798  0.252700  1
  O  O29  1  0.243231  0.768202  0.752700  1
  O  O30  1  0.743231  0.231798  0.752700  1
  O  O31  1  0.256769  0.768202  0.252700  1
  O  O32  1  0.449646  0.853958  0.029256  1
  O  O33  1  0.550354  0.146042  0.529256  1
  O  O34  1  0.050354  0.853958  0.529256  1
  O  O35  1  0.949646  0.146042  0.029256  1
  O  O36  1  0.447101  0.607847  0.054381  1
  O  O37  1  0.552899  0.392153  0.554381  1
  O  O38  1  0.052899  0.607847  0.554381  1
  O  O39  1  0.947101  0.392153  0.054381  1
