# generated using pymatgen
data_CuH12N2(OF2)2
_symmetry_space_group_name_H-M   'P 1'
_cell_length_a   7.32458254
_cell_length_b   6.78958116
_cell_length_c   28.29020111
_cell_angle_alpha   90.00000000
_cell_angle_beta   93.80609904
_cell_angle_gamma   90.00000000
_symmetry_Int_Tables_number   1
_chemical_formula_structural   CuH12N2(OF2)2
_chemical_formula_sum   'Cu8 H96 N16 O16 F32'
_cell_volume   1403.79264197
_cell_formula_units_Z   8
loop_
 _symmetry_equiv_pos_site_id
 _symmetry_equiv_pos_as_xyz
  1  'x, y, z'
loop_
 _atom_site_type_symbol
 _atom_site_label
 _atom_site_symmetry_multiplicity
 _atom_site_fract_x
 _atom_site_fract_y
 _atom_site_fract_z
 _atom_site_occupancy
  Cu  Cu0  1  0.130317  0.253513  0.938150  1
  Cu  Cu1  1  0.144484  0.927062  0.310898  1
  Cu  Cu2  1  0.369683  0.753513  0.561850  1
  Cu  Cu3  1  0.355516  0.427062  0.189102  1
  Cu  Cu4  1  0.644484  0.572938  0.810898  1
  Cu  Cu5  1  0.630317  0.246487  0.438150  1
  Cu  Cu6  1  0.855516  0.072938  0.689102  1
  Cu  Cu7  1  0.869683  0.746487  0.061850  1
  H  H8  1  0.991195  0.779216  0.851000  1
  H  H9  1  0.970270  0.510083  0.770305  1
  H  H10  1  0.997579  0.556042  0.602835  1
  H  H11  1  0.005973  0.285090  0.850096  1
  H  H12  1  0.019576  0.263824  0.478809  1
  H  H13  1  0.082137  0.665972  0.732781  1
  H  H14  1  0.134351  0.882771  0.894373  1
  H  H15  1  0.023991  0.937780  0.401031  1
  H  H16  1  0.096005  0.638519  0.894981  1
  H  H17  1  0.105268  0.411209  0.728174  1
  H  H18  1  0.106217  0.413247  0.345327  1
  H  H19  1  0.160682  0.374872  0.520629  1
  H  H20  1  0.142852  0.128505  0.519346  1
  H  H21  1  0.216740  0.738774  0.851771  1
  H  H22  1  0.340766  0.524892  0.807840  1
  H  H23  1  0.227433  0.285143  0.852395  1
  H  H24  1  0.121592  0.631334  0.375204  1
  H  H25  1  0.132915  0.053304  0.224654  1
  H  H26  1  0.132840  0.818480  0.223600  1
  H  H27  1  0.135718  0.139530  0.024881  1
  H  H28  1  0.116078  0.376054  0.024205  1
  H  H29  1  0.235231  0.437719  0.397935  1
  H  H30  1  0.250244  0.922068  0.396312  1
  H  H31  1  0.272567  0.785143  0.647605  1
  H  H32  1  0.159234  0.024892  0.692160  1
  H  H33  1  0.283260  0.238774  0.648229  1
  H  H34  1  0.357148  0.628505  0.980654  1
  H  H35  1  0.247754  0.254702  0.474970  1
  H  H36  1  0.339318  0.874872  0.979371  1
  H  H37  1  0.252246  0.754702  0.025030  1
  H  H38  1  0.249756  0.422068  0.103688  1
  H  H39  1  0.264769  0.937719  0.102065  1
  H  H40  1  0.394732  0.911209  0.771826  1
  H  H41  1  0.403995  0.138519  0.605019  1
  H  H42  1  0.365649  0.382771  0.605627  1
  H  H43  1  0.417863  0.165972  0.767219  1
  H  H44  1  0.383922  0.876054  0.475795  1
  H  H45  1  0.364282  0.639530  0.475119  1
  H  H46  1  0.367160  0.318480  0.276400  1
  H  H47  1  0.494027  0.785090  0.649904  1
  H  H48  1  0.367085  0.553304  0.275346  1
  H  H49  1  0.378408  0.131334  0.124796  1
  H  H50  1  0.502421  0.056042  0.897165  1
  H  H51  1  0.519576  0.236176  0.978809  1
  H  H52  1  0.529730  0.010083  0.729695  1
  H  H53  1  0.393783  0.913247  0.154673  1
  H  H54  1  0.508805  0.279216  0.649000  1
  H  H55  1  0.523991  0.562220  0.901031  1
  H  H56  1  0.476009  0.437780  0.098969  1
  H  H57  1  0.491195  0.720784  0.351000  1
  H  H58  1  0.606217  0.086753  0.845327  1
  H  H59  1  0.470270  0.989917  0.270305  1
  H  H60  1  0.480424  0.763824  0.021191  1
  H  H61  1  0.497579  0.943958  0.102835  1
  H  H62  1  0.621592  0.868666  0.875204  1
  H  H63  1  0.632915  0.446696  0.724654  1
  H  H64  1  0.505973  0.214910  0.350096  1
  H  H65  1  0.632840  0.681520  0.723600  1
  H  H66  1  0.635718  0.360470  0.524881  1
  H  H67  1  0.616078  0.123946  0.524205  1
  H  H68  1  0.582137  0.834028  0.232781  1
  H  H69  1  0.634351  0.617229  0.394373  1
  H  H70  1  0.596005  0.861481  0.394981  1
  H  H71  1  0.605268  0.088791  0.228174  1
  H  H72  1  0.735231  0.062281  0.897935  1
  H  H73  1  0.750244  0.577932  0.896312  1
  H  H74  1  0.747754  0.245298  0.974970  1
  H  H75  1  0.660682  0.125128  0.020629  1
  H  H76  1  0.752246  0.745298  0.525030  1
  H  H77  1  0.642852  0.371495  0.019346  1
  H  H78  1  0.716740  0.761226  0.351771  1
  H  H79  1  0.840766  0.975108  0.307840  1
  H  H80  1  0.727433  0.214857  0.352395  1
  H  H81  1  0.749756  0.077932  0.603688  1
  H  H82  1  0.764769  0.562281  0.602065  1
  H  H83  1  0.883922  0.623946  0.975795  1
  H  H84  1  0.864282  0.860470  0.975119  1
  H  H85  1  0.867160  0.181520  0.776400  1
  H  H86  1  0.867085  0.946696  0.775346  1
  H  H87  1  0.878408  0.368666  0.624796  1
  H  H88  1  0.772567  0.714857  0.147605  1
  H  H89  1  0.659234  0.475108  0.192160  1
  H  H90  1  0.783260  0.261226  0.148229  1
  H  H91  1  0.857148  0.871495  0.480654  1
  H  H92  1  0.839318  0.625128  0.479371  1
  H  H93  1  0.893783  0.586753  0.654673  1
  H  H94  1  0.894732  0.588791  0.271826  1
  H  H95  1  0.903995  0.361481  0.105018  1
  H  H96  1  0.976009  0.062220  0.598969  1
  H  H97  1  0.865649  0.117229  0.105627  1
  H  H98  1  0.917863  0.334028  0.267219  1
  H  H99  1  0.980424  0.736176  0.521191  1
  H  H100  1  0.994027  0.714910  0.149904  1
  H  H101  1  0.002421  0.443958  0.397165  1
  H  H102  1  0.029730  0.489917  0.229695  1
  H  H103  1  0.008805  0.220784  0.149000  1
  N  N104  1  0.109735  0.760084  0.873828  1
  N  N105  1  0.056235  0.529722  0.744319  1
  N  N106  1  0.115026  0.477573  0.378291  1
  N  N107  1  0.143651  0.253340  0.497808  1
  N  N108  1  0.443765  0.029722  0.755681  1
  N  N109  1  0.390265  0.260084  0.626172  1
  N  N110  1  0.356349  0.753340  0.002192  1
  N  N111  1  0.384974  0.977573  0.121709  1
  N  N112  1  0.615026  0.022427  0.878291  1
  N  N113  1  0.643651  0.246660  0.997808  1
  N  N114  1  0.609735  0.739916  0.373828  1
  N  N115  1  0.556235  0.970278  0.244319  1
  N  N116  1  0.856349  0.746660  0.502192  1
  N  N117  1  0.884974  0.522427  0.621709  1
  N  N118  1  0.943765  0.470278  0.255681  1
  N  N119  1  0.890265  0.239916  0.126172  1
  O  O120  1  0.120277  0.237176  0.868977  1
  O  O121  1  0.133610  0.883600  0.379514  1
  O  O122  1  0.098206  0.933449  0.243420  1
  O  O123  1  0.170949  0.264487  0.006966  1
  O  O124  1  0.379723  0.737176  0.631023  1
  O  O125  1  0.329051  0.764487  0.493034  1
  O  O126  1  0.401795  0.433449  0.256580  1
  O  O127  1  0.366390  0.383600  0.120486  1
  O  O128  1  0.633610  0.616400  0.879514  1
  O  O129  1  0.598206  0.566551  0.743420  1
  O  O130  1  0.670949  0.235513  0.506966  1
  O  O131  1  0.620277  0.262824  0.368977  1
  O  O132  1  0.829051  0.735513  0.993034  1
  O  O133  1  0.901794  0.066551  0.756580  1
  O  O134  1  0.866390  0.116400  0.620486  1
  O  O135  1  0.879723  0.762824  0.131023  1
  F  F136  1  0.123977  0.863715  0.685327  1
  F  F137  1  0.153839  0.196917  0.690664  1
  F  F138  1  0.054435  0.529346  0.064042  1
  F  F139  1  0.098884  0.002374  0.570929  1
  F  F140  1  0.099602  0.970521  0.056495  1
  F  F141  1  0.170559  0.550024  0.560757  1
  F  F142  1  0.166007  0.664247  0.181351  1
  F  F143  1  0.329441  0.050024  0.939243  1
  F  F144  1  0.166557  0.208338  0.188965  1
  F  F145  1  0.401116  0.502374  0.929071  1
  F  F146  1  0.333443  0.708338  0.311035  1
  F  F147  1  0.346161  0.696917  0.809336  1
  F  F148  1  0.333993  0.164247  0.318649  1
  F  F149  1  0.376023  0.363715  0.814673  1
  F  F150  1  0.400398  0.470521  0.443505  1
  F  F151  1  0.445565  0.029346  0.435958  1
  F  F152  1  0.554435  0.970654  0.564042  1
  F  F153  1  0.599602  0.529479  0.556495  1
  F  F154  1  0.623977  0.636285  0.185327  1
  F  F155  1  0.666007  0.835753  0.681351  1
  F  F156  1  0.653839  0.303083  0.190664  1
  F  F157  1  0.666557  0.291662  0.688965  1
  F  F158  1  0.598884  0.497626  0.070929  1
  F  F159  1  0.833443  0.791662  0.811035  1
  F  F160  1  0.670559  0.949976  0.060757  1
  F  F161  1  0.833993  0.335753  0.818649  1
  F  F162  1  0.829441  0.449976  0.439243  1
  F  F163  1  0.900398  0.029479  0.943505  1
  F  F164  1  0.901116  0.997626  0.429071  1
  F  F165  1  0.945565  0.470654  0.935958  1
  F  F166  1  0.846161  0.803083  0.309336  1
  F  F167  1  0.876023  0.136285  0.314673  1
