# generated using pymatgen
data_LiFeOF2
_symmetry_space_group_name_H-M   'P 1'
_cell_length_a   3.34203926
_cell_length_b   3.34190622
_cell_length_c   11.95288472
_cell_angle_alpha   90.00119733
_cell_angle_beta   89.99940620
_cell_angle_gamma   120.00059006
_symmetry_Int_Tables_number   1
_chemical_formula_structural   LiFeOF2
_chemical_formula_sum   'Li2 Fe2 O2 F4'
_cell_volume   115.61297754
_cell_formula_units_Z   2
loop_
 _symmetry_equiv_pos_site_id
 _symmetry_equiv_pos_as_xyz
  1  'x, y, z'
loop_
 _atom_site_type_symbol
 _atom_site_label
 _atom_site_symmetry_multiplicity
 _atom_site_fract_x
 _atom_site_fract_y
 _atom_site_fract_z
 _atom_site_occupancy
  Li  Li0  1  0.999993  0.999991  0.000007  1
  Li  Li1  1  0.999995  0.000003  0.499992  1
  Fe  Fe2  1  0.333289  0.666591  0.750003  1
  Fe  Fe3  1  0.666706  0.333337  0.249999  1
  O  O4  1  0.000029  0.000005  0.249997  1
  O  O5  1  0.999954  0.999903  0.750002  1
  F  F6  1  0.333385  0.666668  0.584491  1
  F  F7  1  0.333322  0.666655  0.915513  1
  F  F8  1  0.666667  0.333312  0.415503  1
  F  F9  1  0.666659  0.333333  0.084492  1
