# generated using pymatgen
data_Cs2CoH12(SO7)2
_symmetry_space_group_name_H-M   'P 1'
_cell_length_a   9.36622610
_cell_length_b   12.97873885
_cell_length_c   6.43157289
_cell_angle_alpha   89.99991589
_cell_angle_beta   106.93733910
_cell_angle_gamma   90.00018405
_symmetry_Int_Tables_number   1
_chemical_formula_structural   Cs2CoH12(SO7)2
_chemical_formula_sum   'Cs4 Co2 H24 S4 O28'
_cell_volume   747.92072769
_cell_formula_units_Z   2
loop_
 _symmetry_equiv_pos_site_id
 _symmetry_equiv_pos_as_xyz
  1  'x, y, z'
loop_
 _atom_site_type_symbol
 _atom_site_label
 _atom_site_symmetry_multiplicity
 _atom_site_fract_x
 _atom_site_fract_y
 _atom_site_fract_z
 _atom_site_occupancy
  Cs  Cs0  1  0.630610  0.143588  0.351421  1
  Cs  Cs1  1  0.869392  0.643590  0.648577  1
  Cs  Cs2  1  0.369388  0.856410  0.648579  1
  Cs  Cs3  1  0.130610  0.356412  0.351426  1
  Co  Co4  1  0.500000  0.500000  0.999999  1
  Co  Co5  1  0.000001  0.999999  0.000000  1
  H  H6  1  0.716652  0.400505  0.319777  1
  H  H7  1  0.783350  0.900504  0.680224  1
  H  H8  1  0.283348  0.599495  0.680223  1
  H  H9  1  0.216651  0.099496  0.319777  1
  H  H10  1  0.737835  0.370245  0.084618  1
  H  H11  1  0.762165  0.870245  0.915382  1
  H  H12  1  0.262165  0.629755  0.915383  1
  H  H13  1  0.237837  0.129755  0.084618  1
  H  H14  1  0.227364  0.402546  0.930610  1
  H  H15  1  0.272637  0.902546  0.069388  1
  H  H16  1  0.772637  0.597454  0.069389  1
  H  H17  1  0.727364  0.097454  0.930610  1
  H  H18  1  0.350518  0.315125  0.983885  1
  H  H19  1  0.149483  0.815125  0.016113  1
  H  H20  1  0.649483  0.684875  0.016114  1
  H  H21  1  0.850517  0.184876  0.983886  1
  H  H22  1  0.397824  0.558145  0.331282  1
  H  H23  1  0.102176  0.058145  0.668720  1
  H  H24  1  0.602176  0.441854  0.668718  1
  H  H25  1  0.897824  0.941854  0.331281  1
  H  H26  1  0.519669  0.638365  0.312727  1
  H  H27  1  0.980331  0.138365  0.687273  1
  H  H28  1  0.480331  0.361635  0.687273  1
  H  H29  1  0.019669  0.861634  0.312727  1
  S  S30  1  0.898269  0.352614  0.740019  1
  S  S31  1  0.601732  0.852614  0.259982  1
  S  S32  1  0.101731  0.647386  0.259981  1
  S  S33  1  0.398266  0.147386  0.740020  1
  O  O34  1  0.918315  0.262381  0.607758  1
  O  O35  1  0.581687  0.762378  0.392247  1
  O  O36  1  0.081685  0.737623  0.392243  1
  O  O37  1  0.418312  0.237620  0.607755  1
  O  O38  1  0.035447  0.416878  0.804008  1
  O  O39  1  0.464555  0.916876  0.195994  1
  O  O40  1  0.964554  0.583123  0.195993  1
  O  O41  1  0.535443  0.083123  0.804004  1
  O  O42  1  0.772194  0.417544  0.604040  1
  O  O43  1  0.727807  0.917542  0.395961  1
  O  O44  1  0.227806  0.582457  0.395961  1
  O  O45  1  0.272191  0.082456  0.604039  1
  O  O46  1  0.859854  0.315186  0.938312  1
  O  O47  1  0.640145  0.815185  0.061690  1
  O  O48  1  0.140146  0.684814  0.061688  1
  O  O49  1  0.359855  0.184815  0.938311  1
  O  O50  1  0.664880  0.389979  0.162309  1
  O  O51  1  0.835121  0.889979  0.837691  1
  O  O52  1  0.335121  0.610022  0.837691  1
  O  O53  1  0.164880  0.110022  0.162308  1
  O  O54  1  0.332760  0.388692  0.014695  1
  O  O55  1  0.167240  0.888691  0.985301  1
  O  O56  1  0.667239  0.611309  0.985302  1
  O  O57  1  0.832759  0.111311  0.014697  1
  O  O58  1  0.493061  0.563943  0.294391  1
  O  O59  1  0.006939  0.063942  0.705610  1
  O  O60  1  0.506940  0.436056  0.705607  1
  O  O61  1  0.993059  0.936056  0.294391  1
