# generated using pymatgen
data_Li5Fe3F14
_symmetry_space_group_name_H-M   'P 1'
_cell_length_a   11.60402677
_cell_length_b   7.25860316
_cell_length_c   12.59121838
_cell_angle_alpha   90.00000000
_cell_angle_beta   90.00000000
_cell_angle_gamma   90.00000000
_symmetry_Int_Tables_number   1
_chemical_formula_structural   Li5Fe3F14
_chemical_formula_sum   'Li20 Fe12 F56'
_cell_volume   1060.54605251
_cell_formula_units_Z   4
loop_
 _symmetry_equiv_pos_site_id
 _symmetry_equiv_pos_as_xyz
  1  'x, y, z'
loop_
 _atom_site_type_symbol
 _atom_site_label
 _atom_site_symmetry_multiplicity
 _atom_site_fract_x
 _atom_site_fract_y
 _atom_site_fract_z
 _atom_site_occupancy
  Li  Li0  1  0.009838  0.000128  0.006867  1
  Li  Li1  1  0.097835  0.807425  0.278092  1
  Li  Li2  1  0.098814  0.319866  0.275134  1
  Li  Li3  1  0.217944  0.814946  0.011025  1
  Li  Li4  1  0.212422  0.836075  0.494593  1
  Li  Li5  1  0.287578  0.336076  0.994593  1
  Li  Li6  1  0.282056  0.314946  0.511025  1
  Li  Li7  1  0.401186  0.819866  0.775134  1
  Li  Li8  1  0.402165  0.307425  0.778092  1
  Li  Li9  1  0.490162  0.500128  0.506867  1
  Li  Li10  1  0.509838  0.499872  0.006867  1
  Li  Li11  1  0.597835  0.692575  0.278092  1
  Li  Li12  1  0.598814  0.180134  0.275134  1
  Li  Li13  1  0.717943  0.685054  0.011025  1
  Li  Li14  1  0.712422  0.663925  0.494593  1
  Li  Li15  1  0.787578  0.163925  0.994593  1
  Li  Li16  1  0.782057  0.185054  0.511025  1
  Li  Li17  1  0.901186  0.680134  0.775134  1
  Li  Li18  1  0.902165  0.192575  0.778092  1
  Li  Li19  1  0.990162  0.999872  0.506867  1
  Fe  Fe20  1  0.001211  0.503022  0.495012  1
  Fe  Fe21  1  0.148678  0.998586  0.751313  1
  Fe  Fe22  1  0.168184  0.495627  0.745733  1
  Fe  Fe23  1  0.331816  0.995627  0.245733  1
  Fe  Fe24  1  0.351322  0.498586  0.251313  1
  Fe  Fe25  1  0.498789  0.003022  0.995012  1
  Fe  Fe26  1  0.501211  0.996978  0.495012  1
  Fe  Fe27  1  0.648678  0.501414  0.751313  1
  Fe  Fe28  1  0.668184  0.004373  0.745733  1
  Fe  Fe29  1  0.831816  0.504373  0.245733  1
  Fe  Fe30  1  0.851322  0.001414  0.251313  1
  Fe  Fe31  1  0.998789  0.496978  0.995012  1
  F  F32  1  0.986648  0.922599  0.754868  1
  F  F33  1  0.065459  0.739160  0.441343  1
  F  F34  1  0.065049  0.730045  0.039287  1
  F  F35  1  0.043855  0.567408  0.844752  1
  F  F36  1  0.057897  0.577289  0.637769  1
  F  F37  1  0.136769  0.363667  0.455269  1
  F  F38  1  0.134107  0.362221  0.029789  1
  F  F39  1  0.086353  0.254702  0.746500  1
  F  F40  1  0.140345  0.996096  0.906413  1
  F  F41  1  0.134617  0.994124  0.594659  1
  F  F42  1  0.191134  0.579019  0.251230  1
  F  F43  1  0.225720  0.940815  0.356180  1
  F  F44  1  0.218744  0.930989  0.145020  1
  F  F45  1  0.228711  0.752323  0.750429  1
  F  F46  1  0.271289  0.252323  0.250429  1
  F  F47  1  0.281256  0.430989  0.645020  1
  F  F48  1  0.274280  0.440815  0.856180  1
  F  F49  1  0.308866  0.079019  0.751230  1
  F  F50  1  0.365383  0.494124  0.094659  1
  F  F51  1  0.359655  0.496096  0.406413  1
  F  F52  1  0.365893  0.862221  0.529789  1
  F  F53  1  0.413647  0.754702  0.246500  1
  F  F54  1  0.363231  0.863667  0.955269  1
  F  F55  1  0.442103  0.077289  0.137769  1
  F  F56  1  0.456145  0.067408  0.344752  1
  F  F57  1  0.434951  0.230045  0.539287  1
  F  F58  1  0.434541  0.239160  0.941343  1
  F  F59  1  0.513352  0.422599  0.254868  1
  F  F60  1  0.486648  0.577401  0.754868  1
  F  F61  1  0.565459  0.760840  0.441343  1
  F  F62  1  0.565049  0.769955  0.039287  1
  F  F63  1  0.543855  0.932592  0.844752  1
  F  F64  1  0.557897  0.922711  0.637769  1
  F  F65  1  0.636769  0.136333  0.455269  1
  F  F66  1  0.634107  0.137779  0.029789  1
  F  F67  1  0.586353  0.245298  0.746500  1
  F  F68  1  0.640345  0.503904  0.906413  1
  F  F69  1  0.634617  0.505876  0.594659  1
  F  F70  1  0.691134  0.920981  0.251230  1
  F  F71  1  0.725720  0.559185  0.356180  1
  F  F72  1  0.718744  0.569011  0.145020  1
  F  F73  1  0.728711  0.747677  0.750429  1
  F  F74  1  0.771289  0.247677  0.250429  1
  F  F75  1  0.781256  0.069011  0.645020  1
  F  F76  1  0.774280  0.059185  0.856180  1
  F  F77  1  0.808866  0.420981  0.751230  1
  F  F78  1  0.865383  0.005876  0.094659  1
  F  F79  1  0.859655  0.003904  0.406413  1
  F  F80  1  0.865893  0.637779  0.529789  1
  F  F81  1  0.913647  0.745298  0.246500  1
  F  F82  1  0.863231  0.636333  0.955269  1
  F  F83  1  0.942103  0.422711  0.137769  1
  F  F84  1  0.956145  0.432592  0.344752  1
  F  F85  1  0.934951  0.269955  0.539287  1
  F  F86  1  0.934541  0.260840  0.941343  1
  F  F87  1  0.013352  0.077401  0.254868  1
