# generated using pymatgen
data_Li6Fe5CuO12
_symmetry_space_group_name_H-M   'P 1'
_cell_length_a   5.16839926
_cell_length_b   5.17954964
_cell_length_c   10.16114934
_cell_angle_alpha   89.68655415
_cell_angle_beta   89.92781281
_cell_angle_gamma   120.19943994
_symmetry_Int_Tables_number   1
_chemical_formula_structural   Li6Fe5CuO12
_chemical_formula_sum   'Li6 Fe5 Cu1 O12'
_cell_volume   235.08993397
_cell_formula_units_Z   1
loop_
 _symmetry_equiv_pos_site_id
 _symmetry_equiv_pos_as_xyz
  1  'x, y, z'
loop_
 _atom_site_type_symbol
 _atom_site_label
 _atom_site_symmetry_multiplicity
 _atom_site_fract_x
 _atom_site_fract_y
 _atom_site_fract_z
 _atom_site_occupancy
  Li  Li0  1  0.662877  0.984742  0.774807  1
  Li  Li1  1  0.984157  0.661206  0.774473  1
  Li  Li2  1  0.693562  0.694610  0.221793  1
  Li  Li3  1  0.305052  0.306617  0.778254  1
  Li  Li4  1  0.015549  0.337094  0.225164  1
  Li  Li5  1  0.338730  0.015889  0.225471  1
  Fe  Fe6  1  0.497887  0.501355  0.500037  1
  Fe  Fe7  1  0.336546  0.663528  0.999998  1
  Fe  Fe8  1  0.663397  0.336487  0.999992  1
  Fe  Fe9  1  0.168099  0.833143  0.499916  1
  Fe  Fe10  1  0.834449  0.166264  0.500079  1
  Cu  Cu11  1  0.999921  0.000007  0.999996  1
  O  O12  1  0.839920  0.847738  0.394943  1
  O  O13  1  0.510163  0.841438  0.601794  1
  O  O14  1  0.840708  0.501336  0.599340  1
  O  O15  1  0.329220  0.992087  0.888987  1
  O  O16  1  0.992177  0.329972  0.889590  1
  O  O17  1  0.635526  0.635195  0.879179  1
  O  O18  1  0.365056  0.364450  0.120736  1
  O  O19  1  0.008017  0.670754  0.110948  1
  O  O20  1  0.670185  0.007683  0.110582  1
  O  O21  1  0.158498  0.486890  0.397599  1
  O  O22  1  0.499119  0.159215  0.400643  1
  O  O23  1  0.151192  0.162305  0.605674  1
