# generated using pymatgen
data_H11S2N3O7
_symmetry_space_group_name_H-M   'P 1'
_cell_length_a   9.95353939
_cell_length_b   13.24283763
_cell_length_c   6.15473671
_cell_angle_alpha   90.00000000
_cell_angle_beta   90.00000000
_cell_angle_gamma   90.00000000
_symmetry_Int_Tables_number   1
_chemical_formula_structural   H11S2N3O7
_chemical_formula_sum   'H44 S8 N12 O28'
_cell_volume   811.27496227
_cell_formula_units_Z   4
loop_
 _symmetry_equiv_pos_site_id
 _symmetry_equiv_pos_as_xyz
  1  'x, y, z'
loop_
 _atom_site_type_symbol
 _atom_site_label
 _atom_site_symmetry_multiplicity
 _atom_site_fract_x
 _atom_site_fract_y
 _atom_site_fract_z
 _atom_site_occupancy
  H  H0  1  0.051848  0.354506  0.716999  1
  H  H1  1  0.017707  0.977564  0.681264  1
  H  H2  1  0.071116  0.617697  0.033758  1
  H  H3  1  0.062642  0.322236  0.178939  1
  H  H4  1  0.088652  0.588610  0.307778  1
  H  H5  1  0.080477  0.094286  0.703538  1
  H  H6  1  0.134293  0.206598  0.231538  1
  H  H7  1  0.159459  0.999877  0.834383  1
  H  H8  1  0.168755  0.006011  0.563224  1
  H  H9  1  0.185995  0.312415  0.363328  1
  H  H10  1  0.222912  0.295562  0.101092  1
  H  H11  1  0.277088  0.795562  0.601092  1
  H  H12  1  0.314005  0.812415  0.863328  1
  H  H13  1  0.331245  0.506011  0.063224  1
  H  H14  1  0.340541  0.499877  0.334383  1
  H  H15  1  0.365707  0.706598  0.731538  1
  H  H16  1  0.419523  0.594286  0.203538  1
  H  H17  1  0.411348  0.088610  0.807778  1
  H  H18  1  0.437358  0.822236  0.678939  1
  H  H19  1  0.428884  0.117697  0.533758  1
  H  H20  1  0.482293  0.477564  0.181264  1
  H  H21  1  0.448152  0.854506  0.216999  1
  H  H22  1  0.551848  0.145494  0.716999  1
  H  H23  1  0.517707  0.522436  0.681264  1
  H  H24  1  0.571116  0.882303  0.033758  1
  H  H25  1  0.562642  0.177764  0.178939  1
  H  H26  1  0.588652  0.911390  0.307778  1
  H  H27  1  0.580477  0.405714  0.703538  1
  H  H28  1  0.634293  0.293402  0.231538  1
  H  H29  1  0.659459  0.500123  0.834383  1
  H  H30  1  0.668755  0.493989  0.563224  1
  H  H31  1  0.685995  0.187585  0.363328  1
  H  H32  1  0.722912  0.204438  0.101092  1
  H  H33  1  0.777088  0.704438  0.601092  1
  H  H34  1  0.814005  0.687585  0.863328  1
  H  H35  1  0.831245  0.993989  0.063224  1
  H  H36  1  0.840541  0.000123  0.334383  1
  H  H37  1  0.865707  0.793402  0.731538  1
  H  H38  1  0.919523  0.905714  0.203538  1
  H  H39  1  0.911348  0.411390  0.807778  1
  H  H40  1  0.937358  0.677764  0.678939  1
  H  H41  1  0.928884  0.382303  0.533758  1
  H  H42  1  0.982293  0.022436  0.181264  1
  H  H43  1  0.948152  0.645494  0.216999  1
  S  S44  1  0.128832  0.764419  0.220255  1
  S  S45  1  0.202293  0.535217  0.702776  1
  S  S46  1  0.297707  0.035217  0.202776  1
  S  S47  1  0.371168  0.264419  0.720255  1
  S  S48  1  0.628832  0.735581  0.220255  1
  S  S49  1  0.702293  0.964783  0.702776  1
  S  S50  1  0.797707  0.464783  0.202776  1
  S  S51  1  0.871168  0.235581  0.720255  1
  N  N52  1  0.050990  0.641012  0.194612  1
  N  N53  1  0.106042  0.019082  0.695702  1
  N  N54  1  0.150620  0.284555  0.218357  1
  N  N55  1  0.349380  0.784555  0.718357  1
  N  N56  1  0.393958  0.519082  0.195702  1
  N  N57  1  0.449010  0.141012  0.694612  1
  N  N58  1  0.550990  0.858988  0.194612  1
  N  N59  1  0.606042  0.480918  0.695702  1
  N  N60  1  0.650620  0.215445  0.218357  1
  N  N61  1  0.849380  0.715445  0.718357  1
  N  N62  1  0.893958  0.980918  0.195702  1
  N  N63  1  0.949010  0.358988  0.694612  1
  O  O64  1  0.076100  0.816083  0.030311  1
  O  O65  1  0.079915  0.801396  0.428319  1
  O  O66  1  0.110658  0.621563  0.750730  1
  O  O67  1  0.155089  0.072563  0.196035  1
  O  O68  1  0.167211  0.491045  0.485279  1
  O  O69  1  0.189286  0.458000  0.877394  1
  O  O70  1  0.229645  0.237523  0.711790  1
  O  O71  1  0.270355  0.737523  0.211790  1
  O  O72  1  0.310714  0.958000  0.377394  1
  O  O73  1  0.332789  0.991045  0.985279  1
  O  O74  1  0.344911  0.572563  0.696035  1
  O  O75  1  0.389342  0.121563  0.250730  1
  O  O76  1  0.420085  0.301396  0.928319  1
  O  O77  1  0.423900  0.316083  0.530311  1
  O  O78  1  0.576100  0.683917  0.030311  1
  O  O79  1  0.579915  0.698604  0.428319  1
  O  O80  1  0.610658  0.878437  0.750730  1
  O  O81  1  0.655089  0.427437  0.196035  1
  O  O82  1  0.667211  0.008955  0.485279  1
  O  O83  1  0.689286  0.042000  0.877394  1
  O  O84  1  0.729645  0.262477  0.711790  1
  O  O85  1  0.770355  0.762477  0.211790  1
  O  O86  1  0.810714  0.542000  0.377394  1
  O  O87  1  0.832789  0.508955  0.985279  1
  O  O88  1  0.844911  0.927437  0.696035  1
  O  O89  1  0.889342  0.378437  0.250730  1
  O  O90  1  0.920085  0.198604  0.928319  1
  O  O91  1  0.923900  0.183917  0.530311  1
