# generated using pymatgen
data_Mn6O5F7
_symmetry_space_group_name_H-M   'P 1'
_cell_length_a   4.71596611
_cell_length_b   5.75376223
_cell_length_c   15.63529124
_cell_angle_alpha   90.35600264
_cell_angle_beta   90.24049400
_cell_angle_gamma   86.83601346
_symmetry_Int_Tables_number   1
_chemical_formula_structural   Mn6O5F7
_chemical_formula_sum   'Mn12 O10 F14'
_cell_volume   423.59850827
_cell_formula_units_Z   2
loop_
 _symmetry_equiv_pos_site_id
 _symmetry_equiv_pos_as_xyz
  1  'x, y, z'
loop_
 _atom_site_type_symbol
 _atom_site_label
 _atom_site_symmetry_multiplicity
 _atom_site_fract_x
 _atom_site_fract_y
 _atom_site_fract_z
 _atom_site_occupancy
  Mn  Mn0  1  0.991309  0.152066  0.412780  1
  Mn  Mn1  1  0.039729  0.833798  0.243535  1
  Mn  Mn2  1  0.020672  0.175131  0.087997  1
  Mn  Mn3  1  0.032576  0.169160  0.748399  1
  Mn  Mn4  1  0.007377  0.853539  0.578089  1
  Mn  Mn5  1  0.012639  0.847148  0.909590  1
  Mn  Mn6  1  0.484084  0.318223  0.595698  1
  Mn  Mn7  1  0.505486  0.350703  0.919310  1
  Mn  Mn8  1  0.505502  0.361027  0.255117  1
  Mn  Mn9  1  0.495911  0.637061  0.087167  1
  Mn  Mn10  1  0.482967  0.650199  0.414126  1
  Mn  Mn11  1  0.488877  0.641145  0.752122  1
  O  O12  1  0.206661  0.108498  0.639079  1
  O  O13  1  0.239897  0.882086  0.140045  1
  O  O14  1  0.215745  0.890026  0.464866  1
  O  O15  1  0.233558  0.888323  0.801823  1
  O  O16  1  0.294142  0.395755  0.147582  1
  O  O17  1  0.283616  0.617243  0.307005  1
  O  O18  1  0.285688  0.396929  0.813725  1
  O  O19  1  0.718726  0.385122  0.026560  1
  O  O20  1  0.719267  0.383270  0.363217  1
  O  O21  1  0.720271  0.379689  0.696815  1
  F  F22  1  0.231771  0.119903  0.307884  1
  F  F23  1  0.237338  0.117056  0.970517  1
  F  F24  1  0.251896  0.380066  0.483704  1
  F  F25  1  0.243997  0.608082  0.640733  1
  F  F26  1  0.254989  0.612202  0.975712  1
  F  F27  1  0.762139  0.614586  0.192172  1
  F  F28  1  0.707404  0.625332  0.525054  1
  F  F29  1  0.732073  0.617147  0.866356  1
  F  F30  1  0.771403  0.115657  0.200476  1
  F  F31  1  0.749973  0.119234  0.517329  1
  F  F32  1  0.784588  0.878541  0.346628  1
  F  F33  1  0.762834  0.879760  0.024125  1
  F  F34  1  0.782048  0.130012  0.855366  1
  F  F35  1  0.742845  0.866282  0.689294  1
