# generated using pymatgen
data_K3Dy(AsS4)2
_symmetry_space_group_name_H-M   'P 1'
_cell_length_a   10.85670837
_cell_length_b   10.85671706
_cell_length_c   9.02191369
_cell_angle_alpha   76.94020277
_cell_angle_beta   103.05967810
_cell_angle_gamma   58.35940931
_symmetry_Int_Tables_number   1
_chemical_formula_structural   K3Dy(AsS4)2
_chemical_formula_sum   'K6 Dy2 As4 S16'
_cell_volume   802.22143579
_cell_formula_units_Z   2
loop_
 _symmetry_equiv_pos_site_id
 _symmetry_equiv_pos_as_xyz
  1  'x, y, z'
loop_
 _atom_site_type_symbol
 _atom_site_label
 _atom_site_symmetry_multiplicity
 _atom_site_fract_x
 _atom_site_fract_y
 _atom_site_fract_z
 _atom_site_occupancy
  K  K0  1  0.738431  0.738421  0.750002  1
  K  K1  1  0.261578  0.261572  0.250002  1
  K  K2  1  0.499997  0.500006  0.999995  1
  K  K3  1  0.499995  0.500002  0.499997  1
  K  K4  1  0.004457  0.004453  0.250002  1
  K  K5  1  0.995545  0.995544  0.750000  1
  Dy  Dy6  1  0.756587  0.756585  0.250001  1
  Dy  Dy7  1  0.243414  0.243412  0.750001  1
  As  As8  1  0.343135  0.902647  0.100536  1
  As  As9  1  0.902648  0.343134  0.399464  1
  As  As10  1  0.656866  0.097353  0.899463  1
  As  As11  1  0.097353  0.656866  0.600536  1
  S  S12  1  0.528379  0.124514  0.060973  1
  S  S13  1  0.124514  0.528380  0.439026  1
  S  S14  1  0.471622  0.875484  0.939028  1
  S  S15  1  0.875485  0.471621  0.560972  1
  S  S16  1  0.864784  0.844221  0.024113  1
  S  S17  1  0.844223  0.864785  0.475885  1
  S  S18  1  0.135215  0.155777  0.975885  1
  S  S19  1  0.155779  0.135215  0.524116  1
  S  S20  1  0.263165  0.757658  0.125880  1
  S  S21  1  0.757657  0.263165  0.374120  1
  S  S22  1  0.736836  0.242342  0.874119  1
  S  S23  1  0.242340  0.736837  0.625878  1
  S  S24  1  0.853084  0.500660  0.155917  1
  S  S25  1  0.500661  0.853084  0.344082  1
  S  S26  1  0.146914  0.499341  0.844083  1
  S  S27  1  0.499340  0.146914  0.655918  1
