# generated using pymatgen
data_Mn12O7F17
_symmetry_space_group_name_H-M   'P 1'
_cell_length_a   4.79426480
_cell_length_b   5.80726074
_cell_length_c   15.86193859
_cell_angle_alpha   89.48393969
_cell_angle_beta   90.22276479
_cell_angle_gamma   89.44443573
_symmetry_Int_Tables_number   1
_chemical_formula_structural   Mn12O7F17
_chemical_formula_sum   'Mn12 O7 F17'
_cell_volume   441.57872534
_cell_formula_units_Z   1
loop_
 _symmetry_equiv_pos_site_id
 _symmetry_equiv_pos_as_xyz
  1  'x, y, z'
loop_
 _atom_site_type_symbol
 _atom_site_label
 _atom_site_symmetry_multiplicity
 _atom_site_fract_x
 _atom_site_fract_y
 _atom_site_fract_z
 _atom_site_occupancy
  Mn  Mn0  1  0.993015  0.164739  0.408011  1
  Mn  Mn1  1  0.028481  0.861017  0.242575  1
  Mn  Mn2  1  0.985634  0.163418  0.080792  1
  Mn  Mn3  1  0.047820  0.171893  0.748685  1
  Mn  Mn4  1  0.028661  0.840332  0.590494  1
  Mn  Mn5  1  0.994554  0.834298  0.916570  1
  Mn  Mn6  1  0.476102  0.335228  0.587957  1
  Mn  Mn7  1  0.513030  0.343959  0.918888  1
  Mn  Mn8  1  0.490804  0.328446  0.260006  1
  Mn  Mn9  1  0.495127  0.656101  0.087659  1
  Mn  Mn10  1  0.519746  0.649668  0.416024  1
  Mn  Mn11  1  0.483775  0.635702  0.746609  1
  O  O12  1  0.214282  0.117144  0.303637  1
  O  O13  1  0.228128  0.110275  0.643125  1
  O  O14  1  0.207475  0.893972  0.134351  1
  O  O15  1  0.285233  0.600716  0.642187  1
  O  O16  1  0.298002  0.386622  0.805986  1
  O  O17  1  0.722602  0.387024  0.029383  1
  O  O18  1  0.709078  0.366896  0.361518  1
  F  F19  1  0.219315  0.119503  0.973881  1
  F  F20  1  0.229537  0.899541  0.468297  1
  F  F21  1  0.245982  0.888061  0.810054  1
  F  F22  1  0.264251  0.387393  0.149922  1
  F  F23  1  0.261211  0.617687  0.308311  1
  F  F24  1  0.253090  0.396663  0.473689  1
  F  F25  1  0.267999  0.606832  0.975122  1
  F  F26  1  0.729590  0.613414  0.201067  1
  F  F27  1  0.739879  0.612292  0.532119  1
  F  F28  1  0.718713  0.624701  0.853303  1
  F  F29  1  0.754256  0.377268  0.690990  1
  F  F30  1  0.750748  0.119875  0.186672  1
  F  F31  1  0.761254  0.112342  0.523798  1
  F  F32  1  0.780257  0.871892  0.349268  1
  F  F33  1  0.739939  0.894604  0.022468  1
  F  F34  1  0.800594  0.135158  0.855047  1
  F  F35  1  0.761837  0.875325  0.701535  1
