# generated using pymatgen
data_SrSn(PO4)2
_symmetry_space_group_name_H-M   'P 1'
_cell_length_a   8.85159938
_cell_length_b   8.85157423
_cell_length_c   8.15698058
_cell_angle_alpha   65.82270277
_cell_angle_beta   114.17748068
_cell_angle_gamma   145.09268406
_symmetry_Int_Tables_number   1
_chemical_formula_structural   SrSn(PO4)2
_chemical_formula_sum   'Sr2 Sn2 P4 O16'
_cell_volume   330.30629425
_cell_formula_units_Z   2
loop_
 _symmetry_equiv_pos_site_id
 _symmetry_equiv_pos_as_xyz
  1  'x, y, z'
loop_
 _atom_site_type_symbol
 _atom_site_label
 _atom_site_symmetry_multiplicity
 _atom_site_fract_x
 _atom_site_fract_y
 _atom_site_fract_z
 _atom_site_occupancy
  Sr  Sr0  1  0.780094  0.780093  0.250005  1
  Sr  Sr1  1  0.219906  0.219901  0.750001  1
  Sn  Sn2  1  0.499998  0.999993  0.000006  1
  Sn  Sn3  1  0.000019  0.500023  0.499996  1
  P  P4  1  0.111581  0.393600  0.241078  1
  P  P5  1  0.393604  0.111587  0.258924  1
  P  P6  1  0.888418  0.606392  0.758927  1
  P  P7  1  0.606399  0.888422  0.741074  1
  O  O8  1  0.033780  0.477417  0.282370  1
  O  O9  1  0.477421  0.033783  0.217630  1
  O  O10  1  0.966224  0.522584  0.717632  1
  O  O11  1  0.522584  0.966231  0.782362  1
  O  O12  1  0.184573  0.286086  0.399468  1
  O  O13  1  0.286082  0.184568  0.100538  1
  O  O14  1  0.815428  0.713913  0.600532  1
  O  O15  1  0.713911  0.815427  0.899466  1
  O  O16  1  0.355371  0.646174  0.131600  1
  O  O17  1  0.646178  0.355376  0.368399  1
  O  O18  1  0.644621  0.353817  0.868399  1
  O  O19  1  0.353817  0.644619  0.631604  1
  O  O20  1  0.865488  0.168144  0.116119  1
  O  O21  1  0.168147  0.865493  0.383882  1
  O  O22  1  0.134512  0.831852  0.883884  1
  O  O23  1  0.831848  0.134515  0.616112  1
