# generated using pymatgen
data_Zr11VO24
_symmetry_space_group_name_H-M   'P 1'
_cell_length_a   9.64633619
_cell_length_b   7.37759588
_cell_length_c   6.82737610
_cell_angle_alpha   63.92213225
_cell_angle_beta   91.65133074
_cell_angle_gamma   86.84243974
_symmetry_Int_Tables_number   1
_chemical_formula_structural   Zr11VO24
_chemical_formula_sum   'Zr11 V1 O24'
_cell_volume   434.99322002
_cell_formula_units_Z   1
loop_
 _symmetry_equiv_pos_site_id
 _symmetry_equiv_pos_as_xyz
  1  'x, y, z'
loop_
 _atom_site_type_symbol
 _atom_site_label
 _atom_site_symmetry_multiplicity
 _atom_site_fract_x
 _atom_site_fract_y
 _atom_site_fract_z
 _atom_site_occupancy
  Zr  Zr0  1  0.005229  0.051455  0.213265  1
  Zr  Zr1  1  0.326298  0.283804  0.113357  1
  Zr  Zr2  1  0.036299  0.494404  0.744587  1
  Zr  Zr3  1  0.345691  0.382803  0.552933  1
  Zr  Zr4  1  0.372539  0.829533  0.077793  1
  Zr  Zr5  1  0.701137  0.158905  0.417514  1
  Zr  Zr6  1  0.295562  0.840746  0.586433  1
  Zr  Zr7  1  0.657961  0.612963  0.449125  1
  Zr  Zr8  1  0.963842  0.505852  0.254839  1
  Zr  Zr9  1  0.674198  0.724934  0.887920  1
  Zr  Zr10  1  0.989339  0.949705  0.781669  1
  V  V11  1  0.630377  0.184900  0.933538  1
  O  O12  1  0.090455  0.348563  0.110967  1
  O  O13  1  0.318373  0.146750  0.468119  1
  O  O14  1  0.018803  0.186237  0.862606  1
  O  O15  1  0.540007  0.202631  0.183976  1
  O  O16  1  0.131418  0.461004  0.474984  1
  O  O17  1  0.355470  0.519292  0.196714  1
  O  O18  1  0.789963  0.125798  0.131362  1
  O  O19  1  0.413917  0.162723  0.885028  1
  O  O20  1  0.069724  0.829493  0.548769  1
  O  O21  1  0.241219  0.986528  0.218826  1
  O  O22  1  0.575619  0.318121  0.554444  1
  O  O23  1  0.262587  0.503432  0.783090  1
  O  O24  1  0.736528  0.494204  0.216726  1
  O  O25  1  0.754813  0.021063  0.783067  1
  O  O26  1  0.424713  0.682933  0.444746  1
  O  O27  1  0.924726  0.169802  0.444632  1
  O  O28  1  0.597411  0.840362  0.117317  1
  O  O29  1  0.202790  0.873009  0.856852  1
  O  O30  1  0.645111  0.465670  0.809707  1
  O  O31  1  0.869469  0.536866  0.525222  1
  O  O32  1  0.463652  0.791333  0.809108  1
  O  O33  1  0.981497  0.812950  0.136197  1
  O  O34  1  0.685878  0.849377  0.536144  1
  O  O35  1  0.907387  0.651855  0.888421  1
