# generated using pymatgen
data_SrTiH4(OF3)2
_symmetry_space_group_name_H-M   'P 1'
_cell_length_a   6.07349215
_cell_length_b   11.30403124
_cell_length_c   9.86519807
_cell_angle_alpha   90.00000000
_cell_angle_beta   90.00000000
_cell_angle_gamma   99.40586659
_symmetry_Int_Tables_number   1
_chemical_formula_structural   SrTiH4(OF3)2
_chemical_formula_sum   'Sr4 Ti4 H16 O8 F24'
_cell_volume   668.18869819
_cell_formula_units_Z   4
loop_
 _symmetry_equiv_pos_site_id
 _symmetry_equiv_pos_as_xyz
  1  'x, y, z'
loop_
 _atom_site_type_symbol
 _atom_site_label
 _atom_site_symmetry_multiplicity
 _atom_site_fract_x
 _atom_site_fract_y
 _atom_site_fract_z
 _atom_site_occupancy
  Sr  Sr0  1  0.169095  0.450726  0.686780  1
  Sr  Sr1  1  0.330905  0.049274  0.186780  1
  Sr  Sr2  1  0.669095  0.950726  0.813220  1
  Sr  Sr3  1  0.830905  0.549274  0.313220  1
  Ti  Ti4  1  0.093531  0.731952  0.964231  1
  Ti  Ti5  1  0.406469  0.768048  0.464231  1
  Ti  Ti6  1  0.593531  0.231952  0.535769  1
  Ti  Ti7  1  0.906469  0.268048  0.035769  1
  H  H8  1  0.117395  0.947150  0.646527  1
  H  H9  1  0.051973  0.327737  0.392184  1
  H  H10  1  0.108487  0.084809  0.635583  1
  H  H11  1  0.256066  0.429978  0.367494  1
  H  H12  1  0.382605  0.552850  0.146527  1
  H  H13  1  0.243934  0.070022  0.867494  1
  H  H14  1  0.391513  0.415191  0.135583  1
  H  H15  1  0.551973  0.827737  0.107816  1
  H  H16  1  0.448027  0.172263  0.892184  1
  H  H17  1  0.608487  0.584809  0.864417  1
  H  H18  1  0.756066  0.929978  0.132506  1
  H  H19  1  0.617395  0.447150  0.853473  1
  H  H20  1  0.743934  0.570022  0.632506  1
  H  H21  1  0.891513  0.915191  0.364417  1
  H  H22  1  0.948027  0.672263  0.607816  1
  H  H23  1  0.882605  0.052850  0.353473  1
  O  O24  1  0.114541  0.410285  0.418297  1
  O  O25  1  0.062882  0.014147  0.692875  1
  O  O26  1  0.437118  0.485853  0.192875  1
  O  O27  1  0.614541  0.910285  0.081703  1
  O  O28  1  0.385459  0.089715  0.918297  1
  O  O29  1  0.562882  0.514147  0.807125  1
  O  O30  1  0.937118  0.985853  0.307125  1
  O  O31  1  0.885459  0.589715  0.581703  1
  F  F32  1  0.107572  0.879421  0.060497  1
  F  F33  1  0.072528  0.590495  0.862111  1
  F  F34  1  0.169429  0.813641  0.565708  1
  F  F35  1  0.191067  0.686437  0.343500  1
  F  F36  1  0.118924  0.340454  0.909614  1
  F  F37  1  0.308933  0.813563  0.843500  1
  F  F38  1  0.142856  0.225758  0.144625  1
  F  F39  1  0.330571  0.686359  0.065708  1
  F  F40  1  0.427472  0.909505  0.362111  1
  F  F41  1  0.392428  0.620579  0.560497  1
  F  F42  1  0.357144  0.274242  0.644625  1
  F  F43  1  0.381076  0.159546  0.409614  1
  F  F44  1  0.618924  0.840454  0.590386  1
  F  F45  1  0.642856  0.725758  0.355375  1
  F  F46  1  0.607572  0.379421  0.439503  1
  F  F47  1  0.572528  0.090495  0.637889  1
  F  F48  1  0.669429  0.313641  0.934292  1
  F  F49  1  0.857144  0.774242  0.855375  1
  F  F50  1  0.691067  0.186437  0.156500  1
  F  F51  1  0.881076  0.659546  0.090386  1
  F  F52  1  0.808933  0.313563  0.656500  1
  F  F53  1  0.830571  0.186359  0.434292  1
  F  F54  1  0.927472  0.409505  0.137889  1
  F  F55  1  0.892428  0.120579  0.939503  1
