# generated using pymatgen
data_LiCu2F5
_symmetry_space_group_name_H-M   'P 1'
_cell_length_a   13.42653489
_cell_length_b   10.02313266
_cell_length_c   3.14399788
_cell_angle_alpha   90.00000000
_cell_angle_beta   90.00000000
_cell_angle_gamma   90.00000000
_symmetry_Int_Tables_number   1
_chemical_formula_structural   LiCu2F5
_chemical_formula_sum   'Li4 Cu8 F20'
_cell_volume   423.10647121
_cell_formula_units_Z   4
loop_
 _symmetry_equiv_pos_site_id
 _symmetry_equiv_pos_as_xyz
  1  'x, y, z'
loop_
 _atom_site_type_symbol
 _atom_site_label
 _atom_site_symmetry_multiplicity
 _atom_site_fract_x
 _atom_site_fract_y
 _atom_site_fract_z
 _atom_site_occupancy
  Li  Li0  1  0.232340  0.750000  0.763909  1
  Li  Li1  1  0.267660  0.250000  0.263909  1
  Li  Li2  1  0.732340  0.750000  0.736091  1
  Li  Li3  1  0.767660  0.250000  0.236091  1
  Cu  Cu4  1  0.072532  0.590216  0.274111  1
  Cu  Cu5  1  0.072532  0.909784  0.274111  1
  Cu  Cu6  1  0.427468  0.090216  0.774111  1
  Cu  Cu7  1  0.427468  0.409784  0.774111  1
  Cu  Cu8  1  0.572532  0.590216  0.225889  1
  Cu  Cu9  1  0.572532  0.909784  0.225889  1
  Cu  Cu10  1  0.927468  0.090216  0.725889  1
  Cu  Cu11  1  0.927468  0.409784  0.725889  1
  F  F12  1  0.054805  0.750000  0.895687  1
  F  F13  1  0.069868  0.054481  0.708664  1
  F  F14  1  0.069868  0.445519  0.708664  1
  F  F15  1  0.208653  0.623331  0.276465  1
  F  F16  1  0.208653  0.876669  0.276465  1
  F  F17  1  0.291347  0.123331  0.776465  1
  F  F18  1  0.291347  0.376669  0.776465  1
  F  F19  1  0.430132  0.554481  0.208664  1
  F  F20  1  0.430132  0.945519  0.208664  1
  F  F21  1  0.445195  0.250000  0.395687  1
  F  F22  1  0.554805  0.750000  0.604313  1
  F  F23  1  0.569868  0.054481  0.791336  1
  F  F24  1  0.569868  0.445519  0.791336  1
  F  F25  1  0.708653  0.623331  0.223535  1
  F  F26  1  0.708653  0.876669  0.223535  1
  F  F27  1  0.791347  0.123331  0.723535  1
  F  F28  1  0.791347  0.376669  0.723535  1
  F  F29  1  0.930132  0.554481  0.291336  1
  F  F30  1  0.930132  0.945519  0.291336  1
  F  F31  1  0.945195  0.250000  0.104313  1
