# generated using pymatgen
data_Zn(PO3)2
_symmetry_space_group_name_H-M   'P 1'
_cell_length_a   5.02498719
_cell_length_b   6.74841037
_cell_length_c   6.74841037
_cell_angle_alpha   84.84264440
_cell_angle_beta   75.99213636
_cell_angle_gamma   75.99213633
_symmetry_Int_Tables_number   1
_chemical_formula_structural   Zn(PO3)2
_chemical_formula_sum   'Zn2 P4 O12'
_cell_volume   215.31597258
_cell_formula_units_Z   2
loop_
 _symmetry_equiv_pos_site_id
 _symmetry_equiv_pos_as_xyz
  1  'x, y, z'
loop_
 _atom_site_type_symbol
 _atom_site_label
 _atom_site_symmetry_multiplicity
 _atom_site_fract_x
 _atom_site_fract_y
 _atom_site_fract_z
 _atom_site_occupancy
  O  O0  1  0.308967  0.887065  0.410625  1
  O  O1  1  0.191033  0.589375  0.112935  1
  O  O2  1  0.691033  0.112935  0.589375  1
  O  O3  1  0.808967  0.410625  0.887065  1
  O  O4  1  0.152408  0.947760  0.801112  1
  O  O5  1  0.347592  0.198888  0.052240  1
  O  O6  1  0.960084  0.344575  0.355840  1
  O  O7  1  0.539916  0.644160  0.655425  1
  O  O8  1  0.039916  0.655425  0.644160  1
  O  O9  1  0.460084  0.355840  0.344575  1
  O  O10  1  0.652408  0.801112  0.947760  1
  O  O11  1  0.847592  0.052240  0.198888  1
  P  P12  1  0.255722  0.802782  0.625060  1
  P  P13  1  0.244278  0.374940  0.197218  1
  P  P14  1  0.744278  0.197218  0.374940  1
  P  P15  1  0.755722  0.625060  0.802782  1
  Zn  Zn16  1  0.250000  0.875802  0.124198  1
  Zn  Zn17  1  0.750000  0.124198  0.875802  1
