# generated using pymatgen
data_Li2VPO4F
_symmetry_space_group_name_H-M   'P 1'
_cell_length_a   13.21788437
_cell_length_b   5.11042809
_cell_length_c   13.30999545
_cell_angle_alpha   90.00000000
_cell_angle_beta   121.00534929
_cell_angle_gamma   90.00000000
_symmetry_Int_Tables_number   1
_chemical_formula_structural   Li2VPO4F
_chemical_formula_sum   'Li16 V8 P8 O32 F8'
_cell_volume   770.61661113
_cell_formula_units_Z   8
loop_
 _symmetry_equiv_pos_site_id
 _symmetry_equiv_pos_as_xyz
  1  'x, y, z'
loop_
 _atom_site_type_symbol
 _atom_site_label
 _atom_site_symmetry_multiplicity
 _atom_site_fract_x
 _atom_site_fract_y
 _atom_site_fract_z
 _atom_site_occupancy
  Li  Li0  1  0.171556  0.734554  0.834576  1
  Li  Li1  1  0.169107  0.732979  0.587115  1
  Li  Li2  1  0.330893  0.232979  0.912885  1
  Li  Li3  1  0.165294  0.717331  0.328634  1
  Li  Li4  1  0.328444  0.234554  0.665424  1
  Li  Li5  1  0.084002  0.273526  0.167312  1
  Li  Li6  1  0.415998  0.773526  0.332688  1
  Li  Li7  1  0.665294  0.782669  0.828634  1
  Li  Li8  1  0.334706  0.217331  0.171366  1
  Li  Li9  1  0.584002  0.226474  0.667312  1
  Li  Li10  1  0.915998  0.726474  0.832688  1
  Li  Li11  1  0.671556  0.765446  0.334576  1
  Li  Li12  1  0.834706  0.282669  0.671366  1
  Li  Li13  1  0.669107  0.767021  0.087115  1
  Li  Li14  1  0.830893  0.267021  0.412885  1
  Li  Li15  1  0.828444  0.265446  0.165424  1
  V  V16  1  0.105737  0.280343  0.677199  1
  V  V17  1  0.394263  0.780343  0.822801  1
  V  V18  1  0.322601  0.224727  0.394013  1
  V  V19  1  0.177399  0.724727  0.105987  1
  V  V20  1  0.822601  0.275273  0.894013  1
  V  V21  1  0.677399  0.775273  0.605987  1
  V  V22  1  0.605737  0.219657  0.177199  1
  V  V23  1  0.894263  0.719657  0.322801  1
  P  P24  1  0.086681  0.215678  0.920654  1
  P  P25  1  0.081860  0.211562  0.414905  1
  P  P26  1  0.581860  0.288438  0.914905  1
  P  P27  1  0.413319  0.715678  0.579346  1
  P  P28  1  0.586681  0.284322  0.420654  1
  P  P29  1  0.418140  0.711562  0.085095  1
  P  P30  1  0.918140  0.788438  0.585095  1
  P  P31  1  0.913319  0.784322  0.079346  1
  O  O32  1  0.082168  0.909162  0.925961  1
  O  O33  1  0.044414  0.673646  0.648779  1
  O  O34  1  0.151678  0.300270  0.856600  1
  O  O35  1  0.073584  0.904867  0.412059  1
  O  O36  1  0.151349  0.311164  0.543537  1
  O  O37  1  0.348651  0.811164  0.956463  1
  O  O38  1  0.146517  0.308787  0.352392  1
  O  O39  1  0.040287  0.669375  0.146438  1
  O  O40  1  0.348322  0.800270  0.643400  1
  O  O41  1  0.455586  0.173646  0.851221  1
  O  O42  1  0.573584  0.595133  0.912059  1
  O  O43  1  0.344475  0.826274  0.453125  1
  O  O44  1  0.417832  0.409162  0.574039  1
  O  O45  1  0.155525  0.326274  0.046875  1
  O  O46  1  0.646517  0.191213  0.852392  1
  O  O47  1  0.540287  0.830625  0.646438  1
  O  O48  1  0.459713  0.169375  0.353562  1
  O  O49  1  0.353483  0.808787  0.147608  1
  O  O50  1  0.844475  0.673726  0.953125  1
  O  O51  1  0.582168  0.590838  0.425961  1
  O  O52  1  0.655525  0.173726  0.546875  1
  O  O53  1  0.426416  0.404867  0.087941  1
  O  O54  1  0.544414  0.826354  0.148779  1
  O  O55  1  0.651678  0.199730  0.356600  1
  O  O56  1  0.959713  0.330625  0.853562  1
  O  O57  1  0.853483  0.691213  0.647608  1
  O  O58  1  0.651349  0.188836  0.043537  1
  O  O59  1  0.848651  0.688836  0.456463  1
  O  O60  1  0.926416  0.095133  0.587941  1
  O  O61  1  0.848322  0.699730  0.143400  1
  O  O62  1  0.955586  0.326354  0.351221  1
  O  O63  1  0.917832  0.090838  0.074039  1
  F  F64  1  0.227153  0.969935  0.736526  1
  F  F65  1  0.272847  0.469935  0.763474  1
  F  F66  1  0.221321  0.029400  0.230690  1
  F  F67  1  0.278679  0.529400  0.269310  1
  F  F68  1  0.721321  0.470600  0.730690  1
  F  F69  1  0.778679  0.970600  0.769310  1
  F  F70  1  0.727153  0.530065  0.236526  1
  F  F71  1  0.772847  0.030065  0.263474  1
