# generated using pymatgen
data_LaOF
_symmetry_space_group_name_H-M   'P 1'
_cell_length_a   7.19279813
_cell_length_b   7.19279822
_cell_length_c   7.19279878
_cell_angle_alpha   32.88838503
_cell_angle_beta   32.88838383
_cell_angle_gamma   32.88838198
_symmetry_Int_Tables_number   1
_chemical_formula_structural   LaOF
_chemical_formula_sum   'La2 O2 F2'
_cell_volume   97.62692394
_cell_formula_units_Z   2
loop_
 _symmetry_equiv_pos_site_id
 _symmetry_equiv_pos_as_xyz
  1  'x, y, z'
loop_
 _atom_site_type_symbol
 _atom_site_label
 _atom_site_symmetry_multiplicity
 _atom_site_fract_x
 _atom_site_fract_y
 _atom_site_fract_z
 _atom_site_occupancy
  La  La0  1  0.740831  0.740831  0.740831  1
  La  La1  1  0.259169  0.259169  0.259169  1
  O  O2  1  0.623627  0.623627  0.623627  1
  O  O3  1  0.376373  0.376373  0.376373  1
  F  F4  1  0.872818  0.872818  0.872818  1
  F  F5  1  0.127182  0.127182  0.127182  1
