# generated using pymatgen
data_Ti17(NO4)6
_symmetry_space_group_name_H-M   'P 1'
_cell_length_a   7.64343023
_cell_length_b   14.64910403
_cell_length_c   10.73889200
_cell_angle_alpha   92.67854568
_cell_angle_beta   69.15113087
_cell_angle_gamma   97.49356531
_symmetry_Int_Tables_number   1
_chemical_formula_structural   Ti17(NO4)6
_chemical_formula_sum   'Ti34 N12 O48'
_cell_volume   1114.09838416
_cell_formula_units_Z   2
loop_
 _symmetry_equiv_pos_site_id
 _symmetry_equiv_pos_as_xyz
  1  'x, y, z'
loop_
 _atom_site_type_symbol
 _atom_site_label
 _atom_site_symmetry_multiplicity
 _atom_site_fract_x
 _atom_site_fract_y
 _atom_site_fract_z
 _atom_site_occupancy
  Ti  Ti0  1  0.025804  0.242680  0.070185  1
  Ti  Ti1  1  0.198401  0.907337  0.056841  1
  Ti  Ti2  1  0.013396  0.904953  0.425672  1
  Ti  Ti3  1  0.009374  0.536192  0.750016  1
  Ti  Ti4  1  0.349500  0.573211  0.076125  1
  Ti  Ti5  1  0.156133  0.130563  0.249648  1
  Ti  Ti6  1  0.158304  0.760098  0.576195  1
  Ti  Ti7  1  0.323960  0.797141  0.249984  1
  Ti  Ti8  1  0.175029  0.573235  0.423805  1
  Ti  Ti9  1  0.134932  0.425997  0.943159  1
  Ti  Ti10  1  0.177201  0.202771  0.750351  1
  Ti  Ti11  1  0.346760  0.241566  0.427881  1
  Ti  Ti12  1  0.319937  0.428381  0.574328  1
  Ti  Ti13  1  0.505329  0.907367  0.442901  1
  Ti  Ti14  1  0.524041  0.241555  0.072169  1
  Ti  Ti15  1  0.688953  0.904969  0.074498  1
  Ti  Ti16  1  0.491643  0.466721  0.250047  1
  Ti  Ti17  1  0.487787  0.090627  0.570215  1
  Ti  Ti18  1  0.645614  0.760111  0.576186  1
  Ti  Ti19  1  0.687719  0.573222  0.423814  1
  Ti  Ti20  1  0.659204  0.130585  0.250385  1
  Ti  Ti21  1  0.508772  0.536198  0.749986  1
  Ti  Ti22  1  0.472345  0.760130  0.923832  1
  Ti  Ti23  1  0.307529  0.090654  0.929815  1
  Ti  Ti24  1  0.860988  0.573204  0.076168  1
  Ti  Ti25  1  0.824561  0.797136  0.250014  1
  Ti  Ti26  1  0.828004  0.425966  0.557099  1
  Ti  Ti27  1  0.674130  0.202748  0.749615  1
  Ti  Ti28  1  0.644380  0.428364  0.925502  1
  Ti  Ti29  1  0.841691  0.866612  0.749953  1
  Ti  Ti30  1  0.845547  0.242706  0.429785  1
  Ti  Ti31  1  0.986573  0.091767  0.572119  1
  Ti  Ti32  1  0.809293  0.091779  0.927831  1
  Ti  Ti33  1  0.983834  0.760122  0.923875  1
  N  N34  1  0.086549  0.845820  0.249750  1
  N  N35  1  0.273753  0.521762  0.249979  1
  N  N36  1  0.059581  0.811571  0.750021  1
  N  N37  1  0.586382  0.845686  0.250058  1
  N  N38  1  0.246784  0.487514  0.750250  1
  N  N39  1  0.419944  0.179568  0.250012  1
  N  N40  1  0.596194  0.811611  0.749967  1
  N  N41  1  0.413848  0.155553  0.750035  1
  N  N42  1  0.737139  0.521722  0.250033  1
  N  N43  1  0.919485  0.177780  0.249965  1
  N  N44  1  0.746951  0.487647  0.749942  1
  N  N45  1  0.913390  0.153766  0.749988  1
  O  O46  1  0.112505  0.548602  0.049313  1
  O  O47  1  0.035534  0.362333  0.108975  1
  O  O48  1  0.435689  0.874804  0.064484  1
  O  O49  1  0.367806  0.698562  0.119717  1
  O  O50  1  0.084405  0.207376  0.435629  1
  O  O51  1  0.196567  0.032560  0.122882  1
  O  O52  1  0.269220  0.208885  0.066770  1
  O  O53  1  0.081671  0.458539  0.564556  1
  O  O54  1  0.103831  0.634744  0.619747  1
  O  O55  1  0.251662  0.874794  0.435444  1
  O  O56  1  0.229503  0.698589  0.380253  1
  O  O57  1  0.066802  0.031897  0.382436  1
  O  O58  1  0.248928  0.125957  0.564371  1
  O  O59  1  0.414422  0.538641  0.440405  1
  O  O60  1  0.220829  0.784731  0.950687  1
  O  O61  1  0.297800  0.971000  0.891025  1
  O  O62  1  0.532122  0.364526  0.118920  1
  O  O63  1  0.604969  0.538437  0.059362  1
  O  O64  1  0.136766  0.300773  0.877118  1
  O  O65  1  0.064113  0.124448  0.933230  1
  O  O66  1  0.421867  0.785025  0.548826  1
  O  O67  1  0.266531  0.301436  0.617564  1
  O  O68  1  0.437846  0.970997  0.608900  1
  O  O69  1  0.400034  0.364566  0.381149  1
  O  O70  1  0.699087  0.031924  0.117587  1
  O  O71  1  0.861825  0.698566  0.119724  1
  O  O72  1  0.569644  0.032649  0.377153  1
  O  O73  1  0.585228  0.208940  0.433297  1
  O  O74  1  0.769317  0.207363  0.064355  1
  O  O75  1  0.396118  0.458486  0.935568  1
  O  O76  1  0.593834  0.634751  0.619778  1
  O  O77  1  0.937216  0.874848  0.064432  1
  O  O78  1  0.583079  0.458490  0.564498  1
  O  O79  1  0.739499  0.698582  0.380222  1
  O  O80  1  0.750255  0.874843  0.435502  1
  O  O81  1  0.471509  0.634768  0.880276  1
  O  O82  1  0.895488  0.362337  0.391100  1
  O  O83  1  0.801211  0.968807  0.881080  1
  O  O84  1  0.748106  0.124393  0.566703  1
  O  O85  1  0.564016  0.125971  0.935645  1
  O  O86  1  0.911466  0.548308  0.451174  1
  O  O87  1  0.728364  0.794897  0.940638  1
  O  O88  1  0.933299  0.968768  0.618851  1
  O  O89  1  0.918911  0.794692  0.559595  1
  O  O90  1  0.634247  0.301409  0.882413  1
  O  O91  1  0.763690  0.300684  0.622847  1
  O  O92  1  0.965527  0.634772  0.880283  1
  O  O93  1  0.897644  0.458529  0.935516  1
