# generated using pymatgen
data_Na8NiO6
_symmetry_space_group_name_H-M   'P 1'
_cell_length_a   6.32800608
_cell_length_b   6.32291277
_cell_length_c   12.81984491
_cell_angle_alpha   90.00492142
_cell_angle_beta   89.98739611
_cell_angle_gamma   120.09139277
_symmetry_Int_Tables_number   1
_chemical_formula_structural   Na8NiO6
_chemical_formula_sum   'Na16 Ni2 O12'
_cell_volume   443.80968614
_cell_formula_units_Z   2
loop_
 _symmetry_equiv_pos_site_id
 _symmetry_equiv_pos_as_xyz
  1  'x, y, z'
loop_
 _atom_site_type_symbol
 _atom_site_label
 _atom_site_symmetry_multiplicity
 _atom_site_fract_x
 _atom_site_fract_y
 _atom_site_fract_z
 _atom_site_occupancy
  Na  Na0  1  0.999821  0.709797  0.772060  1
  Na  Na1  1  0.000571  0.618426  0.119842  1
  Na  Na2  1  0.999873  0.381537  0.620321  1
  Na  Na3  1  0.999926  0.290027  0.272322  1
  Na  Na4  1  0.334128  0.667324  0.415509  1
  Na  Na5  1  0.332880  0.666215  0.915040  1
  Na  Na6  1  0.290753  0.290892  0.771905  1
  Na  Na7  1  0.382214  0.381884  0.119990  1
  Na  Na8  1  0.618039  0.617661  0.620325  1
  Na  Na9  1  0.289240  0.000206  0.272422  1
  Na  Na10  1  0.709774  0.710297  0.272327  1
  Na  Na11  1  0.381534  0.999489  0.620228  1
  Na  Na12  1  0.665812  0.332594  0.915041  1
  Na  Na13  1  0.667135  0.333915  0.415550  1
  Na  Na14  1  0.618786  0.999991  0.119979  1
  Na  Na15  1  0.709176  0.000008  0.771839  1
  Ni  Ni16  1  -0.000180  -0.000354  0.995378  1
  Ni  Ni17  1  0.000415  0.000173  0.495413  1
  O  O18  1  0.999955  0.719936  0.950902  1
  O  O19  1  0.000014  0.279657  0.450999  1
  O  O20  1  0.333406  0.667417  0.220781  1
  O  O21  1  0.999656  0.999834  0.148698  1
  O  O22  1  0.000179  0.000324  0.648636  1
  O  O23  1  0.332643  0.666548  0.720635  1
  O  O24  1  0.280190  0.280223  0.950832  1
  O  O25  1  0.279974  0.999972  0.451075  1
  O  O26  1  0.719693  0.719643  0.450974  1
  O  O27  1  0.666494  0.332892  0.720625  1
  O  O28  1  0.667141  0.333482  0.220765  1
  O  O29  1  0.720557  -0.000008  0.950844  1
