# generated using pymatgen
data_Mn12O5F19
_symmetry_space_group_name_H-M   'P 1'
_cell_length_a   4.88054674
_cell_length_b   5.86318056
_cell_length_c   15.95311850
_cell_angle_alpha   89.39107039
_cell_angle_beta   89.74371097
_cell_angle_gamma   87.34892596
_symmetry_Int_Tables_number   1
_chemical_formula_structural   Mn12O5F19
_chemical_formula_sum   'Mn12 O5 F19'
_cell_volume   455.98893036
_cell_formula_units_Z   1
loop_
 _symmetry_equiv_pos_site_id
 _symmetry_equiv_pos_as_xyz
  1  'x, y, z'
loop_
 _atom_site_type_symbol
 _atom_site_label
 _atom_site_symmetry_multiplicity
 _atom_site_fract_x
 _atom_site_fract_y
 _atom_site_fract_z
 _atom_site_occupancy
  Mn  Mn0  1  0.044898  0.198584  0.425059  1
  Mn  Mn1  1  0.986453  0.853403  0.250314  1
  Mn  Mn2  1  0.972744  0.161096  0.084684  1
  Mn  Mn3  1  0.992497  0.164271  0.746466  1
  Mn  Mn4  1  0.990806  0.837059  0.583582  1
  Mn  Mn5  1  0.017280  0.839719  0.905017  1
  Mn  Mn6  1  0.507085  0.351524  0.588005  1
  Mn  Mn7  1  0.507176  0.331492  0.924835  1
  Mn  Mn8  1  0.511751  0.321080  0.244915  1
  Mn  Mn9  1  0.521050  0.649435  0.080989  1
  Mn  Mn10  1  0.493546  0.645507  0.417078  1
  Mn  Mn11  1  0.490244  0.652002  0.752327  1
  O  O12  1  0.221427  0.882705  0.800170  1
  O  O13  1  0.309525  0.400965  0.482347  1
  O  O14  1  0.718669  0.373643  0.031955  1
  O  O15  1  0.704611  0.389417  0.695399  1
  O  O16  1  0.784833  0.109204  0.187914  1
  F  F17  1  0.237450  0.103530  0.307725  1
  F  F18  1  0.223515  0.119763  0.636742  1
  F  F19  1  0.204773  0.123176  0.978114  1
  F  F20  1  0.235806  0.891741  0.130983  1
  F  F21  1  0.237240  0.892316  0.473423  1
  F  F22  1  0.262801  0.396850  0.139613  1
  F  F23  1  0.262509  0.605035  0.302673  1
  F  F24  1  0.264953  0.612538  0.644161  1
  F  F25  1  0.261555  0.382747  0.814287  1
  F  F26  1  0.272616  0.622864  0.971093  1
  F  F27  1  0.728633  0.618328  0.195670  1
  F  F28  1  0.742023  0.385013  0.357082  1
  F  F29  1  0.742076  0.608381  0.527319  1
  F  F30  1  0.724045  0.609957  0.859982  1
  F  F31  1  0.770398  0.120695  0.529049  1
  F  F32  1  0.759312  0.875275  0.364878  1
  F  F33  1  0.777877  0.869745  0.013494  1
  F  F34  1  0.769986  0.111318  0.858749  1
  F  F35  1  0.747834  0.889621  0.693906  1
