# generated using pymatgen
data_Li3Mn4(BO3)4
_symmetry_space_group_name_H-M   'P 1'
_cell_length_a   9.35528054
_cell_length_b   6.17622508
_cell_length_c   9.66063635
_cell_angle_alpha   80.26679037
_cell_angle_beta   66.77133020
_cell_angle_gamma   83.23851493
_symmetry_Int_Tables_number   1
_chemical_formula_structural   Li3Mn4(BO3)4
_chemical_formula_sum   'Li6 Mn8 B8 O24'
_cell_volume   504.75880577
_cell_formula_units_Z   2
loop_
 _symmetry_equiv_pos_site_id
 _symmetry_equiv_pos_as_xyz
  1  'x, y, z'
loop_
 _atom_site_type_symbol
 _atom_site_label
 _atom_site_symmetry_multiplicity
 _atom_site_fract_x
 _atom_site_fract_y
 _atom_site_fract_z
 _atom_site_occupancy
  Li  Li0  1  0.878425  0.463906  0.968577  1
  Li  Li1  1  0.400240  0.976964  0.966592  1
  Li  Li2  1  0.621575  0.536094  0.531423  1
  Li  Li3  1  0.379280  0.469111  0.467363  1
  Li  Li4  1  0.099760  0.023036  0.533408  1
  Li  Li5  1  0.120720  0.530889  0.032637  1
  Mn  Mn6  1  0.704510  0.747615  0.797516  1
  Mn  Mn7  1  0.795490  0.252385  0.702484  1
  Mn  Mn8  1  0.793998  0.761958  0.194160  1
  Mn  Mn9  1  0.297662  0.757200  0.700163  1
  Mn  Mn10  1  0.706002  0.238042  0.305840  1
  Mn  Mn11  1  0.202338  0.242800  0.799837  1
  Mn  Mn12  1  0.190720  0.746424  0.300984  1
  Mn  Mn13  1  0.309280  0.253576  0.199016  1
  B  B14  1  0.967613  0.898455  0.858855  1
  B  B15  1  0.966166  0.409626  0.366450  1
  B  B16  1  0.464786  0.419920  0.866950  1
  B  B17  1  0.461862  0.908300  0.373433  1
  B  B18  1  0.532387  0.101545  0.641145  1
  B  B19  1  0.533834  0.590374  0.133550  1
  B  B20  1  0.035215  0.580080  0.633050  1
  B  B21  1  0.038138  0.091700  0.126567  1
  O  O22  1  0.972318  0.743791  0.978652  1
  O  O23  1  0.829229  0.967746  0.840165  1
  O  O24  1  0.895566  0.502985  0.754110  1
  O  O25  1  0.974365  0.276318  0.490989  1
  O  O26  1  0.822008  0.479811  0.352910  1
  O  O27  1  0.604434  0.497015  0.745890  1
  O  O28  1  0.602412  0.987747  0.266186  1
  O  O29  1  0.472247  0.259466  0.978834  1
  O  O30  1  0.468554  0.740189  0.485407  1
  O  O31  1  0.897588  0.012253  0.233814  1
  O  O32  1  0.670771  0.032254  0.659835  1
  O  O33  1  0.677992  0.520189  0.147090  1
  O  O34  1  0.322456  0.498338  0.857106  1
  O  O35  1  0.319702  0.990227  0.364850  1
  O  O36  1  0.103696  0.982627  0.746433  1
  O  O37  1  0.527682  0.256209  0.521348  1
  O  O38  1  0.525635  0.723682  0.009011  1
  O  O39  1  0.396304  0.017373  0.753567  1
  O  O40  1  0.397563  0.521537  0.255496  1
  O  O41  1  0.177544  0.501662  0.642894  1
  O  O42  1  0.027753  0.740534  0.521166  1
  O  O43  1  0.102437  0.478463  0.244504  1
  O  O44  1  0.180298  0.009773  0.135150  1
  O  O45  1  0.031446  0.259811  0.014593  1
