# generated using pymatgen
data_Li4Mn5Cr2O12
_symmetry_space_group_name_H-M   'P 1'
_cell_length_a   5.14758234
_cell_length_b   9.11502902
_cell_length_c   10.15204459
_cell_angle_alpha   90.00000188
_cell_angle_beta   100.71520022
_cell_angle_gamma   89.99999308
_symmetry_Int_Tables_number   1
_chemical_formula_structural   Li4Mn5Cr2O12
_chemical_formula_sum   'Li8 Mn10 Cr4 O24'
_cell_volume   468.03195365
_cell_formula_units_Z   2
loop_
 _symmetry_equiv_pos_site_id
 _symmetry_equiv_pos_as_xyz
  1  'x, y, z'
loop_
 _atom_site_type_symbol
 _atom_site_label
 _atom_site_symmetry_multiplicity
 _atom_site_fract_x
 _atom_site_fract_y
 _atom_site_fract_z
 _atom_site_occupancy
  Li  Li0  1  0.240385  0.089366  0.989129  1
  Li  Li1  1  0.758285  0.075919  0.516928  1
  Li  Li2  1  0.489924  0.416528  0.753633  1
  Li  Li3  1  0.749061  0.414477  0.514878  1
  Li  Li4  1  0.259615  0.589366  0.510871  1
  Li  Li5  1  0.741715  0.575919  0.983072  1
  Li  Li6  1  0.010076  0.916528  0.746367  1
  Li  Li7  1  0.750939  0.914477  0.985122  1
  Mn  Mn8  1  0.999501  0.086004  0.247977  1
  Mn  Mn9  1  0.501380  0.074643  0.748244  1
  Mn  Mn10  1  0.253031  0.248275  0.510315  1
  Mn  Mn11  1  0.001120  0.421016  0.254985  1
  Mn  Mn12  1  0.739543  0.264780  0.990329  1
  Mn  Mn13  1  0.998620  0.574643  0.751756  1
  Mn  Mn14  1  0.500499  0.586004  0.252023  1
  Mn  Mn15  1  0.246969  0.748275  0.989685  1
  Mn  Mn16  1  0.760457  0.764780  0.509671  1
  Mn  Mn17  1  0.498880  0.921016  0.245014  1
  Cr  Cr18  1  0.001360  0.247886  0.754483  1
  Cr  Cr19  1  0.497590  0.253838  0.248538  1
  Cr  Cr20  1  0.002410  0.753838  0.251462  1
  Cr  Cr21  1  0.498640  0.747886  0.745517  1
  O  O22  1  0.142777  0.094485  0.641657  1
  O  O23  1  0.372248  0.087154  0.351124  1
  O  O24  1  0.124752  0.235004  0.138057  1
  O  O25  1  0.373711  0.226222  0.860643  1
  O  O26  1  0.642004  0.104392  0.135730  1
  O  O27  1  0.854967  0.089884  0.865047  1
  O  O28  1  0.109033  0.413893  0.639877  1
  O  O29  1  0.632764  0.229671  0.635527  1
  O  O30  1  0.354845  0.404526  0.366624  1
  O  O31  1  0.864621  0.267466  0.367463  1
  O  O32  1  0.642063  0.425060  0.147414  1
  O  O33  1  0.127752  0.587154  0.148876  1
  O  O34  1  0.868963  0.415132  0.859417  1
  O  O35  1  0.357223  0.594485  0.858343  1
  O  O36  1  0.126289  0.726222  0.639357  1
  O  O37  1  0.645033  0.589884  0.634953  1
  O  O38  1  0.375248  0.735004  0.361943  1
  O  O39  1  0.857996  0.604392  0.364270  1
  O  O40  1  0.145155  0.904526  0.133376  1
  O  O41  1  0.635379  0.767466  0.132537  1
  O  O42  1  0.867236  0.729671  0.864473  1
  O  O43  1  0.390967  0.913893  0.860123  1
  O  O44  1  0.631037  0.915132  0.640583  1
  O  O45  1  0.857937  0.925060  0.352586  1
