# generated using pymatgen
data_Sr(BS2)2
_symmetry_space_group_name_H-M   'P 1'
_cell_length_a   6.14649004
_cell_length_b   6.53900205
_cell_length_c   14.26157410
_cell_angle_alpha   90.00000000
_cell_angle_beta   90.00000000
_cell_angle_gamma   109.52441930
_symmetry_Int_Tables_number   1
_chemical_formula_structural   Sr(BS2)2
_chemical_formula_sum   'Sr4 B8 S16'
_cell_volume   540.24042726
_cell_formula_units_Z   4
loop_
 _symmetry_equiv_pos_site_id
 _symmetry_equiv_pos_as_xyz
  1  'x, y, z'
loop_
 _atom_site_type_symbol
 _atom_site_label
 _atom_site_symmetry_multiplicity
 _atom_site_fract_x
 _atom_site_fract_y
 _atom_site_fract_z
 _atom_site_occupancy
  B  B0  1  0.068863  0.965515  0.416180  1
  B  B1  1  0.431137  0.034485  0.916180  1
  B  B2  1  0.931137  0.034485  0.583820  1
  B  B3  1  0.568863  0.965515  0.083820  1
  B  B4  1  0.678840  0.228379  0.727812  1
  B  B5  1  0.821160  0.771621  0.227812  1
  B  B6  1  0.321160  0.771621  0.272188  1
  B  B7  1  0.178840  0.228379  0.772188  1
  S  S8  1  0.138979  0.230682  0.492121  1
  S  S9  1  0.491127  0.412640  0.739325  1
  S  S10  1  0.991127  0.412640  0.760675  1
  S  S11  1  0.008873  0.587360  0.239325  1
  S  S12  1  0.831352  0.872555  0.100155  1
  S  S13  1  0.668648  0.127445  0.600155  1
  S  S14  1  0.168648  0.127445  0.899845  1
  S  S15  1  0.331352  0.872555  0.399845  1
  S  S16  1  0.438327  0.026450  0.195645  1
  S  S17  1  0.061673  0.973550  0.695645  1
  S  S18  1  0.561673  0.973550  0.804355  1
  S  S19  1  0.938327  0.026450  0.304355  1
  S  S20  1  0.861021  0.769318  0.507879  1
  S  S21  1  0.638979  0.230682  0.007879  1
  S  S22  1  0.508873  0.587360  0.260675  1
  S  S23  1  0.361021  0.769318  0.992121  1
  Sr  Sr24  1  0.696457  0.309686  0.396302  1
  Sr  Sr25  1  0.803543  0.690314  0.896302  1
  Sr  Sr26  1  0.303543  0.690314  0.603698  1
  Sr  Sr27  1  0.196457  0.309686  0.103698  1
