# generated using pymatgen
data_LiNi3P3O11
_symmetry_space_group_name_H-M   'P 1'
_cell_length_a   7.72916675
_cell_length_b   8.94507179
_cell_length_c   11.19640119
_cell_angle_alpha   90.00000000
_cell_angle_beta   98.34485435
_cell_angle_gamma   90.00000000
_symmetry_Int_Tables_number   1
_chemical_formula_structural   LiNi3P3O11
_chemical_formula_sum   'Li4 Ni12 P12 O44'
_cell_volume   765.90047897
_cell_formula_units_Z   4
loop_
 _symmetry_equiv_pos_site_id
 _symmetry_equiv_pos_as_xyz
  1  'x, y, z'
loop_
 _atom_site_type_symbol
 _atom_site_label
 _atom_site_symmetry_multiplicity
 _atom_site_fract_x
 _atom_site_fract_y
 _atom_site_fract_z
 _atom_site_occupancy
  Li  Li0  1  0.112775  0.261288  0.503961  1
  Li  Li1  1  0.112775  0.238712  0.003961  1
  Li  Li2  1  0.887225  0.761288  0.996039  1
  Li  Li3  1  0.887225  0.738712  0.496039  1
  Ni  Ni4  1  0.074802  0.628919  0.759410  1
  Ni  Ni5  1  0.074802  0.871081  0.259410  1
  Ni  Ni6  1  0.451398  0.639351  0.931303  1
  Ni  Ni7  1  0.431878  0.622597  0.659032  1
  Ni  Ni8  1  0.451398  0.860649  0.431303  1
  Ni  Ni9  1  0.568122  0.122597  0.840968  1
  Ni  Ni10  1  0.431878  0.877403  0.159032  1
  Ni  Ni11  1  0.548602  0.139351  0.568697  1
  Ni  Ni12  1  0.568122  0.377403  0.340968  1
  Ni  Ni13  1  0.548602  0.360649  0.068697  1
  Ni  Ni14  1  0.925198  0.128919  0.740590  1
  Ni  Ni15  1  0.925198  0.371081  0.240590  1
  P  P16  1  0.215690  0.930714  0.903278  1
  P  P17  1  0.223274  0.935902  0.647024  1
  P  P18  1  0.215690  0.569286  0.403278  1
  P  P19  1  0.314951  0.323852  0.790024  1
  P  P20  1  0.223274  0.564098  0.147024  1
  P  P21  1  0.314951  0.176148  0.290024  1
  P  P22  1  0.685049  0.823852  0.709976  1
  P  P23  1  0.776726  0.435902  0.852976  1
  P  P24  1  0.685049  0.676148  0.209976  1
  P  P25  1  0.784310  0.430714  0.596722  1
  P  P26  1  0.776726  0.064098  0.352976  1
  P  P27  1  0.784310  0.069286  0.096722  1
  O  O28  1  0.035680  0.003283  0.882024  1
  O  O29  1  0.051356  0.019596  0.621373  1
  O  O30  1  0.035680  0.496717  0.382024  1
  O  O31  1  0.125758  0.275227  0.769422  1
  O  O32  1  0.214805  0.757238  0.897772  1
  O  O33  1  0.051356  0.480404  0.121373  1
  O  O34  1  0.125758  0.224773  0.269422  1
  O  O35  1  0.208068  0.763476  0.646409  1
  O  O36  1  0.214805  0.742762  0.397772  1
  O  O37  1  0.318548  0.502013  0.784360  1
  O  O38  1  0.315562  0.980672  0.786313  1
  O  O39  1  0.208068  0.736524  0.146409  1
  O  O40  1  0.325450  0.509949  0.515888  1
  O  O41  1  0.404727  0.266704  0.917460  1
  O  O42  1  0.349346  0.987105  0.560716  1
  O  O43  1  0.318548  0.997987  0.284360  1
  O  O44  1  0.315562  0.519328  0.286313  1
  O  O45  1  0.429107  0.254044  0.700777  1
  O  O46  1  0.325450  0.990051  0.015888  1
  O  O47  1  0.404727  0.233296  0.417460  1
  O  O48  1  0.349346  0.512895  0.060716  1
  O  O49  1  0.429107  0.245956  0.200777  1
  O  O50  1  0.570893  0.754044  0.799223  1
  O  O51  1  0.650654  0.487105  0.939284  1
  O  O52  1  0.595273  0.766704  0.582540  1
  O  O53  1  0.674550  0.009949  0.984112  1
  O  O54  1  0.570893  0.745956  0.299223  1
  O  O55  1  0.684438  0.480672  0.713687  1
  O  O56  1  0.681452  0.002013  0.715640  1
  O  O57  1  0.650654  0.012895  0.439284  1
  O  O58  1  0.595273  0.733296  0.082540  1
  O  O59  1  0.674550  0.490051  0.484112  1
  O  O60  1  0.791932  0.263476  0.853591  1
  O  O61  1  0.684438  0.019328  0.213687  1
  O  O62  1  0.681452  0.497987  0.215640  1
  O  O63  1  0.785195  0.257238  0.602228  1
  O  O64  1  0.791932  0.236524  0.353591  1
  O  O65  1  0.874242  0.775227  0.730578  1
  O  O66  1  0.948644  0.519596  0.878627  1
  O  O67  1  0.785195  0.242762  0.102228  1
  O  O68  1  0.874242  0.724773  0.230578  1
  O  O69  1  0.964320  0.503283  0.617976  1
  O  O70  1  0.948644  0.980404  0.378627  1
  O  O71  1  0.964320  0.996717  0.117976  1
