# generated using pymatgen
data_LiCoPO4
_symmetry_space_group_name_H-M   'P 1'
_cell_length_a   10.85827428
_cell_length_b   10.85827350
_cell_length_c   11.58032236
_cell_angle_alpha   90.00000000
_cell_angle_beta   90.00000000
_cell_angle_gamma   119.99999932
_symmetry_Int_Tables_number   1
_chemical_formula_structural   LiCoPO4
_chemical_formula_sum   'Li12 Co12 P12 O48'
_cell_volume   1182.42299786
_cell_formula_units_Z   12
loop_
 _symmetry_equiv_pos_site_id
 _symmetry_equiv_pos_as_xyz
  1  'x, y, z'
loop_
 _atom_site_type_symbol
 _atom_site_label
 _atom_site_symmetry_multiplicity
 _atom_site_fract_x
 _atom_site_fract_y
 _atom_site_fract_z
 _atom_site_occupancy
  Li  Li0  1  0.000000  0.500000  0.010433  1
  Li  Li1  1  0.000000  0.500000  0.656234  1
  Li  Li2  1  0.000000  0.500000  0.333333  1
  Li  Li3  1  0.000000  0.000000  0.166667  1
  Li  Li4  1  0.000000  0.000000  0.500000  1
  Li  Li5  1  0.000000  0.000000  0.833333  1
  Li  Li6  1  0.500000  0.500000  0.343766  1
  Li  Li7  1  0.500000  0.500000  0.666667  1
  Li  Li8  1  0.500000  0.500000  0.989567  1
  Li  Li9  1  0.500000  0.000000  0.322901  1
  Li  Li10  1  0.500000  0.000000  0.000000  1
  Li  Li11  1  0.500000  0.000000  0.677099  1
  Co  Co12  1  0.000000  0.751951  0.333333  1
  Co  Co13  1  0.246226  0.753774  0.666667  1
  Co  Co14  1  1.000000  0.248049  0.333333  1
  Co  Co15  1  0.246226  0.492452  0.000000  1
  Co  Co16  1  0.248049  0.248049  0.666667  1
  Co  Co17  1  0.507548  0.753774  0.333333  1
  Co  Co18  1  0.248049  0.000000  0.000000  1
  Co  Co19  1  0.492452  0.246226  0.333333  1
  Co  Co20  1  0.751951  0.751951  0.666667  1
  Co  Co21  1  0.753774  0.507548  0.000000  1
  Co  Co22  1  0.753774  0.246226  0.666667  1
  Co  Co23  1  0.751951  1.000000  0.000000  1
  P  P24  1  1.000000  0.746511  0.833333  1
  P  P25  1  0.000000  0.253489  0.833333  1
  P  P26  1  0.252501  0.747499  0.166667  1
  P  P27  1  0.252501  0.505003  0.500000  1
  P  P28  1  0.494997  0.747499  0.833333  1
  P  P29  1  0.253489  0.253489  0.166667  1
  P  P30  1  0.253489  1.000000  0.500000  1
  P  P31  1  0.746511  0.746511  0.166667  1
  P  P32  1  0.505003  0.252501  0.833333  1
  P  P33  1  0.747499  0.494997  0.500000  1
  P  P34  1  0.747499  0.252501  0.166667  1
  P  P35  1  0.746511  0.000000  0.500000  1
  O  O36  1  0.105978  0.892731  0.447785  1
  O  O37  1  0.107269  0.894022  0.885548  1
  O  O38  1  0.062449  0.690623  0.740244  1
  O  O39  1  0.125310  0.704370  0.249909  1
  O  O40  1  0.295630  0.874690  0.083424  1
  O  O41  1  0.309377  0.937551  0.593089  1
  O  O42  1  0.199707  0.590367  0.572173  1
  O  O43  1  0.062449  0.371824  0.926422  1
  O  O44  1  0.199707  0.609340  0.094494  1
  O  O45  1  0.125310  0.420940  0.416758  1
  O  O46  1  0.105978  0.213248  0.218882  1
  O  O47  1  0.409633  0.800293  0.761161  1
  O  O48  1  0.390661  0.800293  0.238839  1
  O  O49  1  0.107269  0.213248  0.781118  1
  O  O50  1  0.295630  0.420940  0.583242  1
  O  O51  1  0.409633  0.609340  0.905506  1
  O  O52  1  0.309377  0.371824  0.073578  1
  O  O53  1  0.390661  0.590367  0.427827  1
  O  O54  1  0.213248  0.107269  0.552215  1
  O  O55  1  0.213248  0.105978  0.114452  1
  O  O56  1  0.628176  0.937551  0.406911  1
  O  O57  1  0.579060  0.874690  0.916576  1
  O  O58  1  0.579060  0.704370  0.750091  1
  O  O59  1  0.371824  0.309377  0.259756  1
  O  O60  1  0.628176  0.690623  0.259756  1
  O  O61  1  0.420940  0.295630  0.750091  1
  O  O62  1  0.420940  0.125310  0.916576  1
  O  O63  1  0.371824  0.062449  0.406911  1
  O  O64  1  0.786752  0.894022  0.114452  1
  O  O65  1  0.786752  0.892731  0.552215  1
  O  O66  1  0.609340  0.409633  0.427827  1
  O  O67  1  0.690623  0.628176  0.073578  1
  O  O68  1  0.590367  0.390661  0.905506  1
  O  O69  1  0.704370  0.579060  0.583242  1
  O  O70  1  0.892731  0.786752  0.781118  1
  O  O71  1  0.609340  0.199707  0.238839  1
  O  O72  1  0.590367  0.199707  0.761161  1
  O  O73  1  0.894022  0.786752  0.218882  1
  O  O74  1  0.874690  0.579060  0.416758  1
  O  O75  1  0.800293  0.390661  0.094494  1
  O  O76  1  0.937551  0.628176  0.926422  1
  O  O77  1  0.800293  0.409633  0.572173  1
  O  O78  1  0.690623  0.062449  0.593089  1
  O  O79  1  0.704370  0.125310  0.083424  1
  O  O80  1  0.874690  0.295630  0.249909  1
  O  O81  1  0.937551  0.309377  0.740244  1
  O  O82  1  0.892731  0.105978  0.885548  1
  O  O83  1  0.894022  0.107269  0.447785  1
