# generated using pymatgen
data_K2SrCdSb2
_symmetry_space_group_name_H-M   'P 1'
_cell_length_a   4.99711917
_cell_length_b   9.97313906
_cell_length_c   8.32600616
_cell_angle_alpha   90.00000000
_cell_angle_beta   90.00000000
_cell_angle_gamma   90.00000000
_symmetry_Int_Tables_number   1
_chemical_formula_structural   K2SrCdSb2
_chemical_formula_sum   'K4 Sr2 Cd2 Sb4'
_cell_volume   414.94287244
_cell_formula_units_Z   2
loop_
 _symmetry_equiv_pos_site_id
 _symmetry_equiv_pos_as_xyz
  1  'x, y, z'
loop_
 _atom_site_type_symbol
 _atom_site_label
 _atom_site_symmetry_multiplicity
 _atom_site_fract_x
 _atom_site_fract_y
 _atom_site_fract_z
 _atom_site_occupancy
  K  K0  1  0.500001  0.422269  0.024867  1
  K  K1  1  0.000000  0.337570  0.340920  1
  K  K2  1  0.500001  0.577730  0.524868  1
  K  K3  1  0.000000  0.662430  0.840920  1
  Sr  Sr4  1  0.000000  0.954097  0.496069  1
  Sr  Sr5  1  0.000000  0.045903  0.996070  1
  Cd  Cd6  1  0.500001  0.824433  0.151804  1
  Cd  Cd7  1  0.500001  0.175567  0.651804  1
  Sb  Sb8  1  0.000000  0.684902  0.249437  1
  Sb  Sb9  1  0.500001  0.109571  0.282423  1
  Sb  Sb10  1  0.000000  0.315098  0.749436  1
  Sb  Sb11  1  0.500001  0.890428  0.782422  1
