# generated using pymatgen
data_Li4MnFe3(BO3)4
_symmetry_space_group_name_H-M   'P 1'
_cell_length_a   5.99803648
_cell_length_b   5.22415118
_cell_length_c   8.21985951
_cell_angle_alpha   90.52374041
_cell_angle_beta   76.95074571
_cell_angle_gamma   88.88675355
_symmetry_Int_Tables_number   1
_chemical_formula_structural   Li4MnFe3(BO3)4
_chemical_formula_sum   'Li4 Mn1 Fe3 B4 O12'
_cell_volume   250.84354589
_cell_formula_units_Z   1
loop_
 _symmetry_equiv_pos_site_id
 _symmetry_equiv_pos_as_xyz
  1  'x, y, z'
loop_
 _atom_site_type_symbol
 _atom_site_label
 _atom_site_symmetry_multiplicity
 _atom_site_fract_x
 _atom_site_fract_y
 _atom_site_fract_z
 _atom_site_occupancy
  Li  Li0  1  0.042719  0.653766  0.277245  1
  Li  Li1  1  0.453225  0.844370  0.219138  1
  Li  Li2  1  0.545744  0.153327  0.781815  1
  Li  Li3  1  0.957616  0.346581  0.723671  1
  Mn  Mn4  1  0.815457  0.169469  0.418848  1
  Fe  Fe5  1  0.181958  0.836321  0.580907  1
  Fe  Fe6  1  0.319337  0.664894  0.913845  1
  Fe  Fe7  1  0.679716  0.333356  0.083581  1
  B  B8  1  0.164732  0.170440  0.092551  1
  B  B9  1  0.333326  0.329492  0.406078  1
  B  B10  1  0.666657  0.670085  0.596108  1
  B  B11  1  0.836323  0.828070  0.905733  1
  O  O12  1  0.178367  0.911198  0.116272  1
  O  O13  1  0.017189  0.682223  0.808432  1
  O  O14  1  0.166350  0.206469  0.522950  1
  O  O15  1  0.319304  0.589749  0.384553  1
  O  O16  1  0.512067  0.182895  0.306205  1
  O  O17  1  0.665377  0.705848  0.018308  1
  O  O18  1  0.337058  0.295889  0.980197  1
  O  O19  1  0.485903  0.819167  0.691529  1
  O  O20  1  0.677062  0.409953  0.621916  1
  O  O21  1  0.837756  0.787867  0.480166  1
  O  O22  1  0.983463  0.318706  0.187600  1
  O  O23  1  0.823294  0.089865  0.882352  1
