# generated using pymatgen
data_V2Si4O11
_symmetry_space_group_name_H-M   'P 1'
_cell_length_a   8.61889236
_cell_length_b   7.36345690
_cell_length_c   6.99444945
_cell_angle_alpha   104.63618847
_cell_angle_beta   101.29035508
_cell_angle_gamma   99.46959840
_symmetry_Int_Tables_number   1
_chemical_formula_structural   V2Si4O11
_chemical_formula_sum   'V4 Si8 O22'
_cell_volume   410.33322990
_cell_formula_units_Z   2
loop_
 _symmetry_equiv_pos_site_id
 _symmetry_equiv_pos_as_xyz
  1  'x, y, z'
loop_
 _atom_site_type_symbol
 _atom_site_label
 _atom_site_symmetry_multiplicity
 _atom_site_fract_x
 _atom_site_fract_y
 _atom_site_fract_z
 _atom_site_occupancy
  V  V0  1  0.386342  0.622615  0.883986  1
  V  V1  1  0.385556  0.624924  0.387275  1
  V  V2  1  0.614444  0.375077  0.612725  1
  V  V3  1  0.613658  0.377385  0.116014  1
  Si  Si4  1  0.022809  0.380627  0.230606  1
  Si  Si5  1  0.224023  0.218521  0.957613  1
  Si  Si6  1  0.221148  0.220813  0.519629  1
  Si  Si7  1  0.603561  0.982090  0.771283  1
  Si  Si8  1  0.396439  0.017910  0.228717  1
  Si  Si9  1  0.778852  0.779187  0.480372  1
  Si  Si10  1  0.775977  0.781479  0.042387  1
  Si  Si11  1  0.977191  0.619373  0.769394  1
  O  O12  1  0.160763  0.593098  0.811021  1
  O  O13  1  0.056626  0.258570  0.396489  1
  O  O14  1  0.160359  0.581857  0.305895  1
  O  O15  1  0.058392  0.246464  0.023385  1
  O  O16  1  0.184907  0.163185  0.714204  1
  O  O17  1  0.284735  0.041611  0.393076  1
  O  O18  1  0.373840  0.418554  0.586818  1
  O  O19  1  0.445259  0.796183  0.679572  1
  O  O20  1  0.429017  0.799735  0.181129  1
  O  O21  1  0.296658  0.042412  0.015911  1
  O  O22  1  0.373482  0.418344  0.068284  1
  O  O23  1  0.626518  0.581656  0.931716  1
  O  O24  1  0.703342  0.957588  0.984089  1
  O  O25  1  0.570983  0.200265  0.818871  1
  O  O26  1  0.554741  0.203817  0.320428  1
  O  O27  1  0.626160  0.581446  0.413182  1
  O  O28  1  0.715265  0.958389  0.606924  1
  O  O29  1  0.815093  0.836815  0.285796  1
  O  O30  1  0.941608  0.753536  0.976615  1
  O  O31  1  0.839641  0.418143  0.694105  1
  O  O32  1  0.943374  0.741430  0.603511  1
  O  O33  1  0.839237  0.406902  0.188979  1
