# generated using pymatgen
data_LiMnPO4
_symmetry_space_group_name_H-M   'P 1'
_cell_length_a   5.29314337
_cell_length_b   10.21426218
_cell_length_c   5.96935287
_cell_angle_alpha   90.00000000
_cell_angle_beta   90.00000000
_cell_angle_gamma   95.46567974
_symmetry_Int_Tables_number   1
_chemical_formula_structural   LiMnPO4
_chemical_formula_sum   'Li4 Mn4 P4 O16'
_cell_volume   321.26902748
_cell_formula_units_Z   4
loop_
 _symmetry_equiv_pos_site_id
 _symmetry_equiv_pos_as_xyz
  1  'x, y, z'
loop_
 _atom_site_type_symbol
 _atom_site_label
 _atom_site_symmetry_multiplicity
 _atom_site_fract_x
 _atom_site_fract_y
 _atom_site_fract_z
 _atom_site_occupancy
  Li  Li0  1  0.218565  0.963958  0.673556  1
  Li  Li1  1  0.281435  0.536042  0.173556  1
  Li  Li2  1  0.718565  0.463958  0.826444  1
  Li  Li3  1  0.781435  0.036042  0.326444  1
  Mn  Mn4  1  0.182973  0.663972  0.622873  1
  Mn  Mn5  1  0.317027  0.836028  0.122873  1
  Mn  Mn6  1  0.682973  0.163972  0.877127  1
  Mn  Mn7  1  0.817027  0.336028  0.377127  1
  P  P8  1  0.228864  0.386558  0.692406  1
  P  P9  1  0.271136  0.113441  0.192406  1
  P  P10  1  0.728864  0.886558  0.807594  1
  P  P11  1  0.771136  0.613442  0.307594  1
  O  O12  1  0.962309  0.809666  0.771500  1
  O  O13  1  0.032978  0.697239  0.275890  1
  O  O14  1  0.222165  0.442734  0.450868  1
  O  O15  1  0.244855  0.507334  0.854616  1
  O  O16  1  0.255145  0.992666  0.354616  1
  O  O17  1  0.277835  0.057266  0.950868  1
  O  O18  1  0.462309  0.309666  0.728500  1
  O  O19  1  0.532978  0.197239  0.224110  1
  O  O20  1  0.467022  0.802761  0.775890  1
  O  O21  1  0.537691  0.690334  0.271500  1
  O  O22  1  0.722165  0.942734  0.049132  1
  O  O23  1  0.744855  0.007334  0.645384  1
  O  O24  1  0.755145  0.492666  0.145384  1
  O  O25  1  0.777835  0.557266  0.549132  1
  O  O26  1  0.967022  0.302761  0.724110  1
  O  O27  1  0.037691  0.190334  0.228500  1
