# generated using pymatgen
data_Li4V3P8O29
_symmetry_space_group_name_H-M   'P 1'
_cell_length_a   9.80551308
_cell_length_b   9.74402946
_cell_length_c   14.21076347
_cell_angle_alpha   89.83442884
_cell_angle_beta   90.13871501
_cell_angle_gamma   59.94066229
_symmetry_Int_Tables_number   1
_chemical_formula_structural   Li4V3P8O29
_chemical_formula_sum   'Li8 V6 P16 O58'
_cell_volume   1175.14326603
_cell_formula_units_Z   2
loop_
 _symmetry_equiv_pos_site_id
 _symmetry_equiv_pos_as_xyz
  1  'x, y, z'
loop_
 _atom_site_type_symbol
 _atom_site_label
 _atom_site_symmetry_multiplicity
 _atom_site_fract_x
 _atom_site_fract_y
 _atom_site_fract_z
 _atom_site_occupancy
  Li  Li0  1  0.905300  0.763408  0.060180  1
  Li  Li1  1  0.908701  0.323455  0.554744  1
  Li  Li2  1  0.335653  0.903494  0.058918  1
  Li  Li3  1  0.663417  0.233911  0.442422  1
  Li  Li4  1  0.333094  0.761318  0.562788  1
  Li  Li5  1  0.094913  0.234294  0.944328  1
  Li  Li6  1  0.948317  0.022242  0.001042  1
  Li  Li7  1  0.007161  0.955402  0.493803  1
  V  V8  1  0.566866  0.435760  0.242824  1
  V  V9  1  0.434879  0.565114  0.756810  1
  V  V10  1  0.566727  -0.000064  0.745275  1
  V  V11  1  0.435667  0.002844  0.255735  1
  V  V12  1  0.000444  0.566065  0.252135  1
  V  V13  1  0.000138  0.439520  0.747335  1
  P  P14  1  0.911062  0.778514  0.841619  1
  P  P15  1  0.779307  0.915274  0.342395  1
  P  P16  1  0.911639  0.309859  0.340676  1
  P  P17  1  0.663942  0.673437  0.131372  1
  P  P18  1  0.664029  0.665947  0.631992  1
  P  P19  1  0.783071  0.304381  0.841090  1
  P  P20  1  0.685204  0.230389  0.659148  1
  P  P21  1  0.316328  0.915041  0.842746  1
  P  P22  1  0.690978  0.084237  0.158571  1
  P  P23  1  0.315095  0.771288  0.344030  1
  P  P24  1  0.219370  0.697780  0.161719  1
  P  P25  1  0.338597  0.336261  0.367129  1
  P  P26  1  0.332037  0.328093  0.866169  1
  P  P27  1  0.086077  0.698947  0.660586  1
  P  P28  1  0.221142  0.084515  0.659638  1
  P  P29  1  0.088547  0.224577  0.160031  1
  O  O30  1  0.002059  0.796689  0.577258  1
  O  O31  1  0.913448  0.742062  0.334875  1
  O  O32  1  0.789222  0.997801  0.075349  1
  O  O33  1  0.740260  0.916639  0.828257  1
  O  O34  1  0.913596  0.618669  0.824729  1
  O  O35  1  0.813264  0.675279  0.167067  1
  O  O36  1  0.908873  0.466906  0.327836  1
  O  O37  1  0.015200  0.214627  0.069842  1
  O  O38  1  0.922377  0.341101  0.833854  1
  O  O39  1  0.667349  0.812841  0.675504  1
  O  O40  1  0.619232  0.919293  0.330498  1
  O  O41  1  0.814686  0.512559  0.673953  1
  O  O42  1  0.650449  0.677285  0.026942  1
  O  O43  1  0.668300  0.658966  0.527397  1
  O  O44  1  0.666358  0.522257  0.177356  1
  O  O45  1  0.473016  0.911437  0.824466  1
  O  O46  1  0.514296  0.817530  0.176216  1
  O  O47  1  0.739790  0.337847  0.331530  1
  O  O48  1  0.803330  0.205069  0.744210  1
  O  O49  1  0.763410  0.231968  0.568201  1
  O  O50  1  0.809216  0.200181  0.923378  1
  O  O51  1  0.626173  0.458899  0.832760  1
  O  O52  1  0.513432  0.672523  0.672369  1
  O  O53  1  0.653248  0.259422  0.162219  1
  O  O54  1  0.469674  0.614076  0.327309  1
  O  O55  1  0.347076  0.912103  0.331125  1
  O  O56  1  0.796663  0.002822  0.250720  1
  O  O57  1  0.791869  0.001146  0.425903  1
  O  O58  1  0.208441  0.991504  0.580297  1
  O  O59  1  0.654912  0.088751  0.663958  1
  O  O60  1  0.529021  0.385129  0.675854  1
  O  O61  1  0.343415  0.745340  0.836268  1
  O  O62  1  0.489832  0.328601  0.322197  1
  O  O63  1  0.379484  0.538927  0.172647  1
  O  O64  1  0.213440  0.799519  0.081404  1
  O  O65  1  0.236554  0.783928  0.436133  1
  O  O66  1  0.197444  0.791623  0.259774  1
  O  O67  1  0.258943  0.660107  0.664801  1
  O  O68  1  0.476856  0.182803  0.817938  1
  O  O69  1  0.537673  0.078761  0.171173  1
  O  O70  1  0.329446  0.477777  0.829588  1
  O  O71  1  0.318014  0.312562  0.969231  1
  O  O72  1  0.356296  0.320753  0.471070  1
  O  O73  1  0.192978  0.481234  0.325333  1
  O  O74  1  0.380391  0.080574  0.668858  1
  O  O75  1  0.338098  0.185736  0.321031  1
  O  O76  1  0.081463  0.664454  0.160161  1
  O  O77  1  0.009171  0.795425  0.757382  1
  O  O78  1  0.977287  0.786304  0.934816  1
  O  O79  1  0.078515  0.542365  0.672604  1
  O  O80  1  0.182666  0.328795  0.817782  1
  O  O81  1  0.085530  0.383328  0.174149  1
  O  O82  1  0.262157  0.083900  0.165426  1
  O  O83  1  0.237702  0.996180  0.933012  1
  O  O84  1  0.197911  0.014430  0.758163  1
  O  O85  1  0.082141  0.259736  0.657344  1
  O  O86  1  0.982226  0.222961  0.430703  1
  O  O87  1  0.002879  0.199876  0.250319  1
