# generated using pymatgen
data_ReTeSCl4
_symmetry_space_group_name_H-M   'P 1'
_cell_length_a   10.40213423
_cell_length_b   10.40213423
_cell_length_c   10.40213423
_cell_angle_alpha   115.18780560
_cell_angle_beta   115.18780560
_cell_angle_gamma   98.55893182
_symmetry_Int_Tables_number   1
_chemical_formula_structural   ReTeSCl4
_chemical_formula_sum   'Re4 Te4 S4 Cl16'
_cell_volume   843.55978104
_cell_formula_units_Z   4
loop_
 _symmetry_equiv_pos_site_id
 _symmetry_equiv_pos_as_xyz
  1  'x, y, z'
loop_
 _atom_site_type_symbol
 _atom_site_label
 _atom_site_symmetry_multiplicity
 _atom_site_fract_x
 _atom_site_fract_y
 _atom_site_fract_z
 _atom_site_occupancy
  Re  Re0  1  0.693277  0.545288  0.091644  1
  Re  Re1  1  0.453643  0.601632  0.908354  1
  Re  Re2  1  0.398367  0.306721  0.852009  1
  Re  Re3  1  0.454712  0.546357  0.147990  1
  Te  Te4  1  0.923940  0.437524  0.098074  1
  Te  Te5  1  0.339450  0.825867  0.901925  1
  Te  Te6  1  0.174133  0.076058  0.513584  1
  Te  Te7  1  0.562476  0.660549  0.486415  1
  S  S8  1  0.555999  0.429910  0.797567  1
  S  S9  1  0.632342  0.758432  0.202433  1
  S  S10  1  0.241568  0.444001  0.873913  1
  S  S11  1  0.570091  0.367657  0.126089  1
  Cl  Cl12  1  0.865466  0.304219  0.815544  1
  Cl  Cl13  1  0.488674  0.049922  0.184455  1
  Cl  Cl14  1  0.950078  0.134534  0.438754  1
  Cl  Cl15  1  0.695779  0.511324  0.561245  1
  Cl  Cl16  1  0.898503  0.702093  0.093442  1
  Cl  Cl17  1  0.608652  0.805060  0.906559  1
  Cl  Cl18  1  0.194941  0.101498  0.803593  1
  Cl  Cl19  1  0.297907  0.391348  0.196409  1
  Cl  Cl20  1  0.913201  0.648421  0.380060  1
  Cl  Cl21  1  0.268359  0.533140  0.619939  1
  Cl  Cl22  1  0.466861  0.086799  0.735220  1
  Cl  Cl23  1  0.351579  0.731639  0.264780  1
  Cl  Cl24  1  0.878061  0.216224  0.115436  1
  Cl  Cl25  1  0.100790  0.762626  0.884565  1
  Cl  Cl26  1  0.237374  0.121939  0.338163  1
  Cl  Cl27  1  0.783775  0.899211  0.661837  1
