# generated using pymatgen
data_CaSnS3
_symmetry_space_group_name_H-M   'P 1'
_cell_length_a   6.75765504
_cell_length_b   6.75765644
_cell_length_c   7.34033966
_cell_angle_alpha   62.59292646
_cell_angle_beta   62.59292696
_cell_angle_gamma   60.00000255
_symmetry_Int_Tables_number   1
_chemical_formula_structural   CaSnS3
_chemical_formula_sum   'Ca2 Sn2 S6'
_cell_volume   245.89287827
_cell_formula_units_Z   2
loop_
 _symmetry_equiv_pos_site_id
 _symmetry_equiv_pos_as_xyz
  1  'x, y, z'
loop_
 _atom_site_type_symbol
 _atom_site_label
 _atom_site_symmetry_multiplicity
 _atom_site_fract_x
 _atom_site_fract_y
 _atom_site_fract_z
 _atom_site_occupancy
  Ca  Ca0  1  0.639735  0.639735  0.080795  1
  Ca  Ca1  1  0.360265  0.360265  0.919205  1
  Sn  Sn2  1  0.844337  0.844337  0.466988  1
  Sn  Sn3  1  0.155663  0.155663  0.533012  1
  S  S4  1  0.033711  0.441338  0.738839  1
  S  S5  1  0.441338  0.786111  0.738839  1
  S  S6  1  0.786111  0.033711  0.738839  1
  S  S7  1  0.966289  0.558662  0.261161  1
  S  S8  1  0.558662  0.213889  0.261161  1
  S  S9  1  0.213889  0.966289  0.261161  1
