# generated using pymatgen
data_Li8Fe7(PO4)8
_symmetry_space_group_name_H-M   'P 1'
_cell_length_a   10.37295686
_cell_length_b   12.13391260
_cell_length_c   9.53235439
_cell_angle_alpha   90.00000000
_cell_angle_beta   90.00000000
_cell_angle_gamma   90.00000000
_symmetry_Int_Tables_number   1
_chemical_formula_structural   Li8Fe7(PO4)8
_chemical_formula_sum   'Li16 Fe14 P16 O64'
_cell_volume   1199.78551426
_cell_formula_units_Z   2
loop_
 _symmetry_equiv_pos_site_id
 _symmetry_equiv_pos_as_xyz
  1  'x, y, z'
loop_
 _atom_site_type_symbol
 _atom_site_label
 _atom_site_symmetry_multiplicity
 _atom_site_fract_x
 _atom_site_fract_y
 _atom_site_fract_z
 _atom_site_occupancy
  Li  Li0  1  0.008202  0.997384  0.994580  1
  Li  Li1  1  0.983049  0.254762  0.005471  1
  Li  Li2  1  0.008239  0.994460  0.506393  1
  Li  Li3  1  0.983049  0.495238  0.005471  1
  Li  Li4  1  0.999039  0.252596  0.501205  1
  Li  Li5  1  0.008202  0.752616  0.994580  1
  Li  Li6  1  0.999039  0.497404  0.501205  1
  Li  Li7  1  0.008239  0.755540  0.506393  1
  Li  Li8  1  0.508202  0.497384  0.755420  1
  Li  Li9  1  0.508202  0.252616  0.755420  1
  Li  Li10  1  0.508239  0.494460  0.243607  1
  Li  Li11  1  0.483049  0.995238  0.744529  1
  Li  Li12  1  0.499039  0.997404  0.248795  1
  Li  Li13  1  0.508239  0.255540  0.243607  1
  Li  Li14  1  0.499039  0.752596  0.248795  1
  Li  Li15  1  0.483049  0.754762  0.744529  1
  Fe  Fe16  1  0.223625  0.875000  0.242396  1
  Fe  Fe17  1  0.217370  0.375000  0.238305  1
  Fe  Fe18  1  0.212591  0.375000  0.747286  1
  Fe  Fe19  1  0.277768  0.121430  0.988250  1
  Fe  Fe20  1  0.277768  0.628570  0.988250  1
  Fe  Fe21  1  0.282442  0.122869  0.488553  1
  Fe  Fe22  1  0.282442  0.627131  0.488553  1
  Fe  Fe23  1  0.723625  0.375000  0.507604  1
  Fe  Fe24  1  0.712591  0.875000  0.002714  1
  Fe  Fe25  1  0.717370  0.875000  0.511695  1
  Fe  Fe26  1  0.777768  0.128570  0.761750  1
  Fe  Fe27  1  0.782442  0.127131  0.261447  1
  Fe  Fe28  1  0.782442  0.622869  0.261447  1
  Fe  Fe29  1  0.777768  0.621430  0.761750  1
  P  P30  1  0.095186  0.124397  0.207260  1
  P  P31  1  0.095429  0.126076  0.707170  1
  P  P32  1  0.095186  0.625603  0.207260  1
  P  P33  1  0.095429  0.623924  0.707170  1
  P  P34  1  0.403298  0.375000  0.461578  1
  P  P35  1  0.401893  0.375000  0.959225  1
  P  P36  1  0.414444  0.875000  0.459446  1
  P  P37  1  0.400154  0.875000  0.960154  1
  P  P38  1  0.595186  0.125603  0.542740  1
  P  P39  1  0.595429  0.123924  0.042830  1
  P  P40  1  0.595429  0.626076  0.042830  1
  P  P41  1  0.595186  0.624397  0.542740  1
  P  P42  1  0.903298  0.875000  0.288422  1
  P  P43  1  0.901893  0.875000  0.790775  1
  P  P44  1  0.914444  0.375000  0.290554  1
  P  P45  1  0.900154  0.375000  0.789846  1
  O  O46  1  0.044039  0.375000  0.849342  1
  O  O47  1  0.050424  0.375000  0.363242  1
  O  O48  1  0.043226  0.875000  0.346761  1
  O  O49  1  0.034977  0.875000  0.857165  1
  O  O50  1  0.098020  0.125593  0.367707  1
  O  O51  1  0.102518  0.123464  0.868844  1
  O  O52  1  0.098020  0.624407  0.367707  1
  O  O53  1  0.102518  0.626536  0.868844  1
  O  O54  1  0.167662  0.022906  0.139996  1
  O  O55  1  0.169372  0.223985  0.138879  1
  O  O56  1  0.167662  0.727094  0.139996  1
  O  O57  1  0.167493  0.033968  0.630030  1
  O  O58  1  0.157940  0.237686  0.647840  1
  O  O59  1  0.169372  0.526015  0.138879  1
  O  O60  1  0.167493  0.716032  0.630030  1
  O  O61  1  0.157940  0.512314  0.647840  1
  O  O62  1  0.320775  0.275527  0.892088  1
  O  O63  1  0.320775  0.474473  0.892088  1
  O  O64  1  0.338470  0.769581  0.898449  1
  O  O65  1  0.334977  0.272537  0.394636  1
  O  O66  1  0.334977  0.477463  0.394636  1
  O  O67  1  0.341086  0.773763  0.392791  1
  O  O68  1  0.338470  0.980419  0.898449  1
  O  O69  1  0.341086  0.976237  0.392791  1
  O  O70  1  0.393558  0.375000  0.623998  1
  O  O71  1  0.399245  0.375000  0.119967  1
  O  O72  1  0.425405  0.875000  0.617246  1
  O  O73  1  0.401647  0.875000  0.122259  1
  O  O74  1  0.457356  0.127402  0.605947  1
  O  O75  1  0.453181  0.126234  0.097034  1
  O  O76  1  0.453181  0.623766  0.097034  1
  O  O77  1  0.457356  0.622598  0.605947  1
  O  O78  1  0.543226  0.375000  0.403239  1
  O  O79  1  0.550424  0.875000  0.386758  1
  O  O80  1  0.534977  0.375000  0.892835  1
  O  O81  1  0.544039  0.875000  0.900658  1
  O  O82  1  0.598020  0.124407  0.382293  1
  O  O83  1  0.602518  0.126536  0.881156  1
  O  O84  1  0.598020  0.625593  0.382293  1
  O  O85  1  0.602518  0.623464  0.881156  1
  O  O86  1  0.657940  0.012314  0.102160  1
  O  O87  1  0.669372  0.026015  0.611121  1
  O  O88  1  0.667493  0.216032  0.119970  1
  O  O89  1  0.667662  0.227094  0.610004  1
  O  O90  1  0.667493  0.533968  0.119970  1
  O  O91  1  0.667662  0.522906  0.610004  1
  O  O92  1  0.657940  0.737686  0.102160  1
  O  O93  1  0.669372  0.723985  0.611121  1
  O  O94  1  0.834977  0.977463  0.355364  1
  O  O95  1  0.820775  0.974473  0.857912  1
  O  O96  1  0.838470  0.269581  0.851551  1
  O  O97  1  0.841086  0.273763  0.357209  1
  O  O98  1  0.841086  0.476237  0.357209  1
  O  O99  1  0.838470  0.480419  0.851551  1
  O  O100  1  0.834977  0.772537  0.355364  1
  O  O101  1  0.820775  0.775527  0.857912  1
  O  O102  1  0.893558  0.875000  0.126002  1
  O  O103  1  0.899245  0.875000  0.630033  1
  O  O104  1  0.901647  0.375000  0.627741  1
  O  O105  1  0.925405  0.375000  0.132754  1
  O  O106  1  0.957356  0.122598  0.144053  1
  O  O107  1  0.953181  0.123766  0.652966  1
  O  O108  1  0.957356  0.627402  0.144053  1
  O  O109  1  0.953181  0.626234  0.652966  1
