# generated using pymatgen
data_LiMnPO4
_symmetry_space_group_name_H-M   'P 1'
_cell_length_a   4.91070085
_cell_length_b   7.60109246
_cell_length_c   17.09333635
_cell_angle_alpha   90.00000000
_cell_angle_beta   90.00000000
_cell_angle_gamma   90.00000000
_symmetry_Int_Tables_number   1
_chemical_formula_structural   LiMnPO4
_chemical_formula_sum   'Li8 Mn8 P8 O32'
_cell_volume   638.03768759
_cell_formula_units_Z   8
loop_
 _symmetry_equiv_pos_site_id
 _symmetry_equiv_pos_as_xyz
  1  'x, y, z'
loop_
 _atom_site_type_symbol
 _atom_site_label
 _atom_site_symmetry_multiplicity
 _atom_site_fract_x
 _atom_site_fract_y
 _atom_site_fract_z
 _atom_site_occupancy
  Li  Li0  1  0.242917  0.512459  0.052857  1
  Li  Li1  1  0.242917  0.012458  0.447143  1
  Li  Li2  1  0.288166  0.318163  0.356818  1
  Li  Li3  1  0.288166  0.818163  0.143182  1
  Li  Li4  1  0.742917  0.987541  0.552857  1
  Li  Li5  1  0.742917  0.487542  0.947143  1
  Li  Li6  1  0.788166  0.181837  0.856818  1
  Li  Li7  1  0.788166  0.681837  0.643182  1
  Mn  Mn8  1  0.289224  0.341220  0.552087  1
  Mn  Mn9  1  0.289224  0.841220  0.947913  1
  Mn  Mn10  1  0.358307  0.040569  0.752761  1
  Mn  Mn11  1  0.358307  0.540569  0.747239  1
  Mn  Mn12  1  0.789224  0.158780  0.052087  1
  Mn  Mn13  1  0.789224  0.658780  0.447913  1
  Mn  Mn14  1  0.858307  0.959431  0.247239  1
  Mn  Mn15  1  0.858307  0.459431  0.252761  1
  P  P16  1  0.237431  0.214746  0.174133  1
  P  P17  1  0.237431  0.714746  0.325867  1
  P  P18  1  0.252479  0.259616  0.925479  1
  P  P19  1  0.252479  0.759616  0.574521  1
  P  P20  1  0.737431  0.785254  0.825867  1
  P  P21  1  0.737431  0.285254  0.674133  1
  P  P22  1  0.752479  0.240384  0.425479  1
  P  P23  1  0.752479  0.740384  0.074521  1
  O  O24  1  0.050546  0.294208  0.663329  1
  O  O25  1  0.050546  0.794208  0.836671  1
  O  O26  1  0.061790  0.739240  0.054651  1
  O  O27  1  0.061790  0.239240  0.445349  1
  O  O28  1  0.117489  0.929980  0.545364  1
  O  O29  1  0.117489  0.429980  0.954636  1
  O  O30  1  0.187945  0.737956  0.663699  1
  O  O31  1  0.187945  0.237956  0.836301  1
  O  O32  1  0.095039  0.543073  0.356247  1
  O  O33  1  0.095039  0.043073  0.143753  1
  O  O34  1  0.150209  0.726794  0.238772  1
  O  O35  1  0.150209  0.226794  0.261228  1
  O  O36  1  0.095817  0.372079  0.132627  1
  O  O37  1  0.095817  0.872079  0.367373  1
  O  O38  1  0.114728  0.598500  0.532299  1
  O  O39  1  0.114728  0.098500  0.967701  1
  O  O40  1  0.550546  0.205792  0.163329  1
  O  O41  1  0.550546  0.705792  0.336671  1
  O  O42  1  0.561790  0.260760  0.945349  1
  O  O43  1  0.561790  0.760760  0.554651  1
  O  O44  1  0.617489  0.070020  0.454636  1
  O  O45  1  0.617489  0.570020  0.045364  1
  O  O46  1  0.687945  0.262044  0.336301  1
  O  O47  1  0.687945  0.762044  0.163699  1
  O  O48  1  0.595039  0.956927  0.856247  1
  O  O49  1  0.595039  0.456927  0.643753  1
  O  O50  1  0.650209  0.773206  0.738772  1
  O  O51  1  0.650209  0.273206  0.761228  1
  O  O52  1  0.595817  0.627921  0.867373  1
  O  O53  1  0.595817  0.127921  0.632627  1
  O  O54  1  0.614728  0.401500  0.467701  1
  O  O55  1  0.614728  0.901500  0.032299  1
