# generated using pymatgen
data_Mn11ZnO16
_symmetry_space_group_name_H-M   'P 1'
_cell_length_a   6.32545270
_cell_length_b   6.32545270
_cell_length_c   8.33730334
_cell_angle_alpha   90.00000000
_cell_angle_beta   90.00000000
_cell_angle_gamma   82.47784116
_symmetry_Int_Tables_number   1
_chemical_formula_structural   Mn11ZnO16
_chemical_formula_sum   'Mn11 Zn1 O16'
_cell_volume   330.71603194
_cell_formula_units_Z   1
loop_
 _symmetry_equiv_pos_site_id
 _symmetry_equiv_pos_as_xyz
  1  'x, y, z'
loop_
 _atom_site_type_symbol
 _atom_site_label
 _atom_site_symmetry_multiplicity
 _atom_site_fract_x
 _atom_site_fract_y
 _atom_site_fract_z
 _atom_site_occupancy
  Mn  Mn0  1  0.500405  0.998083  0.001967  1
  Mn  Mn1  1  0.499595  0.501917  0.001967  1
  Mn  Mn2  1  0.748901  0.251933  0.251587  1
  Mn  Mn3  1  0.251099  0.248067  0.251587  1
  Mn  Mn4  1  0.001933  0.998901  0.498413  1
  Mn  Mn5  1  0.000000  0.750000  0.125543  1
  Mn  Mn6  1  0.500000  0.250000  0.624457  1
  Mn  Mn7  1  0.998067  0.501099  0.498413  1
  Mn  Mn8  1  0.748083  0.750405  0.748033  1
  Mn  Mn9  1  0.251917  0.749595  0.748033  1
  Mn  Mn10  1  0.000000  0.250000  0.875000  1
  Zn  Zn11  1  0.500000  0.750000  0.375000  1
  O  O12  1  0.726929  0.256740  0.015456  1
  O  O13  1  0.993586  0.023243  0.263137  1
  O  O14  1  0.273071  0.243260  0.015456  1
  O  O15  1  0.494234  0.016309  0.239730  1
  O  O16  1  0.505766  0.483691  0.239730  1
  O  O17  1  0.773243  0.243586  0.486863  1
  O  O18  1  0.006414  0.476757  0.263137  1
  O  O19  1  0.766309  0.744234  0.510270  1
  O  O20  1  0.226757  0.256414  0.486863  1
  O  O21  1  0.993260  0.523071  0.734544  1
  O  O22  1  0.233691  0.755766  0.510270  1
  O  O23  1  0.494600  0.521368  0.764821  1
  O  O24  1  0.728632  0.755400  0.985179  1
  O  O25  1  0.505400  0.978632  0.764821  1
  O  O26  1  0.006740  0.976929  0.734544  1
  O  O27  1  0.271368  0.744600  0.985179  1
