# generated using pymatgen
data_Sm3SiAgS7
_symmetry_space_group_name_H-M   'P 1'
_cell_length_a   10.18957952
_cell_length_b   10.19023304
_cell_length_c   5.75705039
_cell_angle_alpha   90.00000000
_cell_angle_beta   90.00000000
_cell_angle_gamma   119.98624288
_symmetry_Int_Tables_number   1
_chemical_formula_structural   Sm3SiAgS7
_chemical_formula_sum   'Sm6 Si2 Ag2 S14'
_cell_volume   517.76325906
_cell_formula_units_Z   2
loop_
 _symmetry_equiv_pos_site_id
 _symmetry_equiv_pos_as_xyz
  1  'x, y, z'
loop_
 _atom_site_type_symbol
 _atom_site_label
 _atom_site_symmetry_multiplicity
 _atom_site_fract_x
 _atom_site_fract_y
 _atom_site_fract_z
 _atom_site_occupancy
  Sm  Sm0  1  0.126586  0.359976  0.243567  1
  Sm  Sm1  1  0.873414  0.640025  0.743567  1
  Sm  Sm2  1  0.640032  0.766655  0.243555  1
  Sm  Sm3  1  0.233357  0.873455  0.243516  1
  Sm  Sm4  1  0.766643  0.126544  0.743516  1
  Sm  Sm5  1  0.359968  0.233344  0.743554  1
  Si  Si6  1  0.333329  0.666676  0.656231  1
  Si  Si7  1  0.666670  0.333325  0.156233  1
  Ag  Ag8  1  0.999880  0.000049  0.339271  1
  Ag  Ag9  1  0.000120  0.999951  0.839271  1
  S  S10  1  0.333313  0.666649  0.024050  1
  S  S11  1  0.666687  0.333352  0.524052  1
  S  S12  1  0.411828  0.524349  0.508261  1
  S  S13  1  0.588171  0.475651  0.008262  1
  S  S14  1  0.475624  0.887446  0.508326  1
  S  S15  1  0.112596  0.588380  0.508142  1
  S  S16  1  0.887403  0.411619  0.008142  1
  S  S17  1  0.524377  0.112554  0.008326  1
  S  S18  1  0.096464  0.271337  0.767014  1
  S  S19  1  0.903536  0.728664  0.267016  1
  S  S20  1  0.728696  0.825140  0.767045  1
  S  S21  1  0.174984  0.903485  0.767014  1
  S  S22  1  0.825015  0.096515  0.267015  1
  S  S23  1  0.271304  0.174860  0.267046  1
