# generated using pymatgen
data_Li7VGeO8
_symmetry_space_group_name_H-M   'P 1'
_cell_length_a   10.85519874
_cell_length_b   6.40301860
_cell_length_c   5.41043149
_cell_angle_alpha   90.00000000
_cell_angle_beta   90.91893724
_cell_angle_gamma   90.00000000
_symmetry_Int_Tables_number   1
_chemical_formula_structural   Li7VGeO8
_chemical_formula_sum   'Li14 V2 Ge2 O16'
_cell_volume   376.00929804
_cell_formula_units_Z   2
loop_
 _symmetry_equiv_pos_site_id
 _symmetry_equiv_pos_as_xyz
  1  'x, y, z'
loop_
 _atom_site_type_symbol
 _atom_site_label
 _atom_site_symmetry_multiplicity
 _atom_site_fract_x
 _atom_site_fract_y
 _atom_site_fract_z
 _atom_site_occupancy
  Li  Li0  1  0.076986  0.250000  0.675183  1
  Li  Li1  1  0.175570  0.501741  0.312762  1
  Li  Li2  1  0.175570  0.998259  0.312762  1
  Li  Li3  1  0.338019  0.019533  0.832949  1
  Li  Li4  1  0.338019  0.480467  0.832949  1
  Li  Li5  1  0.415886  0.750000  0.201103  1
  Li  Li6  1  0.568062  0.250000  0.828223  1
  Li  Li7  1  0.651142  0.497595  0.191564  1
  Li  Li8  1  0.651142  0.002405  0.191564  1
  Li  Li9  1  0.819741  0.045826  0.584898  1
  Li  Li10  1  0.819741  0.454174  0.584898  1
  Li  Li11  1  0.833889  0.559644  0.931968  1
  Li  Li12  1  0.833889  0.940356  0.931968  1
  Li  Li13  1  0.934582  0.750000  0.343562  1
  V  V14  1  0.084311  0.750000  0.827658  1
  V  V15  1  0.591583  0.750000  0.675257  1
  Ge  Ge16  1  0.413325  0.250000  0.320875  1
  Ge  Ge17  1  0.925355  0.250000  0.162765  1
  O  O18  1  0.069643  0.250000  0.303616  1
  O  O19  1  0.085565  0.750000  0.149977  1
  O  O20  1  0.156568  0.531538  0.714760  1
  O  O21  1  0.156568  0.968462  0.714760  1
  O  O22  1  0.339301  0.021773  0.201978  1
  O  O23  1  0.339301  0.478227  0.201978  1
  O  O24  1  0.413508  0.250000  0.650999  1
  O  O25  1  0.447273  0.750000  0.793916  1
  O  O26  1  0.565764  0.250000  0.199516  1
  O  O27  1  0.590671  0.750000  0.352670  1
  O  O28  1  0.674411  0.528205  0.783572  1
  O  O29  1  0.674411  0.971795  0.783572  1
  O  O30  1  0.841717  0.018874  0.254020  1
  O  O31  1  0.841717  0.481126  0.254020  1
  O  O32  1  0.906599  0.250000  0.828403  1
  O  O33  1  0.923770  0.750000  0.722136  1
