# generated using pymatgen
data_Li3Mn(PO4)2
_symmetry_space_group_name_H-M   'P 1'
_cell_length_a   8.39271230
_cell_length_b   8.62547294
_cell_length_c   7.25628034
_cell_angle_alpha   82.70256745
_cell_angle_beta   91.89678080
_cell_angle_gamma   119.49139428
_symmetry_Int_Tables_number   1
_chemical_formula_structural   Li3Mn(PO4)2
_chemical_formula_sum   'Li9 Mn3 P6 O24'
_cell_volume   453.26109017
_cell_formula_units_Z   3
loop_
 _symmetry_equiv_pos_site_id
 _symmetry_equiv_pos_as_xyz
  1  'x, y, z'
loop_
 _atom_site_type_symbol
 _atom_site_label
 _atom_site_symmetry_multiplicity
 _atom_site_fract_x
 _atom_site_fract_y
 _atom_site_fract_z
 _atom_site_occupancy
  Li  Li0  1  0.338165  0.033172  0.702549  1
  Li  Li1  1  0.965531  0.320168  0.680490  1
  Li  Li2  1  0.003616  0.001070  0.499422  1
  Li  Li3  1  0.351616  0.675934  0.481632  1
  Li  Li4  1  0.302856  0.338772  0.355122  1
  Li  Li5  1  0.697445  0.661984  0.644363  1
  Li  Li6  1  0.649210  0.324910  0.519174  1
  Li  Li7  1  0.034054  0.679375  0.319521  1
  Li  Li8  1  0.661895  0.966789  0.297934  1
  Mn  Mn9  1  0.999543  0.999424  0.999944  1
  Mn  Mn10  1  0.322106  0.654669  0.046729  1
  Mn  Mn11  1  0.677720  0.344777  0.952865  1
  P  P12  1  0.042785  0.683562  0.736905  1
  P  P13  1  0.318136  0.349021  0.780280  1
  P  P14  1  0.653152  0.960863  0.750823  1
  P  P15  1  0.346315  0.038953  0.249268  1
  P  P16  1  0.681788  0.650873  0.219645  1
  P  P17  1  0.957214  0.316359  0.262998  1
  O  O18  1  0.138906  0.937999  0.191468  1
  O  O19  1  0.144509  0.696538  0.559478  1
  O  O20  1  0.181491  0.747777  0.896684  1
  O  O21  1  0.407030  0.896115  0.274044  1
  O  O22  1  0.110080  0.519300  0.219344  1
  O  O23  1  0.043161  0.193939  0.287872  1
  O  O24  1  0.543432  0.810996  0.909864  1
  O  O25  1  0.275018  0.422300  0.939837  1
  O  O26  1  0.206151  0.136914  0.817530  1
  O  O27  1  0.262210  0.411291  0.593275  1
  O  O28  1  0.640829  0.870453  0.574640  1
  O  O29  1  0.474230  0.599391  0.244126  1
  O  O30  1  0.525806  0.400677  0.755816  1
  O  O31  1  0.356727  0.128325  0.425887  1
  O  O32  1  0.738112  0.588895  0.406534  1
  O  O33  1  0.793389  0.863001  0.182584  1
  O  O34  1  0.725261  0.577956  0.059845  1
  O  O35  1  0.456622  0.189875  0.091197  1
  O  O36  1  0.957031  0.806212  0.711974  1
  O  O37  1  0.889781  0.480592  0.780471  1
  O  O38  1  0.592963  0.104235  0.725965  1
  O  O39  1  0.818423  0.252025  0.103221  1
  O  O40  1  0.855266  0.303182  0.440433  1
  O  O41  1  0.860623  0.061336  0.808248  1
