# generated using pymatgen
data_LiMn4(PO4)3
_symmetry_space_group_name_H-M   'P 1'
_cell_length_a   9.65842766
_cell_length_b   9.65831802
_cell_length_c   6.20939908
_cell_angle_alpha   90.00103696
_cell_angle_beta   89.99876502
_cell_angle_gamma   120.00067042
_symmetry_Int_Tables_number   1
_chemical_formula_structural   LiMn4(PO4)3
_chemical_formula_sum   'Li2 Mn8 P6 O24'
_cell_volume   501.63196554
_cell_formula_units_Z   2
loop_
 _symmetry_equiv_pos_site_id
 _symmetry_equiv_pos_as_xyz
  1  'x, y, z'
loop_
 _atom_site_type_symbol
 _atom_site_label
 _atom_site_symmetry_multiplicity
 _atom_site_fract_x
 _atom_site_fract_y
 _atom_site_fract_z
 _atom_site_occupancy
  Li  Li0  1  0.333356  0.666672  0.028041  1
  Li  Li1  1  0.666679  0.333318  0.528039  1
  Mn  Mn2  1  0.963952  0.696486  0.249222  1
  Mn  Mn3  1  0.333322  0.666655  0.492463  1
  Mn  Mn4  1  0.303516  0.267438  0.249215  1
  Mn  Mn5  1  0.732565  0.036064  0.249216  1
  Mn  Mn6  1  0.267447  0.963919  0.749201  1
  Mn  Mn7  1  0.696484  0.732575  0.749198  1
  Mn  Mn8  1  0.666662  0.333340  0.992474  1
  Mn  Mn9  1  0.036073  0.303509  0.749215  1
  P  P10  1  0.018999  0.630391  0.749851  1
  P  P11  1  0.611394  0.981022  0.749844  1
  P  P12  1  0.369611  0.388620  0.749852  1
  P  P13  1  0.630360  0.611418  0.249829  1
  P  P14  1  0.388595  0.018937  0.249844  1
  P  P15  1  0.981044  0.369627  0.249845  1
  O  O16  1  0.066775  0.748816  0.554903  1
  O  O17  1  0.070945  0.747375  0.945732  1
  O  O18  1  0.131091  0.555602  0.740448  1
  O  O19  1  0.343866  0.843038  0.253034  1
  O  O20  1  0.156968  0.500821  0.253034  1
  O  O21  1  0.424513  0.868905  0.740442  1
  O  O22  1  0.252620  0.323559  0.945731  1
  O  O23  1  0.251195  0.317969  0.554900  1
  O  O24  1  0.499174  0.656142  0.253044  1
  O  O25  1  0.444386  0.575498  0.740479  1
  O  O26  1  0.676426  0.929048  0.945728  1
  O  O27  1  0.682054  0.933232  0.554892  1
  O  O28  1  0.323536  0.070930  0.445717  1
  O  O29  1  0.317977  0.066774  0.054870  1
  O  O30  1  0.555607  0.424515  0.240441  1
  O  O31  1  0.500859  0.343882  0.753040  1
  O  O32  1  0.748815  0.682057  0.054861  1
  O  O33  1  0.747394  0.676456  0.445707  1
  O  O34  1  0.575500  0.131098  0.240486  1
  O  O35  1  0.843008  0.499151  0.753035  1
  O  O36  1  0.656143  0.156978  0.753053  1
  O  O37  1  0.868905  0.444388  0.240448  1
  O  O38  1  0.933232  0.251166  0.054892  1
  O  O39  1  0.929055  0.252612  0.445733  1
