# generated using pymatgen
data_Ca2SnS4
_symmetry_space_group_name_H-M   'P 1'
_cell_length_a   3.78391230
_cell_length_b   12.57913034
_cell_length_c   14.01762257
_cell_angle_alpha   90.01084056
_cell_angle_beta   89.99891480
_cell_angle_gamma   90.00981521
_symmetry_Int_Tables_number   1
_chemical_formula_structural   Ca2SnS4
_chemical_formula_sum   'Ca8 Sn4 S16'
_cell_volume   667.21534782
_cell_formula_units_Z   4
loop_
 _symmetry_equiv_pos_site_id
 _symmetry_equiv_pos_as_xyz
  1  'x, y, z'
loop_
 _atom_site_type_symbol
 _atom_site_label
 _atom_site_symmetry_multiplicity
 _atom_site_fract_x
 _atom_site_fract_y
 _atom_site_fract_z
 _atom_site_occupancy
  Ca  Ca0  1  0.750020  0.101995  0.586316  1
  Ca  Ca1  1  0.750004  0.602063  0.913708  1
  Ca  Ca2  1  0.249995  0.898071  0.413600  1
  Ca  Ca3  1  0.249994  0.398042  0.086366  1
  Ca  Ca4  1  0.749971  0.066558  0.127026  1
  Ca  Ca5  1  0.749967  0.566550  0.372962  1
  Ca  Ca6  1  0.250024  0.933298  0.873023  1
  Ca  Ca7  1  0.250024  0.433306  0.627001  1
  Sn  Sn8  1  0.749925  0.777150  0.165527  1
  Sn  Sn9  1  0.749955  0.277144  0.334479  1
  Sn  Sn10  1  0.250021  0.222908  0.834642  1
  Sn  Sn11  1  0.250041  0.723001  0.665308  1
  S  S12  1  0.750014  0.292768  0.704368  1
  S  S13  1  0.750022  0.792841  0.795622  1
  S  S14  1  0.249983  0.707186  0.295689  1
  S  S15  1  0.249961  0.207179  0.204362  1
  S  S16  1  0.749936  0.369353  0.936782  1
  S  S17  1  0.749921  0.869313  0.563175  1
  S  S18  1  0.250064  0.630574  0.063069  1
  S  S19  1  0.250092  0.130561  0.436966  1
  S  S20  1  0.750018  0.936102  0.278128  1
  S  S21  1  0.750007  0.436094  0.221896  1
  S  S22  1  0.249996  0.063951  0.722005  1
  S  S23  1  0.249994  0.564072  0.777982  1
  S  S24  1  0.750067  0.103999  0.929935  1
  S  S25  1  0.750041  0.603908  0.570102  1
  S  S26  1  0.249981  0.895987  0.070074  1
  S  S27  1  0.249963  0.396025  0.429884  1
