# generated using pymatgen
data_Na(FeO2)2
_symmetry_space_group_name_H-M   'P 1'
_cell_length_a   5.11409935
_cell_length_b   5.89984389
_cell_length_c   11.50132964
_cell_angle_alpha   89.86573442
_cell_angle_beta   90.05069153
_cell_angle_gamma   89.92382163
_symmetry_Int_Tables_number   1
_chemical_formula_structural   Na(FeO2)2
_chemical_formula_sum   'Na4 Fe8 O16'
_cell_volume   347.02118213
_cell_formula_units_Z   4
loop_
 _symmetry_equiv_pos_site_id
 _symmetry_equiv_pos_as_xyz
  1  'x, y, z'
loop_
 _atom_site_type_symbol
 _atom_site_label
 _atom_site_symmetry_multiplicity
 _atom_site_fract_x
 _atom_site_fract_y
 _atom_site_fract_z
 _atom_site_occupancy
  Na  Na0  1  0.032598  0.750556  0.250484  1
  Na  Na1  1  0.357067  0.751290  0.749324  1
  Na  Na2  1  0.643299  0.248364  0.249954  1
  Na  Na3  1  0.971587  0.249871  0.749690  1
  Fe  Fe4  1  0.001929  0.252698  0.004299  1
  Fe  Fe5  1  0.997345  0.751471  0.993426  1
  Fe  Fe6  1  0.002091  0.249583  0.492907  1
  Fe  Fe7  1  0.997839  0.750343  0.506706  1
  Fe  Fe8  1  0.500052  0.497578  0.000278  1
  Fe  Fe9  1  0.499215  -0.000948  0.001096  1
  Fe  Fe10  1  0.499999  -0.000274  0.499957  1
  Fe  Fe11  1  0.500070  0.500397  0.500021  1
  O  O12  1  0.179118  0.003285  0.591782  1
  O  O13  1  0.155726  0.015860  0.907889  1
  O  O14  1  0.162957  0.498748  0.595112  1
  O  O15  1  0.173067  0.489140  0.910315  1
  O  O16  1  0.335128  0.261462  0.088583  1
  O  O17  1  0.344324  0.234779  0.409385  1
  O  O18  1  0.332166  0.739838  0.087528  1
  O  O19  1  0.331610  0.761612  0.412474  1
  O  O20  1  0.669272  0.238681  0.587199  1
  O  O21  1  0.680426  0.257715  0.915117  1
  O  O22  1  0.655542  0.765630  0.590882  1
  O  O23  1  0.650240  0.736414  0.909730  1
  O  O24  1  0.820776  0.996020  0.408083  1
  O  O25  1  0.837194  0.502103  0.404806  1
  O  O26  1  0.842560  0.009190  0.092784  1
  O  O27  1  0.826802  0.488593  0.090188  1
