# generated using pymatgen
data_LiNi(PO3)4
_symmetry_space_group_name_H-M   'P 1'
_cell_length_a   7.37595983
_cell_length_b   8.99430325
_cell_length_c   8.91297499
_cell_angle_alpha   115.49008729
_cell_angle_beta   65.55770378
_cell_angle_gamma   114.20704245
_symmetry_Int_Tables_number   1
_chemical_formula_structural   LiNi(PO3)4
_chemical_formula_sum   'Li2 Ni2 P8 O24'
_cell_volume   466.14839372
_cell_formula_units_Z   2
loop_
 _symmetry_equiv_pos_site_id
 _symmetry_equiv_pos_as_xyz
  1  'x, y, z'
loop_
 _atom_site_type_symbol
 _atom_site_label
 _atom_site_symmetry_multiplicity
 _atom_site_fract_x
 _atom_site_fract_y
 _atom_site_fract_z
 _atom_site_occupancy
  Li  Li0  1  0.298048  0.750000  0.250000  1
  Li  Li1  1  0.701952  0.250000  0.750000  1
  Ni  Ni2  1  0.877484  0.750000  0.250000  1
  Ni  Ni3  1  0.122516  0.250000  0.750000  1
  P  P4  1  0.696234  0.323913  0.101457  1
  P  P5  1  0.574250  0.135710  0.355534  1
  P  P6  1  0.294075  0.364290  0.144466  1
  P  P7  1  0.973780  0.176087  0.398543  1
  P  P8  1  0.026220  0.823913  0.601457  1
  P  P9  1  0.705925  0.635710  0.855534  1
  P  P10  1  0.425750  0.864290  0.644466  1
  P  P11  1  0.303766  0.676087  0.898543  1
  O  O12  1  0.661232  0.178782  0.176713  1
  O  O13  1  0.977600  0.000927  0.272260  1
  O  O14  1  0.469732  0.270298  0.076080  1
  O  O15  1  0.171726  0.286777  0.015289  1
  O  O16  1  0.400236  0.213223  0.484711  1
  O  O17  1  0.775514  0.229702  0.423920  1
  O  O18  1  0.748933  0.499073  0.227740  1
  O  O19  1  0.159164  0.321218  0.323288  1
  O  O20  1  0.384905  0.555492  0.192782  1
  O  O21  1  0.477806  0.055492  0.692782  1
  O  O22  1  0.164665  0.717662  0.081625  1
  O  O23  1  0.971373  0.217662  0.581625  1
  O  O24  1  0.028627  0.782338  0.418375  1
  O  O25  1  0.835335  0.282338  0.918375  1
  O  O26  1  0.522194  0.944508  0.307218  1
  O  O27  1  0.615095  0.444508  0.807218  1
  O  O28  1  0.840836  0.678782  0.676712  1
  O  O29  1  0.251067  0.500927  0.772260  1
  O  O30  1  0.224486  0.770298  0.576080  1
  O  O31  1  0.599764  0.786777  0.515289  1
  O  O32  1  0.828274  0.713223  0.984711  1
  O  O33  1  0.530268  0.729702  0.923920  1
  O  O34  1  0.022400  0.999073  0.727740  1
  O  O35  1  0.338768  0.821218  0.823288  1
