# generated using pymatgen
data_Nd2In8Pd
_symmetry_space_group_name_H-M   'P 1'
_cell_length_a   4.73569689
_cell_length_b   4.73456864
_cell_length_c   12.42296985
_cell_angle_alpha   89.97616364
_cell_angle_beta   89.98686879
_cell_angle_gamma   89.96499282
_symmetry_Int_Tables_number   1
_chemical_formula_structural   Nd2In8Pd
_chemical_formula_sum   'Nd2 In8 Pd1'
_cell_volume   278.54131139
_cell_formula_units_Z   1
loop_
 _symmetry_equiv_pos_site_id
 _symmetry_equiv_pos_as_xyz
  1  'x, y, z'
loop_
 _atom_site_type_symbol
 _atom_site_label
 _atom_site_symmetry_multiplicity
 _atom_site_fract_x
 _atom_site_fract_y
 _atom_site_fract_z
 _atom_site_occupancy
  Nd  Nd0  1  0.999842  0.000076  0.309374  1
  Nd  Nd1  1  0.000052  0.999804  0.690472  1
  In  In2  1  0.499989  0.000245  0.123132  1
  In  In3  1  0.999938  0.500365  0.123051  1
  In  In4  1  0.499937  0.499873  0.308294  1
  In  In5  1  0.500071  -0.000117  0.500081  1
  In  In6  1  -0.000056  0.499785  0.500056  1
  In  In7  1  0.499879  0.499863  0.691643  1
  In  In8  1  0.499886  0.000439  0.876902  1
  In  In9  1  0.000196  0.499818  0.876980  1
  Pd  Pd10  1  0.000271  -0.000146  0.000014  1
