# generated using pymatgen
data_Ca2PN3
_symmetry_space_group_name_H-M   'P 1'
_cell_length_a   5.22429704
_cell_length_b   5.81369655
_cell_length_c   11.31695277
_cell_angle_alpha   90.00000000
_cell_angle_beta   90.00000000
_cell_angle_gamma   116.69938452
_symmetry_Int_Tables_number   1
_chemical_formula_structural   Ca2PN3
_chemical_formula_sum   'Ca8 P4 N12'
_cell_volume   307.07475272
_cell_formula_units_Z   4
loop_
 _symmetry_equiv_pos_site_id
 _symmetry_equiv_pos_as_xyz
  1  'x, y, z'
loop_
 _atom_site_type_symbol
 _atom_site_label
 _atom_site_symmetry_multiplicity
 _atom_site_fract_x
 _atom_site_fract_y
 _atom_site_fract_z
 _atom_site_occupancy
  N  N0  1  0.538836  0.577673  0.750000  1
  N  N1  1  0.961164  0.422327  0.250000  1
  N  N2  1  0.461164  0.422327  0.250000  1
  N  N3  1  0.038836  0.577673  0.750000  1
  N  N4  1  0.588928  0.177856  0.859552  1
  N  N5  1  0.411072  0.822144  0.140448  1
  N  N6  1  0.911072  0.822144  0.359552  1
  N  N7  1  0.339841  0.679681  0.550683  1
  N  N8  1  0.839841  0.679681  0.949317  1
  N  N9  1  0.160159  0.320319  0.050683  1
  N  N10  1  0.660159  0.320319  0.449317  1
  N  N11  1  0.088928  0.177856  0.640448  1
  P  P12  1  0.244357  0.488714  0.665317  1
  P  P13  1  0.255643  0.511286  0.165317  1
  P  P14  1  0.755643  0.511286  0.334683  1
  P  P15  1  0.744357  0.488714  0.834683  1
  Ca  Ca16  1  0.637645  0.275291  0.074052  1
  Ca  Ca17  1  0.137645  0.275291  0.425948  1
  Ca  Ca18  1  0.862355  0.724709  0.574052  1
  Ca  Ca19  1  0.362355  0.724709  0.925948  1
  Ca  Ca20  1  0.552353  0.104706  0.641992  1
  Ca  Ca21  1  0.447647  0.895294  0.358008  1
  Ca  Ca22  1  0.947647  0.895294  0.141992  1
  Ca  Ca23  1  0.052353  0.104706  0.858008  1
