# generated using pymatgen
data_CsCrH24(SO10)2
_symmetry_space_group_name_H-M   'P 1'
_cell_length_a   12.47477562
_cell_length_b   12.47477562
_cell_length_c   12.47477562
_cell_angle_alpha   90.00000000
_cell_angle_beta   90.00000000
_cell_angle_gamma   90.00000000
_symmetry_Int_Tables_number   1
_chemical_formula_structural   CsCrH24(SO10)2
_chemical_formula_sum   'Cs4 Cr4 H96 S8 O80'
_cell_volume   1941.32491593
_cell_formula_units_Z   4
loop_
 _symmetry_equiv_pos_site_id
 _symmetry_equiv_pos_as_xyz
  1  'x, y, z'
loop_
 _atom_site_type_symbol
 _atom_site_label
 _atom_site_symmetry_multiplicity
 _atom_site_fract_x
 _atom_site_fract_y
 _atom_site_fract_z
 _atom_site_occupancy
  Cs  Cs0  1  0.000000  0.000000  0.500000  1
  Cs  Cs1  1  0.000000  0.500000  0.000000  1
  Cs  Cs2  1  0.500000  0.500000  0.500000  1
  Cs  Cs3  1  0.500000  0.000000  0.000000  1
  Cr  Cr4  1  0.000000  0.000000  0.000000  1
  Cr  Cr5  1  0.000000  0.500000  0.500000  1
  Cr  Cr6  1  0.500000  0.000000  0.500000  1
  Cr  Cr7  1  0.500000  0.500000  0.000000  1
  H  H8  1  0.019560  0.292647  0.434052  1
  H  H9  1  0.019560  0.207353  0.934052  1
  H  H10  1  0.023795  0.703648  0.439427  1
  H  H11  1  0.023795  0.796352  0.939427  1
  H  H12  1  0.005971  0.231782  0.277443  1
  H  H13  1  0.005971  0.268218  0.777443  1
  H  H14  1  0.060573  0.976205  0.203648  1
  H  H15  1  0.060573  0.523795  0.703648  1
  H  H16  1  0.065948  0.519560  0.292647  1
  H  H17  1  0.065948  0.980440  0.792647  1
  H  H18  1  0.123474  0.222618  0.320119  1
  H  H19  1  0.123474  0.277382  0.820119  1
  H  H20  1  0.179881  0.623474  0.222618  1
  H  H21  1  0.179881  0.876526  0.722618  1
  H  H22  1  0.207353  0.565948  0.519560  1
  H  H23  1  0.207353  0.934052  0.019560  1
  H  H24  1  0.203648  0.060573  0.976205  1
  H  H25  1  0.203648  0.439427  0.476205  1
  H  H26  1  0.222557  0.505971  0.231782  1
  H  H27  1  0.222557  0.994029  0.731782  1
  H  H28  1  0.222618  0.179881  0.623474  1
  H  H29  1  0.222618  0.320119  0.123474  1
  H  H30  1  0.231782  0.277443  0.005971  1
  H  H31  1  0.231782  0.222557  0.505971  1
  H  H32  1  0.268218  0.722557  0.505971  1
  H  H33  1  0.268218  0.777443  0.005971  1
  H  H34  1  0.277382  0.820119  0.123474  1
  H  H35  1  0.277382  0.679881  0.623474  1
  H  H36  1  0.277443  0.005971  0.231782  1
  H  H37  1  0.277443  0.494029  0.731782  1
  H  H38  1  0.296352  0.560573  0.976205  1
  H  H39  1  0.296352  0.939427  0.476205  1
  H  H40  1  0.292647  0.065948  0.519560  1
  H  H41  1  0.292647  0.434052  0.019560  1
  H  H42  1  0.320119  0.123474  0.222618  1
  H  H43  1  0.320119  0.376526  0.722618  1
  H  H44  1  0.376526  0.722618  0.320119  1
  H  H45  1  0.376526  0.777382  0.820119  1
  H  H46  1  0.434052  0.019560  0.292647  1
  H  H47  1  0.434052  0.480440  0.792647  1
  H  H48  1  0.439427  0.476205  0.203648  1
  H  H49  1  0.439427  0.023795  0.703648  1
  H  H50  1  0.494029  0.731782  0.277443  1
  H  H51  1  0.494029  0.768218  0.777443  1
  H  H52  1  0.476205  0.203648  0.439427  1
  H  H53  1  0.476205  0.296352  0.939427  1
  H  H54  1  0.480440  0.792647  0.434052  1
  H  H55  1  0.480440  0.707353  0.934052  1
  H  H56  1  0.519560  0.207353  0.565948  1
  H  H57  1  0.519560  0.292647  0.065948  1
  H  H58  1  0.523795  0.703648  0.060573  1
  H  H59  1  0.523795  0.796352  0.560573  1
  H  H60  1  0.505971  0.231782  0.222557  1
  H  H61  1  0.505971  0.268218  0.722557  1
  H  H62  1  0.560573  0.976205  0.296352  1
  H  H63  1  0.560573  0.523795  0.796352  1
  H  H64  1  0.565948  0.519560  0.207353  1
  H  H65  1  0.565948  0.980440  0.707353  1
  H  H66  1  0.623474  0.222618  0.179881  1
  H  H67  1  0.623474  0.277382  0.679881  1
  H  H68  1  0.679881  0.623474  0.277382  1
  H  H69  1  0.679881  0.876526  0.777382  1
  H  H70  1  0.707353  0.565948  0.980440  1
  H  H71  1  0.707353  0.934052  0.480440  1
  H  H72  1  0.703648  0.060573  0.523795  1
  H  H73  1  0.703648  0.439427  0.023795  1
  H  H74  1  0.722557  0.994029  0.768218  1
  H  H75  1  0.722557  0.505971  0.268218  1
  H  H76  1  0.722618  0.179881  0.876526  1
  H  H77  1  0.722618  0.320119  0.376526  1
  H  H78  1  0.731782  0.222557  0.994029  1
  H  H79  1  0.731782  0.277443  0.494029  1
  H  H80  1  0.768218  0.722557  0.994029  1
  H  H81  1  0.768218  0.777443  0.494029  1
  H  H82  1  0.777382  0.679881  0.876526  1
  H  H83  1  0.777382  0.820119  0.376526  1
  H  H84  1  0.777443  0.005971  0.268218  1
  H  H85  1  0.777443  0.494029  0.768218  1
  H  H86  1  0.796352  0.939427  0.023795  1
  H  H87  1  0.796352  0.560573  0.523795  1
  H  H88  1  0.792647  0.065948  0.980440  1
  H  H89  1  0.792647  0.434052  0.480440  1
  H  H90  1  0.820119  0.123474  0.277382  1
  H  H91  1  0.820119  0.376526  0.777382  1
  H  H92  1  0.876526  0.722618  0.179881  1
  H  H93  1  0.876526  0.777382  0.679881  1
  H  H94  1  0.934052  0.019560  0.207353  1
  H  H95  1  0.934052  0.480440  0.707353  1
  H  H96  1  0.939427  0.023795  0.796352  1
  H  H97  1  0.939427  0.476205  0.296352  1
  H  H98  1  0.994029  0.731782  0.222557  1
  H  H99  1  0.994029  0.768218  0.722557  1
  H  H100  1  0.976205  0.203648  0.060573  1
  H  H101  1  0.976205  0.296352  0.560573  1
  H  H102  1  0.980440  0.707353  0.565948  1
  H  H103  1  0.980440  0.792647  0.065948  1
  S  S104  1  0.172892  0.672892  0.827108  1
  S  S105  1  0.172892  0.827108  0.327108  1
  S  S106  1  0.327108  0.327108  0.327108  1
  S  S107  1  0.327108  0.172892  0.827108  1
  S  S108  1  0.672892  0.672892  0.672892  1
  S  S109  1  0.672892  0.827108  0.172892  1
  S  S110  1  0.827108  0.172892  0.672892  1
  S  S111  1  0.827108  0.327108  0.172892  1
  O  O112  1  0.000741  0.840139  0.002281  1
  O  O113  1  0.000741  0.659861  0.502281  1
  O  O114  1  0.999259  0.340139  0.497719  1
  O  O115  1  0.999259  0.159861  0.997719  1
  O  O116  1  0.002281  0.000741  0.840139  1
  O  O117  1  0.002281  0.499259  0.340139  1
  O  O118  1  0.048064  0.212429  0.342167  1
  O  O119  1  0.048064  0.287571  0.842167  1
  O  O120  1  0.063296  0.779252  0.336453  1
  O  O121  1  0.063296  0.720748  0.836453  1
  O  O122  1  0.159861  0.997719  0.999259  1
  O  O123  1  0.159861  0.502281  0.499259  1
  O  O124  1  0.157833  0.951936  0.712429  1
  O  O125  1  0.157833  0.548064  0.212429  1
  O  O126  1  0.163547  0.563296  0.779252  1
  O  O127  1  0.163547  0.936704  0.279252  1
  O  O128  1  0.212429  0.157833  0.548064  1
  O  O129  1  0.212429  0.342167  0.048064  1
  O  O130  1  0.220748  0.836453  0.436704  1
  O  O131  1  0.220748  0.663547  0.936704  1
  O  O132  1  0.242124  0.757876  0.257876  1
  O  O133  1  0.242124  0.742124  0.757876  1
  O  O134  1  0.257876  0.242124  0.757876  1
  O  O135  1  0.257876  0.257876  0.257876  1
  O  O136  1  0.279252  0.163547  0.936704  1
  O  O137  1  0.279252  0.336453  0.436704  1
  O  O138  1  0.287571  0.657833  0.548064  1
  O  O139  1  0.287571  0.842167  0.048064  1
  O  O140  1  0.336453  0.436704  0.279252  1
  O  O141  1  0.336453  0.063296  0.779252  1
  O  O142  1  0.342167  0.048064  0.212429  1
  O  O143  1  0.342167  0.451936  0.712429  1
  O  O144  1  0.340139  0.002281  0.499259  1
  O  O145  1  0.340139  0.497719  0.999259  1
  O  O146  1  0.436704  0.279252  0.336453  1
  O  O147  1  0.436704  0.220748  0.836453  1
  O  O148  1  0.451936  0.712429  0.342167  1
  O  O149  1  0.451936  0.787571  0.842167  1
  O  O150  1  0.497719  0.999259  0.340139  1
  O  O151  1  0.497719  0.500741  0.840139  1
  O  O152  1  0.500741  0.840139  0.497719  1
  O  O153  1  0.500741  0.659861  0.997719  1
  O  O154  1  0.499259  0.159861  0.502281  1
  O  O155  1  0.499259  0.340139  0.002281  1
  O  O156  1  0.502281  0.499259  0.159861  1
  O  O157  1  0.502281  0.000741  0.659861  1
  O  O158  1  0.548064  0.212429  0.157833  1
  O  O159  1  0.548064  0.287571  0.657833  1
  O  O160  1  0.563296  0.779252  0.163547  1
  O  O161  1  0.563296  0.720748  0.663547  1
  O  O162  1  0.659861  0.997719  0.500741  1
  O  O163  1  0.659861  0.502281  0.000741  1
  O  O164  1  0.657833  0.548064  0.287571  1
  O  O165  1  0.657833  0.951936  0.787571  1
  O  O166  1  0.663547  0.936704  0.220748  1
  O  O167  1  0.663547  0.563296  0.720748  1
  O  O168  1  0.712429  0.157833  0.951936  1
  O  O169  1  0.712429  0.342167  0.451936  1
  O  O170  1  0.720748  0.663547  0.563296  1
  O  O171  1  0.720748  0.836453  0.063296  1
  O  O172  1  0.742124  0.742124  0.742124  1
  O  O173  1  0.742124  0.757876  0.242124  1
  O  O174  1  0.757876  0.242124  0.742124  1
  O  O175  1  0.757876  0.257876  0.242124  1
  O  O176  1  0.779252  0.163547  0.563296  1
  O  O177  1  0.779252  0.336453  0.063296  1
  O  O178  1  0.787571  0.657833  0.951936  1
  O  O179  1  0.787571  0.842167  0.451936  1
  O  O180  1  0.836453  0.063296  0.720748  1
  O  O181  1  0.836453  0.436704  0.220748  1
  O  O182  1  0.842167  0.048064  0.287571  1
  O  O183  1  0.842167  0.451936  0.787571  1
  O  O184  1  0.840139  0.002281  0.000741  1
  O  O185  1  0.840139  0.497719  0.500741  1
  O  O186  1  0.936704  0.220748  0.663547  1
  O  O187  1  0.936704  0.279252  0.163547  1
  O  O188  1  0.951936  0.712429  0.157833  1
  O  O189  1  0.951936  0.787571  0.657833  1
  O  O190  1  0.997719  0.999259  0.159861  1
  O  O191  1  0.997719  0.500741  0.659861  1
