# generated using pymatgen
data_Ho2Mg
_symmetry_space_group_name_H-M   'P 1'
_cell_length_a   3.63167409
_cell_length_b   8.82484046
_cell_length_c   5.44951427
_cell_angle_alpha   90.00000000
_cell_angle_beta   90.00000000
_cell_angle_gamma   78.12575305
_symmetry_Int_Tables_number   1
_chemical_formula_structural   Ho2Mg
_chemical_formula_sum   'Ho4 Mg2'
_cell_volume   170.91391907
_cell_formula_units_Z   2
loop_
 _symmetry_equiv_pos_site_id
 _symmetry_equiv_pos_as_xyz
  1  'x, y, z'
loop_
 _atom_site_type_symbol
 _atom_site_label
 _atom_site_symmetry_multiplicity
 _atom_site_fract_x
 _atom_site_fract_y
 _atom_site_fract_z
 _atom_site_occupancy
  Ho  Ho0  1  0.984487  0.031026  0.000000  1
  Ho  Ho1  1  0.662902  0.674198  0.000000  1
  Ho  Ho2  1  0.793292  0.413418  0.500000  1
  Ho  Ho3  1  0.114876  0.770247  0.500000  1
  Mg  Mg4  1  0.325115  0.349770  0.000000  1
  Mg  Mg5  1  0.452663  0.094674  0.500000  1
