# generated using pymatgen
data_Li2MnSiO4
_symmetry_space_group_name_H-M   'P 1'
_cell_length_a   6.41698687
_cell_length_b   10.97865083
_cell_length_c   5.10751875
_cell_angle_alpha   90.00000000
_cell_angle_beta   90.00000000
_cell_angle_gamma   90.00000000
_symmetry_Int_Tables_number   1
_chemical_formula_structural   Li2MnSiO4
_chemical_formula_sum   'Li8 Mn4 Si4 O16'
_cell_volume   359.82397183
_cell_formula_units_Z   4
loop_
 _symmetry_equiv_pos_site_id
 _symmetry_equiv_pos_as_xyz
  1  'x, y, z'
loop_
 _atom_site_type_symbol
 _atom_site_label
 _atom_site_symmetry_multiplicity
 _atom_site_fract_x
 _atom_site_fract_y
 _atom_site_fract_z
 _atom_site_occupancy
  Li  Li0  1  0.997468  0.332656  0.205047  1
  Li  Li1  1  0.997468  0.832656  0.294953  1
  Li  Li2  1  0.502532  0.332656  0.205047  1
  Li  Li3  1  0.502532  0.832656  0.294953  1
  Li  Li4  1  0.497468  0.167344  0.705047  1
  Li  Li5  1  0.497468  0.667344  0.794953  1
  Li  Li6  1  0.002532  0.667344  0.794953  1
  Li  Li7  1  0.002532  0.167344  0.705047  1
  Mn  Mn8  1  0.250000  0.420949  0.791521  1
  Mn  Mn9  1  0.250000  0.920949  0.708479  1
  Mn  Mn10  1  0.750000  0.079051  0.291521  1
  Mn  Mn11  1  0.750000  0.579051  0.208479  1
  Si  Si12  1  0.250000  0.089507  0.193120  1
  Si  Si13  1  0.250000  0.589507  0.306880  1
  Si  Si14  1  0.750000  0.410493  0.693120  1
  Si  Si15  1  0.750000  0.910493  0.806880  1
  O  O16  1  0.040472  0.160718  0.303304  1
  O  O17  1  0.040472  0.660718  0.196696  1
  O  O18  1  0.250000  0.093669  0.869108  1
  O  O19  1  0.250000  0.444914  0.212890  1
  O  O20  1  0.250000  0.944913  0.287110  1
  O  O21  1  0.250000  0.593669  0.630892  1
  O  O22  1  0.459528  0.160718  0.303304  1
  O  O23  1  0.459528  0.660718  0.196696  1
  O  O24  1  0.540472  0.339282  0.803304  1
  O  O25  1  0.540472  0.839282  0.696696  1
  O  O26  1  0.750000  0.055086  0.712890  1
  O  O27  1  0.750000  0.406331  0.369108  1
  O  O28  1  0.750000  0.555087  0.787110  1
  O  O29  1  0.750000  0.906331  0.130892  1
  O  O30  1  0.959528  0.339282  0.803304  1
  O  O31  1  0.959528  0.839282  0.696696  1
