# generated using pymatgen
data_DyI3
_symmetry_space_group_name_H-M   'P 1'
_cell_length_a   11.59384479
_cell_length_b   11.59384492
_cell_length_c   3.99265748
_cell_angle_alpha   90.00000000
_cell_angle_beta   90.00000000
_cell_angle_gamma   120.00000365
_symmetry_Int_Tables_number   1
_chemical_formula_structural   DyI3
_chemical_formula_sum   'Dy2 I6'
_cell_volume   464.78022249
_cell_formula_units_Z   2
loop_
 _symmetry_equiv_pos_site_id
 _symmetry_equiv_pos_as_xyz
  1  'x, y, z'
loop_
 _atom_site_type_symbol
 _atom_site_label
 _atom_site_symmetry_multiplicity
 _atom_site_fract_x
 _atom_site_fract_y
 _atom_site_fract_z
 _atom_site_occupancy
  Dy  Dy0  1  0.333332  0.666667  0.749999  1
  Dy  Dy1  1  0.666666  0.333333  0.249998  1
  I  I2  1  0.218222  0.436445  0.249998  1
  I  I3  1  0.563554  0.781777  0.249998  1
  I  I4  1  0.218222  0.781777  0.249998  1
  I  I5  1  0.781777  0.563554  0.749999  1
  I  I6  1  0.436446  0.218223  0.749999  1
  I  I7  1  0.781778  0.218223  0.749999  1
