# generated using pymatgen
data_Li5Fe8(BO3)8
_symmetry_space_group_name_H-M   'P 1'
_cell_length_a   5.29378636
_cell_length_b   9.06757946
_cell_length_c   10.12543891
_cell_angle_alpha   89.60771340
_cell_angle_beta   91.63201942
_cell_angle_gamma   89.65901350
_symmetry_Int_Tables_number   1
_chemical_formula_structural   Li5Fe8(BO3)8
_chemical_formula_sum   'Li5 Fe8 B8 O24'
_cell_volume   485.82184997
_cell_formula_units_Z   1
loop_
 _symmetry_equiv_pos_site_id
 _symmetry_equiv_pos_as_xyz
  1  'x, y, z'
loop_
 _atom_site_type_symbol
 _atom_site_label
 _atom_site_symmetry_multiplicity
 _atom_site_fract_x
 _atom_site_fract_y
 _atom_site_fract_z
 _atom_site_occupancy
  Li  Li0  1  0.333844  0.004829  0.846471  1
  Li  Li1  1  0.659522  0.001593  0.095888  1
  Li  Li2  1  0.163399  0.497238  0.116222  1
  Li  Li3  1  0.839940  0.511970  0.847049  1
  Li  Li4  1  0.645716  0.992167  0.582400  1
  Fe  Fe5  1  0.164565  0.156371  0.122453  1
  Fe  Fe6  1  0.843883  0.170845  0.366065  1
  Fe  Fe7  1  0.335549  0.342843  0.869461  1
  Fe  Fe8  1  0.656136  0.337192  0.623539  1
  Fe  Fe9  1  0.337717  0.670202  0.365914  1
  Fe  Fe10  1  0.151407  0.828424  0.617825  1
  Fe  Fe11  1  0.665487  0.659277  0.120676  1
  Fe  Fe12  1  0.839753  0.839761  0.872158  1
  B  B13  1  0.169749  0.166896  0.624327  1
  B  B14  1  0.339203  0.333058  0.368873  1
  B  B15  1  0.835260  0.168523  0.870525  1
  B  B16  1  0.663183  0.330596  0.120191  1
  B  B17  1  0.334343  0.668823  0.875758  1
  B  B18  1  0.653472  0.670518  0.621581  1
  B  B19  1  0.164290  0.833759  0.119799  1
  B  B20  1  0.830345  0.835367  0.369964  1
  O  O21  1  0.291942  0.034358  0.637344  1
  O  O22  1  0.090965  0.166059  0.903995  1
  O  O23  1  0.688181  0.044885  0.885008  1
  O  O24  1  0.196181  0.208672  0.338584  1
  O  O25  1  0.298883  0.296637  0.655193  1
  O  O26  1  0.776570  0.195635  0.167496  1
  O  O27  1  0.910065  0.176243  0.584013  1
  O  O28  1  0.409276  0.327480  0.082176  1
  O  O29  1  0.247997  0.469874  0.342255  1
  O  O30  1  0.586196  0.311408  0.423643  1
  O  O31  1  0.721488  0.301368  0.824297  1
  O  O32  1  0.191037  0.542662  0.890014  1
  O  O33  1  0.806154  0.454088  0.111035  1
  O  O34  1  0.274748  0.698748  0.160400  1
  O  O35  1  0.417301  0.678750  0.560192  1
  O  O36  1  0.763092  0.534550  0.650310  1
  O  O37  1  0.592501  0.665904  0.907260  1
  O  O38  1  0.081157  0.814607  0.405554  1
  O  O39  1  0.216960  0.799501  0.833081  1
  O  O40  1  0.685061  0.718327  0.327085  1
  O  O41  1  0.775202  0.800827  0.657341  1
  O  O42  1  0.311329  0.957216  0.109783  1
  O  O43  1  0.906829  0.838730  0.086912  1
  O  O44  1  0.725236  0.975148  0.384324  1
