# generated using pymatgen
data_Fe5O7F3
_symmetry_space_group_name_H-M   'P 1'
_cell_length_a   4.67032034
_cell_length_b   4.67279618
_cell_length_c   15.25447231
_cell_angle_alpha   89.95051415
_cell_angle_beta   90.03633149
_cell_angle_gamma   89.89168330
_symmetry_Int_Tables_number   1
_chemical_formula_structural   Fe5O7F3
_chemical_formula_sum   'Fe10 O14 F6'
_cell_volume   332.90450416
_cell_formula_units_Z   2
loop_
 _symmetry_equiv_pos_site_id
 _symmetry_equiv_pos_as_xyz
  1  'x, y, z'
loop_
 _atom_site_type_symbol
 _atom_site_label
 _atom_site_symmetry_multiplicity
 _atom_site_fract_x
 _atom_site_fract_y
 _atom_site_fract_z
 _atom_site_occupancy
  Fe  Fe0  1  0.984441  0.959600  0.006067  1
  Fe  Fe1  1  0.023137  0.016133  0.199674  1
  Fe  Fe2  1  0.031800  0.011272  0.393968  1
  Fe  Fe3  1  0.013973  0.978610  0.600216  1
  Fe  Fe4  1  0.017126  0.988224  0.800934  1
  Fe  Fe5  1  0.504207  0.491217  0.099111  1
  Fe  Fe6  1  0.472012  0.510641  0.506131  1
  Fe  Fe7  1  0.492065  0.479675  0.300017  1
  Fe  Fe8  1  0.483260  0.514990  0.700302  1
  Fe  Fe9  1  0.486149  0.527093  0.894403  1
  O  O10  1  0.200733  0.796506  0.103036  1
  O  O11  1  0.209069  0.807670  0.295341  1
  O  O12  1  0.189114  0.817635  0.497421  1
  O  O13  1  0.188461  0.810296  0.701286  1
  O  O14  1  0.176848  0.807127  0.902951  1
  O  O15  1  0.323480  0.309155  0.196373  1
  O  O16  1  0.315230  0.317769  0.402122  1
  O  O17  1  0.298210  0.306116  0.604697  1
  O  O18  1  0.304131  0.306783  0.798115  1
  O  O19  1  0.677183  0.676552  0.000426  1
  O  O20  1  0.689522  0.695533  0.602539  1
  O  O21  1  0.693802  0.698609  0.796149  1
  O  O22  1  0.809273  0.187027  0.101473  1
  O  O23  1  0.818165  0.197716  0.297237  1
  F  F24  1  0.291447  0.292083  0.996935  1
  F  F25  1  0.708172  0.696029  0.201122  1
  F  F26  1  0.703612  0.704210  0.400776  1
  F  F27  1  0.801184  0.203962  0.498901  1
  F  F28  1  0.792775  0.194162  0.902221  1
  F  F29  1  0.801420  0.197604  0.700058  1
