# generated using pymatgen
data_Mn2CrFe3(PO4)6
_symmetry_space_group_name_H-M   'P 1'
_cell_length_a   8.60971543
_cell_length_b   8.60971482
_cell_length_c   8.60971492
_cell_angle_alpha   60.22904527
_cell_angle_beta   60.22904359
_cell_angle_gamma   60.22904500
_symmetry_Int_Tables_number   1
_chemical_formula_structural   Mn2CrFe3(PO4)6
_chemical_formula_sum   'Mn2 Cr1 Fe3 P6 O24'
_cell_volume   453.62558050
_cell_formula_units_Z   1
loop_
 _symmetry_equiv_pos_site_id
 _symmetry_equiv_pos_as_xyz
  1  'x, y, z'
loop_
 _atom_site_type_symbol
 _atom_site_label
 _atom_site_symmetry_multiplicity
 _atom_site_fract_x
 _atom_site_fract_y
 _atom_site_fract_z
 _atom_site_occupancy
  Mn  Mn0  1  0.001309  0.001309  0.001309  1
  Mn  Mn1  1  0.500345  0.500345  0.500345  1
  Cr  Cr2  1  0.857054  0.857054  0.857054  1
  Fe  Fe3  1  0.145326  0.145326  0.145326  1
  Fe  Fe4  1  0.353985  0.353985  0.353985  1
  Fe  Fe5  1  0.645490  0.645490  0.645490  1
  P  P6  1  0.042650  0.749464  0.458391  1
  P  P7  1  0.458391  0.042650  0.749464  1
  P  P8  1  0.749464  0.458391  0.042650  1
  P  P9  1  0.248291  0.544334  0.955156  1
  P  P10  1  0.544334  0.955156  0.248291  1
  P  P11  1  0.955156  0.248291  0.544334  1
  O  O12  1  0.113717  0.306190  0.510322  1
  O  O13  1  0.306190  0.510322  0.113717  1
  O  O14  1  0.058239  0.911731  0.263010  1
  O  O15  1  0.510322  0.113717  0.306190  1
  O  O16  1  0.001646  0.813747  0.617221  1
  O  O17  1  0.238717  0.587313  0.447249  1
  O  O18  1  0.263010  0.058239  0.911731  1
  O  O19  1  0.447249  0.238717  0.587313  1
  O  O20  1  0.185672  0.387819  0.993471  1
  O  O21  1  0.587313  0.447249  0.238717  1
  O  O22  1  0.083892  0.741403  0.937573  1
  O  O23  1  0.387819  0.993471  0.185672  1
  O  O24  1  0.617221  0.001646  0.813747  1
  O  O25  1  0.911731  0.263010  0.058239  1
  O  O26  1  0.409395  0.562143  0.758498  1
  O  O27  1  0.813747  0.617221  0.001646  1
  O  O28  1  0.562143  0.758498  0.409395  1
  O  O29  1  0.741403  0.937573  0.083892  1
  O  O30  1  0.758498  0.409395  0.562143  1
  O  O31  1  0.993471  0.185672  0.387819  1
  O  O32  1  0.496969  0.888511  0.683758  1
  O  O33  1  0.937573  0.083892  0.741403  1
  O  O34  1  0.683758  0.496969  0.888511  1
  O  O35  1  0.888511  0.683758  0.496969  1
