# generated using pymatgen
data_Ba5Y3Br19
_symmetry_space_group_name_H-M   'P 1'
_cell_length_a   15.84396678
_cell_length_b   14.22741876
_cell_length_c   15.22893659
_cell_angle_alpha   94.36987822
_cell_angle_beta   100.04885251
_cell_angle_gamma   139.11002032
_symmetry_Int_Tables_number   1
_chemical_formula_structural   Ba5Y3Br19
_chemical_formula_sum   'Ba10 Y6 Br38'
_cell_volume   2094.22900008
_cell_formula_units_Z   2
loop_
 _symmetry_equiv_pos_site_id
 _symmetry_equiv_pos_as_xyz
  1  'x, y, z'
loop_
 _atom_site_type_symbol
 _atom_site_label
 _atom_site_symmetry_multiplicity
 _atom_site_fract_x
 _atom_site_fract_y
 _atom_site_fract_z
 _atom_site_occupancy
  Ba  Ba0  1  0.687213  0.259972  0.454342  1
  Ba  Ba1  1  0.752909  0.578515  0.245688  1
  Ba  Ba2  1  0.721884  0.062593  0.803300  1
  Ba  Ba3  1  0.411090  0.686819  0.171562  1
  Ba  Ba4  1  0.054019  0.242152  0.338094  1
  Ba  Ba5  1  0.945981  0.757848  0.661906  1
  Ba  Ba6  1  0.588910  0.313181  0.828438  1
  Ba  Ba7  1  0.278116  0.937407  0.196700  1
  Ba  Ba8  1  0.247091  0.421485  0.754312  1
  Ba  Ba9  1  0.312787  0.740028  0.545658  1
  Y  Y10  1  0.845591  0.316484  0.170888  1
  Y  Y11  1  0.257932  0.254830  0.014545  1
  Y  Y12  1  0.328990  0.153834  0.478648  1
  Y  Y13  1  0.671010  0.846166  0.521352  1
  Y  Y14  1  0.742068  0.745170  0.985455  1
  Y  Y15  1  0.154409  0.683516  0.829112  1
  Br  Br16  1  0.694652  0.024647  0.150154  1
  Br  Br17  1  0.741371  0.252752  0.975187  1
  Br  Br18  1  0.915849  0.063343  0.677140  1
  Br  Br19  1  0.962416  0.398178  0.368994  1
  Br  Br20  1  0.994913  0.614013  0.209609  1
  Br  Br21  1  0.643780  0.257288  0.216275  1
  Br  Br22  1  0.371452  0.182010  0.080878  1
  Br  Br23  1  0.793375  0.598619  0.036639  1
  Br  Br24  1  0.666274  0.042607  0.559447  1
  Br  Br25  1  0.500000  0.500000  0.000000  1
  Br  Br26  1  0.000000  0.000000  0.000000  1
  Br  Br27  1  0.867606  0.596904  0.446740  1
  Br  Br28  1  0.465459  0.265352  0.345104  1
  Br  Br29  1  0.339389  0.404536  0.199337  1
  Br  Br30  1  0.817660  0.864805  0.180396  1
  Br  Br31  1  0.539414  0.079109  0.703819  1
  Br  Br32  1  0.614293  0.371476  0.604838  1
  Br  Br33  1  0.244722  0.042594  0.625627  1
  Br  Br34  1  0.067682  0.390095  0.164064  1
  Br  Br35  1  0.714324  0.693253  0.494108  1
  Br  Br36  1  0.285676  0.306747  0.505892  1
  Br  Br37  1  0.932318  0.609905  0.835936  1
  Br  Br38  1  0.755278  0.957406  0.374373  1
  Br  Br39  1  0.385707  0.628524  0.395162  1
  Br  Br40  1  0.460586  0.920891  0.296181  1
  Br  Br41  1  0.182340  0.135195  0.819604  1
  Br  Br42  1  0.660611  0.595464  0.800663  1
  Br  Br43  1  0.534541  0.734648  0.654896  1
  Br  Br44  1  0.132394  0.403096  0.553260  1
  Br  Br45  1  0.333726  0.957393  0.440553  1
  Br  Br46  1  0.206625  0.401381  0.963361  1
  Br  Br47  1  0.628548  0.817990  0.919122  1
  Br  Br48  1  0.356220  0.742712  0.783725  1
  Br  Br49  1  0.005087  0.385987  0.790391  1
  Br  Br50  1  0.037584  0.601822  0.631006  1
  Br  Br51  1  0.084151  0.936657  0.322860  1
  Br  Br52  1  0.258629  0.747248  0.024813  1
  Br  Br53  1  0.305348  0.975353  0.849846  1
