# generated using pymatgen
data_Mn3OF8
_symmetry_space_group_name_H-M   'P 1'
_cell_length_a   5.15579743
_cell_length_b   5.17815531
_cell_length_c   13.42713560
_cell_angle_alpha   89.99617286
_cell_angle_beta   91.66272428
_cell_angle_gamma   59.90398931
_symmetry_Int_Tables_number   1
_chemical_formula_structural   Mn3OF8
_chemical_formula_sum   'Mn6 O2 F16'
_cell_volume   309.96953082
_cell_formula_units_Z   2
loop_
 _symmetry_equiv_pos_site_id
 _symmetry_equiv_pos_as_xyz
  1  'x, y, z'
loop_
 _atom_site_type_symbol
 _atom_site_label
 _atom_site_symmetry_multiplicity
 _atom_site_fract_x
 _atom_site_fract_y
 _atom_site_fract_z
 _atom_site_occupancy
  Mn  Mn0  1  0.008343  0.966759  0.005638  1
  Mn  Mn1  1  0.006697  0.025533  0.505022  1
  Mn  Mn2  1  0.326851  0.318738  0.661218  1
  Mn  Mn3  1  0.330906  0.351826  0.161588  1
  Mn  Mn4  1  0.670609  0.642974  0.833333  1
  Mn  Mn5  1  0.673191  0.684398  0.333279  1
  O  O6  1  0.039523  0.290796  0.583302  1
  O  O7  1  0.041680  0.670575  0.085278  1
  F  F8  1  0.020093  0.400090  0.248142  1
  F  F9  1  0.264734  0.050025  0.081074  1
  F  F10  1  0.407793  0.963043  0.752579  1
  F  F11  1  0.262295  0.691232  0.580846  1
  F  F12  1  0.605680  0.021267  0.250328  1
  F  F13  1  0.670586  0.064510  0.578534  1
  F  F14  1  0.321277  0.724119  0.924239  1
  F  F15  1  0.411961  0.626533  0.251443  1
  F  F16  1  0.598349  0.375397  0.750871  1
  F  F17  1  0.670255  0.267633  0.078699  1
  F  F18  1  0.319308  0.953911  0.423706  1
  F  F19  1  0.733168  0.341800  0.415793  1
  F  F20  1  0.934668  0.315325  0.915922  1
  F  F21  1  0.734371  0.921964  0.915798  1
  F  F22  1  0.011938  0.582922  0.746495  1
  F  F23  1  0.935723  0.748628  0.416873  1
