# generated using pymatgen
data_Li8Ni(O2F)2
_symmetry_space_group_name_H-M   'P 1'
_cell_length_a   5.52272605
_cell_length_b   10.76908457
_cell_length_c   5.50799517
_cell_angle_alpha   104.26567730
_cell_angle_beta   59.71148799
_cell_angle_gamma   89.65785761
_symmetry_Int_Tables_number   1
_chemical_formula_structural   Li8Ni(O2F)2
_chemical_formula_sum   'Li16 Ni2 O8 F4'
_cell_volume   270.80607650
_cell_formula_units_Z   2
loop_
 _symmetry_equiv_pos_site_id
 _symmetry_equiv_pos_as_xyz
  1  'x, y, z'
loop_
 _atom_site_type_symbol
 _atom_site_label
 _atom_site_symmetry_multiplicity
 _atom_site_fract_x
 _atom_site_fract_y
 _atom_site_fract_z
 _atom_site_occupancy
  Li  Li0  1  0.112868  0.675032  0.107757  1
  Li  Li1  1  0.203478  0.315770  0.222135  1
  Li  Li2  1  0.067232  0.817324  0.521311  1
  Li  Li3  1  0.182299  0.488674  0.584809  1
  Li  Li4  1  0.282606  0.005057  0.301295  1
  Li  Li5  1  0.279892  0.165043  0.772297  1
  Li  Li6  1  0.431847  0.666219  0.476675  1
  Li  Li7  1  0.590543  0.181205  0.102234  1
  Li  Li8  1  0.409457  0.818795  0.897766  1
  Li  Li9  1  0.568153  0.333781  0.523325  1
  Li  Li10  1  0.720108  0.834957  0.227703  1
  Li  Li11  1  0.717394  0.994943  0.698705  1
  Li  Li12  1  0.817701  0.511326  0.415191  1
  Li  Li13  1  0.796522  0.684230  0.777865  1
  Li  Li14  1  0.932768  0.182676  0.478689  1
  Li  Li15  1  0.887132  0.324967  0.892243  1
  Ni  Ni16  1  0.000000  0.000000  0.000000  1
  Ni  Ni17  1  0.500000  0.500000  0.000000  1
  O  O18  1  0.037002  0.882725  0.242711  1
  O  O19  1  0.269741  0.120616  0.083010  1
  O  O20  1  0.140437  0.618327  0.397108  1
  O  O21  1  0.526807  0.379338  0.235475  1
  O  O22  1  0.473193  0.620662  0.764525  1
  O  O23  1  0.859563  0.381673  0.602892  1
  O  O24  1  0.730259  0.879384  0.916990  1
  O  O25  1  0.962998  0.117275  0.757289  1
  F  F26  1  0.376407  0.860657  0.586637  1
  F  F27  1  0.219936  0.364859  0.899398  1
  F  F28  1  0.780064  0.635141  0.100602  1
  F  F29  1  0.623593  0.139343  0.413363  1
