# generated using pymatgen
data_V3CoO8
_symmetry_space_group_name_H-M   'P 1'
_cell_length_a   8.55441506
_cell_length_b   9.80227464
_cell_length_c   9.80227464
_cell_angle_alpha   84.13995935
_cell_angle_beta   115.87113337
_cell_angle_gamma   64.12886663
_symmetry_Int_Tables_number   1
_chemical_formula_structural   V3CoO8
_chemical_formula_sum   'V12 Co4 O32'
_cell_volume   620.50040118
_cell_formula_units_Z   4
loop_
 _symmetry_equiv_pos_site_id
 _symmetry_equiv_pos_as_xyz
  1  'x, y, z'
loop_
 _atom_site_type_symbol
 _atom_site_label
 _atom_site_symmetry_multiplicity
 _atom_site_fract_x
 _atom_site_fract_y
 _atom_site_fract_z
 _atom_site_occupancy
  V  V0  1  0.554668  0.242352  0.355210  1
  V  V1  1  0.941809  0.355210  0.242352  1
  V  V2  1  0.029167  0.008923  0.686229  1
  V  V3  1  0.851862  0.686229  0.008923  1
  V  V4  1  0.167211  0.309309  0.646767  1
  V  V5  1  0.329753  0.646767  0.309309  1
  V  V6  1  0.667211  0.353233  0.690691  1
  V  V7  1  0.829753  0.690691  0.353233  1
  V  V8  1  0.529167  0.313771  0.991077  1
  V  V9  1  0.351862  0.991077  0.313771  1
  V  V10  1  0.054668  0.644790  0.757648  1
  V  V11  1  0.441809  0.757648  0.644790  1
  Co  Co12  1  0.636972  0.013857  0.671553  1
  Co  Co13  1  0.479276  0.671553  0.013857  1
  Co  Co14  1  0.136972  0.328447  0.986143  1
  Co  Co15  1  0.979276  0.986143  0.328447  1
  O  O16  1  0.734638  0.123262  0.103321  1
  O  O17  1  0.254578  0.103321  0.123262  1
  O  O18  1  0.093409  0.146131  0.319619  1
  O  O19  1  0.419922  0.319619  0.146131  1
  O  O20  1  0.480991  0.118592  0.413522  1
  O  O21  1  0.009476  0.423945  0.120715  1
  O  O22  1  0.812706  0.120715  0.423945  1
  O  O23  1  0.686061  0.413522  0.118592  1
  O  O24  1  0.782249  0.142045  0.693686  1
  O  O25  1  0.730608  0.693686  0.142045  1
  O  O26  1  0.510555  0.403916  0.437564  1
  O  O27  1  0.976906  0.437564  0.403916  1
  O  O28  1  0.068621  0.191895  0.650596  1
  O  O29  1  0.377947  0.200334  0.643186  1
  O  O30  1  0.109920  0.650596  0.191895  1
  O  O31  1  0.435095  0.643186  0.200334  1
  O  O32  1  0.568621  0.349404  0.808105  1
  O  O33  1  0.609920  0.808105  0.349404  1
  O  O34  1  0.935095  0.799666  0.356814  1
  O  O35  1  0.877947  0.356814  0.799666  1
  O  O36  1  0.010555  0.562436  0.596084  1
  O  O37  1  0.476906  0.596084  0.562436  1
  O  O38  1  0.282249  0.306314  0.857954  1
  O  O39  1  0.230608  0.857954  0.306314  1
  O  O40  1  0.312706  0.576055  0.879285  1
  O  O41  1  0.509476  0.879285  0.576055  1
  O  O42  1  0.186061  0.881408  0.586478  1
  O  O43  1  0.980991  0.586478  0.881408  1
  O  O44  1  0.919922  0.853869  0.680381  1
  O  O45  1  0.593409  0.680381  0.853869  1
  O  O46  1  0.754578  0.876738  0.896679  1
  O  O47  1  0.234638  0.896679  0.876738  1
