# generated using pymatgen
data_Ti5Fe11O24
_symmetry_space_group_name_H-M   'P 1'
_cell_length_a   5.59102501
_cell_length_b   5.16601016
_cell_length_c   15.06563862
_cell_angle_alpha   89.81013250
_cell_angle_beta   95.65066907
_cell_angle_gamma   90.08515522
_symmetry_Int_Tables_number   1
_chemical_formula_structural   Ti5Fe11O24
_chemical_formula_sum   'Ti5 Fe11 O24'
_cell_volume   433.02807272
_cell_formula_units_Z   1
loop_
 _symmetry_equiv_pos_site_id
 _symmetry_equiv_pos_as_xyz
  1  'x, y, z'
loop_
 _atom_site_type_symbol
 _atom_site_label
 _atom_site_symmetry_multiplicity
 _atom_site_fract_x
 _atom_site_fract_y
 _atom_site_fract_z
 _atom_site_occupancy
  Ti  Ti0  1  0.208670  0.498291  0.821331  1
  Ti  Ti1  1  0.792682  0.506880  0.674557  1
  Ti  Ti2  1  0.294237  0.997707  0.429412  1
  Ti  Ti3  1  0.205701  0.503733  0.320927  1
  Ti  Ti4  1  0.707355  0.998441  0.074735  1
  Fe  Fe5  1  0.293347  0.001020  0.926017  1
  Fe  Fe6  1  0.709792  0.004314  0.822465  1
  Fe  Fe7  1  0.794175  0.498757  0.925316  1
  Fe  Fe8  1  0.290559  0.995912  0.675829  1
  Fe  Fe9  1  0.707169  0.999309  0.575054  1
  Fe  Fe10  1  0.785061  0.499438  0.426673  1
  Fe  Fe11  1  0.207829  0.503029  0.573796  1
  Fe  Fe12  1  0.715269  0.004133  0.322697  1
  Fe  Fe13  1  0.291332  0.994643  0.176661  1
  Fe  Fe14  1  0.788916  0.498069  0.176973  1
  Fe  Fe15  1  0.211581  0.501291  0.073007  1
  O  O16  1  0.489589  0.320743  0.874846  1
  O  O17  1  0.656758  0.849031  0.957492  1
  O  O18  1  0.851751  0.632542  0.797566  1
  O  O19  1  0.011684  0.206969  0.878203  1
  O  O20  1  0.657274  0.177161  0.697410  1
  O  O21  1  0.146171  0.655135  0.952115  1
  O  O22  1  0.837447  0.347277  0.547251  1
  O  O23  1  0.339736  0.829319  0.804446  1
  O  O24  1  0.984819  0.802853  0.625514  1
  O  O25  1  0.152430  0.363859  0.707550  1
  O  O26  1  0.345108  0.132983  0.542017  1
  O  O27  1  0.522267  0.688192  0.630509  1
  O  O28  1  0.485441  0.315789  0.374430  1
  O  O29  1  0.646238  0.847562  0.450519  1
  O  O30  1  0.855715  0.627219  0.300632  1
  O  O31  1  0.027053  0.201386  0.380653  1
  O  O32  1  0.149396  0.672013  0.447005  1
  O  O33  1  0.665015  0.150686  0.196387  1
  O  O34  1  0.337773  0.829181  0.301397  1
  O  O35  1  0.847557  0.328219  0.047715  1
  O  O36  1  0.975680  0.800115  0.118767  1
  O  O37  1  0.155638  0.371785  0.203048  1
  O  O38  1  0.352211  0.155855  0.047814  1
  O  O39  1  0.503575  0.689153  0.121260  1
