# generated using pymatgen
data_MgH4(NO4)2
_symmetry_space_group_name_H-M   'P 1'
_cell_length_a   5.75602739
_cell_length_b   5.99838819
_cell_length_c   8.69930915
_cell_angle_alpha   90.00000000
_cell_angle_beta   91.30143763
_cell_angle_gamma   90.00000000
_symmetry_Int_Tables_number   1
_chemical_formula_structural   MgH4(NO4)2
_chemical_formula_sum   'Mg2 H8 N4 O16'
_cell_volume   300.28258034
_cell_formula_units_Z   2
loop_
 _symmetry_equiv_pos_site_id
 _symmetry_equiv_pos_as_xyz
  1  'x, y, z'
loop_
 _atom_site_type_symbol
 _atom_site_label
 _atom_site_symmetry_multiplicity
 _atom_site_fract_x
 _atom_site_fract_y
 _atom_site_fract_z
 _atom_site_occupancy
  Mg  Mg0  1  0.000000  0.500001  0.000000  1
  Mg  Mg1  1  0.999999  0.000000  0.500000  1
  H  H2  1  0.587456  0.282193  0.014994  1
  H  H3  1  0.270003  0.823382  0.110597  1
  H  H4  1  0.729996  0.323380  0.389404  1
  H  H5  1  0.412545  0.782194  0.485007  1
  H  H6  1  0.587455  0.217807  0.514993  1
  H  H7  1  0.270004  0.676619  0.610597  1
  H  H8  1  0.729997  0.176619  0.889403  1
  H  H9  1  0.412546  0.717808  0.985007  1
  N  N10  1  0.745900  0.843690  0.199308  1
  N  N11  1  0.254099  0.343688  0.300691  1
  N  N12  1  0.745901  0.656311  0.699308  1
  N  N13  1  0.254100  0.156309  0.800692  1
  O  O14  1  0.250565  0.749237  0.010723  1
  O  O15  1  0.742871  0.731272  0.073451  1
  O  O16  1  0.058722  0.376537  0.232942  1
  O  O17  1  0.437802  0.416689  0.248216  1
  O  O18  1  0.562197  0.916686  0.251783  1
  O  O19  1  0.941280  0.876537  0.267059  1
  O  O20  1  0.257130  0.231273  0.426549  1
  O  O21  1  0.749434  0.249236  0.489277  1
  O  O22  1  0.250566  0.750763  0.510722  1
  O  O23  1  0.742870  0.768728  0.573452  1
  O  O24  1  0.058720  0.123464  0.732942  1
  O  O25  1  0.437803  0.083313  0.748217  1
  O  O26  1  0.562199  0.583312  0.751784  1
  O  O27  1  0.941279  0.623464  0.767058  1
  O  O28  1  0.257129  0.268727  0.926548  1
  O  O29  1  0.749435  0.250762  0.989278  1
