# generated using pymatgen
data_CdH10C3NCl3
_symmetry_space_group_name_H-M   'P 1'
_cell_length_a   9.18683657
_cell_length_b   14.58536627
_cell_length_c   6.83561846
_cell_angle_alpha   90.00000000
_cell_angle_beta   90.00000000
_cell_angle_gamma   90.00000000
_symmetry_Int_Tables_number   1
_chemical_formula_structural   CdH10C3NCl3
_chemical_formula_sum   'Cd4 H40 C12 N4 Cl12'
_cell_volume   915.92759612
_cell_formula_units_Z   4
loop_
 _symmetry_equiv_pos_site_id
 _symmetry_equiv_pos_as_xyz
  1  'x, y, z'
loop_
 _atom_site_type_symbol
 _atom_site_label
 _atom_site_symmetry_multiplicity
 _atom_site_fract_x
 _atom_site_fract_y
 _atom_site_fract_z
 _atom_site_occupancy
  Cd  Cd0  1  0.500000  0.500000  0.000000  1
  Cd  Cd1  1  0.000000  0.000000  0.500000  1
  Cd  Cd2  1  0.500000  0.500000  0.500000  1
  Cd  Cd3  1  0.000000  0.000000  0.000000  1
  H  H4  1  0.958371  0.755800  0.250000  1
  H  H5  1  0.541629  0.255800  0.250000  1
  H  H6  1  0.041629  0.244200  0.750000  1
  H  H7  1  0.458371  0.744200  0.750000  1
  H  H8  1  0.245760  0.663119  0.250000  1
  H  H9  1  0.254240  0.163119  0.250000  1
  H  H10  1  0.754240  0.336881  0.750000  1
  H  H11  1  0.745760  0.836881  0.750000  1
  H  H12  1  0.196579  0.765485  0.119001  1
  H  H13  1  0.303421  0.265485  0.380999  1
  H  H14  1  0.803421  0.234515  0.619001  1
  H  H15  1  0.696579  0.734515  0.880999  1
  H  H16  1  0.803421  0.234515  0.880999  1
  H  H17  1  0.696579  0.734515  0.619001  1
  H  H18  1  0.196579  0.765485  0.380999  1
  H  H19  1  0.303421  0.265485  0.119001  1
  H  H20  1  0.057045  0.583158  0.065640  1
  H  H21  1  0.442955  0.083158  0.434360  1
  H  H22  1  0.942955  0.416842  0.565640  1
  H  H23  1  0.557045  0.916842  0.934360  1
  H  H24  1  0.942955  0.416842  0.934360  1
  H  H25  1  0.557045  0.916842  0.565640  1
  H  H26  1  0.057045  0.583158  0.434360  1
  H  H27  1  0.442955  0.083158  0.065640  1
  H  H28  1  0.870667  0.621609  0.075696  1
  H  H29  1  0.629333  0.121609  0.424304  1
  H  H30  1  0.129333  0.378391  0.575696  1
  H  H31  1  0.370667  0.878391  0.924304  1
  H  H32  1  0.129333  0.378391  0.924304  1
  H  H33  1  0.370667  0.878391  0.575696  1
  H  H34  1  0.870667  0.621609  0.424304  1
  H  H35  1  0.629333  0.121609  0.075696  1
  H  H36  1  0.005588  0.686218  0.942259  1
  H  H37  1  0.494412  0.186218  0.557741  1
  H  H38  1  0.994412  0.313782  0.442259  1
  H  H39  1  0.505588  0.813782  0.057741  1
  H  H40  1  0.994412  0.313782  0.057741  1
  H  H41  1  0.505588  0.813782  0.442259  1
  H  H42  1  0.005588  0.686218  0.557741  1
  H  H43  1  0.494412  0.186218  0.942259  1
  C  C44  1  0.176891  0.724390  0.250000  1
  C  C45  1  0.323109  0.224390  0.250000  1
  C  C46  1  0.823109  0.275610  0.750000  1
  C  C47  1  0.676891  0.775610  0.750000  1
  C  C48  1  0.985031  0.642793  0.069902  1
  C  C49  1  0.514969  0.142793  0.430098  1
  C  C50  1  0.014969  0.357207  0.569902  1
  C  C51  1  0.485031  0.857207  0.930098  1
  C  C52  1  0.014969  0.357207  0.930098  1
  C  C53  1  0.485031  0.857207  0.569902  1
  C  C54  1  0.985031  0.642793  0.430098  1
  C  C55  1  0.514969  0.142793  0.069902  1
  N  N56  1  0.020923  0.695944  0.250000  1
  N  N57  1  0.479077  0.195944  0.250000  1
  N  N58  1  0.979077  0.304056  0.750000  1
  N  N59  1  0.520923  0.804056  0.750000  1
  Cl  Cl60  1  0.574783  0.634187  0.250000  1
  Cl  Cl61  1  0.925217  0.134187  0.250000  1
  Cl  Cl62  1  0.425217  0.365813  0.750000  1
  Cl  Cl63  1  0.074783  0.865813  0.750000  1
  Cl  Cl64  1  0.653099  0.391784  0.250000  1
  Cl  Cl65  1  0.846901  0.891784  0.250000  1
  Cl  Cl66  1  0.346901  0.608216  0.750000  1
  Cl  Cl67  1  0.153099  0.108216  0.750000  1
  Cl  Cl68  1  0.281960  0.472200  0.250000  1
  Cl  Cl69  1  0.218040  0.972200  0.250000  1
  Cl  Cl70  1  0.718040  0.527800  0.750000  1
  Cl  Cl71  1  0.781960  0.027800  0.750000  1
