# generated using pymatgen
data_CrO
_symmetry_space_group_name_H-M   'P 1'
_cell_length_a   5.75702204
_cell_length_b   5.75693888
_cell_length_c   5.81641701
_cell_angle_alpha   90.00024852
_cell_angle_beta   89.99972675
_cell_angle_gamma   90.00115826
_symmetry_Int_Tables_number   1
_chemical_formula_structural   CrO
_chemical_formula_sum   'Cr8 O8'
_cell_volume   192.77248534
_cell_formula_units_Z   8
loop_
 _symmetry_equiv_pos_site_id
 _symmetry_equiv_pos_as_xyz
  1  'x, y, z'
loop_
 _atom_site_type_symbol
 _atom_site_label
 _atom_site_symmetry_multiplicity
 _atom_site_fract_x
 _atom_site_fract_y
 _atom_site_fract_z
 _atom_site_occupancy
  Cr  Cr0  1  0.000005  0.999960  0.249986  1
  Cr  Cr1  1  -0.000018  -0.000043  0.750021  1
  Cr  Cr2  1  0.000033  0.499990  0.500045  1
  Cr  Cr3  1  0.247405  0.458709  0.000104  1
  Cr  Cr4  1  0.458662  0.752585  0.499900  1
  Cr  Cr5  1  0.500011  -0.000006  0.999952  1
  Cr  Cr6  1  0.541354  0.247404  0.499892  1
  Cr  Cr7  1  0.752595  0.541383  0.000102  1
  O  O8  1  0.190611  0.693398  0.264136  1
  O  O9  1  0.190667  0.693500  0.736019  1
  O  O10  1  0.306572  0.190657  0.235888  1
  O  O11  1  0.306497  0.190723  0.763957  1
  O  O12  1  0.693419  0.809397  0.235845  1
  O  O13  1  0.693493  0.809344  0.763994  1
  O  O14  1  0.809388  0.306535  0.264114  1
  O  O15  1  0.809304  0.306464  0.736044  1
