# generated using pymatgen
data_Sr2GaGeN
_symmetry_space_group_name_H-M   'P 1'
_cell_length_a   6.96182455
_cell_length_b   4.10268978
_cell_length_c   8.81559633
_cell_angle_alpha   90.00000000
_cell_angle_beta   108.57287644
_cell_angle_gamma   90.00000000
_symmetry_Int_Tables_number   1
_chemical_formula_structural   Sr2GaGeN
_chemical_formula_sum   'Sr4 Ga2 Ge2 N2'
_cell_volume   238.67933204
_cell_formula_units_Z   2
loop_
 _symmetry_equiv_pos_site_id
 _symmetry_equiv_pos_as_xyz
  1  'x, y, z'
loop_
 _atom_site_type_symbol
 _atom_site_label
 _atom_site_symmetry_multiplicity
 _atom_site_fract_x
 _atom_site_fract_y
 _atom_site_fract_z
 _atom_site_occupancy
  Sr  Sr0  1  0.798135  0.250001  0.034036  1
  Sr  Sr1  1  0.185422  0.749999  0.378223  1
  Sr  Sr2  1  0.814577  0.250001  0.621777  1
  Sr  Sr3  1  0.201866  0.749999  0.965964  1
  Ga  Ga4  1  0.463297  0.250001  0.247698  1
  Ga  Ga5  1  0.536702  0.749999  0.752302  1
  Ge  Ge6  1  0.676958  0.749999  0.299662  1
  Ge  Ge7  1  0.323043  0.250001  0.700338  1
  N  N8  1  0.176408  0.250001  0.170890  1
  N  N9  1  0.823591  0.749999  0.829110  1
