# generated using pymatgen
data_Ce3SiAgS7
_symmetry_space_group_name_H-M   'P 1'
_cell_length_a   10.35127667
_cell_length_b   10.30797171
_cell_length_c   5.77341126
_cell_angle_alpha   90.00000000
_cell_angle_beta   90.00000000
_cell_angle_gamma   119.88768899
_symmetry_Int_Tables_number   1
_chemical_formula_structural   Ce3SiAgS7
_chemical_formula_sum   'Ce6 Si2 Ag2 S14'
_cell_volume   534.09762833
_cell_formula_units_Z   2
loop_
 _symmetry_equiv_pos_site_id
 _symmetry_equiv_pos_as_xyz
  1  'x, y, z'
loop_
 _atom_site_type_symbol
 _atom_site_label
 _atom_site_symmetry_multiplicity
 _atom_site_fract_x
 _atom_site_fract_y
 _atom_site_fract_z
 _atom_site_occupancy
  Ce  Ce0  1  0.124287  0.359310  0.247805  1
  Ce  Ce1  1  0.875711  0.640688  0.747807  1
  Ce  Ce2  1  0.640609  0.765186  0.247855  1
  Ce  Ce3  1  0.234555  0.875600  0.248585  1
  Ce  Ce4  1  0.765447  0.124401  0.748583  1
  Ce  Ce5  1  0.359391  0.234813  0.747855  1
  Si  Si6  1  0.333259  0.666770  0.660725  1
  Si  Si7  1  0.666741  0.333230  0.160725  1
  Ag  Ag8  1  -0.000183  -0.000204  0.308365  1
  Ag  Ag9  1  0.000183  0.000204  0.808366  1
  S  S10  1  0.333517  0.666721  0.027692  1
  S  S11  1  0.666485  0.333280  0.527694  1
  S  S12  1  0.409980  0.525255  0.516467  1
  S  S13  1  0.590020  0.474745  0.016469  1
  S  S14  1  0.474915  0.884927  0.516326  1
  S  S15  1  0.114647  0.589264  0.516217  1
  S  S16  1  0.885353  0.410736  0.016216  1
  S  S17  1  0.525084  0.115072  0.016327  1
  S  S18  1  0.091027  0.267189  0.762271  1
  S  S19  1  0.908972  0.732809  0.262273  1
  S  S20  1  0.732075  0.823205  0.761501  1
  S  S21  1  0.175863  0.908711  0.762186  1
  S  S22  1  0.824137  0.091288  0.262186  1
  S  S23  1  0.267926  0.176796  0.261503  1
