# generated using pymatgen
data_V4GeS8
_symmetry_space_group_name_H-M   'P 1'
_cell_length_a   6.87402142
_cell_length_b   6.86025549
_cell_length_c   6.86025544
_cell_angle_alpha   60.07656920
_cell_angle_beta   59.93360035
_cell_angle_gamma   59.93360431
_symmetry_Int_Tables_number   1
_chemical_formula_structural   V4GeS8
_chemical_formula_sum   'V4 Ge1 S8'
_cell_volume   228.65992144
_cell_formula_units_Z   1
loop_
 _symmetry_equiv_pos_site_id
 _symmetry_equiv_pos_as_xyz
  1  'x, y, z'
loop_
 _atom_site_type_symbol
 _atom_site_label
 _atom_site_symmetry_multiplicity
 _atom_site_fract_x
 _atom_site_fract_y
 _atom_site_fract_z
 _atom_site_occupancy
  V  V0  1  0.398608  0.808618  0.394165  1
  V  V1  1  0.398608  0.394165  0.808618  1
  V  V2  1  0.811284  0.395954  0.395954  1
  V  V3  1  0.396808  0.395954  0.395954  1
  Ge  Ge4  1  0.001568  0.998432  0.998432  1
  S  S5  1  0.139169  0.134597  0.134597  1
  S  S6  1  0.113677  0.629557  0.629557  1
  S  S7  1  0.137593  0.136472  0.588343  1
  S  S8  1  0.632174  0.624779  0.110874  1
  S  S9  1  0.632174  0.110874  0.624779  1
  S  S10  1  0.591636  0.134597  0.134597  1
  S  S11  1  0.137593  0.588343  0.136472  1
  S  S12  1  0.627208  0.629557  0.629557  1
