# generated using pymatgen
data_Mg2AlB2Ir5
_symmetry_space_group_name_H-M   'P 1'
_cell_length_a   9.48307191
_cell_length_b   9.48307810
_cell_length_c   2.92726612
_cell_angle_alpha   89.99999391
_cell_angle_beta   89.99999356
_cell_angle_gamma   90.00009407
_symmetry_Int_Tables_number   1
_chemical_formula_structural   Mg2AlB2Ir5
_chemical_formula_sum   'Mg4 Al2 B4 Ir10'
_cell_volume   263.24527054
_cell_formula_units_Z   2
loop_
 _symmetry_equiv_pos_site_id
 _symmetry_equiv_pos_as_xyz
  1  'x, y, z'
loop_
 _atom_site_type_symbol
 _atom_site_label
 _atom_site_symmetry_multiplicity
 _atom_site_fract_x
 _atom_site_fract_y
 _atom_site_fract_z
 _atom_site_occupancy
  Mg  Mg0  1  0.676320  0.176319  0.999999  1
  Mg  Mg1  1  0.176319  0.323680  0.999999  1
  Mg  Mg2  1  0.823680  0.676319  0.000002  1
  Mg  Mg3  1  0.323680  0.823681  1.000000  1
  Al  Al4  1  -0.000000  0.000002  0.000000  1
  Al  Al5  1  0.500000  0.500000  1.000000  1
  B  B6  1  0.374574  0.125427  0.000001  1
  B  B7  1  0.874573  0.374575  0.000000  1
  B  B8  1  0.125427  0.625426  0.000000  1
  B  B9  1  0.625425  0.874574  0.999999  1
  Ir  Ir10  1  0.500000  -0.000000  0.500000  1
  Ir  Ir11  1  0.213616  0.071275  0.500000  1
  Ir  Ir12  1  0.928723  0.213615  0.500000  1
  Ir  Ir13  1  0.428722  0.286384  0.500000  1
  Ir  Ir14  1  0.713615  0.428722  0.500000  1
  Ir  Ir15  1  0.999999  0.500000  0.500000  1
  Ir  Ir16  1  0.286384  0.571277  0.500001  1
  Ir  Ir17  1  0.571277  0.713615  0.500000  1
  Ir  Ir18  1  0.071276  0.786383  0.500000  1
  Ir  Ir19  1  0.786384  0.928723  0.500000  1
