# generated using pymatgen
data_V3(O2F)2
_symmetry_space_group_name_H-M   'P 1'
_cell_length_a   10.46591002
_cell_length_b   6.56477161
_cell_length_c   3.06537643
_cell_angle_alpha   90.00000000
_cell_angle_beta   90.00000000
_cell_angle_gamma   108.26826917
_symmetry_Int_Tables_number   1
_chemical_formula_structural   V3(O2F)2
_chemical_formula_sum   'V6 O8 F4'
_cell_volume   199.99575715
_cell_formula_units_Z   2
loop_
 _symmetry_equiv_pos_site_id
 _symmetry_equiv_pos_as_xyz
  1  'x, y, z'
loop_
 _atom_site_type_symbol
 _atom_site_label
 _atom_site_symmetry_multiplicity
 _atom_site_fract_x
 _atom_site_fract_y
 _atom_site_fract_z
 _atom_site_occupancy
  V  V0  1  0.013369  0.006664  0.000000  1
  V  V1  1  0.331865  0.165912  0.500000  1
  V  V2  1  0.014110  0.507040  0.500000  1
  V  V3  1  0.334162  0.667037  0.000000  1
  V  V4  1  0.652723  0.326380  0.000000  1
  V  V5  1  0.655481  0.827777  0.500000  1
  O  O6  1  0.139506  0.069714  0.500000  1
  O  O7  1  0.000862  0.306108  0.000000  1
  O  O8  1  0.000816  0.694740  0.000000  1
  O  O9  1  0.665250  0.045275  0.000000  1
  O  O10  1  0.202884  0.601448  0.500000  1
  O  O11  1  0.530657  0.265346  0.500000  1
  O  O12  1  0.459819  0.729936  0.500000  1
  O  O13  1  0.665259  0.619991  0.000000  1
  F  F14  1  0.333989  0.361976  0.000000  1
  F  F15  1  0.797156  0.398529  0.500000  1
  F  F16  1  0.334080  0.972043  0.000000  1
  F  F17  1  0.868011  0.934086  0.500000  1
