# generated using pymatgen
data_Na3Np(HO3)2
_symmetry_space_group_name_H-M   'P 1'
_cell_length_a   6.03729527
_cell_length_b   6.03729527
_cell_length_c   10.51377359
_cell_angle_alpha   98.11394623
_cell_angle_beta   98.11394623
_cell_angle_gamma   120.55797372
_symmetry_Int_Tables_number   1
_chemical_formula_structural   Na3Np(HO3)2
_chemical_formula_sum   'Na6 Np2 H4 O12'
_cell_volume   316.33786624
_cell_formula_units_Z   2
loop_
 _symmetry_equiv_pos_site_id
 _symmetry_equiv_pos_as_xyz
  1  'x, y, z'
loop_
 _atom_site_type_symbol
 _atom_site_label
 _atom_site_symmetry_multiplicity
 _atom_site_fract_x
 _atom_site_fract_y
 _atom_site_fract_z
 _atom_site_occupancy
  Na  Na0  1  0.130853  0.869148  0.000000  1
  Na  Na1  1  0.905943  0.317127  0.175089  1
  Na  Na2  1  0.980852  0.892037  0.324910  1
  Na  Na3  1  0.380852  0.619145  0.500000  1
  Na  Na4  1  0.107962  0.019147  0.675088  1
  Na  Na5  1  0.682874  0.094058  0.824911  1
  Np  Np6  1  0.470603  0.529399  0.000000  1
  Np  Np7  1  0.720602  0.279396  0.500000  1
  H  H8  1  0.483770  0.893700  0.210746  1
  H  H9  1  0.523025  0.432954  0.289255  1
  H  H10  1  0.567047  0.476976  0.710745  1
  H  H11  1  0.106300  0.516231  0.789254  1
  O  O12  1  0.813635  0.615549  0.111651  1
  O  O13  1  0.273763  0.334054  0.116811  1
  O  O14  1  0.519350  0.893908  0.122015  1
  O  O15  1  0.647338  0.521894  0.377985  1
  O  O16  1  0.406954  0.967243  0.383189  1
  O  O17  1  0.951985  0.253897  0.388349  1
  O  O18  1  0.746104  0.048016  0.611651  1
  O  O19  1  0.032758  0.593047  0.616812  1
  O  O20  1  0.478107  0.352663  0.622015  1
  O  O21  1  0.106093  0.480650  0.877985  1
  O  O22  1  0.665947  0.726238  0.883189  1
  O  O23  1  0.384452  0.186366  0.888349  1
