# generated using pymatgen
data_Li2Fe2(PO4)3
_symmetry_space_group_name_H-M   'P 1'
_cell_length_a   8.66444866
_cell_length_b   8.79680775
_cell_length_c   12.22283946
_cell_angle_alpha   90.00155320
_cell_angle_beta   89.99776759
_cell_angle_gamma   89.99987767
_symmetry_Int_Tables_number   1
_chemical_formula_structural   Li2Fe2(PO4)3
_chemical_formula_sum   'Li8 Fe8 P12 O48'
_cell_volume   931.61857873
_cell_formula_units_Z   4
loop_
 _symmetry_equiv_pos_site_id
 _symmetry_equiv_pos_as_xyz
  1  'x, y, z'
loop_
 _atom_site_type_symbol
 _atom_site_label
 _atom_site_symmetry_multiplicity
 _atom_site_fract_x
 _atom_site_fract_y
 _atom_site_fract_z
 _atom_site_occupancy
  Li  Li0  1  0.217027  0.722099  0.181175  1
  Li  Li1  1  0.217031  0.777927  0.818818  1
  Li  Li2  1  0.282962  0.222142  0.318869  1
  Li  Li3  1  0.282954  0.277843  0.681127  1
  Li  Li4  1  0.717023  0.722150  0.318890  1
  Li  Li5  1  0.717016  0.777877  0.681133  1
  Li  Li6  1  0.782964  0.222141  0.181157  1
  Li  Li7  1  0.782977  0.277847  0.818847  1
  Fe  Fe8  1  0.249237  0.959614  0.612884  1
  Fe  Fe9  1  0.249261  0.540373  0.387118  1
  Fe  Fe10  1  0.250796  0.040377  0.112875  1
  Fe  Fe11  1  0.250796  0.459655  0.887086  1
  Fe  Fe12  1  0.749193  0.540305  0.112877  1
  Fe  Fe13  1  0.749220  0.959703  0.887115  1
  Fe  Fe14  1  0.750780  0.040350  0.387141  1
  Fe  Fe15  1  0.750770  0.459673  0.612861  1
  P  P16  1  0.039598  0.250005  0.500003  1
  P  P17  1  0.460425  0.750009  0.000003  1
  P  P18  1  0.539585  0.249989  -0.000002  1
  P  P19  1  0.960415  0.750002  0.500001  1
  P  P20  1  0.105678  0.393223  0.147135  1
  P  P21  1  0.105668  0.106770  0.852844  1
  P  P22  1  0.394324  0.606784  0.647169  1
  P  P23  1  0.394331  0.893213  0.352836  1
  P  P24  1  0.605678  0.106828  0.647194  1
  P  P25  1  0.605680  0.393210  0.352833  1
  P  P26  1  0.894300  0.606792  0.852856  1
  P  P27  1  0.894308  0.893200  0.147151  1
  O  O28  1  0.056672  0.642807  0.428798  1
  O  O29  1  0.056654  0.857195  0.571207  1
  O  O30  1  0.072791  0.895490  0.155992  1
  O  O31  1  0.072834  0.604539  0.843941  1
  O  O32  1  0.147005  0.162441  0.579641  1
  O  O33  1  0.147006  0.337564  0.420365  1
  O  O34  1  0.156217  0.433931  0.030689  1
  O  O35  1  0.156175  0.066099  0.969309  1
  O  O36  1  0.162167  0.232454  0.179809  1
  O  O37  1  0.162099  0.267513  0.820177  1
  O  O38  1  0.174578  0.513920  0.225706  1
  O  O39  1  0.174558  0.986051  0.774296  1
  O  O40  1  0.325386  0.013952  0.274277  1
  O  O41  1  0.325399  0.486023  0.725731  1
  O  O42  1  0.337825  0.767556  0.679837  1
  O  O43  1  0.337829  0.732450  0.320176  1
  O  O44  1  0.343796  0.566081  0.530703  1
  O  O45  1  0.343800  0.933918  0.469300  1
  O  O46  1  0.353000  0.837579  0.079646  1
  O  O47  1  0.353036  0.662486  0.920306  1
  O  O48  1  0.427194  0.104506  0.656096  1
  O  O49  1  0.427180  0.395505  0.343940  1
  O  O50  1  0.443367  0.142813  0.071202  1
  O  O51  1  0.443382  0.357130  0.928758  1
  O  O52  1  0.556656  0.642809  0.071242  1
  O  O53  1  0.556728  0.857167  0.928778  1
  O  O54  1  0.572848  0.604484  0.656059  1
  O  O55  1  0.572838  0.895522  0.343941  1
  O  O56  1  0.647013  0.337520  0.079618  1
  O  O57  1  0.647017  0.162407  0.920384  1
  O  O58  1  0.656218  0.066052  0.530746  1
  O  O59  1  0.656209  0.433918  0.469290  1
  O  O60  1  0.662191  0.232443  0.320193  1
  O  O61  1  0.662215  0.267556  0.679830  1
  O  O62  1  0.674580  0.513957  0.274285  1
  O  O63  1  0.674586  0.986082  0.725760  1
  O  O64  1  0.825400  0.013953  0.225669  1
  O  O65  1  0.825403  0.486059  0.774289  1
  O  O66  1  0.837807  0.732479  0.179805  1
  O  O67  1  0.837784  0.767565  0.820200  1
  O  O68  1  0.843784  0.566091  0.969321  1
  O  O69  1  0.843755  0.933873  0.030678  1
  O  O70  1  0.852977  0.662449  0.579657  1
  O  O71  1  0.852976  0.837561  0.420353  1
  O  O72  1  0.927187  0.104455  0.843959  1
  O  O73  1  0.927197  0.395490  0.156037  1
  O  O74  1  0.943346  0.142832  0.428805  1
  O  O75  1  0.943338  0.357171  0.571205  1
