# generated using pymatgen
data_B12H21C4S2I
_symmetry_space_group_name_H-M   'P 1'
_cell_length_a   9.83246250
_cell_length_b   14.10152981
_cell_length_c   13.27335276
_cell_angle_alpha   90.00000000
_cell_angle_beta   108.94954292
_cell_angle_gamma   90.00000000
_symmetry_Int_Tables_number   1
_chemical_formula_structural   B12H21C4S2I
_chemical_formula_sum   'B48 H84 C16 S8 I4'
_cell_volume   1740.64710753
_cell_formula_units_Z   4
loop_
 _symmetry_equiv_pos_site_id
 _symmetry_equiv_pos_as_xyz
  1  'x, y, z'
loop_
 _atom_site_type_symbol
 _atom_site_label
 _atom_site_symmetry_multiplicity
 _atom_site_fract_x
 _atom_site_fract_y
 _atom_site_fract_z
 _atom_site_occupancy
  B  B0  1  0.046284  0.811349  0.732269  1
  B  B1  1  0.032115  0.118203  0.384792  1
  B  B2  1  0.005735  0.069772  0.256733  1
  B  B3  1  0.088067  0.237385  0.379115  1
  B  B4  1  0.037888  0.156978  0.171349  1
  B  B5  1  0.089990  0.262619  0.248274  1
  B  B6  1  0.165467  0.043570  0.361070  1
  B  B7  1  0.218275  0.149008  0.438037  1
  B  B8  1  0.169226  0.067170  0.228766  1
  B  B9  1  0.253379  0.238720  0.352947  1
  B  B10  1  0.453716  0.311349  0.767731  1
  B  B11  1  0.222603  0.188134  0.223991  1
  B  B12  1  0.202446  0.618911  0.159886  1
  B  B13  1  0.532115  0.381797  0.884792  1
  B  B14  1  0.297554  0.118911  0.340114  1
  B  B15  1  0.277397  0.688134  0.276009  1
  B  B16  1  0.505735  0.430228  0.756733  1
  B  B17  1  0.246621  0.738720  0.147053  1
  B  B18  1  0.588067  0.262615  0.879115  1
  B  B19  1  0.330774  0.567171  0.271234  1
  B  B20  1  0.537888  0.343022  0.671349  1
  B  B21  1  0.281725  0.649008  0.061963  1
  B  B22  1  0.589990  0.237381  0.748274  1
  B  B23  1  0.334533  0.543570  0.138930  1
  B  B24  1  0.665467  0.456430  0.861070  1
  B  B25  1  0.410010  0.762619  0.251726  1
  B  B26  1  0.718275  0.350992  0.938037  1
  B  B27  1  0.462112  0.656978  0.328651  1
  B  B28  1  0.669226  0.432829  0.728766  1
  B  B29  1  0.411933  0.737385  0.120885  1
  B  B30  1  0.753379  0.261280  0.852947  1
  B  B31  1  0.494265  0.569772  0.243267  1
  B  B32  1  0.722603  0.311866  0.723991  1
  B  B33  1  0.702446  0.881089  0.659886  1
  B  B34  1  0.467885  0.618203  0.115208  1
  B  B35  1  0.797554  0.381089  0.840114  1
  B  B36  1  0.777397  0.811866  0.776009  1
  B  B37  1  0.546284  0.688651  0.232269  1
  B  B38  1  0.746621  0.761280  0.647053  1
  B  B39  1  0.830774  0.932829  0.771234  1
  B  B40  1  0.781725  0.850992  0.561963  1
  B  B41  1  0.834533  0.956430  0.638930  1
  B  B42  1  0.910010  0.737381  0.751726  1
  B  B43  1  0.962112  0.843022  0.828651  1
  B  B44  1  0.911933  0.762615  0.620885  1
  B  B45  1  0.994265  0.930228  0.743267  1
  B  B46  1  0.967885  0.881797  0.615208  1
  B  B47  1  0.953716  0.188651  0.267731  1
  H  H48  1  0.026628  0.842808  0.922121  1
  H  H49  1  0.020509  0.071495  0.919666  1
  H  H50  1  0.071077  0.267600  0.901973  1
  H  H51  1  0.012885  0.368950  0.721084  1
  H  H52  1  0.170469  0.993790  0.981810  1
  H  H53  1  0.204288  0.114640  0.957692  1
  H  H54  1  0.213549  0.350318  0.966658  1
  H  H55  1  0.036271  0.906991  0.559868  1
  H  H56  1  0.215457  0.646769  0.968797  1
  H  H57  1  0.087292  0.115908  0.643209  1
  H  H58  1  0.154000  0.450731  0.789035  1
  H  H59  1  0.158974  0.184894  0.761394  1
  H  H60  1  0.170150  0.788737  0.758605  1
  H  H61  1  0.020983  0.505201  0.282778  1
  H  H62  1  0.026460  0.855883  0.278502  1
  H  H63  1  0.063539  0.340509  0.210828  1
  H  H64  1  0.329850  0.288737  0.741395  1
  H  H65  1  0.194649  0.966919  0.400562  1
  H  H66  1  0.341026  0.684894  0.738606  1
  H  H67  1  0.346000  0.950731  0.710965  1
  H  H68  1  0.412708  0.615908  0.856791  1
  H  H69  1  0.284543  0.146769  0.531203  1
  H  H70  1  0.463730  0.406991  0.940132  1
  H  H71  1  0.286451  0.850318  0.533342  1
  H  H72  1  0.295712  0.614640  0.542308  1
  H  H73  1  0.208854  0.711396  0.332012  1
  H  H74  1  0.081495  0.319399  0.027920  1
  H  H75  1  0.329531  0.493790  0.518190  1
  H  H76  1  0.157008  0.798010  0.111200  1
  H  H77  1  0.198400  0.005990  0.176648  1
  H  H78  1  0.487115  0.868950  0.778916  1
  H  H79  1  0.301600  0.505990  0.323352  1
  H  H80  1  0.428923  0.767600  0.598027  1
  H  H81  1  0.342992  0.298010  0.388800  1
  H  H82  1  0.520983  0.994799  0.782778  1
  H  H83  1  0.526460  0.644117  0.778502  1
  H  H84  1  0.418505  0.819399  0.472080  1
  H  H85  1  0.291146  0.211396  0.167988  1
  H  H86  1  0.479491  0.571495  0.580334  1
  H  H87  1  0.473372  0.342808  0.577879  1
  H  H88  1  0.563539  0.159491  0.710828  1
  H  H89  1  0.305351  0.466919  0.099438  1
  H  H90  1  0.694649  0.533081  0.900562  1
  H  H91  1  0.436461  0.840509  0.289172  1
  H  H92  1  0.526628  0.657192  0.422121  1
  H  H93  1  0.520509  0.428505  0.419666  1
  H  H94  1  0.708854  0.788604  0.832012  1
  H  H95  1  0.581495  0.180601  0.527920  1
  H  H96  1  0.473540  0.355883  0.221498  1
  H  H97  1  0.479017  0.005201  0.217222  1
  H  H98  1  0.657008  0.701990  0.611200  1
  H  H99  1  0.571077  0.232400  0.401973  1
  H  H100  1  0.698400  0.494010  0.676648  1
  H  H101  1  0.512885  0.131050  0.221084  1
  H  H102  1  0.801600  0.994010  0.823352  1
  H  H103  1  0.842992  0.201990  0.888800  1
  H  H104  1  0.670469  0.506210  0.481810  1
  H  H105  1  0.918505  0.680601  0.972080  1
  H  H106  1  0.791146  0.288604  0.667988  1
  H  H107  1  0.704288  0.385360  0.457692  1
  H  H108  1  0.713549  0.149682  0.466658  1
  H  H109  1  0.536270  0.593009  0.059868  1
  H  H110  1  0.715457  0.853231  0.468797  1
  H  H111  1  0.587292  0.384092  0.143209  1
  H  H112  1  0.654000  0.049269  0.289035  1
  H  H113  1  0.658974  0.315106  0.261394  1
  H  H114  1  0.805351  0.033081  0.599438  1
  H  H115  1  0.670150  0.711263  0.258605  1
  H  H116  1  0.936461  0.659491  0.789172  1
  H  H117  1  0.973540  0.144117  0.721498  1
  H  H118  1  0.979017  0.494799  0.717222  1
  H  H119  1  0.829850  0.211263  0.241395  1
  H  H120  1  0.841026  0.815106  0.238606  1
  H  H121  1  0.846000  0.549269  0.210965  1
  H  H122  1  0.912708  0.884092  0.356791  1
  H  H123  1  0.784543  0.353231  0.031203  1
  H  H124  1  0.963730  0.093009  0.440132  1
  H  H125  1  0.786451  0.649682  0.033342  1
  H  H126  1  0.795712  0.885360  0.042308  1
  H  H127  1  0.829531  0.006210  0.018190  1
  H  H128  1  0.987115  0.631050  0.278916  1
  H  H129  1  0.928923  0.732400  0.098027  1
  H  H130  1  0.979491  0.928505  0.080334  1
  H  H131  1  0.973372  0.157192  0.077879  1
  C  C132  1  0.100884  0.331017  0.952083  1
  C  C133  1  0.038667  0.435849  0.765454  1
  C  C134  1  0.132115  0.054136  0.928014  1
  C  C135  1  0.083407  0.127861  0.723930  1
  C  C136  1  0.416593  0.627861  0.776070  1
  C  C137  1  0.367884  0.554136  0.571986  1
  C  C138  1  0.461333  0.935849  0.734546  1
  C  C139  1  0.399116  0.831017  0.547917  1
  C  C140  1  0.600884  0.168983  0.452083  1
  C  C141  1  0.538667  0.064151  0.265454  1
  C  C142  1  0.632115  0.445864  0.428014  1
  C  C143  1  0.583407  0.372139  0.223930  1
  C  C144  1  0.916593  0.872139  0.276070  1
  C  C145  1  0.867885  0.945864  0.071986  1
  C  C146  1  0.961333  0.564151  0.234546  1
  C  C147  1  0.899116  0.668983  0.047917  1
  S  S148  1  0.144701  0.021001  0.800054  1
  S  S149  1  0.009785  0.571127  0.115048  1
  S  S150  1  0.355299  0.521001  0.699946  1
  S  S151  1  0.509785  0.928873  0.615048  1
  S  S152  1  0.490215  0.071127  0.384952  1
  S  S153  1  0.644701  0.478999  0.300054  1
  S  S154  1  0.990215  0.428873  0.884952  1
  S  S155  1  0.855299  0.978999  0.199946  1
  I  I156  1  0.034935  0.349652  0.477326  1
  I  I157  1  0.534935  0.150348  0.977326  1
  I  I158  1  0.465065  0.849652  0.022674  1
  I  I159  1  0.965065  0.650348  0.522674  1
