# generated using pymatgen
data_SiH9C3Cl
_symmetry_space_group_name_H-M   'P 1'
_cell_length_a   6.61272113
_cell_length_b   7.97884934
_cell_length_c   6.90394519
_cell_angle_alpha   90.00000000
_cell_angle_beta   91.09588687
_cell_angle_gamma   90.00000000
_symmetry_Int_Tables_number   1
_chemical_formula_structural   SiH9C3Cl
_chemical_formula_sum   'Si2 H18 C6 Cl2'
_cell_volume   364.19867564
_cell_formula_units_Z   2
loop_
 _symmetry_equiv_pos_site_id
 _symmetry_equiv_pos_as_xyz
  1  'x, y, z'
loop_
 _atom_site_type_symbol
 _atom_site_label
 _atom_site_symmetry_multiplicity
 _atom_site_fract_x
 _atom_site_fract_y
 _atom_site_fract_z
 _atom_site_occupancy
  Si  Si0  1  0.685197  0.250000  0.314416  1
  Si  Si1  1  0.314803  0.750000  0.685584  1
  H  H2  1  0.702971  0.052742  0.035486  1
  H  H3  1  0.702971  0.447259  0.035486  1
  H  H4  1  0.927960  0.046420  0.180716  1
  H  H5  1  0.927960  0.453581  0.180716  1
  H  H6  1  0.706067  0.556959  0.260217  1
  H  H7  1  0.706067  0.943041  0.260217  1
  H  H8  1  0.289332  0.638094  0.350967  1
  H  H9  1  0.289332  0.861905  0.350967  1
  H  H10  1  0.066338  0.750000  0.411231  1
  H  H11  1  0.933661  0.250000  0.588769  1
  H  H12  1  0.710668  0.138095  0.649033  1
  H  H13  1  0.710668  0.361906  0.649033  1
  H  H14  1  0.293934  0.056959  0.739783  1
  H  H15  1  0.293934  0.443041  0.739783  1
  H  H16  1  0.072040  0.546419  0.819283  1
  H  H17  1  0.072040  0.953580  0.819283  1
  H  H18  1  0.297029  0.552741  0.964514  1
  H  H19  1  0.297029  0.947258  0.964514  1
  C  C20  1  0.761989  0.054873  0.185273  1
  C  C21  1  0.761989  0.445128  0.185273  1
  C  C22  1  0.232426  0.750000  0.425012  1
  C  C23  1  0.767574  0.250000  0.574988  1
  C  C24  1  0.238011  0.554872  0.814727  1
  C  C25  1  0.238011  0.945126  0.814727  1
  Cl  Cl26  1  0.364821  0.250000  0.315010  1
  Cl  Cl27  1  0.635179  0.750000  0.684990  1
