# generated using pymatgen
data_Li3Mn2(P2O7)2
_symmetry_space_group_name_H-M   'P 1'
_cell_length_a   9.84863824
_cell_length_b   9.87021663
_cell_length_c   11.34084857
_cell_angle_alpha   90.09688901
_cell_angle_beta   103.01728940
_cell_angle_gamma   89.41707014
_symmetry_Int_Tables_number   1
_chemical_formula_structural   Li3Mn2(P2O7)2
_chemical_formula_sum   'Li12 Mn8 P16 O56'
_cell_volume   1074.03768077
_cell_formula_units_Z   4
loop_
 _symmetry_equiv_pos_site_id
 _symmetry_equiv_pos_as_xyz
  1  'x, y, z'
loop_
 _atom_site_type_symbol
 _atom_site_label
 _atom_site_symmetry_multiplicity
 _atom_site_fract_x
 _atom_site_fract_y
 _atom_site_fract_z
 _atom_site_occupancy
  Li  Li0  1  0.115654  0.711706  0.450894  1
  Li  Li1  1  0.088953  0.107567  0.026123  1
  Li  Li2  1  0.411472  0.610183  0.972868  1
  Li  Li3  1  0.336441  0.919719  0.459298  1
  Li  Li4  1  0.377529  0.225640  0.550487  1
  Li  Li5  1  0.659996  0.066113  0.537284  1
  Li  Li6  1  0.585872  0.393575  0.030215  1
  Li  Li7  1  0.852176  0.588063  0.955331  1
  Li  Li8  1  0.648346  0.089912  0.043535  1
  Li  Li9  1  0.913577  0.893859  0.970402  1
  Li  Li10  1  0.825981  0.581559  0.454068  1
  Li  Li11  1  0.893304  0.280067  0.551095  1
  Mn  Mn12  1  0.204313  0.919496  0.677495  1
  Mn  Mn13  1  0.256641  0.213811  0.825086  1
  Mn  Mn14  1  0.244746  0.713893  0.174859  1
  Mn  Mn15  1  0.294987  0.426685  0.327426  1
  Mn  Mn16  1  0.704692  0.578388  0.673983  1
  Mn  Mn17  1  0.759331  0.285137  0.826327  1
  Mn  Mn18  1  0.739655  0.782820  0.174523  1
  Mn  Mn19  1  0.797075  0.074717  0.326264  1
  P  P20  1  0.025529  0.451604  0.753573  1
  P  P21  1  0.119257  0.708498  0.889442  1
  P  P22  1  0.059714  0.929477  0.241605  1
  P  P23  1  0.123645  0.149896  0.424561  1
  P  P24  1  0.379232  0.644077  0.572741  1
  P  P25  1  0.440492  0.430663  0.758921  1
  P  P26  1  0.523183  0.050724  0.759676  1
  P  P27  1  0.379038  0.211413  0.112157  1
  P  P28  1  0.616459  0.793781  0.890662  1
  P  P29  1  0.474260  0.950078  0.246188  1
  P  P30  1  0.561319  0.570204  0.242464  1
  P  P31  1  0.620901  0.351132  0.424358  1
  P  P32  1  0.878841  0.849375  0.575932  1
  P  P33  1  0.939026  0.068975  0.755867  1
  P  P34  1  0.882691  0.292852  0.110391  1
  P  P35  1  0.974442  0.549210  0.240738  1
  O  O36  1  0.015023  0.421749  0.622676  1
  O  O37  1  0.031112  0.837536  0.561342  1
  O  O38  1  0.085207  0.087268  0.729758  1
  O  O39  1  0.110008  0.348851  0.844287  1
  O  O40  1  0.101411  0.594371  0.783069  1
  O  O41  1  0.174027  0.829414  0.833033  1
  O  O42  1  0.228011  0.651192  0.000197  1
  O  O43  1  0.019325  0.266118  0.079142  1
  O  O44  1  0.115143  0.074315  0.295413  1
  O  O45  1  0.063824  0.933154  0.109262  1
  O  O46  1  0.128269  0.542597  0.220314  1
  O  O47  1  0.193456  0.283637  0.413541  1
  O  O48  1  0.166967  0.821418  0.308627  1
  O  O49  1  0.221376  0.060343  0.520201  1
  O  O50  1  0.283601  0.569067  0.468017  1
  O  O51  1  0.344487  0.313749  0.700381  1
  O  O52  1  0.315434  0.785465  0.581995  1
  O  O53  1  0.369630  0.043562  0.780748  1
  O  O54  1  0.372943  0.570345  0.698423  1
  O  O55  1  0.440593  0.440559  0.891139  1
  O  O56  1  0.479554  0.768876  0.921020  1
  O  O57  1  0.270940  0.157156  0.000555  1
  O  O58  1  0.323680  0.331841  0.172378  1
  O  O59  1  0.397440  0.094394  0.214884  1
  O  O60  1  0.416603  0.589893  0.270722  1
  O  O61  1  0.390877  0.846925  0.156874  1
  O  O62  1  0.521871  0.088738  0.629614  1
  O  O63  1  0.469714  0.344569  0.440906  1
  O  O64  1  0.532845  0.650589  0.566749  1
  O  O65  1  0.480585  0.928430  0.378041  1
  O  O66  1  0.610712  0.141137  0.856908  1
  O  O67  1  0.586859  0.416858  0.729250  1
  O  O68  1  0.590720  0.901769  0.777430  1
  O  O69  1  0.688120  0.673547  0.841832  1
  O  O70  1  0.722204  0.863588  0.997802  1
  O  O71  1  0.518748  0.228399  0.079371  1
  O  O72  1  0.561632  0.563573  0.109364  1
  O  O73  1  0.616330  0.420795  0.295471  1
  O  O74  1  0.622676  0.961413  0.215032  1
  O  O75  1  0.682174  0.209099  0.418000  1
  O  O76  1  0.671411  0.671774  0.306772  1
  O  O77  1  0.720761  0.435678  0.519389  1
  O  O78  1  0.787063  0.939639  0.481677  1
  O  O79  1  0.834156  0.175268  0.686686  1
  O  O80  1  0.821726  0.707038  0.588965  1
  O  O81  1  0.875195  0.468102  0.784680  1
  O  O82  1  0.934189  0.066655  0.888356  1
  O  O83  1  0.883714  0.921206  0.705646  1
  O  O84  1  0.979136  0.725854  0.921838  1
  O  O85  1  0.776637  0.364747  0.004277  1
  O  O86  1  0.811540  0.173303  0.158767  1
  O  O87  1  0.908941  0.400864  0.223911  1
  O  O88  1  0.887344  0.640276  0.140742  1
  O  O89  1  0.914659  0.909006  0.267999  1
  O  O90  1  0.973673  0.162028  0.440138  1
  O  O91  1  0.971539  0.591482  0.368004  1
