# generated using pymatgen
data_Li5Mn6(BO3)6
_symmetry_space_group_name_H-M   'P 1'
_cell_length_a   8.24527383
_cell_length_b   8.28778715
_cell_length_c   12.73864475
_cell_angle_alpha   90.00000000
_cell_angle_beta   90.00000000
_cell_angle_gamma   60.09856331
_symmetry_Int_Tables_number   1
_chemical_formula_structural   Li5Mn6(BO3)6
_chemical_formula_sum   'Li10 Mn12 B12 O36'
_cell_volume   754.61947805
_cell_formula_units_Z   2
loop_
 _symmetry_equiv_pos_site_id
 _symmetry_equiv_pos_as_xyz
  1  'x, y, z'
loop_
 _atom_site_type_symbol
 _atom_site_label
 _atom_site_symmetry_multiplicity
 _atom_site_fract_x
 _atom_site_fract_y
 _atom_site_fract_z
 _atom_site_occupancy
  Li  Li0  1  0.279865  0.699470  0.125000  1
  Li  Li1  1  0.280726  0.702174  0.372905  1
  Li  Li2  1  0.280726  0.702174  0.877096  1
  Li  Li3  1  0.016895  0.281446  0.625000  1
  Li  Li4  1  0.017390  0.280960  0.376262  1
  Li  Li5  1  0.017390  0.280960  0.873738  1
  Li  Li6  1  0.702540  0.016554  0.125000  1
  Li  Li7  1  0.702228  0.016401  0.375742  1
  Li  Li8  1  0.700001  0.021057  0.625000  1
  Li  Li9  1  0.702228  0.016401  0.874258  1
  Mn  Mn10  1  0.364306  0.997620  0.000828  1
  Mn  Mn11  1  0.364306  0.997620  0.249172  1
  Mn  Mn12  1  0.368403  0.980983  0.501407  1
  Mn  Mn13  1  0.368403  0.980983  0.748593  1
  Mn  Mn14  1  0.651734  0.367163  0.001651  1
  Mn  Mn15  1  0.651734  0.367163  0.248349  1
  Mn  Mn16  1  0.630299  0.382680  0.501077  1
  Mn  Mn17  1  0.630299  0.382680  0.748923  1
  Mn  Mn18  1  0.999294  0.639055  0.501183  1
  Mn  Mn19  1  0.987828  0.630546  0.001162  1
  Mn  Mn20  1  0.987828  0.630546  0.248838  1
  Mn  Mn21  1  0.999294  0.639055  0.748817  1
  B  B22  1  0.994073  0.006686  0.496544  1
  B  B23  1  0.000476  0.993072  0.996479  1
  B  B24  1  0.000476  0.993072  0.253521  1
  B  B25  1  0.994073  0.006686  0.753456  1
  B  B26  1  0.335580  0.331217  0.874945  1
  B  B27  1  0.338033  0.324846  0.625000  1
  B  B28  1  0.335580  0.331217  0.375055  1
  B  B29  1  0.336549  0.337747  0.125000  1
  B  B30  1  0.667290  0.666752  0.374944  1
  B  B31  1  0.659369  0.673380  0.125000  1
  B  B32  1  0.672114  0.668428  0.625000  1
  B  B33  1  0.667290  0.666752  0.875056  1
  O  O34  1  0.110319  0.799113  0.247161  1
  O  O35  1  0.101267  0.817256  0.764561  1
  O  O36  1  0.110319  0.799113  0.002839  1
  O  O37  1  0.101267  0.817256  0.485439  1
  O  O38  1  0.465223  0.790556  0.125000  1
  O  O39  1  0.481584  0.781008  0.625000  1
  O  O40  1  0.474033  0.779456  0.374670  1
  O  O41  1  0.474033  0.779456  0.875330  1
  O  O42  1  0.144608  0.456802  0.125000  1
  O  O43  1  0.141282  0.440224  0.875509  1
  O  O44  1  0.141282  0.440224  0.374491  1
  O  O45  1  0.145184  0.438597  0.625000  1
  O  O46  1  0.077157  0.118204  0.502188  1
  O  O47  1  0.083041  0.100788  0.985296  1
  O  O48  1  0.083041  0.100788  0.264704  1
  O  O49  1  0.077157  0.118204  0.747812  1
  O  O50  1  0.444077  0.416681  0.875940  1
  O  O51  1  0.457080  0.397158  0.625000  1
  O  O52  1  0.444077  0.416681  0.374060  1
  O  O53  1  0.451896  0.415263  0.125000  1
  O  O54  1  0.777207  0.749990  0.125000  1
  O  O55  1  0.782876  0.744416  0.372509  1
  O  O56  1  0.782876  0.744416  0.877491  1
  O  O57  1  0.789982  0.744880  0.625000  1
  O  O58  1  0.736979  0.483155  0.125000  1
  O  O59  1  0.746817  0.473088  0.377699  1
  O  O60  1  0.748881  0.474450  0.625000  1
  O  O61  1  0.746817  0.473088  0.872301  1
  O  O62  1  0.415052  0.146028  0.125000  1
  O  O63  1  0.415370  0.132750  0.625000  1
  O  O64  1  0.419000  0.138653  0.873360  1
  O  O65  1  0.419000  0.138653  0.376640  1
  O  O66  1  0.804941  0.076795  0.999530  1
  O  O67  1  0.804941  0.076795  0.250470  1
  O  O68  1  0.798391  0.091388  0.500186  1
  O  O69  1  0.798391  0.091388  0.749814  1
