# generated using pymatgen
data_LiB3P(HO3)3
_symmetry_space_group_name_H-M   'P 1'
_cell_length_a   11.61224982
_cell_length_b   8.88380586
_cell_length_c   14.00505209
_cell_angle_alpha   90.00000000
_cell_angle_beta   90.00000000
_cell_angle_gamma   90.00000000
_symmetry_Int_Tables_number   1
_chemical_formula_structural   LiB3P(HO3)3
_chemical_formula_sum   'Li8 B24 P8 H24 O72'
_cell_volume   1444.77480050
_cell_formula_units_Z   8
loop_
 _symmetry_equiv_pos_site_id
 _symmetry_equiv_pos_as_xyz
  1  'x, y, z'
loop_
 _atom_site_type_symbol
 _atom_site_label
 _atom_site_symmetry_multiplicity
 _atom_site_fract_x
 _atom_site_fract_y
 _atom_site_fract_z
 _atom_site_occupancy
  Li  Li0  1  0.000000  0.179923  0.250000  1
  Li  Li1  1  0.000000  0.486883  0.250000  1
  Li  Li2  1  0.000000  0.513117  0.750000  1
  Li  Li3  1  0.000000  0.820077  0.750000  1
  Li  Li4  1  0.500000  0.679923  0.250000  1
  Li  Li5  1  0.500000  0.013117  0.750000  1
  Li  Li6  1  0.500000  0.320077  0.750000  1
  Li  Li7  1  0.500000  0.986883  0.250000  1
  B  B8  1  0.146740  0.031381  0.081537  1
  B  B9  1  0.146740  0.968619  0.581537  1
  B  B10  1  0.145228  0.530700  0.074960  1
  B  B11  1  0.145228  0.469300  0.574960  1
  B  B12  1  0.244291  0.089146  0.442418  1
  B  B13  1  0.244291  0.910854  0.942418  1
  B  B14  1  0.255709  0.410854  0.942418  1
  B  B15  1  0.255709  0.589146  0.442418  1
  B  B16  1  0.354772  0.030700  0.074960  1
  B  B17  1  0.354772  0.969300  0.574960  1
  B  B18  1  0.353260  0.531381  0.081537  1
  B  B19  1  0.353260  0.468618  0.581537  1
  B  B20  1  0.646740  0.468618  0.918463  1
  B  B21  1  0.646740  0.531381  0.418463  1
  B  B22  1  0.645228  0.030700  0.425040  1
  B  B23  1  0.645228  0.969300  0.925040  1
  B  B24  1  0.744291  0.410854  0.557582  1
  B  B25  1  0.744291  0.589146  0.057582  1
  B  B26  1  0.755709  0.089146  0.057582  1
  B  B27  1  0.755709  0.910854  0.557582  1
  B  B28  1  0.854772  0.469300  0.925040  1
  B  B29  1  0.854772  0.530700  0.425040  1
  B  B30  1  0.853260  0.031381  0.418463  1
  B  B31  1  0.853260  0.968619  0.918463  1
  P  P32  1  0.230887  0.342013  0.326017  1
  P  P33  1  0.230887  0.657987  0.826017  1
  P  P34  1  0.269113  0.157987  0.826017  1
  P  P35  1  0.269113  0.842013  0.326017  1
  P  P36  1  0.730887  0.157987  0.673983  1
  P  P37  1  0.730887  0.842013  0.173983  1
  P  P38  1  0.769113  0.342013  0.173983  1
  P  P39  1  0.769113  0.657987  0.673983  1
  H  H40  1  0.979327  0.062839  0.084460  1
  H  H41  1  0.979327  0.937161  0.584460  1
  H  H42  1  0.025167  0.562799  0.422602  1
  H  H43  1  0.025167  0.437201  0.922602  1
  H  H44  1  0.205910  0.285386  0.703734  1
  H  H45  1  0.205910  0.714614  0.203734  1
  H  H46  1  0.294090  0.214614  0.203734  1
  H  H47  1  0.294090  0.785386  0.703734  1
  H  H48  1  0.474833  0.062799  0.422602  1
  H  H49  1  0.474833  0.937201  0.922602  1
  H  H50  1  0.520673  0.562839  0.084460  1
  H  H51  1  0.520673  0.437161  0.584460  1
  H  H52  1  0.479327  0.437161  0.915540  1
  H  H53  1  0.479327  0.562839  0.415540  1
  H  H54  1  0.525167  0.062799  0.077398  1
  H  H55  1  0.525167  0.937201  0.577398  1
  H  H56  1  0.705910  0.785386  0.796266  1
  H  H57  1  0.705910  0.214614  0.296266  1
  H  H58  1  0.794090  0.285386  0.796266  1
  H  H59  1  0.794090  0.714614  0.296266  1
  H  H60  1  0.974833  0.437201  0.577398  1
  H  H61  1  0.974833  0.562799  0.077398  1
  H  H62  1  0.020673  0.062839  0.415540  1
  H  H63  1  0.020673  0.937161  0.915540  1
  O  O64  1  0.044446  0.571943  0.119015  1
  O  O65  1  0.044446  0.428057  0.619015  1
  O  O66  1  0.047866  0.082322  0.124876  1
  O  O67  1  0.047866  0.917678  0.624876  1
  O  O68  1  0.110134  0.332451  0.287036  1
  O  O69  1  0.110134  0.667549  0.787036  1
  O  O70  1  0.142663  0.943874  0.001331  1
  O  O71  1  0.142663  0.056126  0.501331  1
  O  O72  1  0.147197  0.548642  0.491280  1
  O  O73  1  0.147197  0.451358  0.991280  1
  O  O74  1  0.176845  0.791576  0.249666  1
  O  O75  1  0.176845  0.208424  0.749666  1
  O  O76  1  0.232780  0.006404  0.350180  1
  O  O77  1  0.232780  0.993596  0.850180  1
  O  O78  1  0.247969  0.251515  0.420626  1
  O  O79  1  0.247969  0.748485  0.920626  1
  O  O80  1  0.246990  0.426974  0.621235  1
  O  O81  1  0.246990  0.573026  0.121234  1
  O  O82  1  0.253010  0.073026  0.121234  1
  O  O83  1  0.253010  0.926974  0.621235  1
  O  O84  1  0.252031  0.751515  0.420626  1
  O  O85  1  0.252031  0.248485  0.920626  1
  O  O86  1  0.267220  0.493596  0.850180  1
  O  O87  1  0.267220  0.506404  0.350180  1
  O  O88  1  0.323155  0.291576  0.249666  1
  O  O89  1  0.323155  0.708424  0.749666  1
  O  O90  1  0.352803  0.048642  0.491280  1
  O  O91  1  0.352803  0.951358  0.991280  1
  O  O92  1  0.357337  0.556126  0.501331  1
  O  O93  1  0.357337  0.443874  0.001331  1
  O  O94  1  0.389866  0.832451  0.287036  1
  O  O95  1  0.389866  0.167549  0.787036  1
  O  O96  1  0.452134  0.582322  0.124876  1
  O  O97  1  0.452134  0.417678  0.624876  1
  O  O98  1  0.455554  0.071943  0.119015  1
  O  O99  1  0.455554  0.928057  0.619015  1
  O  O100  1  0.544446  0.071943  0.380985  1
  O  O101  1  0.544446  0.928057  0.880985  1
  O  O102  1  0.547866  0.582322  0.375124  1
  O  O103  1  0.547866  0.417678  0.875124  1
  O  O104  1  0.610134  0.832451  0.212964  1
  O  O105  1  0.610134  0.167549  0.712964  1
  O  O106  1  0.642663  0.443874  0.498669  1
  O  O107  1  0.642663  0.556126  0.998669  1
  O  O108  1  0.647197  0.048642  0.008720  1
  O  O109  1  0.647197  0.951358  0.508720  1
  O  O110  1  0.676845  0.291576  0.250334  1
  O  O111  1  0.676845  0.708424  0.750334  1
  O  O112  1  0.732780  0.493596  0.649820  1
  O  O113  1  0.732780  0.506404  0.149820  1
  O  O114  1  0.747969  0.248485  0.579374  1
  O  O115  1  0.747969  0.751515  0.079374  1
  O  O116  1  0.746990  0.926974  0.878765  1
  O  O117  1  0.746990  0.073026  0.378766  1
  O  O118  1  0.753010  0.426974  0.878765  1
  O  O119  1  0.753010  0.573026  0.378766  1
  O  O120  1  0.752031  0.251515  0.079374  1
  O  O121  1  0.752031  0.748485  0.579374  1
  O  O122  1  0.767220  0.006404  0.149820  1
  O  O123  1  0.767220  0.993596  0.649820  1
  O  O124  1  0.823155  0.208424  0.750334  1
  O  O125  1  0.823155  0.791576  0.250334  1
  O  O126  1  0.852803  0.451358  0.508720  1
  O  O127  1  0.852803  0.548642  0.008720  1
  O  O128  1  0.857337  0.056126  0.998669  1
  O  O129  1  0.857337  0.943874  0.498669  1
  O  O130  1  0.889866  0.332451  0.212964  1
  O  O131  1  0.889866  0.667549  0.712964  1
  O  O132  1  0.952134  0.082322  0.375124  1
  O  O133  1  0.952134  0.917678  0.875124  1
  O  O134  1  0.955554  0.428057  0.880985  1
  O  O135  1  0.955554  0.571943  0.380985  1
