# generated using pymatgen
data_Rb2MnS2
_symmetry_space_group_name_H-M   'P 1'
_cell_length_a   6.42450747
_cell_length_b   7.15407029
_cell_length_c   8.20710646
_cell_angle_alpha   115.83914321
_cell_angle_beta   113.04158090
_cell_angle_gamma   89.99999998
_symmetry_Int_Tables_number   1
_chemical_formula_structural   Rb2MnS2
_chemical_formula_sum   'Rb4 Mn2 S4'
_cell_volume   305.71345215
_cell_formula_units_Z   2
loop_
 _symmetry_equiv_pos_site_id
 _symmetry_equiv_pos_as_xyz
  1  'x, y, z'
loop_
 _atom_site_type_symbol
 _atom_site_label
 _atom_site_symmetry_multiplicity
 _atom_site_fract_x
 _atom_site_fract_y
 _atom_site_fract_z
 _atom_site_occupancy
  S  S0  1  0.401491  0.718864  0.802982  1
  S  S1  1  0.598509  0.281136  0.197018  1
  S  S2  1  0.098509  0.915882  0.197018  1
  S  S3  1  0.901491  0.084118  0.802982  1
  Mn  Mn4  1  0.250000  0.000000  0.000000  1
  Mn  Mn5  1  0.750000  0.000000  0.000000  1
  Rb  Rb6  1  0.647650  0.808993  0.295301  1
  Rb  Rb7  1  0.352350  0.191007  0.704699  1
  Rb  Rb8  1  0.852350  0.513692  0.704699  1
  Rb  Rb9  1  0.147650  0.486308  0.295301  1
