# generated using pymatgen
data_KAl11O17
_symmetry_space_group_name_H-M   'P 1'
_cell_length_a   5.64924208
_cell_length_b   5.64925987
_cell_length_c   22.90910706
_cell_angle_alpha   89.99981600
_cell_angle_beta   90.00024913
_cell_angle_gamma   119.92570138
_symmetry_Int_Tables_number   1
_chemical_formula_structural   KAl11O17
_chemical_formula_sum   'K2 Al22 O34'
_cell_volume   633.64380613
_cell_formula_units_Z   2
loop_
 _symmetry_equiv_pos_site_id
 _symmetry_equiv_pos_as_xyz
  1  'x, y, z'
loop_
 _atom_site_type_symbol
 _atom_site_label
 _atom_site_symmetry_multiplicity
 _atom_site_fract_x
 _atom_site_fract_y
 _atom_site_fract_z
 _atom_site_occupancy
  K  K0  1  0.315536  0.684456  0.750000  1
  K  K1  1  0.684464  0.315543  0.250000  1
  Al  Al2  1  0.167420  0.832571  0.894321  1
  Al  Al3  1  0.167421  0.832572  0.605681  1
  Al  Al4  1  0.331869  0.668158  0.175255  1
  Al  Al5  1  0.333315  0.666690  0.024779  1
  Al  Al6  1  0.000000  0.000005  0.000000  1
  Al  Al7  1  0.331864  0.668163  0.324733  1
  Al  Al8  1  0.999999  0.000001  0.500000  1
  Al  Al9  1  0.333312  0.666686  0.475222  1
  Al  Al10  1  0.168339  0.334805  0.606422  1
  Al  Al11  1  0.168339  0.334806  0.893579  1
  Al  Al12  1  0.665193  0.831662  0.893578  1
  Al  Al13  1  0.665194  0.831663  0.606422  1
  Al  Al14  1  0.334807  0.168340  0.393578  1
  Al  Al15  1  0.334812  0.168343  0.106421  1
  Al  Al16  1  0.831661  0.665198  0.393579  1
  Al  Al17  1  0.668137  0.331841  0.675263  1
  Al  Al18  1  0.668136  0.331841  0.824741  1
  Al  Al19  1  0.666688  0.333318  0.524779  1
  Al  Al20  1  0.666688  0.333320  0.975222  1
  Al  Al21  1  0.831665  0.665198  0.106422  1
  Al  Al22  1  0.832583  0.167433  0.105680  1
  Al  Al23  1  0.832581  0.167432  0.394319  1
  O  O24  1  0.157008  0.842999  0.049422  1
  O  O25  1  0.157009  0.843000  0.450578  1
  O  O26  1  0.005155  0.503062  0.644684  1
  O  O27  1  0.005154  0.503063  0.855315  1
  O  O28  1  0.321498  0.678599  0.250010  1
  O  O29  1  0.157213  0.314192  0.450430  1
  O  O30  1  0.999793  0.000215  0.140923  1
  O  O31  1  0.999788  0.000215  0.359077  1
  O  O32  1  0.334023  0.665973  0.555216  1
  O  O33  1  0.000211  0.999788  0.859077  1
  O  O34  1  0.000213  0.999788  0.640923  1
  O  O35  1  0.334025  0.665972  0.944783  1
  O  O36  1  0.157217  0.314196  0.049570  1
  O  O37  1  0.496926  0.994834  0.855317  1
  O  O38  1  0.496925  0.994830  0.644683  1
  O  O39  1  0.314193  0.157222  0.549569  1
  O  O40  1  0.314191  0.157222  0.950431  1
  O  O41  1  0.497991  0.502010  0.645849  1
  O  O42  1  0.497992  0.502008  0.854150  1
  O  O43  1  0.502009  0.497993  0.354151  1
  O  O44  1  0.502012  0.497995  0.145851  1
  O  O45  1  0.685811  0.842786  0.049569  1
  O  O46  1  0.685806  0.842778  0.450430  1
  O  O47  1  0.503076  0.005174  0.355316  1
  O  O48  1  0.665980  0.334029  0.444783  1
  O  O49  1  0.503074  0.005164  0.144682  1
  O  O50  1  0.842789  0.685813  0.950430  1
  O  O51  1  0.842788  0.685811  0.549570  1
  O  O52  1  0.665981  0.334034  0.055217  1
  O  O53  1  0.678503  0.321404  0.749997  1
  O  O54  1  0.994847  0.496938  0.144686  1
  O  O55  1  0.994846  0.496941  0.355316  1
  O  O56  1  0.842992  0.157008  0.950578  1
  O  O57  1  0.842991  0.157003  0.549422  1
