# generated using pymatgen
data_K2CoSe2
_symmetry_space_group_name_H-M   'P 1'
_cell_length_a   6.23479697
_cell_length_b   7.03741589
_cell_length_c   8.13370608
_cell_angle_alpha   115.63319730
_cell_angle_beta   112.53632794
_cell_angle_gamma   90.00000000
_symmetry_Int_Tables_number   1
_chemical_formula_structural   K2CoSe2
_chemical_formula_sum   'K4 Co2 Se4'
_cell_volume   291.23691496
_cell_formula_units_Z   2
loop_
 _symmetry_equiv_pos_site_id
 _symmetry_equiv_pos_as_xyz
  1  'x, y, z'
loop_
 _atom_site_type_symbol
 _atom_site_label
 _atom_site_symmetry_multiplicity
 _atom_site_fract_x
 _atom_site_fract_y
 _atom_site_fract_z
 _atom_site_occupancy
  K  K0  1  0.144157  0.471525  0.288313  1
  K  K1  1  0.855843  0.528475  0.711687  1
  K  K2  1  0.355843  0.183212  0.711687  1
  K  K3  1  0.644157  0.816788  0.288313  1
  Co  Co4  1  0.250000  0.000000  0.000000  1
  Co  Co5  1  0.750000  0.000000  0.000000  1
  Se  Se6  1  0.898495  0.082785  0.796989  1
  Se  Se7  1  0.101505  0.917215  0.203011  1
  Se  Se8  1  0.601505  0.285796  0.203011  1
  Se  Se9  1  0.398495  0.714204  0.796989  1
