# generated using pymatgen
data_H28Pt2Br5N9O2
_symmetry_space_group_name_H-M   'P 1'
_cell_length_a   11.06080107
_cell_length_b   14.95487018
_cell_length_c   12.78596456
_cell_angle_alpha   90.00000000
_cell_angle_beta   109.16934137
_cell_angle_gamma   90.00000000
_symmetry_Int_Tables_number   1
_chemical_formula_structural   H28Pt2Br5N9O2
_chemical_formula_sum   'H112 Pt8 Br20 N36 O8'
_cell_volume   1997.69275030
_cell_formula_units_Z   4
loop_
 _symmetry_equiv_pos_site_id
 _symmetry_equiv_pos_as_xyz
  1  'x, y, z'
loop_
 _atom_site_type_symbol
 _atom_site_label
 _atom_site_symmetry_multiplicity
 _atom_site_fract_x
 _atom_site_fract_y
 _atom_site_fract_z
 _atom_site_occupancy
  H  H0  1  0.073902  0.631878  0.994345  1
  H  H1  1  0.057948  0.099886  0.924326  1
  H  H2  1  0.179641  0.565535  0.967512  1
  H  H3  1  0.054843  0.943198  0.670561  1
  H  H4  1  0.063845  0.784908  0.659947  1
  H  H5  1  0.197848  0.677356  0.965708  1
  H  H6  1  0.094626  0.213551  0.694434  1
  H  H7  1  0.044672  0.391128  0.539708  1
  H  H8  1  0.162619  0.206380  0.820341  1
  H  H9  1  0.168067  0.973448  0.786633  1
  H  H10  1  0.175951  0.756770  0.776535  1
  H  H11  1  0.073902  0.868122  0.494345  1
  H  H12  1  0.153760  0.024813  0.665868  1
  H  H13  1  0.057948  0.400114  0.424326  1
  H  H14  1  0.173378  0.711237  0.655281  1
  H  H15  1  0.248065  0.340333  0.804873  1
  H  H16  1  0.267760  0.449856  0.814112  1
  H  H17  1  0.179641  0.934465  0.467512  1
  H  H18  1  0.054843  0.556802  0.170561  1
  H  H19  1  0.368823  0.382965  0.910061  1
  H  H20  1  0.063845  0.715092  0.159947  1
  H  H21  1  0.197848  0.822644  0.465708  1
  H  H22  1  0.094626  0.286449  0.194434  1
  H  H23  1  0.044672  0.108872  0.039708  1
  H  H24  1  0.240228  0.313213  0.581460  1
  H  H25  1  0.301976  0.239675  0.684417  1
  H  H26  1  0.285982  0.522951  0.670531  1
  H  H27  1  0.162619  0.293620  0.320342  1
  H  H28  1  0.400896  0.929478  0.878840  1
  H  H29  1  0.278449  0.463420  0.560899  1
  H  H30  1  0.168067  0.526552  0.286633  1
  H  H31  1  0.410880  0.817273  0.878318  1
  H  H32  1  0.175951  0.743230  0.276535  1
  H  H33  1  0.153760  0.475187  0.165868  1
  H  H34  1  0.173378  0.788763  0.155281  1
  H  H35  1  0.372666  0.252658  0.590963  1
  H  H36  1  0.404349  0.027376  0.699119  1
  H  H37  1  0.248065  0.159667  0.304873  1
  H  H38  1  0.267760  0.050144  0.314112  1
  H  H39  1  0.403901  0.531859  0.615971  1
  H  H40  1  0.431412  0.729732  0.693884  1
  H  H41  1  0.418082  0.976256  0.586844  1
  H  H42  1  0.433292  0.789314  0.583424  1
  H  H43  1  0.368823  0.117035  0.410061  1
  H  H44  1  0.566708  0.289314  0.916576  1
  H  H45  1  0.240228  0.186787  0.081460  1
  H  H46  1  0.301976  0.260325  0.184417  1
  H  H47  1  0.285982  0.977049  0.170531  1
  H  H48  1  0.581918  0.476256  0.913156  1
  H  H49  1  0.568589  0.229732  0.806116  1
  H  H50  1  0.596099  0.031859  0.884029  1
  H  H51  1  0.400896  0.570522  0.378840  1
  H  H52  1  0.278449  0.036580  0.060899  1
  H  H53  1  0.410880  0.682727  0.378318  1
  H  H54  1  0.595651  0.527376  0.800881  1
  H  H55  1  0.627334  0.752658  0.909037  1
  H  H56  1  0.372666  0.247342  0.090963  1
  H  H57  1  0.404349  0.472624  0.199119  1
  H  H58  1  0.589120  0.317273  0.621682  1
  H  H59  1  0.721551  0.963420  0.939101  1
  H  H60  1  0.599104  0.429478  0.621160  1
  H  H61  1  0.403901  0.968141  0.115971  1
  H  H62  1  0.431412  0.770268  0.193884  1
  H  H63  1  0.418082  0.523744  0.086844  1
  H  H64  1  0.714018  0.022951  0.829469  1
  H  H65  1  0.698024  0.739675  0.815583  1
  H  H66  1  0.759772  0.813213  0.918540  1
  H  H67  1  0.433292  0.710686  0.083424  1
  H  H68  1  0.631177  0.882965  0.589939  1
  H  H69  1  0.566708  0.210686  0.416576  1
  H  H70  1  0.581918  0.023744  0.413156  1
  H  H71  1  0.568589  0.270268  0.306116  1
  H  H72  1  0.596099  0.468141  0.384029  1
  H  H73  1  0.732240  0.949856  0.685888  1
  H  H74  1  0.751935  0.840333  0.695127  1
  H  H75  1  0.595651  0.972624  0.300881  1
  H  H76  1  0.627334  0.747342  0.409037  1
  H  H77  1  0.826622  0.211237  0.844719  1
  H  H78  1  0.846241  0.524813  0.834132  1
  H  H79  1  0.824049  0.256770  0.723465  1
  H  H80  1  0.589120  0.182727  0.121682  1
  H  H81  1  0.831933  0.473448  0.713367  1
  H  H82  1  0.721551  0.536580  0.439101  1
  H  H83  1  0.599104  0.070522  0.121160  1
  H  H84  1  0.837381  0.706380  0.679659  1
  H  H85  1  0.714018  0.477049  0.329469  1
  H  H86  1  0.698024  0.760325  0.315583  1
  H  H87  1  0.759772  0.686787  0.418540  1
  H  H88  1  0.955327  0.891128  0.960292  1
  H  H89  1  0.905374  0.713551  0.805566  1
  H  H90  1  0.802152  0.177356  0.534292  1
  H  H91  1  0.936155  0.284908  0.840053  1
  H  H92  1  0.631177  0.617035  0.089939  1
  H  H93  1  0.945157  0.443198  0.829439  1
  H  H94  1  0.820359  0.065535  0.532488  1
  H  H95  1  0.732240  0.550144  0.185888  1
  H  H96  1  0.751935  0.659667  0.195127  1
  H  H97  1  0.826622  0.288763  0.344719  1
  H  H98  1  0.942052  0.599886  0.575674  1
  H  H99  1  0.846241  0.975187  0.334132  1
  H  H100  1  0.926098  0.131878  0.505655  1
  H  H101  1  0.824049  0.243230  0.223465  1
  H  H102  1  0.831933  0.026552  0.213367  1
  H  H103  1  0.837381  0.793620  0.179658  1
  H  H104  1  0.955327  0.608872  0.460292  1
  H  H105  1  0.905374  0.786449  0.305566  1
  H  H106  1  0.802152  0.322644  0.034292  1
  H  H107  1  0.936155  0.215092  0.340053  1
  H  H108  1  0.945157  0.056802  0.329439  1
  H  H109  1  0.820359  0.434465  0.032488  1
  H  H110  1  0.942052  0.900114  0.075674  1
  H  H111  1  0.926098  0.368122  0.005655  1
  Pt  Pt112  1  0.277783  0.873005  0.673857  1
  Pt  Pt113  1  0.444581  0.383750  0.735320  1
  Pt  Pt114  1  0.277783  0.626995  0.173857  1
  Pt  Pt115  1  0.555419  0.883750  0.764680  1
  Pt  Pt116  1  0.444581  0.116250  0.235320  1
  Pt  Pt117  1  0.722217  0.373005  0.826143  1
  Pt  Pt118  1  0.555419  0.616250  0.264680  1
  Pt  Pt119  1  0.722217  0.126995  0.326143  1
  Br  Br120  1  0.097069  0.556580  0.737742  1
  Br  Br121  1  0.192800  0.845114  0.962005  1
  Br  Br122  1  0.129234  0.122278  0.504196  1
  Br  Br123  1  0.097069  0.943420  0.237742  1
  Br  Br124  1  0.192800  0.654886  0.462005  1
  Br  Br125  1  0.381303  0.109523  0.871012  1
  Br  Br126  1  0.455114  0.645033  0.916012  1
  Br  Br127  1  0.129234  0.377722  0.004196  1
  Br  Br128  1  0.381303  0.390477  0.371012  1
  Br  Br129  1  0.455114  0.854967  0.416012  1
  Br  Br130  1  0.544886  0.145033  0.583988  1
  Br  Br131  1  0.618697  0.609523  0.628988  1
  Br  Br132  1  0.870766  0.622278  0.995804  1
  Br  Br133  1  0.544886  0.354967  0.083988  1
  Br  Br134  1  0.618697  0.890477  0.128988  1
  Br  Br135  1  0.807200  0.345114  0.537995  1
  Br  Br136  1  0.902931  0.056580  0.762258  1
  Br  Br137  1  0.870766  0.877722  0.495804  1
  Br  Br138  1  0.807200  0.154886  0.037995  1
  Br  Br139  1  0.902931  0.443420  0.262258  1
  N  N140  1  0.148893  0.963889  0.703086  1
  N  N141  1  0.159828  0.769393  0.693757  1
  N  N142  1  0.171135  0.875317  0.505807  1
  N  N143  1  0.317858  0.389960  0.826561  1
  N  N144  1  0.148893  0.536111  0.203086  1
  N  N145  1  0.325100  0.287084  0.635814  1
  N  N146  1  0.409519  0.874658  0.833151  1
  N  N147  1  0.159828  0.730607  0.193757  1
  N  N148  1  0.342035  0.487356  0.634101  1
  N  N149  1  0.412360  0.966181  0.664448  1
  N  N150  1  0.427262  0.793271  0.662330  1
  N  N151  1  0.171135  0.624683  0.005807  1
  N  N152  1  0.317858  0.110040  0.326561  1
  N  N153  1  0.572738  0.293271  0.837670  1
  N  N154  1  0.587640  0.466181  0.835552  1
  N  N155  1  0.325100  0.212916  0.135814  1
  N  N156  1  0.409519  0.625342  0.333151  1
  N  N157  1  0.342035  0.012644  0.134101  1
  N  N158  1  0.657965  0.987356  0.865899  1
  N  N159  1  0.590481  0.374658  0.666849  1
  N  N160  1  0.674900  0.787084  0.864186  1
  N  N161  1  0.412360  0.533819  0.164448  1
  N  N162  1  0.427262  0.706729  0.162330  1
  N  N163  1  0.682142  0.889960  0.673439  1
  N  N164  1  0.828865  0.375317  0.994193  1
  N  N165  1  0.572738  0.206729  0.337670  1
  N  N166  1  0.587640  0.033819  0.335552  1
  N  N167  1  0.657965  0.512644  0.365899  1
  N  N168  1  0.840172  0.269393  0.806243  1
  N  N169  1  0.590481  0.125342  0.166849  1
  N  N170  1  0.674900  0.712916  0.364186  1
  N  N171  1  0.851107  0.463889  0.796914  1
  N  N172  1  0.682142  0.610040  0.173439  1
  N  N173  1  0.828865  0.124683  0.494193  1
  N  N174  1  0.840172  0.230607  0.306243  1
  N  N175  1  0.851107  0.036111  0.296914  1
  O  O176  1  0.119705  0.249532  0.761982  1
  O  O177  1  0.108099  0.384426  0.502048  1
  O  O178  1  0.119705  0.250468  0.261982  1
  O  O179  1  0.108099  0.115574  0.002048  1
  O  O180  1  0.891901  0.884426  0.997952  1
  O  O181  1  0.880295  0.749532  0.738018  1
  O  O182  1  0.891901  0.615574  0.497952  1
  O  O183  1  0.880295  0.750468  0.238018  1
