# generated using pymatgen
data_Mg(B2O5)3
_symmetry_space_group_name_H-M   'P 1'
_cell_length_a   12.14403117
_cell_length_b   21.88509241
_cell_length_c   7.89839909
_cell_angle_alpha   90.00000000
_cell_angle_beta   90.00000000
_cell_angle_gamma   90.00000000
_symmetry_Int_Tables_number   1
_chemical_formula_structural   Mg(B2O5)3
_chemical_formula_sum   'Mg8 B48 O120'
_cell_volume   2099.18315160
_cell_formula_units_Z   8
loop_
 _symmetry_equiv_pos_site_id
 _symmetry_equiv_pos_as_xyz
  1  'x, y, z'
loop_
 _atom_site_type_symbol
 _atom_site_label
 _atom_site_symmetry_multiplicity
 _atom_site_fract_x
 _atom_site_fract_y
 _atom_site_fract_z
 _atom_site_occupancy
  Mg  Mg0  1  0.914737  0.122440  0.430501  1
  Mg  Mg1  1  0.414737  0.377560  0.569499  1
  Mg  Mg2  1  0.085263  0.622440  0.069499  1
  Mg  Mg3  1  0.585263  0.877560  0.930501  1
  Mg  Mg4  1  0.085263  0.877560  0.569499  1
  Mg  Mg5  1  0.585263  0.622440  0.430501  1
  Mg  Mg6  1  0.914737  0.377560  0.930501  1
  Mg  Mg7  1  0.414737  0.122440  0.069499  1
  B  B8  1  0.162366  0.364202  0.117913  1
  B  B9  1  0.662366  0.135798  0.882087  1
  B  B10  1  0.837634  0.864202  0.382087  1
  B  B11  1  0.337634  0.635798  0.617913  1
  B  B12  1  0.837634  0.635798  0.882087  1
  B  B13  1  0.337634  0.864202  0.117913  1
  B  B14  1  0.162366  0.135798  0.617913  1
  B  B15  1  0.662366  0.364202  0.382087  1
  B  B16  1  0.012479  0.322515  0.305547  1
  B  B17  1  0.512479  0.177485  0.694453  1
  B  B18  1  0.987521  0.822515  0.194453  1
  B  B19  1  0.487521  0.677485  0.805547  1
  B  B20  1  0.987521  0.677485  0.694453  1
  B  B21  1  0.487521  0.822515  0.305547  1
  B  B22  1  0.012479  0.177485  0.805547  1
  B  B23  1  0.512479  0.322515  0.194453  1
  B  B24  1  0.034228  0.435439  0.274471  1
  B  B25  1  0.534228  0.064561  0.725529  1
  B  B26  1  0.965772  0.935439  0.225529  1
  B  B27  1  0.465772  0.564561  0.774471  1
  B  B28  1  0.965772  0.564561  0.725529  1
  B  B29  1  0.465772  0.935439  0.274471  1
  B  B30  1  0.034228  0.064561  0.774471  1
  B  B31  1  0.534228  0.435439  0.225529  1
  B  B32  1  0.171782  0.263264  0.236275  1
  B  B33  1  0.671782  0.236736  0.763725  1
  B  B34  1  0.828218  0.763264  0.263725  1
  B  B35  1  0.328218  0.736736  0.736275  1
  B  B36  1  0.828218  0.736736  0.763725  1
  B  B37  1  0.328218  0.763264  0.236275  1
  B  B38  1  0.171782  0.236736  0.736275  1
  B  B39  1  0.671782  0.263264  0.263725  1
  B  B40  1  0.944204  0.391628  0.523332  1
  B  B41  1  0.444204  0.108372  0.476668  1
  B  B42  1  0.055796  0.891628  0.976668  1
  B  B43  1  0.555796  0.608372  0.023332  1
  B  B44  1  0.055796  0.608372  0.476668  1
  B  B45  1  0.555796  0.891628  0.523332  1
  B  B46  1  0.944204  0.108372  0.023332  1
  B  B47  1  0.444204  0.391628  0.976668  1
  B  B48  1  0.211087  0.470956  0.155545  1
  B  B49  1  0.711087  0.029044  0.844455  1
  B  B50  1  0.788913  0.970956  0.344455  1
  B  B51  1  0.288913  0.529044  0.655545  1
  B  B52  1  0.788913  0.529044  0.844455  1
  B  B53  1  0.288913  0.970956  0.155545  1
  B  B54  1  0.211087  0.029044  0.655545  1
  B  B55  1  0.711087  0.470956  0.344455  1
  O  O56  1  0.218720  0.305404  0.136661  1
  O  O57  1  0.718720  0.194596  0.863339  1
  O  O58  1  0.781280  0.805404  0.363339  1
  O  O59  1  0.281280  0.694596  0.636661  1
  O  O60  1  0.781280  0.694596  0.863339  1
  O  O61  1  0.281280  0.805404  0.136661  1
  O  O62  1  0.218720  0.194596  0.636661  1
  O  O63  1  0.718720  0.305404  0.363339  1
  O  O64  1  0.078484  0.362451  0.982333  1
  O  O65  1  0.578484  0.137549  0.017667  1
  O  O66  1  0.921516  0.862451  0.517667  1
  O  O67  1  0.421516  0.637549  0.482333  1
  O  O68  1  0.921516  0.637549  0.017667  1
  O  O69  1  0.421516  0.862451  0.982333  1
  O  O70  1  0.078484  0.137549  0.482333  1
  O  O71  1  0.578484  0.362451  0.517667  1
  O  O72  1  0.096508  0.374510  0.279363  1
  O  O73  1  0.596508  0.125490  0.720637  1
  O  O74  1  0.903492  0.874510  0.220637  1
  O  O75  1  0.403492  0.625490  0.779363  1
  O  O76  1  0.903492  0.625490  0.720637  1
  O  O77  1  0.403492  0.874510  0.279363  1
  O  O78  1  0.096508  0.125490  0.779363  1
  O  O79  1  0.596508  0.374510  0.220637  1
  O  O80  1  0.238082  0.414386  0.092839  1
  O  O81  1  0.738082  0.085614  0.907161  1
  O  O82  1  0.761918  0.914386  0.407161  1
  O  O83  1  0.261918  0.585614  0.592839  1
  O  O84  1  0.761918  0.585614  0.907161  1
  O  O85  1  0.261918  0.914386  0.092839  1
  O  O86  1  0.238082  0.085614  0.592839  1
  O  O87  1  0.738082  0.414386  0.407161  1
  O  O88  1  0.073197  0.264482  0.312742  1
  O  O89  1  0.573197  0.235518  0.687258  1
  O  O90  1  0.926803  0.764482  0.187258  1
  O  O91  1  0.426803  0.735518  0.812742  1
  O  O92  1  0.926803  0.735518  0.687258  1
  O  O93  1  0.426803  0.764482  0.312742  1
  O  O94  1  0.073197  0.235518  0.812742  1
  O  O95  1  0.573197  0.264482  0.187258  1
  O  O96  1  0.940970  0.325095  0.152125  1
  O  O97  1  0.440970  0.174905  0.847875  1
  O  O98  1  0.059030  0.825095  0.347875  1
  O  O99  1  0.559030  0.674905  0.652125  1
  O  O100  1  0.059030  0.674905  0.847875  1
  O  O101  1  0.559030  0.825095  0.152125  1
  O  O102  1  0.940970  0.174905  0.652125  1
  O  O103  1  0.440970  0.325095  0.347875  1
  O  O104  1  0.952240  0.333415  0.456766  1
  O  O105  1  0.452240  0.166585  0.543234  1
  O  O106  1  0.047760  0.833415  0.043234  1
  O  O107  1  0.547760  0.666585  0.956766  1
  O  O108  1  0.047760  0.666585  0.543234  1
  O  O109  1  0.547760  0.833415  0.456766  1
  O  O110  1  0.952240  0.166585  0.956766  1
  O  O111  1  0.452240  0.333415  0.043234  1
  O  O112  1  0.975699  0.442426  0.431282  1
  O  O113  1  0.475699  0.057574  0.568718  1
  O  O114  1  0.024301  0.942426  0.068718  1
  O  O115  1  0.524301  0.557574  0.931282  1
  O  O116  1  0.024301  0.557574  0.568718  1
  O  O117  1  0.524301  0.942426  0.431282  1
  O  O118  1  0.975699  0.057574  0.931282  1
  O  O119  1  0.475699  0.442426  0.068718  1
  O  O120  1  0.956796  0.429516  0.130760  1
  O  O121  1  0.456796  0.070484  0.869240  1
  O  O122  1  0.043204  0.929516  0.369240  1
  O  O123  1  0.543204  0.570484  0.630760  1
  O  O124  1  0.043204  0.570484  0.869240  1
  O  O125  1  0.543204  0.929516  0.130760  1
  O  O126  1  0.956796  0.070484  0.630760  1
  O  O127  1  0.456796  0.429516  0.369240  1
  O  O128  1  0.111020  0.483982  0.228239  1
  O  O129  1  0.611020  0.016018  0.771761  1
  O  O130  1  0.888980  0.983982  0.271761  1
  O  O131  1  0.388980  0.516018  0.728239  1
  O  O132  1  0.888980  0.516018  0.771761  1
  O  O133  1  0.388980  0.983982  0.228239  1
  O  O134  1  0.111020  0.016018  0.728239  1
  O  O135  1  0.611020  0.483982  0.271761  1
  O  O136  1  0.233774  0.205383  0.272095  1
  O  O137  1  0.733774  0.294617  0.727905  1
  O  O138  1  0.766226  0.705383  0.227905  1
  O  O139  1  0.266226  0.794617  0.772095  1
  O  O140  1  0.766226  0.794617  0.727905  1
  O  O141  1  0.266226  0.705383  0.272095  1
  O  O142  1  0.233774  0.294617  0.772095  1
  O  O143  1  0.733774  0.205383  0.227905  1
  O  O144  1  0.911407  0.395987  0.688871  1
  O  O145  1  0.411407  0.104013  0.311129  1
  O  O146  1  0.088593  0.895987  0.811129  1
  O  O147  1  0.588593  0.604013  0.188871  1
  O  O148  1  0.088593  0.604013  0.311129  1
  O  O149  1  0.588593  0.895987  0.688871  1
  O  O150  1  0.911407  0.104013  0.188871  1
  O  O151  1  0.411407  0.395987  0.811129  1
  O  O152  1  0.288132  0.518046  0.163219  1
  O  O153  1  0.788132  0.981954  0.836781  1
  O  O154  1  0.711868  0.018046  0.336781  1
  O  O155  1  0.211868  0.481954  0.663219  1
  O  O156  1  0.711868  0.481954  0.836781  1
  O  O157  1  0.211868  0.018046  0.163219  1
  O  O158  1  0.288132  0.981954  0.663219  1
  O  O159  1  0.788132  0.518046  0.336781  1
  O  O160  1  0.742370  0.108434  0.441520  1
  O  O161  1  0.242370  0.391566  0.558480  1
  O  O162  1  0.257630  0.608434  0.058480  1
  O  O163  1  0.757630  0.891566  0.941520  1
  O  O164  1  0.257630  0.891566  0.558480  1
  O  O165  1  0.757630  0.608434  0.441520  1
  O  O166  1  0.742370  0.391566  0.941520  1
  O  O167  1  0.242370  0.108434  0.058480  1
  O  O168  1  0.838297  0.206566  0.269410  1
  O  O169  1  0.338297  0.293434  0.730590  1
  O  O170  1  0.161703  0.706566  0.230590  1
  O  O171  1  0.661703  0.793434  0.769410  1
  O  O172  1  0.161703  0.793434  0.730590  1
  O  O173  1  0.661703  0.706566  0.269410  1
  O  O174  1  0.838297  0.293434  0.769410  1
  O  O175  1  0.338297  0.206566  0.230590  1
