# generated using pymatgen
data_Li3V3P8O29
_symmetry_space_group_name_H-M   'P 1'
_cell_length_a   9.74826441
_cell_length_b   9.72560500
_cell_length_c   14.26069713
_cell_angle_alpha   89.84075709
_cell_angle_beta   90.17371936
_cell_angle_gamma   59.95074382
_symmetry_Int_Tables_number   1
_chemical_formula_structural   Li3V3P8O29
_chemical_formula_sum   'Li6 V6 P16 O58'
_cell_volume   1170.28649992
_cell_formula_units_Z   2
loop_
 _symmetry_equiv_pos_site_id
 _symmetry_equiv_pos_as_xyz
  1  'x, y, z'
loop_
 _atom_site_type_symbol
 _atom_site_label
 _atom_site_symmetry_multiplicity
 _atom_site_fract_x
 _atom_site_fract_y
 _atom_site_fract_z
 _atom_site_occupancy
  Li  Li0  1  0.768942  0.319726  0.055403  1
  Li  Li1  1  0.672812  0.233251  0.446291  1
  Li  Li2  1  0.328778  0.767415  0.557829  1
  Li  Li3  1  0.095682  0.230540  0.943996  1
  Li  Li4  1  0.012747  0.925060  0.006366  1
  Li  Li5  1  0.000054  0.004599  0.500063  1
  V  V6  1  0.561194  0.438538  0.247557  1
  V  V7  1  0.431252  0.566238  0.756730  1
  V  V8  1  0.565043  0.998848  0.751841  1
  V  V9  1  0.437653  0.001401  0.245848  1
  V  V10  1  0.998596  0.566149  0.256856  1
  V  V11  1  0.999101  0.440856  0.740760  1
  P  P12  1  0.916551  0.776033  0.839304  1
  P  P13  1  0.778136  0.919468  0.339617  1
  P  P14  1  0.914462  0.301282  0.342693  1
  P  P15  1  0.670532  0.663775  0.133359  1
  P  P16  1  0.658573  0.670418  0.633121  1
  P  P17  1  0.779352  0.314917  0.839762  1
  P  P18  1  0.684940  0.225486  0.661312  1
  P  P19  1  0.304327  0.918805  0.843298  1
  P  P20  1  0.697494  0.083316  0.153492  1
  P  P21  1  0.314196  0.778679  0.341323  1
  P  P22  1  0.214379  0.696200  0.162676  1
  P  P23  1  0.337482  0.330767  0.366453  1
  P  P24  1  0.330682  0.330326  0.867340  1
  P  P25  1  0.084135  0.701784  0.655711  1
  P  P26  1  0.222463  0.083384  0.658294  1
  P  P27  1  0.085481  0.228787  0.160414  1
  O  O28  1  0.009564  0.799103  0.571030  1
  O  O29  1  0.913166  0.743016  0.336403  1
  O  O30  1  0.795457  0.010053  0.069545  1
  O  O31  1  0.740414  0.911040  0.831307  1
  O  O32  1  0.921963  0.615322  0.823013  1
  O  O33  1  0.814988  0.661956  0.183105  1
  O  O34  1  0.922239  0.456859  0.333457  1
  O  O35  1  0.002932  0.232558  0.070380  1
  O  O36  1  0.921912  0.343667  0.833541  1
  O  O37  1  0.662547  0.813082  0.680548  1
  O  O38  1  0.618298  0.922799  0.326496  1
  O  O39  1  0.810572  0.520185  0.676788  1
  O  O40  1  0.676792  0.651393  0.029721  1
  O  O41  1  0.654440  0.671478  0.529170  1
  O  O42  1  0.672024  0.510426  0.174998  1
  O  O43  1  0.461234  0.920515  0.831355  1
  O  O44  1  0.522970  0.811587  0.176453  1
  O  O45  1  0.736763  0.343373  0.335378  1
  O  O46  1  0.797543  0.206170  0.750276  1
  O  O47  1  0.765657  0.216902  0.571125  1
  O  O48  1  0.782145  0.237055  0.930221  1
  O  O49  1  0.620360  0.474413  0.824418  1
  O  O50  1  0.509034  0.670968  0.674520  1
  O  O51  1  0.655400  0.261756  0.161643  1
  O  O52  1  0.471140  0.619251  0.323416  1
  O  O53  1  0.347917  0.916980  0.327876  1
  O  O54  1  0.801260  0.999250  0.246243  1
  O  O55  1  0.791040  0.007007  0.421524  1
  O  O56  1  0.204914  0.998747  0.576256  1
  O  O57  1  0.653974  0.084471  0.670882  1
  O  O58  1  0.528540  0.383506  0.677572  1
  O  O59  1  0.342460  0.743015  0.835397  1
  O  O60  1  0.487297  0.330553  0.321918  1
  O  O61  1  0.377901  0.538948  0.173365  1
  O  O62  1  0.197835  0.792508  0.078750  1
  O  O63  1  0.240516  0.784293  0.433340  1
  O  O64  1  0.197704  0.795942  0.257098  1
  O  O65  1  0.261320  0.658217  0.664833  1
  O  O66  1  0.477723  0.186515  0.820394  1
  O  O67  1  0.541452  0.078056  0.166313  1
  O  O68  1  0.332708  0.480930  0.824677  1
  O  O69  1  0.330777  0.326713  0.971239  1
  O  O70  1  0.354128  0.322866  0.470035  1
  O  O71  1  0.187839  0.481157  0.326502  1
  O  O72  1  0.382720  0.077649  0.669901  1
  O  O73  1  0.336876  0.186887  0.317440  1
  O  O74  1  0.080924  0.654969  0.172385  1
  O  O75  1  0.001162  0.800629  0.748875  1
  O  O76  1  0.996220  0.785503  0.924789  1
  O  O77  1  0.080102  0.542405  0.667387  1
  O  O78  1  0.183113  0.330836  0.823127  1
  O  O79  1  0.087363  0.384120  0.178333  1
  O  O80  1  0.257715  0.087436  0.165109  1
  O  O81  1  0.206433  0.002723  0.926372  1
  O  O82  1  0.199117  0.002089  0.750946  1
  O  O83  1  0.087508  0.260592  0.664605  1
  O  O84  1  0.990913  0.196929  0.424754  1
  O  O85  1  0.992186  0.205065  0.245743  1
