# generated using pymatgen
data_Li2Mn2(SiO3)3
_symmetry_space_group_name_H-M   'P 1'
_cell_length_a   12.65115423
_cell_length_b   10.26627048
_cell_length_c   7.55909187
_cell_angle_alpha   90.00122835
_cell_angle_beta   90.00000000
_cell_angle_gamma   90.00000000
_symmetry_Int_Tables_number   1
_chemical_formula_structural   Li2Mn2(SiO3)3
_chemical_formula_sum   'Li8 Mn8 Si12 O36'
_cell_volume   981.77614615
_cell_formula_units_Z   4
loop_
 _symmetry_equiv_pos_site_id
 _symmetry_equiv_pos_as_xyz
  1  'x, y, z'
loop_
 _atom_site_type_symbol
 _atom_site_label
 _atom_site_symmetry_multiplicity
 _atom_site_fract_x
 _atom_site_fract_y
 _atom_site_fract_z
 _atom_site_occupancy
  Li  Li0  1  0.174525  0.527788  0.535770  1
  Li  Li1  1  0.174481  0.972257  0.535812  1
  Li  Li2  1  0.325475  0.027788  0.035770  1
  Li  Li3  1  0.325519  0.472257  0.035812  1
  Li  Li4  1  0.674481  0.527743  0.964188  1
  Li  Li5  1  0.674525  0.972212  0.964230  1
  Li  Li6  1  0.825519  0.027743  0.464188  1
  Li  Li7  1  0.825475  0.472212  0.464230  1
  Mn  Mn8  1  0.086102  0.569180  0.118684  1
  Mn  Mn9  1  0.086105  0.930842  0.118720  1
  Mn  Mn10  1  0.413898  0.069180  0.618684  1
  Mn  Mn11  1  0.413895  0.430842  0.618720  1
  Mn  Mn12  1  0.586105  0.569158  0.381280  1
  Mn  Mn13  1  0.586102  0.930820  0.381316  1
  Mn  Mn14  1  0.913895  0.069158  0.881280  1
  Mn  Mn15  1  0.913898  0.430820  0.881316  1
  Si  Si16  1  0.032340  0.749996  0.455928  1
  Si  Si17  1  0.051949  0.250013  0.168541  1
  Si  Si18  1  0.205986  0.250007  0.479003  1
  Si  Si19  1  0.294014  0.750007  0.979003  1
  Si  Si20  1  0.448051  0.750013  0.668541  1
  Si  Si21  1  0.467660  0.249996  0.955928  1
  Si  Si22  1  0.532340  0.750004  0.044072  1
  Si  Si23  1  0.551949  0.249987  0.331459  1
  Si  Si24  1  0.705986  0.249993  0.020997  1
  Si  Si25  1  0.794014  0.749993  0.520997  1
  Si  Si26  1  0.948051  0.749987  0.831459  1
  Si  Si27  1  0.967660  0.250004  0.544072  1
  O  O28  1  0.040747  0.749986  0.675057  1
  O  O29  1  0.039248  0.119323  0.049660  1
  O  O30  1  0.039272  0.380700  0.049662  1
  O  O31  1  0.088007  0.617666  0.382119  1
  O  O32  1  0.087995  0.882339  0.382140  1
  O  O33  1  0.094598  0.250010  0.595232  1
  O  O34  1  0.232728  0.885865  0.019967  1
  O  O35  1  0.232735  0.614144  0.019960  1
  O  O36  1  0.169104  0.250009  0.266321  1
  O  O37  1  0.330896  0.750009  0.766321  1
  O  O38  1  0.267265  0.114144  0.519960  1
  O  O39  1  0.267272  0.385865  0.519967  1
  O  O40  1  0.405402  0.750010  0.095232  1
  O  O41  1  0.411993  0.117666  0.882119  1
  O  O42  1  0.412005  0.382339  0.882140  1
  O  O43  1  0.460752  0.619323  0.549660  1
  O  O44  1  0.460728  0.880700  0.549662  1
  O  O45  1  0.459253  0.249986  0.175057  1
  O  O46  1  0.540747  0.750014  0.824943  1
  O  O47  1  0.539272  0.119300  0.450338  1
  O  O48  1  0.539248  0.380677  0.450340  1
  O  O49  1  0.587995  0.617661  0.117860  1
  O  O50  1  0.588007  0.882334  0.117881  1
  O  O51  1  0.594598  0.249990  0.904768  1
  O  O52  1  0.732728  0.614135  0.480033  1
  O  O53  1  0.732735  0.885856  0.480040  1
  O  O54  1  0.669104  0.249991  0.233679  1
  O  O55  1  0.830896  0.749991  0.733679  1
  O  O56  1  0.767272  0.114135  0.980033  1
  O  O57  1  0.767265  0.385856  0.980040  1
  O  O58  1  0.905402  0.749990  0.404768  1
  O  O59  1  0.912005  0.117661  0.617860  1
  O  O60  1  0.911993  0.382334  0.617881  1
  O  O61  1  0.960728  0.619300  0.950338  1
  O  O62  1  0.960752  0.880677  0.950340  1
  O  O63  1  0.959253  0.250014  0.324943  1
