# generated using pymatgen
data_Al11AgO17
_symmetry_space_group_name_H-M   'P 1'
_cell_length_a   5.65715980
_cell_length_b   5.65471261
_cell_length_c   22.75298561
_cell_angle_alpha   90.00043087
_cell_angle_beta   89.99984515
_cell_angle_gamma   120.01437735
_symmetry_Int_Tables_number   1
_chemical_formula_structural   Al11AgO17
_chemical_formula_sum   'Al22 Ag2 O34'
_cell_volume   630.25321728
_cell_formula_units_Z   2
loop_
 _symmetry_equiv_pos_site_id
 _symmetry_equiv_pos_as_xyz
  1  'x, y, z'
loop_
 _atom_site_type_symbol
 _atom_site_label
 _atom_site_symmetry_multiplicity
 _atom_site_fract_x
 _atom_site_fract_y
 _atom_site_fract_z
 _atom_site_occupancy
  Al  Al0  1  0.166987  0.832312  0.607527  1
  Al  Al1  1  0.166988  0.832313  0.892473  1
  Al  Al2  1  0.334146  0.665786  0.175807  1
  Al  Al3  1  0.333456  0.666741  0.024871  1
  Al  Al4  1  0.000326  0.000003  -0.000001  1
  Al  Al5  1  0.000323  0.999998  0.500000  1
  Al  Al6  1  0.166944  0.334714  0.607523  1
  Al  Al7  1  0.334144  0.665764  0.324193  1
  Al  Al8  1  0.166944  0.334714  0.892477  1
  Al  Al9  1  0.333452  0.666727  0.475129  1
  Al  Al10  1  0.665867  0.832997  0.606882  1
  Al  Al11  1  0.665867  0.832997  0.893118  1
  Al  Al12  1  0.334676  0.167681  0.392473  1
  Al  Al13  1  0.334680  0.167700  0.107527  1
  Al  Al14  1  0.832220  0.665282  0.392477  1
  Al  Al15  1  0.668389  0.334243  0.824193  1
  Al  Al16  1  0.832222  0.665290  0.107523  1
  Al  Al17  1  0.668389  0.334244  0.675807  1
  Al  Al18  1  0.666724  0.333271  0.975128  1
  Al  Al19  1  0.666723  0.333270  0.524872  1
  Al  Al20  1  0.832880  0.167016  0.106882  1
  Al  Al21  1  0.832877  0.167007  0.393118  1
  Ag  Ag22  1  0.409565  0.704784  0.750000  1
  Ag  Ag23  1  0.704776  0.295205  0.250000  1
  O  O24  1  0.157397  0.842713  0.050100  1
  O  O25  1  0.157400  0.842709  0.449900  1
  O  O26  1  0.005779  0.502889  0.645699  1
  O  O27  1  0.005780  0.502887  0.854301  1
  O  O28  1  0.331276  0.668696  0.250000  1
  O  O29  1  0.156933  0.314375  0.450119  1
  O  O30  1  0.497283  0.993048  0.646396  1
  O  O31  1  0.497283  0.993049  0.853604  1
  O  O32  1  0.999846  0.000224  0.141846  1
  O  O33  1  0.999843  0.000211  0.358153  1
  O  O34  1  0.999626  0.999784  0.641847  1
  O  O35  1  0.999627  0.999783  0.858153  1
  O  O36  1  0.333719  0.666856  0.555507  1
  O  O37  1  0.333721  0.666863  0.944493  1
  O  O38  1  0.156948  0.314388  0.049880  1
  O  O39  1  0.314688  0.157305  0.550099  1
  O  O40  1  0.314691  0.157304  0.949901  1
  O  O41  1  0.497288  0.504236  0.853610  1
  O  O42  1  0.497288  0.504235  0.646390  1
  O  O43  1  0.502881  0.497105  0.354299  1
  O  O44  1  0.502882  0.497125  0.145701  1
  O  O45  1  0.685684  0.843128  0.049922  1
  O  O46  1  0.685681  0.843127  0.450078  1
  O  O47  1  0.666862  0.333144  0.444492  1
  O  O48  1  0.662683  0.331412  0.750000  1
  O  O49  1  0.504241  0.006952  0.353606  1
  O  O50  1  0.504246  0.006973  0.146394  1
  O  O51  1  0.842568  0.685622  0.950121  1
  O  O52  1  0.842569  0.685622  0.549880  1
  O  O53  1  0.666868  0.333134  0.055509  1
  O  O54  1  0.993054  0.495778  0.146390  1
  O  O55  1  0.993052  0.495765  0.353610  1
  O  O56  1  0.842537  0.156856  0.950080  1
  O  O57  1  0.842536  0.156854  0.549921  1
