# generated using pymatgen
data_Ca7Sn3S13
_symmetry_space_group_name_H-M   'P 1'
_cell_length_a   8.71139128
_cell_length_b   11.59727008
_cell_length_c   22.16290227
_cell_angle_alpha   90.00000000
_cell_angle_beta   90.00000000
_cell_angle_gamma   90.00000000
_symmetry_Int_Tables_number   1
_chemical_formula_structural   Ca7Sn3S13
_chemical_formula_sum   'Ca28 Sn12 S52'
_cell_volume   2239.08161259
_cell_formula_units_Z   4
loop_
 _symmetry_equiv_pos_site_id
 _symmetry_equiv_pos_as_xyz
  1  'x, y, z'
loop_
 _atom_site_type_symbol
 _atom_site_label
 _atom_site_symmetry_multiplicity
 _atom_site_fract_x
 _atom_site_fract_y
 _atom_site_fract_z
 _atom_site_occupancy
  Ca  Ca0  1  0.883975  0.314116  0.463251  1
  Ca  Ca1  1  0.616025  0.814116  0.036749  1
  Ca  Ca2  1  0.116025  0.685884  0.963251  1
  Ca  Ca3  1  0.383975  0.185884  0.536749  1
  Ca  Ca4  1  0.116025  0.685884  0.536749  1
  Ca  Ca5  1  0.383975  0.185884  0.963251  1
  Ca  Ca6  1  0.883975  0.314116  0.036749  1
  Ca  Ca7  1  0.616025  0.814116  0.463251  1
  Ca  Ca8  1  0.377761  0.156662  0.342794  1
  Ca  Ca9  1  0.122239  0.656662  0.157206  1
  Ca  Ca10  1  0.622239  0.843338  0.842794  1
  Ca  Ca11  1  0.877761  0.343338  0.657206  1
  Ca  Ca12  1  0.622239  0.843338  0.657206  1
  Ca  Ca13  1  0.877761  0.343338  0.842794  1
  Ca  Ca14  1  0.377761  0.156662  0.157206  1
  Ca  Ca15  1  0.122239  0.656662  0.342794  1
  Ca  Ca16  1  0.092755  0.348751  0.250000  1
  Ca  Ca17  1  0.407245  0.848751  0.250000  1
  Ca  Ca18  1  0.907245  0.651249  0.750000  1
  Ca  Ca19  1  0.592755  0.151249  0.750000  1
  Ca  Ca20  1  0.585891  0.530241  0.341790  1
  Ca  Ca21  1  0.914109  0.030241  0.158210  1
  Ca  Ca22  1  0.414109  0.469759  0.841790  1
  Ca  Ca23  1  0.085891  0.969759  0.658210  1
  Ca  Ca24  1  0.414109  0.469759  0.658210  1
  Ca  Ca25  1  0.085891  0.969759  0.841790  1
  Ca  Ca26  1  0.585891  0.530241  0.158210  1
  Ca  Ca27  1  0.914109  0.030241  0.341790  1
  Sn  Sn28  1  0.685665  0.241152  0.250000  1
  Sn  Sn29  1  0.814335  0.741152  0.250000  1
  Sn  Sn30  1  0.314335  0.758848  0.750000  1
  Sn  Sn31  1  0.185665  0.258848  0.750000  1
  Sn  Sn32  1  0.304152  0.450953  0.447308  1
  Sn  Sn33  1  0.195848  0.950953  0.052692  1
  Sn  Sn34  1  0.695848  0.549047  0.947308  1
  Sn  Sn35  1  0.804152  0.049047  0.552692  1
  Sn  Sn36  1  0.695848  0.549047  0.552692  1
  Sn  Sn37  1  0.804152  0.049047  0.947308  1
  Sn  Sn38  1  0.304152  0.450953  0.052692  1
  Sn  Sn39  1  0.195848  0.950953  0.447308  1
  S  S40  1  0.856738  0.534643  0.250000  1
  S  S41  1  0.643262  0.034643  0.250000  1
  S  S42  1  0.143262  0.465357  0.750000  1
  S  S43  1  0.356738  0.965357  0.750000  1
  S  S44  1  0.636563  0.348174  0.573555  1
  S  S45  1  0.863437  0.848174  0.926445  1
  S  S46  1  0.363437  0.651826  0.073555  1
  S  S47  1  0.136563  0.151826  0.426445  1
  S  S48  1  0.363437  0.651826  0.426445  1
  S  S49  1  0.136563  0.151826  0.073555  1
  S  S50  1  0.636563  0.348174  0.926445  1
  S  S51  1  0.863437  0.848174  0.573555  1
  S  S52  1  0.515501  0.328406  0.420981  1
  S  S53  1  0.984499  0.828406  0.079019  1
  S  S54  1  0.484499  0.671594  0.920981  1
  S  S55  1  0.015501  0.171594  0.579019  1
  S  S56  1  0.484499  0.671594  0.579019  1
  S  S57  1  0.015501  0.171594  0.920981  1
  S  S58  1  0.515501  0.328406  0.079019  1
  S  S59  1  0.984499  0.828406  0.420981  1
  S  S60  1  0.458888  0.356794  0.250000  1
  S  S61  1  0.041112  0.856794  0.250000  1
  S  S62  1  0.541112  0.643206  0.750000  1
  S  S63  1  0.958888  0.143206  0.750000  1
  S  S64  1  0.846741  0.271289  0.334443  1
  S  S65  1  0.653259  0.771289  0.165557  1
  S  S66  1  0.153259  0.728711  0.834443  1
  S  S67  1  0.346741  0.228711  0.665557  1
  S  S68  1  0.153259  0.728711  0.665557  1
  S  S69  1  0.346741  0.228711  0.834443  1
  S  S70  1  0.846741  0.271289  0.165557  1
  S  S71  1  0.653259  0.771289  0.334443  1
  S  S72  1  0.102731  0.422178  0.375512  1
  S  S73  1  0.397269  0.922178  0.124488  1
  S  S74  1  0.897269  0.577822  0.875512  1
  S  S75  1  0.602731  0.077822  0.624488  1
  S  S76  1  0.897269  0.577822  0.624488  1
  S  S77  1  0.602731  0.077822  0.875512  1
  S  S78  1  0.102731  0.422178  0.124488  1
  S  S79  1  0.397269  0.922178  0.375512  1
  S  S80  1  0.190698  0.427940  0.544803  1
  S  S81  1  0.309302  0.927940  0.955197  1
  S  S82  1  0.809302  0.572060  0.044803  1
  S  S83  1  0.690698  0.072060  0.455197  1
  S  S84  1  0.809302  0.572060  0.455197  1
  S  S85  1  0.690698  0.072060  0.044803  1
  S  S86  1  0.190698  0.427940  0.955197  1
  S  S87  1  0.309302  0.927940  0.544803  1
  S  S88  1  0.326710  0.616186  0.250000  1
  S  S89  1  0.173290  0.116186  0.250000  1
  S  S90  1  0.673290  0.383814  0.750000  1
  S  S91  1  0.826710  0.883814  0.750000  1
