# generated using pymatgen
data_Fe3S4
_symmetry_space_group_name_H-M   'P 1'
_cell_length_a   3.29805970
_cell_length_b   5.48643611
_cell_length_c   11.60965118
_cell_angle_alpha   95.54249070
_cell_angle_beta   81.83411878
_cell_angle_gamma   89.99998849
_symmetry_Int_Tables_number   1
_chemical_formula_structural   Fe3S4
_chemical_formula_sum   'Fe6 S8'
_cell_volume   206.94977386
_cell_formula_units_Z   2
loop_
 _symmetry_equiv_pos_site_id
 _symmetry_equiv_pos_as_xyz
  1  'x, y, z'
loop_
 _atom_site_type_symbol
 _atom_site_label
 _atom_site_symmetry_multiplicity
 _atom_site_fract_x
 _atom_site_fract_y
 _atom_site_fract_z
 _atom_site_occupancy
  Fe  Fe0  1  0.136601  0.324880  0.726799  1
  Fe  Fe1  1  0.630003  0.737096  0.739994  1
  Fe  Fe2  1  0.252395  0.202272  0.495210  1
  Fe  Fe3  1  0.747632  0.797396  0.504736  1
  Fe  Fe4  1  0.370017  0.263055  0.259967  1
  Fe  Fe5  1  0.863374  0.675240  0.273252  1
  S  S6  1  0.072854  0.644789  0.854292  1
  S  S7  1  0.588472  0.142879  0.823056  1
  S  S8  1  0.298446  0.566285  0.403109  1
  S  S9  1  0.814402  0.062356  0.371195  1
  S  S10  1  0.185604  0.937515  0.628791  1
  S  S11  1  0.701535  0.433625  0.596931  1
  S  S12  1  0.927150  0.355424  0.145699  1
  S  S13  1  0.411516  0.857190  0.176969  1
