# generated using pymatgen
data_Mn7F16
_symmetry_space_group_name_H-M   'P 1'
_cell_length_a   6.56383075
_cell_length_b   9.64476393
_cell_length_c   6.56422646
_cell_angle_alpha   70.11298817
_cell_angle_beta   60.00165266
_cell_angle_gamma   70.10941703
_symmetry_Int_Tables_number   1
_chemical_formula_structural   Mn7F16
_chemical_formula_sum   'Mn7 F16'
_cell_volume   330.95970718
_cell_formula_units_Z   1
loop_
 _symmetry_equiv_pos_site_id
 _symmetry_equiv_pos_as_xyz
  1  'x, y, z'
loop_
 _atom_site_type_symbol
 _atom_site_label
 _atom_site_symmetry_multiplicity
 _atom_site_fract_x
 _atom_site_fract_y
 _atom_site_fract_z
 _atom_site_occupancy
  Mn  Mn0  1  0.888215  0.339123  0.519476  1
  Mn  Mn1  1  0.480583  0.660855  0.746760  1
  Mn  Mn2  1  0.746699  0.660893  0.111938  1
  Mn  Mn3  1  0.253301  0.339107  0.888062  1
  Mn  Mn4  1  0.519417  0.339145  0.253240  1
  Mn  Mn5  1  0.111785  0.660877  0.480524  1
  Mn  Mn6  1  0.000000  0.000000  0.000000  1
  F  F7  1  0.763795  0.708659  0.763868  1
  F  F8  1  0.982695  0.120555  0.719861  1
  F  F9  1  0.852084  0.586775  0.403237  1
  F  F10  1  0.596865  0.413307  0.841859  1
  F  F11  1  0.822968  0.879429  0.017507  1
  F  F12  1  0.280115  0.879373  0.823130  1
  F  F13  1  0.841819  0.413429  0.147997  1
  F  F14  1  0.424696  0.725793  0.424843  1
  F  F15  1  0.575304  0.274207  0.575157  1
  F  F16  1  0.158181  0.586571  0.852003  1
  F  F17  1  0.719885  0.120627  0.176870  1
  F  F18  1  0.177032  0.120571  0.982493  1
  F  F19  1  0.403135  0.586693  0.158141  1
  F  F20  1  0.147916  0.413225  0.596763  1
  F  F21  1  0.017305  0.879445  0.280139  1
  F  F22  1  0.236205  0.291341  0.236132  1
