# generated using pymatgen
data_Li3AsH36(SeN3)4
_symmetry_space_group_name_H-M   'P 1'
_cell_length_a   9.01484857
_cell_length_b   9.01484857
_cell_length_c   9.01484857
_cell_angle_alpha   109.47122063
_cell_angle_beta   109.47122063
_cell_angle_gamma   109.47122063
_symmetry_Int_Tables_number   1
_chemical_formula_structural   Li3AsH36(SeN3)4
_chemical_formula_sum   'Li3 As1 H36 Se4 N12'
_cell_volume   563.96664281
_cell_formula_units_Z   1
loop_
 _symmetry_equiv_pos_site_id
 _symmetry_equiv_pos_as_xyz
  1  'x, y, z'
loop_
 _atom_site_type_symbol
 _atom_site_label
 _atom_site_symmetry_multiplicity
 _atom_site_fract_x
 _atom_site_fract_y
 _atom_site_fract_z
 _atom_site_occupancy
  Li  Li0  1  0.500001  0.500001  0.000000  1
  Li  Li1  1  0.000000  0.500001  0.500001  1
  Li  Li2  1  0.500001  0.000000  0.500001  1
  As  As3  1  0.000000  0.000000  0.000000  1
  H  H4  1  0.611632  0.800056  0.000000  1
  H  H5  1  0.800056  0.611632  0.000000  1
  H  H6  1  0.388370  0.388370  0.188425  1
  H  H7  1  0.199943  0.199943  0.811572  1
  H  H8  1  0.000000  0.611632  0.800056  1
  H  H9  1  0.800056  0.000000  0.611632  1
  H  H10  1  0.811572  0.199943  0.199943  1
  H  H11  1  0.611632  0.000000  0.800056  1
  H  H12  1  0.000000  0.800056  0.611632  1
  H  H13  1  0.388370  0.188425  0.388370  1
  H  H14  1  0.188425  0.388370  0.388370  1
  H  H15  1  0.199943  0.811572  0.199943  1
  H  H16  1  0.393074  0.724282  0.890526  1
  H  H17  1  0.833755  0.502547  0.109474  1
  H  H18  1  0.606926  0.497454  0.331208  1
  H  H19  1  0.166245  0.275718  0.668791  1
  H  H20  1  0.890526  0.393074  0.724282  1
  H  H21  1  0.724282  0.890526  0.393074  1
  H  H22  1  0.668791  0.166245  0.275718  1
  H  H23  1  0.502547  0.109474  0.833755  1
  H  H24  1  0.109474  0.833755  0.502547  1
  H  H25  1  0.497454  0.331208  0.606926  1
  H  H26  1  0.331208  0.606926  0.497454  1
  H  H27  1  0.275718  0.668791  0.166245  1
  H  H28  1  0.724282  0.393074  0.890526  1
  H  H29  1  0.502547  0.833755  0.109474  1
  H  H30  1  0.497454  0.606926  0.331208  1
  H  H31  1  0.275718  0.166245  0.668791  1
  H  H32  1  0.393074  0.890526  0.724282  1
  H  H33  1  0.890526  0.724282  0.393074  1
  H  H34  1  0.166245  0.668791  0.275718  1
  H  H35  1  0.109474  0.502547  0.833755  1
  H  H36  1  0.833755  0.109474  0.502547  1
  H  H37  1  0.331208  0.497454  0.606926  1
  H  H38  1  0.606926  0.331208  0.497454  1
  H  H39  1  0.668791  0.275718  0.166245  1
  Se  Se40  1  0.000000  0.000000  0.260131  1
  Se  Se41  1  0.739870  0.739870  0.739870  1
  Se  Se42  1  0.000000  0.260131  0.000000  1
  Se  Se43  1  0.260131  0.000000  0.000000  1
  N  N44  1  0.492938  0.737842  0.000000  1
  N  N45  1  0.737842  0.492938  0.000000  1
  N  N46  1  0.507063  0.507063  0.244904  1
  N  N47  1  0.262159  0.262159  0.755097  1
  N  N48  1  0.000000  0.492938  0.737842  1
  N  N49  1  0.737842  0.000000  0.492938  1
  N  N50  1  0.755097  0.262159  0.262159  1
  N  N51  1  0.492938  0.000000  0.737842  1
  N  N52  1  0.000000  0.737842  0.492938  1
  N  N53  1  0.507063  0.244904  0.507063  1
  N  N54  1  0.244904  0.507063  0.507063  1
  N  N55  1  0.262159  0.755097  0.262159  1
