# generated using pymatgen
data_NiC2(SN)2
_symmetry_space_group_name_H-M   'P 1'
_cell_length_a   3.69908085
_cell_length_b   5.52917792
_cell_length_c   6.50748005
_cell_angle_alpha   104.17103537
_cell_angle_beta   90.00000000
_cell_angle_gamma   109.54247043
_symmetry_Int_Tables_number   1
_chemical_formula_structural   NiC2(SN)2
_chemical_formula_sum   'Ni1 C2 S2 N2'
_cell_volume   121.12314297
_cell_formula_units_Z   1
loop_
 _symmetry_equiv_pos_site_id
 _symmetry_equiv_pos_as_xyz
  1  'x, y, z'
loop_
 _atom_site_type_symbol
 _atom_site_label
 _atom_site_symmetry_multiplicity
 _atom_site_fract_x
 _atom_site_fract_y
 _atom_site_fract_z
 _atom_site_occupancy
  C  C0  1  0.237150  0.474299  0.802053  1
  C  C1  1  0.762850  0.525701  0.197947  1
  N  N2  1  0.133762  0.267524  0.843934  1
  N  N3  1  0.866238  0.732476  0.156066  1
  S  S4  1  0.615345  0.230691  0.244382  1
  S  S5  1  0.384655  0.769309  0.755618  1
  Ni  Ni6  1  0.000000  0.000000  0.000000  1
