# generated using pymatgen
data_La2Si5Rh3
_symmetry_space_group_name_H-M   'P 1'
_cell_length_a   5.89180045
_cell_length_b   8.34910156
_cell_length_c   8.34910156
_cell_angle_alpha   74.07852055
_cell_angle_beta   69.33885534
_cell_angle_gamma   69.33885534
_symmetry_Int_Tables_number   1
_chemical_formula_structural   La2Si5Rh3
_chemical_formula_sum   'La4 Si10 Rh6'
_cell_volume   354.26755600
_cell_formula_units_Z   2
loop_
 _symmetry_equiv_pos_site_id
 _symmetry_equiv_pos_as_xyz
  1  'x, y, z'
loop_
 _atom_site_type_symbol
 _atom_site_label
 _atom_site_symmetry_multiplicity
 _atom_site_fract_x
 _atom_site_fract_y
 _atom_site_fract_z
 _atom_site_occupancy
  Si  Si0  1  0.250000  0.000000  0.000000  1
  Si  Si1  1  0.750000  0.000000  0.000000  1
  Si  Si2  1  0.974929  0.275071  0.275071  1
  Si  Si3  1  0.525071  0.724929  0.724929  1
  Si  Si4  1  0.025071  0.724929  0.724929  1
  Si  Si5  1  0.474929  0.275071  0.275071  1
  Si  Si6  1  0.392885  0.456119  0.758111  1
  Si  Si7  1  0.892885  0.758111  0.456119  1
  Si  Si8  1  0.107115  0.241889  0.543881  1
  Si  Si9  1  0.607115  0.543881  0.241889  1
  Rh  Rh10  1  0.861243  0.029220  0.248294  1
  Rh  Rh11  1  0.750000  0.500000  0.500000  1
  Rh  Rh12  1  0.361243  0.248294  0.029220  1
  Rh  Rh13  1  0.638757  0.751706  0.970780  1
  Rh  Rh14  1  0.138757  0.970780  0.751706  1
  Rh  Rh15  1  0.250000  0.500000  0.500000  1
  La  La16  1  0.130465  0.636707  0.102363  1
  La  La17  1  0.869535  0.363293  0.897637  1
  La  La18  1  0.369535  0.897637  0.363293  1
  La  La19  1  0.630465  0.102363  0.636707  1
