# generated using pymatgen
data_Ti13Si31Ni40
_symmetry_space_group_name_H-M   'P 1'
_cell_length_a   17.18233727
_cell_length_b   17.18379445
_cell_length_c   7.88108331
_cell_angle_alpha   90.00000000
_cell_angle_beta   90.00000000
_cell_angle_gamma   120.00627476
_symmetry_Int_Tables_number   1
_chemical_formula_structural   Ti13Si31Ni40
_chemical_formula_sum   'Ti26 Si62 Ni80'
_cell_volume   2015.07119758
_cell_formula_units_Z   2
loop_
 _symmetry_equiv_pos_site_id
 _symmetry_equiv_pos_as_xyz
  1  'x, y, z'
loop_
 _atom_site_type_symbol
 _atom_site_label
 _atom_site_symmetry_multiplicity
 _atom_site_fract_x
 _atom_site_fract_y
 _atom_site_fract_z
 _atom_site_occupancy
  Ti  Ti0  1  0.000011  0.000004  0.328489  1
  Ti  Ti1  1  0.000011  0.000004  0.671512  1
  Ti  Ti2  1  0.270170  0.999995  0.305472  1
  Ti  Ti3  1  0.729814  0.000003  0.305107  1
  Ti  Ti4  1  0.000010  0.270186  0.305178  1
  Ti  Ti5  1  0.729811  0.729792  0.305136  1
  Ti  Ti6  1  0.270197  0.270178  0.305315  1
  Ti  Ti7  1  0.000021  0.729829  0.305411  1
  Ti  Ti8  1  0.270170  0.999995  0.694529  1
  Ti  Ti9  1  0.729811  0.729792  0.694862  1
  Ti  Ti10  1  0.000010  0.270186  0.694823  1
  Ti  Ti11  1  0.000021  0.729829  0.694590  1
  Ti  Ti12  1  0.270197  0.270178  0.694683  1
  Ti  Ti13  1  0.729814  0.000003  0.694894  1
  Ti  Ti14  1  0.576874  0.153773  0.500000  1
  Ti  Ti15  1  0.423101  0.846228  0.500000  1
  Ti  Ti16  1  0.846242  0.423129  0.500000  1
  Ti  Ti17  1  0.576888  0.423100  0.500000  1
  Ti  Ti18  1  0.423098  0.576880  0.500000  1
  Ti  Ti19  1  0.153759  0.576884  0.500000  1
  Ti  Ti20  1  0.243804  0.487578  0.000000  1
  Ti  Ti21  1  0.756187  0.512425  0.000000  1
  Ti  Ti22  1  0.512420  0.756196  0.000000  1
  Ti  Ti23  1  0.243786  0.756216  0.000000  1
  Ti  Ti24  1  0.756208  0.243785  0.000000  1
  Ti  Ti25  1  0.487569  0.243804  0.000000  1
  Si  Si26  1  0.605611  0.211247  0.182267  1
  Si  Si27  1  0.394362  0.788753  0.182267  1
  Si  Si28  1  0.788756  0.394388  0.182272  1
  Si  Si29  1  0.605630  0.394364  0.182259  1
  Si  Si30  1  0.394360  0.605624  0.182252  1
  Si  Si31  1  0.211245  0.605629  0.182284  1
  Si  Si32  1  0.394362  0.788753  0.817734  1
  Si  Si33  1  0.394360  0.605624  0.817749  1
  Si  Si34  1  0.211245  0.605629  0.817717  1
  Si  Si35  1  0.788756  0.394388  0.817729  1
  Si  Si36  1  0.605630  0.394364  0.817742  1
  Si  Si37  1  0.605611  0.211247  0.817734  1
  Si  Si38  1  0.177869  0.355687  0.234374  1
  Si  Si39  1  0.822232  0.644317  0.234372  1
  Si  Si40  1  0.644277  0.822138  0.234354  1
  Si  Si41  1  0.177825  0.822195  0.234391  1
  Si  Si42  1  0.822167  0.177872  0.234361  1
  Si  Si43  1  0.355650  0.177785  0.234387  1
  Si  Si44  1  0.822232  0.644317  0.765629  1
  Si  Si45  1  0.822167  0.177872  0.765639  1
  Si  Si46  1  0.355650  0.177785  0.765614  1
  Si  Si47  1  0.644277  0.822138  0.765647  1
  Si  Si48  1  0.177825  0.822195  0.765609  1
  Si  Si49  1  0.177869  0.355687  0.765627  1
  Si  Si50  1  0.128010  0.412169  0.500000  1
  Si  Si51  1  0.872083  0.587929  0.500000  1
  Si  Si52  1  0.587817  0.715862  0.500000  1
  Si  Si53  1  0.284129  0.872067  0.500000  1
  Si  Si54  1  0.715863  0.128044  0.500000  1
  Si  Si55  1  0.412131  0.284127  0.500000  1
  Si  Si56  1  0.715866  0.587806  0.500000  1
  Si  Si57  1  0.871994  0.284143  0.500000  1
  Si  Si58  1  0.412056  0.127919  0.500000  1
  Si  Si59  1  0.587813  0.871967  0.500000  1
  Si  Si60  1  0.127942  0.715858  0.500000  1
  Si  Si61  1  0.284133  0.412126  0.500000  1
  Si  Si62  1  0.499990  0.000001  0.260315  1
  Si  Si63  1  0.000002  0.500009  0.260349  1
  Si  Si64  1  0.499996  0.499996  0.260276  1
  Si  Si65  1  0.499990  0.000001  0.739684  1
  Si  Si66  1  0.499996  0.499996  0.739725  1
  Si  Si67  1  0.000002  0.500009  0.739650  1
  Si  Si68  1  0.385685  0.000008  0.000000  1
  Si  Si69  1  0.614292  0.999992  0.000000  1
  Si  Si70  1  0.000008  0.385703  0.000000  1
  Si  Si71  1  0.614266  0.614266  0.000000  1
  Si  Si72  1  0.385720  0.385722  0.000000  1
  Si  Si73  1  0.999991  0.614312  0.000000  1
  Si  Si74  1  0.160040  0.000011  0.000000  1
  Si  Si75  1  0.839994  0.999992  0.000000  1
  Si  Si76  1  0.000014  0.160017  0.000000  1
  Si  Si77  1  0.839979  0.839973  0.000000  1
  Si  Si78  1  0.160043  0.160037  0.000000  1
  Si  Si79  1  -0.000004  0.839962  0.000000  1
  Si  Si80  1  0.144634  0.000000  0.500000  1
  Si  Si81  1  0.855515  0.000003  0.500000  1
  Si  Si82  1  0.000012  0.144521  0.500000  1
  Si  Si83  1  0.855527  0.855512  0.500000  1
  Si  Si84  1  0.144564  0.144549  0.500000  1
  Si  Si85  1  0.000016  0.855397  0.500000  1
  Si  Si86  1  0.333313  0.666671  0.500000  1
  Si  Si87  1  0.666670  0.333331  0.500000  1
  Ni  Ni88  1  0.333331  0.666668  0.000000  1
  Ni  Ni89  1  0.666671  0.333332  0.000000  1
  Ni  Ni90  1  0.084596  0.318797  0.000000  1
  Ni  Ni91  1  0.915424  0.681219  0.000000  1
  Ni  Ni92  1  0.681186  0.765757  0.000000  1
  Ni  Ni93  1  0.234223  0.915437  0.000000  1
  Ni  Ni94  1  0.765774  0.084572  0.000000  1
  Ni  Ni95  1  0.318823  0.234243  0.000000  1
  Ni  Ni96  1  0.765757  0.681173  0.000000  1
  Ni  Ni97  1  0.915432  0.234223  0.000000  1
  Ni  Ni98  1  0.318783  0.084580  0.000000  1
  Ni  Ni99  1  0.681208  0.915414  0.000000  1
  Ni  Ni100  1  0.084570  0.765777  0.000000  1
  Ni  Ni101  1  0.234244  0.318812  0.000000  1
  Ni  Ni102  1  0.089321  0.178617  0.238685  1
  Ni  Ni103  1  0.910708  0.821380  0.238691  1
  Ni  Ni104  1  0.821380  0.910683  0.238683  1
  Ni  Ni105  1  0.089290  0.910716  0.238694  1
  Ni  Ni106  1  0.910721  0.089288  0.238671  1
  Ni  Ni107  1  0.178619  0.089298  0.238699  1
  Ni  Ni108  1  0.910708  0.821380  0.761310  1
  Ni  Ni109  1  0.910721  0.089288  0.761328  1
  Ni  Ni110  1  0.178619  0.089298  0.761302  1
  Ni  Ni111  1  0.821380  0.910683  0.761318  1
  Ni  Ni112  1  0.089290  0.910716  0.761305  1
  Ni  Ni113  1  0.089321  0.178617  0.761316  1
  Ni  Ni114  1  0.105460  0.446648  0.224423  1
  Ni  Ni115  1  0.894547  0.553365  0.224412  1
  Ni  Ni116  1  0.553329  0.658785  0.224435  1
  Ni  Ni117  1  0.341191  0.894548  0.224395  1
  Ni  Ni118  1  0.658799  0.105458  0.224417  1
  Ni  Ni119  1  0.446667  0.341213  0.224430  1
  Ni  Ni120  1  0.658789  0.553327  0.775563  1
  Ni  Ni121  1  0.894545  0.341205  0.775586  1
  Ni  Ni122  1  0.446630  0.105452  0.775592  1
  Ni  Ni123  1  0.553356  0.894541  0.775573  1
  Ni  Ni124  1  0.105453  0.658807  0.775595  1
  Ni  Ni125  1  0.341213  0.446669  0.775582  1
  Ni  Ni126  1  0.894547  0.553365  0.775587  1
  Ni  Ni127  1  0.105460  0.446648  0.775576  1
  Ni  Ni128  1  0.446667  0.341213  0.775570  1
  Ni  Ni129  1  0.658799  0.105458  0.775584  1
  Ni  Ni130  1  0.341191  0.894548  0.775606  1
  Ni  Ni131  1  0.553329  0.658785  0.775565  1
  Ni  Ni132  1  0.341213  0.446669  0.224418  1
  Ni  Ni133  1  0.105453  0.658807  0.224406  1
  Ni  Ni134  1  0.553356  0.894541  0.224426  1
  Ni  Ni135  1  0.446630  0.105452  0.224407  1
  Ni  Ni136  1  0.894545  0.341205  0.224415  1
  Ni  Ni137  1  0.658789  0.553327  0.224437  1
  Ni  Ni138  1  0.543389  0.086790  0.000000  1
  Ni  Ni139  1  0.456604  0.913211  0.000000  1
  Ni  Ni140  1  0.913217  0.456617  0.000000  1
  Ni  Ni141  1  0.543416  0.456586  0.000000  1
  Ni  Ni142  1  0.456586  0.543410  0.000000  1
  Ni  Ni143  1  0.086787  0.543393  0.000000  1
  Ni  Ni144  1  0.419410  0.999990  0.500000  1
  Ni  Ni145  1  0.580595  0.000012  0.500000  1
  Ni  Ni146  1  0.999989  0.419405  0.500000  1
  Ni  Ni147  1  0.580576  0.580575  0.500000  1
  Ni  Ni148  1  0.419436  0.419436  0.500000  1
  Ni  Ni149  1  0.000010  0.580604  0.500000  1
  Ni  Ni150  1  0.262290  0.524600  0.344789  1
  Ni  Ni151  1  0.737711  0.475402  0.344787  1
  Ni  Ni152  1  0.475391  0.737706  0.344784  1
  Ni  Ni153  1  0.262291  0.737706  0.344775  1
  Ni  Ni154  1  0.737699  0.262303  0.344778  1
  Ni  Ni155  1  0.524590  0.262288  0.344786  1
  Ni  Ni156  1  0.737711  0.475402  0.655213  1
  Ni  Ni157  1  0.737699  0.262303  0.655222  1
  Ni  Ni158  1  0.524590  0.262288  0.655214  1
  Ni  Ni159  1  0.475391  0.737706  0.655216  1
  Ni  Ni160  1  0.262291  0.737706  0.655225  1
  Ni  Ni161  1  0.262290  0.524600  0.655211  1
  Ni  Ni162  1  0.142283  0.284590  0.500000  1
  Ni  Ni163  1  0.857659  0.715411  0.500000  1
  Ni  Ni164  1  0.715414  0.857706  0.500000  1
  Ni  Ni165  1  0.142279  0.857710  0.500000  1
  Ni  Ni166  1  0.857694  0.142264  0.500000  1
  Ni  Ni167  1  0.284591  0.142312  0.500000  1
