# generated using pymatgen
data_Ba8(Bi2O7)3
_symmetry_space_group_name_H-M   'P 1'
_cell_length_a   14.10079254
_cell_length_b   8.88862264
_cell_length_c   10.80962936
_cell_angle_alpha   113.46421800
_cell_angle_beta   96.97688550
_cell_angle_gamma   90.52091735
_symmetry_Int_Tables_number   1
_chemical_formula_structural   Ba8(Bi2O7)3
_chemical_formula_sum   'Ba16 Bi12 O42'
_cell_volume   1231.14768834
_cell_formula_units_Z   2
loop_
 _symmetry_equiv_pos_site_id
 _symmetry_equiv_pos_as_xyz
  1  'x, y, z'
loop_
 _atom_site_type_symbol
 _atom_site_label
 _atom_site_symmetry_multiplicity
 _atom_site_fract_x
 _atom_site_fract_y
 _atom_site_fract_z
 _atom_site_occupancy
  Ba  Ba0  1  0.786611  0.176709  0.851682  1
  Ba  Ba1  1  0.788434  0.674178  0.858278  1
  Ba  Ba2  1  0.066985  0.105630  0.713888  1
  Ba  Ba3  1  0.358961  0.035111  0.565620  1
  Ba  Ba4  1  0.501851  0.745253  0.001200  1
  Ba  Ba5  1  0.928024  0.394754  0.286062  1
  Ba  Ba6  1  0.359033  0.533022  0.572015  1
  Ba  Ba7  1  0.711820  0.070187  0.142195  1
  Ba  Ba8  1  0.288180  0.929813  0.857805  1
  Ba  Ba9  1  0.640967  0.466978  0.427985  1
  Ba  Ba10  1  0.071976  0.605246  0.713938  1
  Ba  Ba11  1  0.641039  0.964889  0.434380  1
  Ba  Ba12  1  0.498149  0.254747  0.998800  1
  Ba  Ba13  1  0.933015  0.894370  0.286112  1
  Ba  Ba14  1  0.211566  0.325822  0.141722  1
  Ba  Ba15  1  0.213389  0.823291  0.148318  1
  Bi  Bi16  1  0.858145  0.291083  0.576781  1
  Bi  Bi17  1  0.572417  0.357169  0.715435  1
  Bi  Bi18  1  0.285389  0.428926  0.856405  1
  Bi  Bi19  1  0.857352  0.784715  0.570968  1
  Bi  Bi20  1  0.575992  0.854245  0.707661  1
  Bi  Bi21  1  0.424008  0.145755  0.292339  1
  Bi  Bi22  1  0.142648  0.215285  0.429032  1
  Bi  Bi23  1  0.714611  0.571074  0.143595  1
  Bi  Bi24  1  0.427583  0.642831  0.284565  1
  Bi  Bi25  1  0.141855  0.708917  0.423219  1
  Bi  Bi26  1  0.000000  0.000000  0.000000  1
  Bi  Bi27  1  0.000000  0.500000  0.000000  1
  O  O28  1  0.605641  0.102835  0.715561  1
  O  O29  1  0.945071  0.360837  0.776862  1
  O  O30  1  0.628085  0.507660  0.941949  1
  O  O31  1  0.836344  0.036802  0.561502  1
  O  O32  1  0.970913  0.750711  0.992107  1
  O  O33  1  0.250431  0.194204  0.840269  1
  O  O34  1  0.991398  0.215827  0.485844  1
  O  O35  1  0.419501  0.343822  0.767482  1
  O  O36  1  0.730423  0.361294  0.677204  1
  O  O37  1  0.154083  0.516703  0.950752  1
  O  O38  1  0.884839  0.549049  0.603312  1
  O  O39  1  0.321721  0.662388  0.873321  1
  O  O40  1  0.509442  0.210295  0.492309  1
  O  O41  1  0.665408  0.909137  0.889902  1
  O  O42  1  0.777358  0.236313  0.388942  1
  O  O43  1  0.909326  0.931507  0.799305  1
  O  O44  1  0.200917  0.366357  0.654176  1
  O  O45  1  0.549339  0.596900  0.681526  1
  O  O46  1  0.701905  0.777690  0.598713  1
  O  O47  1  0.543760  0.062485  0.195429  1
  O  O48  1  0.883234  0.083082  0.102028  1
  O  O49  1  0.116766  0.916918  0.897972  1
  O  O50  1  0.456240  0.937515  0.804571  1
  O  O51  1  0.298095  0.222310  0.401287  1
  O  O52  1  0.450661  0.403100  0.318474  1
  O  O53  1  0.799083  0.633643  0.345824  1
  O  O54  1  0.090674  0.068493  0.200695  1
  O  O55  1  0.222642  0.763687  0.611058  1
  O  O56  1  0.490558  0.789705  0.507691  1
  O  O57  1  0.334592  0.090863  0.110098  1
  O  O58  1  0.678279  0.337612  0.126679  1
  O  O59  1  0.115161  0.450951  0.396688  1
  O  O60  1  0.845917  0.483297  0.049248  1
  O  O61  1  0.269577  0.638706  0.322796  1
  O  O62  1  0.580499  0.656178  0.232518  1
  O  O63  1  0.008602  0.784173  0.514156  1
  O  O64  1  0.749569  0.805796  0.159731  1
  O  O65  1  0.029087  0.249289  0.007893  1
  O  O66  1  0.163656  0.963198  0.438498  1
  O  O67  1  0.371915  0.492340  0.058051  1
  O  O68  1  0.054929  0.639163  0.223138  1
  O  O69  1  0.394359  0.897165  0.284439  1
