# generated using pymatgen
data_Pr2CdCu2
_symmetry_space_group_name_H-M   'P 1'
_cell_length_a   5.66037686
_cell_length_b   5.66043311
_cell_length_c   7.68354821
_cell_angle_alpha   102.20989854
_cell_angle_beta   77.79158023
_cell_angle_gamma   97.78683914
_symmetry_Int_Tables_number   1
_chemical_formula_structural   Pr2CdCu2
_chemical_formula_sum   'Pr4 Cd2 Cu4'
_cell_volume   234.10807478
_cell_formula_units_Z   2
loop_
 _symmetry_equiv_pos_site_id
 _symmetry_equiv_pos_as_xyz
  1  'x, y, z'
loop_
 _atom_site_type_symbol
 _atom_site_label
 _atom_site_symmetry_multiplicity
 _atom_site_fract_x
 _atom_site_fract_y
 _atom_site_fract_z
 _atom_site_occupancy
  Pr  Pr0  1  0.661541  0.338399  0.271470  1
  Pr  Pr1  1  0.338489  0.661441  0.728356  1
  Pr  Pr2  1  0.209522  0.790426  0.254492  1
  Pr  Pr3  1  0.790500  0.209445  0.745364  1
  Cd  Cd4  1  0.214126  0.214063  0.999940  1
  Cd  Cd5  1  0.785873  0.785800  0.999936  1
  Cu  Cu6  1  0.316182  0.113067  0.594139  1
  Cu  Cu7  1  0.113087  0.316091  0.405667  1
  Cu  Cu8  1  0.683795  0.886760  0.405702  1
  Cu  Cu9  1  0.886795  0.683687  0.594116  1
