# generated using pymatgen
data_Li5Mn6(BO3)6
_symmetry_space_group_name_H-M   'P 1'
_cell_length_a   8.28562304
_cell_length_b   10.42830137
_cell_length_c   10.42830133
_cell_angle_alpha   75.36806622
_cell_angle_beta   66.80119022
_cell_angle_gamma   66.80118878
_symmetry_Int_Tables_number   1
_chemical_formula_structural   Li5Mn6(BO3)6
_chemical_formula_sum   'Li10 Mn12 B12 O36'
_cell_volume   756.15586548
_cell_formula_units_Z   2
loop_
 _symmetry_equiv_pos_site_id
 _symmetry_equiv_pos_as_xyz
  1  'x, y, z'
loop_
 _atom_site_type_symbol
 _atom_site_label
 _atom_site_symmetry_multiplicity
 _atom_site_fract_x
 _atom_site_fract_y
 _atom_site_fract_z
 _atom_site_occupancy
  Li  Li0  1  0.989326  0.732684  0.982684  1
  Li  Li1  1  0.984611  0.985117  0.732024  1
  Li  Li2  1  0.719970  0.523090  0.773090  1
  Li  Li3  1  0.718629  0.772775  0.526921  1
  Li  Li4  1  0.984611  0.482024  0.235117  1
  Li  Li5  1  0.969076  0.237103  0.487103  1
  Li  Li6  1  0.718629  0.276921  0.022775  1
  Li  Li7  1  0.305186  0.866305  0.116305  1
  Li  Li8  1  0.297867  0.113125  0.869319  1
  Li  Li9  1  0.297867  0.619319  0.363125  1
  Mn  Mn10  1  0.368210  0.812818  0.812123  1
  Mn  Mn11  1  0.637503  0.761542  0.256258  1
  Mn  Mn12  1  0.611930  0.258116  0.758483  1
  Mn  Mn13  1  0.611930  0.508483  0.508116  1
  Mn  Mn14  1  0.017243  0.426445  0.923263  1
  Mn  Mn15  1  0.017243  0.673263  0.676445  1
  Mn  Mn16  1  0.003554  0.930349  0.429839  1
  Mn  Mn17  1  0.359972  0.068676  0.564398  1
  Mn  Mn18  1  0.359972  0.314398  0.318676  1
  Mn  Mn19  1  0.368210  0.562123  0.062818  1
  Mn  Mn20  1  0.637503  0.006257  0.011543  1
  Mn  Mn21  1  0.003554  0.179839  0.180349  1
  B  B22  1  0.669082  0.958761  0.708406  1
  B  B23  1  0.673585  0.707475  0.957475  1
  B  B24  1  0.990051  0.244702  0.754830  1
  B  B25  1  0.990051  0.504830  0.494702  1
  B  B26  1  0.663478  0.211880  0.461880  1
  B  B27  1  0.669082  0.458406  0.208761  1
  B  B28  1  0.332525  0.543903  0.793903  1
  B  B29  1  0.333448  0.791736  0.541731  1
  B  B30  1  0.010204  0.000093  0.992662  1
  B  B31  1  0.010204  0.742662  0.250093  1
  B  B32  1  0.333448  0.291731  0.041736  1
  B  B33  1  0.323706  0.043525  0.293525  1
  O  O34  1  0.928546  0.940046  0.939299  1
  O  O35  1  0.866007  0.653401  0.903401  1
  O  O36  1  0.861572  0.903508  0.654781  1
  O  O37  1  0.900902  0.823829  0.358366  1
  O  O38  1  0.882462  0.349784  0.844276  1
  O  O39  1  0.882462  0.594276  0.599784  1
  O  O40  1  0.928546  0.689299  0.190046  1
  O  O41  1  0.902309  0.195423  0.696566  1
  O  O42  1  0.902309  0.446566  0.445423  1
  O  O43  1  0.566025  0.664136  0.914136  1
  O  O44  1  0.560282  0.916607  0.665620  1
  O  O45  1  0.203434  0.951214  0.961090  1
  O  O46  1  0.861572  0.404781  0.153508  1
  O  O47  1  0.853748  0.150365  0.400365  1
  O  O48  1  0.526924  0.485259  0.735259  1
  O  O49  1  0.527541  0.240297  0.978970  1
  O  O50  1  0.527541  0.728970  0.490297  1
  O  O51  1  0.514072  0.985981  0.235981  1
  O  O52  1  0.606309  0.306921  0.556921  1
  O  O53  1  0.259361  0.640431  0.890431  1
  O  O54  1  0.256588  0.890578  0.635581  1
  O  O55  1  0.583174  0.056481  0.805198  1
  O  O56  1  0.583174  0.555198  0.306481  1
  O  O57  1  0.588183  0.804347  0.054347  1
  O  O58  1  0.900902  0.108366  0.073829  1
  O  O59  1  0.560282  0.415620  0.166607  1
  O  O60  1  0.534604  0.183021  0.433021  1
  O  O61  1  0.219102  0.505639  0.755639  1
  O  O62  1  0.221359  0.752925  0.499716  1
  O  O63  1  0.203434  0.711090  0.201214  1
  O  O64  1  0.179411  0.187408  0.725828  1
  O  O65  1  0.179411  0.475828  0.437408  1
  O  O66  1  0.256588  0.385581  0.140578  1
  O  O67  1  0.244728  0.140820  0.390820  1
  O  O68  1  0.221359  0.249716  0.002925  1
  O  O69  1  0.208004  0.003998  0.253998  1
