# generated using pymatgen
data_Na6Mn2As(CO4)4
_symmetry_space_group_name_H-M   'P 1'
_cell_length_a   10.09216320
_cell_length_b   10.09216298
_cell_length_c   10.09216358
_cell_angle_alpha   90.00000082
_cell_angle_beta   60.00000126
_cell_angle_gamma   59.99999929
_symmetry_Int_Tables_number   1
_chemical_formula_structural   Na6Mn2As(CO4)4
_chemical_formula_sum   'Na12 Mn4 As2 C8 O32'
_cell_volume   726.83830094
_cell_formula_units_Z   2
loop_
 _symmetry_equiv_pos_site_id
 _symmetry_equiv_pos_as_xyz
  1  'x, y, z'
loop_
 _atom_site_type_symbol
 _atom_site_label
 _atom_site_symmetry_multiplicity
 _atom_site_fract_x
 _atom_site_fract_y
 _atom_site_fract_z
 _atom_site_occupancy
  Na  Na0  1  0.750000  0.915000  0.665000  1
  Na  Na1  1  0.669999  0.665000  0.915000  1
  Na  Na2  1  0.750000  0.335000  0.665000  1
  Na  Na3  1  0.750000  0.915000  0.085000  1
  Na  Na4  1  0.250000  0.665000  0.915000  1
  Na  Na5  1  0.830001  0.085000  0.335000  1
  Na  Na6  1  0.750000  0.335000  0.085000  1
  Na  Na7  1  0.169999  0.915000  0.665000  1
  Na  Na8  1  0.250000  0.665000  0.335000  1
  Na  Na9  1  0.250000  0.085000  0.915000  1
  Na  Na10  1  0.330001  0.335000  0.085000  1
  Na  Na11  1  0.250000  0.085000  0.335000  1
  Mn  Mn12  1  0.500000  0.500000  0.500000  1
  Mn  Mn13  1  0.500000  0.000000  0.500000  1
  Mn  Mn14  1  0.000000  0.500000  0.500000  1
  Mn  Mn15  1  0.000000  0.500000  0.000000  1
  As  As16  1  0.750000  0.125000  0.875000  1
  As  As17  1  0.250000  0.875000  0.125000  1
  C  C18  1  0.933873  0.716937  0.283063  1
  C  C19  1  0.933873  0.349191  0.283063  1
  C  C20  1  0.566127  0.716937  0.650809  1
  C  C21  1  0.566127  0.716937  0.283063  1
  C  C22  1  0.433873  0.283063  0.716937  1
  C  C23  1  0.433873  0.283063  0.349191  1
  C  C24  1  0.066127  0.650809  0.716937  1
  C  C25  1  0.066127  0.283063  0.716937  1
  O  O26  1  0.949924  0.652582  0.693923  1
  O  O27  1  0.949924  0.397494  0.856154  1
  O  O28  1  0.958660  0.693923  0.397494  1
  O  O29  1  0.796428  0.856154  0.306077  1
  O  O30  1  0.889314  0.055343  0.944657  1
  O  O31  1  0.703572  0.602506  0.652582  1
  O  O32  1  0.541340  0.856154  0.652582  1
  O  O33  1  0.610686  0.333969  0.944657  1
  O  O34  1  0.889314  0.055343  0.666031  1
  O  O35  1  0.958660  0.347418  0.143846  1
  O  O36  1  0.796428  0.347418  0.397494  1
  O  O37  1  0.610686  0.055343  0.944657  1
  O  O38  1  0.703572  0.693923  0.143846  1
  O  O39  1  0.449924  0.693923  0.652582  1
  O  O40  1  0.449924  0.856154  0.397494  1
  O  O41  1  0.458660  0.397494  0.693923  1
  O  O42  1  0.541340  0.602506  0.306077  1
  O  O43  1  0.550076  0.143846  0.602506  1
  O  O44  1  0.550076  0.306077  0.347418  1
  O  O45  1  0.296428  0.306077  0.856154  1
  O  O46  1  0.389314  0.944657  0.055343  1
  O  O47  1  0.203572  0.652582  0.602506  1
  O  O48  1  0.041340  0.652582  0.856154  1
  O  O49  1  0.110686  0.944657  0.333969  1
  O  O50  1  0.389314  0.666031  0.055343  1
  O  O51  1  0.458660  0.143846  0.347418  1
  O  O52  1  0.296428  0.397494  0.347418  1
  O  O53  1  0.110686  0.944657  0.055343  1
  O  O54  1  0.203572  0.143846  0.693923  1
  O  O55  1  0.041340  0.306077  0.602506  1
  O  O56  1  0.050076  0.602506  0.143846  1
  O  O57  1  0.050076  0.347418  0.306077  1
