# generated using pymatgen
data_Tm2Mg
_symmetry_space_group_name_H-M   'P 1'
_cell_length_a   3.58360817
_cell_length_b   8.77435596
_cell_length_c   5.40254560
_cell_angle_alpha   90.00000000
_cell_angle_beta   90.00000000
_cell_angle_gamma   78.21678384
_symmetry_Int_Tables_number   1
_chemical_formula_structural   Tm2Mg
_chemical_formula_sum   'Tm4 Mg2'
_cell_volume   166.29708101
_cell_formula_units_Z   2
loop_
 _symmetry_equiv_pos_site_id
 _symmetry_equiv_pos_as_xyz
  1  'x, y, z'
loop_
 _atom_site_type_symbol
 _atom_site_label
 _atom_site_symmetry_multiplicity
 _atom_site_fract_x
 _atom_site_fract_y
 _atom_site_fract_z
 _atom_site_occupancy
  Tm  Tm0  1  0.986417  0.027167  0.000000  1
  Tm  Tm1  1  0.662964  0.674072  0.000000  1
  Tm  Tm2  1  0.791361  0.417278  0.499999  1
  Tm  Tm3  1  0.114814  0.770373  0.499999  1
  Mg  Mg4  1  0.326157  0.347686  0.000000  1
  Mg  Mg5  1  0.451620  0.096759  0.499999  1
