# generated using pymatgen
data_Fe2OF3
_symmetry_space_group_name_H-M   'P 1'
_cell_length_a   5.77472855
_cell_length_b   10.18612251
_cell_length_c   5.77472855
_cell_angle_alpha   79.19257920
_cell_angle_beta   65.19591205
_cell_angle_gamma   98.13926432
_symmetry_Int_Tables_number   1
_chemical_formula_structural   Fe2OF3
_chemical_formula_sum   'Fe8 O4 F12'
_cell_volume   293.49105114
_cell_formula_units_Z   4
loop_
 _symmetry_equiv_pos_site_id
 _symmetry_equiv_pos_as_xyz
  1  'x, y, z'
loop_
 _atom_site_type_symbol
 _atom_site_label
 _atom_site_symmetry_multiplicity
 _atom_site_fract_x
 _atom_site_fract_y
 _atom_site_fract_z
 _atom_site_occupancy
  Fe  Fe0  1  0.628835  0.249927  0.867777  1
  Fe  Fe1  1  0.871165  0.750073  0.632223  1
  Fe  Fe2  1  0.250000  0.500000  0.750000  1
  Fe  Fe3  1  0.750000  0.500000  0.250000  1
  Fe  Fe4  1  0.487923  0.019911  0.468012  1
  Fe  Fe5  1  0.382296  0.750073  0.121092  1
  Fe  Fe6  1  0.117704  0.249927  0.378908  1
  Fe  Fe7  1  0.012077  0.980089  0.031988  1
  O  O8  1  0.829263  0.340197  0.489066  1
  O  O9  1  0.670737  0.659803  0.010934  1
  O  O10  1  0.413899  0.165865  0.248035  1
  O  O11  1  0.086101  0.834135  0.251965  1
  F  F12  1  0.847961  0.395636  0.943382  1
  F  F13  1  0.927318  0.145335  0.781984  1
  F  F14  1  0.572682  0.854665  0.718016  1
  F  F15  1  0.323305  0.351548  0.971757  1
  F  F16  1  0.901324  0.103505  0.302737  1
  F  F17  1  0.652039  0.604364  0.556618  1
  F  F18  1  0.406242  0.103505  0.797818  1
  F  F19  1  0.093758  0.896495  0.702182  1
  F  F20  1  0.339018  0.395636  0.452325  1
  F  F21  1  0.598676  0.896495  0.197263  1
  F  F22  1  0.176695  0.648452  0.528243  1
  F  F23  1  0.160982  0.604364  0.047675  1
