# generated using pymatgen
data_KPAuSe3
_symmetry_space_group_name_H-M   'P 1'
_cell_length_a   7.23959178
_cell_length_b   7.23959178
_cell_length_c   8.24099536
_cell_angle_alpha   110.93115242
_cell_angle_beta   110.93115242
_cell_angle_gamma   61.50984826
_symmetry_Int_Tables_number   1
_chemical_formula_structural   KPAuSe3
_chemical_formula_sum   'K2 P2 Au2 Se6'
_cell_volume   345.26149796
_cell_formula_units_Z   2
loop_
 _symmetry_equiv_pos_site_id
 _symmetry_equiv_pos_as_xyz
  1  'x, y, z'
loop_
 _atom_site_type_symbol
 _atom_site_label
 _atom_site_symmetry_multiplicity
 _atom_site_fract_x
 _atom_site_fract_y
 _atom_site_fract_z
 _atom_site_occupancy
  K  K0  1  0.298181  0.298181  0.254888  1
  K  K1  1  0.701819  0.701819  0.745112  1
  P  P2  1  0.975698  0.975698  0.350001  1
  P  P3  1  0.024301  0.024301  0.649998  1
  Au  Au4  1  0.743086  0.256916  0.000000  1
  Au  Au5  1  0.256916  0.743086  0.000000  1
  Se  Se6  1  0.786034  0.786034  0.202029  1
  Se  Se7  1  0.821874  0.322798  0.324854  1
  Se  Se8  1  0.322798  0.821874  0.324854  1
  Se  Se9  1  0.677202  0.178126  0.675146  1
  Se  Se10  1  0.178126  0.677202  0.675146  1
  Se  Se11  1  0.213967  0.213967  0.797971  1
