# generated using pymatgen
data_Mn12O7F17
_symmetry_space_group_name_H-M   'P 1'
_cell_length_a   4.80268067
_cell_length_b   5.80475100
_cell_length_c   15.89755770
_cell_angle_alpha   90.46249886
_cell_angle_beta   90.51933952
_cell_angle_gamma   86.08411695
_symmetry_Int_Tables_number   1
_chemical_formula_structural   Mn12O7F17
_chemical_formula_sum   'Mn12 O7 F17'
_cell_volume   442.13272479
_cell_formula_units_Z   1
loop_
 _symmetry_equiv_pos_site_id
 _symmetry_equiv_pos_as_xyz
  1  'x, y, z'
loop_
 _atom_site_type_symbol
 _atom_site_label
 _atom_site_symmetry_multiplicity
 _atom_site_fract_x
 _atom_site_fract_y
 _atom_site_fract_z
 _atom_site_occupancy
  Mn  Mn0  1  0.003590  0.153391  0.414043  1
  Mn  Mn1  1  0.018815  0.826926  0.251680  1
  Mn  Mn2  1  0.004099  0.170401  0.076395  1
  Mn  Mn3  1  0.999450  0.154804  0.748413  1
  Mn  Mn4  1  0.013435  0.828177  0.572162  1
  Mn  Mn5  1  0.028085  0.856757  0.910151  1
  Mn  Mn6  1  0.515999  0.334322  0.593506  1
  Mn  Mn7  1  0.483823  0.314856  0.926966  1
  Mn  Mn8  1  0.517879  0.355648  0.260630  1
  Mn  Mn9  1  0.521620  0.651555  0.079447  1
  Mn  Mn10  1  0.484265  0.650683  0.413050  1
  Mn  Mn11  1  0.511135  0.659534  0.754358  1
  O  O12  1  0.212867  0.112124  0.972264  1
  O  O13  1  0.221235  0.886750  0.462078  1
  O  O14  1  0.224580  0.891808  0.800175  1
  O  O15  1  0.292817  0.604646  0.308310  1
  O  O16  1  0.711576  0.369671  0.027452  1
  O  O17  1  0.731573  0.390558  0.364663  1
  O  O18  1  0.732190  0.389655  0.702840  1
  F  F19  1  0.227784  0.112455  0.304236  1
  F  F20  1  0.214777  0.115625  0.640320  1
  F  F21  1  0.236885  0.896229  0.135269  1
  F  F22  1  0.280087  0.387709  0.151325  1
  F  F23  1  0.249410  0.380489  0.483504  1
  F  F24  1  0.271801  0.616031  0.646994  1
  F  F25  1  0.265571  0.387527  0.816135  1
  F  F26  1  0.251748  0.608954  0.979414  1
  F  F27  1  0.747957  0.616096  0.189919  1
  F  F28  1  0.700163  0.620100  0.522647  1
  F  F29  1  0.724763  0.624564  0.865740  1
  F  F30  1  0.774343  0.124738  0.192740  1
  F  F31  1  0.770070  0.116589  0.521848  1
  F  F32  1  0.761767  0.901656  0.356621  1
  F  F33  1  0.775126  0.880062  0.019321  1
  F  F34  1  0.759629  0.120700  0.850921  1
  F  F35  1  0.759090  0.888212  0.684459  1
