# generated using pymatgen
data_Li5Mn4(P2O7)4
_symmetry_space_group_name_H-M   'P 1'
_cell_length_a   9.81276294
_cell_length_b   9.79439241
_cell_length_c   11.28100727
_cell_angle_alpha   90.16055183
_cell_angle_beta   102.11123428
_cell_angle_gamma   89.83682257
_symmetry_Int_Tables_number   1
_chemical_formula_structural   Li5Mn4(P2O7)4
_chemical_formula_sum   'Li10 Mn8 P16 O56'
_cell_volume   1060.07878710
_cell_formula_units_Z   2
loop_
 _symmetry_equiv_pos_site_id
 _symmetry_equiv_pos_as_xyz
  1  'x, y, z'
loop_
 _atom_site_type_symbol
 _atom_site_label
 _atom_site_symmetry_multiplicity
 _atom_site_fract_x
 _atom_site_fract_y
 _atom_site_fract_z
 _atom_site_occupancy
  Li  Li0  1  0.087924  0.106228  0.023806  1
  Li  Li1  1  0.408728  0.609708  0.973854  1
  Li  Li2  1  0.338852  0.917171  0.463131  1
  Li  Li3  1  0.390180  0.219133  0.550267  1
  Li  Li4  1  0.584802  0.394509  0.027122  1
  Li  Li5  1  0.850859  0.587568  0.951850  1
  Li  Li6  1  0.646079  0.091966  0.045331  1
  Li  Li7  1  0.911206  0.893322  0.969235  1
  Li  Li8  1  0.839487  0.579842  0.464037  1
  Li  Li9  1  0.889747  0.280076  0.550862  1
  Mn  Mn10  1  0.203523  0.919051  0.675033  1
  Mn  Mn11  1  0.254858  0.209477  0.824395  1
  Mn  Mn12  1  0.233359  0.715075  0.172958  1
  Mn  Mn13  1  0.305976  0.428663  0.333487  1
  Mn  Mn14  1  0.705026  0.578695  0.672970  1
  Mn  Mn15  1  0.754501  0.286315  0.825222  1
  Mn  Mn16  1  0.733168  0.784633  0.173040  1
  Mn  Mn17  1  0.804290  0.070710  0.335050  1
  P  P18  1  0.025586  0.448366  0.754057  1
  P  P19  1  0.118954  0.707718  0.889358  1
  P  P20  1  0.060595  0.932500  0.239856  1
  P  P21  1  0.130305  0.154165  0.424545  1
  P  P22  1  0.377488  0.641279  0.569677  1
  P  P23  1  0.438030  0.429207  0.757827  1
  P  P24  1  0.521301  0.049947  0.756977  1
  P  P25  1  0.378631  0.211141  0.117225  1
  P  P26  1  0.615484  0.793357  0.891044  1
  P  P27  1  0.468170  0.939983  0.242855  1
  P  P28  1  0.560677  0.567983  0.241724  1
  P  P29  1  0.629368  0.345975  0.424247  1
  P  P30  1  0.880420  0.854333  0.575441  1
  P  P31  1  0.937749  0.072055  0.756881  1
  P  P32  1  0.882263  0.292693  0.114036  1
  P  P33  1  0.970342  0.559470  0.241779  1
  O  O34  1  0.015870  0.421879  0.621981  1
  O  O35  1  0.036269  0.850447  0.569866  1
  O  O36  1  0.086559  0.081563  0.729820  1
  O  O37  1  0.108357  0.343359  0.842495  1
  O  O38  1  0.106054  0.590229  0.787128  1
  O  O39  1  0.174720  0.829001  0.831352  1
  O  O40  1  0.226819  0.654255  0.002874  1
  O  O41  1  0.017574  0.261121  0.080818  1
  O  O42  1  0.118619  0.076052  0.295070  1
  O  O43  1  0.058111  0.935874  0.105828  1
  O  O44  1  0.118788  0.558050  0.209536  1
  O  O45  1  0.200708  0.289555  0.408640  1
  O  O46  1  0.167535  0.823139  0.300465  1
  O  O47  1  0.227241  0.065975  0.519372  1
  O  O48  1  0.288931  0.560638  0.463460  1
  O  O49  1  0.345658  0.308302  0.701589  1
  O  O50  1  0.318101  0.784054  0.584232  1
  O  O51  1  0.366549  0.035669  0.780489  1
  O  O52  1  0.366666  0.565203  0.694493  1
  O  O53  1  0.437792  0.441895  0.891063  1
  O  O54  1  0.478679  0.768101  0.923676  1
  O  O55  1  0.270161  0.163556  0.004905  1
  O  O56  1  0.321978  0.328679  0.184423  1
  O  O57  1  0.397941  0.087545  0.214143  1
  O  O58  1  0.413843  0.584375  0.272334  1
  O  O59  1  0.378531  0.839708  0.152389  1
  O  O60  1  0.522159  0.086233  0.628597  1
  O  O61  1  0.480904  0.335092  0.443756  1
  O  O62  1  0.531647  0.647339  0.564731  1
  O  O63  1  0.475522  0.915065  0.373934  1
  O  O64  1  0.604340  0.142747  0.857278  1
  O  O65  1  0.585780  0.417484  0.729227  1
  O  O66  1  0.593928  0.901986  0.781133  1
  O  O67  1  0.689280  0.673604  0.843313  1
  O  O68  1  0.721871  0.862312  0.002483  1
  O  O69  1  0.518489  0.233328  0.085092  1
  O  O70  1  0.559147  0.564365  0.107792  1
  O  O71  1  0.620375  0.424079  0.295416  1
  O  O72  1  0.616385  0.946879  0.205564  1
  O  O73  1  0.694588  0.207636  0.407130  1
  O  O74  1  0.666867  0.678748  0.301157  1
  O  O75  1  0.727807  0.432240  0.518665  1
  O  O76  1  0.792755  0.931563  0.467623  1
  O  O77  1  0.845942  0.189243  0.695777  1
  O  O78  1  0.825060  0.710639  0.590209  1
  O  O79  1  0.876810  0.467461  0.787796  1
  O  O80  1  0.934032  0.063041  0.889967  1
  O  O81  1  0.869889  0.930891  0.699607  1
  O  O82  1  0.978732  0.725649  0.922230  1
  O  O83  1  0.775226  0.358371  0.006353  1
  O  O84  1  0.809497  0.173549  0.168938  1
  O  O85  1  0.909454  0.407199  0.220808  1
  O  O86  1  0.873610  0.649823  0.142393  1
  O  O87  1  0.912325  0.914640  0.268614  1
  O  O88  1  0.981819  0.167875  0.443235  1
  O  O89  1  0.968360  0.596483  0.368850  1
