# generated using pymatgen
data_CsAgPSe3
_symmetry_space_group_name_H-M   'P 1'
_cell_length_a   6.96519537
_cell_length_b   12.74327393
_cell_length_c   8.82521545
_cell_angle_alpha   90.00000000
_cell_angle_beta   96.88693205
_cell_angle_gamma   90.00000000
_symmetry_Int_Tables_number   1
_chemical_formula_structural   CsAgPSe3
_chemical_formula_sum   'Cs4 Ag4 P4 Se12'
_cell_volume   777.66888127
_cell_formula_units_Z   4
loop_
 _symmetry_equiv_pos_site_id
 _symmetry_equiv_pos_as_xyz
  1  'x, y, z'
loop_
 _atom_site_type_symbol
 _atom_site_label
 _atom_site_symmetry_multiplicity
 _atom_site_fract_x
 _atom_site_fract_y
 _atom_site_fract_z
 _atom_site_occupancy
  Cs  Cs0  1  0.748179  0.168766  0.484651  1
  Cs  Cs1  1  0.751821  0.668766  0.015349  1
  Cs  Cs2  1  0.251821  0.831234  0.515350  1
  Cs  Cs3  1  0.248179  0.331234  0.984651  1
  Ag  Ag4  1  0.543754  0.058954  0.861518  1
  Ag  Ag5  1  0.956245  0.558953  0.638482  1
  Ag  Ag6  1  0.456245  0.941046  0.138482  1
  Ag  Ag7  1  0.043755  0.441046  0.361519  1
  P  P8  1  0.462353  0.460108  0.612264  1
  P  P9  1  0.037647  0.960108  0.887735  1
  P  P10  1  0.537648  0.539892  0.387736  1
  P  P11  1  0.962353  0.039892  0.112264  1
  Se  Se12  1  0.282133  0.322197  0.541048  1
  Se  Se13  1  0.217866  0.822197  0.958950  1
  Se  Se14  1  0.717866  0.677803  0.458952  1
  Se  Se15  1  0.782134  0.177803  0.041049  1
  Se  Se16  1  0.736161  0.411178  0.743501  1
  Se  Se17  1  0.763839  0.911178  0.756500  1
  Se  Se18  1  0.263839  0.588823  0.256500  1
  Se  Se19  1  0.236160  0.088823  0.243500  1
  Se  Se20  1  0.317925  0.579596  0.745048  1
  Se  Se21  1  0.182076  0.079595  0.754951  1
  Se  Se22  1  0.682076  0.420405  0.254951  1
  Se  Se23  1  0.817925  0.920405  0.245048  1
