# generated using pymatgen
data_Th2Ni7
_symmetry_space_group_name_H-M   'P 1'
_cell_length_a   4.97419174
_cell_length_b   4.97433856
_cell_length_c   24.76198765
_cell_angle_alpha   89.99969545
_cell_angle_beta   89.99910957
_cell_angle_gamma   120.00553135
_symmetry_Int_Tables_number   1
_chemical_formula_structural   Th2Ni7
_chemical_formula_sum   'Th8 Ni28'
_cell_volume   530.57867045
_cell_formula_units_Z   4
loop_
 _symmetry_equiv_pos_site_id
 _symmetry_equiv_pos_as_xyz
  1  'x, y, z'
loop_
 _atom_site_type_symbol
 _atom_site_label
 _atom_site_symmetry_multiplicity
 _atom_site_fract_x
 _atom_site_fract_y
 _atom_site_fract_z
 _atom_site_occupancy
  Th  Th0  1  0.333307  0.666648  0.175665  1
  Th  Th1  1  0.666633  0.333330  0.675671  1
  Th  Th2  1  0.666606  0.333330  0.824335  1
  Th  Th3  1  0.333323  0.666656  0.324345  1
  Th  Th4  1  0.333312  0.666667  0.031952  1
  Th  Th5  1  0.666661  0.333339  0.531978  1
  Th  Th6  1  0.666631  0.333338  0.968018  1
  Th  Th7  1  0.333335  0.666671  0.468029  1
  Ni  Ni8  1  0.833447  0.666821  0.249987  1
  Ni  Ni9  1  0.166616  0.333224  0.750020  1
  Ni  Ni10  1  0.333224  0.166646  0.249984  1
  Ni  Ni11  1  0.833446  0.166628  0.249998  1
  Ni  Ni12  1  0.166613  0.833413  0.750011  1
  Ni  Ni13  1  0.666744  0.833421  0.750010  1
  Ni  Ni14  1  0.832762  0.665541  0.085539  1
  Ni  Ni15  1  0.167248  0.334452  0.585563  1
  Ni  Ni16  1  0.334431  0.167300  0.085545  1
  Ni  Ni17  1  0.832676  0.167200  0.085539  1
  Ni  Ni18  1  0.167240  0.832768  0.585579  1
  Ni  Ni19  1  0.665560  0.832765  0.585565  1
  Ni  Ni20  1  0.167169  0.334410  0.914441  1
  Ni  Ni21  1  0.167062  0.832720  0.914432  1
  Ni  Ni22  1  0.665462  0.832826  0.914462  1
  Ni  Ni23  1  0.334464  0.167239  0.414457  1
  Ni  Ni24  1  0.832791  0.167234  0.414435  1
  Ni  Ni25  1  0.832786  0.665559  0.414455  1
  Ni  Ni26  1  0.000156  0.000015  0.000015  1
  Ni  Ni27  1  0.999920  0.000041  0.499989  1
  Ni  Ni28  1  0.999975  0.999947  0.167376  1
  Ni  Ni29  1  0.999960  0.000017  0.667424  1
  Ni  Ni30  1  0.999885  0.999957  0.832581  1
  Ni  Ni31  1  0.000091  0.999908  0.332577  1
  Ni  Ni32  1  0.333360  0.666654  0.832475  1
  Ni  Ni33  1  0.666729  0.333310  0.332456  1
  Ni  Ni34  1  0.666719  0.333347  0.167539  1
  Ni  Ni35  1  0.333357  0.666651  0.667554  1
