# generated using pymatgen
data_Cs2Li14Tb3O14
_symmetry_space_group_name_H-M   'P 1'
_cell_length_a   7.49365437
_cell_length_b   8.22777454
_cell_length_c   8.67193802
_cell_angle_alpha   118.31968989
_cell_angle_beta   115.59858123
_cell_angle_gamma   90.00000001
_symmetry_Int_Tables_number   1
_chemical_formula_structural   Cs2Li14Tb3O14
_chemical_formula_sum   'Cs2 Li14 Tb3 O14'
_cell_volume   410.09290762
_cell_formula_units_Z   1
loop_
 _symmetry_equiv_pos_site_id
 _symmetry_equiv_pos_as_xyz
  1  'x, y, z'
loop_
 _atom_site_type_symbol
 _atom_site_label
 _atom_site_symmetry_multiplicity
 _atom_site_fract_x
 _atom_site_fract_y
 _atom_site_fract_z
 _atom_site_occupancy
  Li  Li0  1  0.141131  0.712974  0.733776  1
  Li  Li1  1  0.858869  0.979198  0.266224  1
  Li  Li2  1  0.592645  0.020802  0.733776  1
  Li  Li3  1  0.407355  0.287026  0.266224  1
  Li  Li4  1  0.141131  0.020802  0.733776  1
  Li  Li5  1  0.500000  0.155270  0.000000  1
  Li  Li6  1  0.500000  0.844730  0.000000  1
  Li  Li7  1  0.767882  0.415756  0.535763  1
  Li  Li8  1  0.232118  0.584244  0.464237  1
  Li  Li9  1  0.232118  0.879993  0.464237  1
  Li  Li10  1  0.767882  0.120007  0.535763  1
  Li  Li11  1  0.592645  0.712974  0.733776  1
  Li  Li12  1  0.858869  0.287026  0.266224  1
  Li  Li13  1  0.407355  0.979198  0.266224  1
  O  O14  1  0.868762  0.051651  0.737523  1
  O  O15  1  0.629582  0.407973  0.259163  1
  O  O16  1  0.629582  0.851190  0.259163  1
  O  O17  1  0.370418  0.592027  0.740837  1
  O  O18  1  0.370418  0.148810  0.740837  1
  O  O19  1  0.052262  0.753746  0.507492  1
  O  O20  1  0.544770  0.246254  0.492508  1
  O  O21  1  0.947738  0.246254  0.492508  1
  O  O22  1  0.455230  0.753746  0.507492  1
  O  O23  1  0.701998  0.000000  0.000000  1
  O  O24  1  0.298002  0.000000  0.000000  1
  O  O25  1  0.868762  0.685872  0.737523  1
  O  O26  1  0.131238  0.314128  0.262477  1
  O  O27  1  0.131238  0.948349  0.262477  1
  Cs  Cs28  1  0.766389  0.500000  0.000000  1
  Cs  Cs29  1  0.233611  0.500000  0.000000  1
  Tb  Tb30  1  0.000000  0.000000  0.000000  1
  Tb  Tb31  1  0.268374  0.268374  0.536747  1
  Tb  Tb32  1  0.731626  0.731626  0.463253  1
