# generated using pymatgen
data_Li2FeO2F
_symmetry_space_group_name_H-M   'P 1'
_cell_length_a   5.15260951
_cell_length_b   5.16357018
_cell_length_c   9.86945639
_cell_angle_alpha   85.06021891
_cell_angle_beta   99.93807264
_cell_angle_gamma   119.92981321
_symmetry_Int_Tables_number   1
_chemical_formula_structural   Li2FeO2F
_chemical_formula_sum   'Li8 Fe4 O8 F4'
_cell_volume   224.15161101
_cell_formula_units_Z   4
loop_
 _symmetry_equiv_pos_site_id
 _symmetry_equiv_pos_as_xyz
  1  'x, y, z'
loop_
 _atom_site_type_symbol
 _atom_site_label
 _atom_site_symmetry_multiplicity
 _atom_site_fract_x
 _atom_site_fract_y
 _atom_site_fract_z
 _atom_site_occupancy
  Li  Li0  1  0.166197  0.818850  0.496512  1
  Li  Li1  1  0.010492  0.493838  0.999472  1
  Li  Li2  1  0.091329  0.182657  0.250000  1
  Li  Li3  1  0.652654  0.818850  0.003488  1
  Li  Li4  1  0.483346  0.493838  0.500528  1
  Li  Li5  1  0.337159  0.193742  0.007026  1
  Li  Li6  1  0.742844  0.485688  0.250000  1
  Li  Li7  1  0.856583  0.193742  0.492974  1
  Fe  Fe8  1  0.251976  0.503951  0.750000  1
  Fe  Fe9  1  0.388734  0.777468  0.250000  1
  Fe  Fe10  1  0.584797  0.169592  0.750000  1
  Fe  Fe11  1  0.918746  0.837492  0.750000  1
  O  O12  1  0.288999  0.836798  0.864948  1
  O  O13  1  0.133313  0.512283  0.369690  1
  O  O14  1  0.213815  0.170273  0.633610  1
  O  O15  1  0.547798  0.836798  0.635052  1
  O  O16  1  0.378970  0.512283  0.130310  1
  O  O17  1  0.624638  0.503075  0.866550  1
  O  O18  1  0.878438  0.503075  0.633450  1
  O  O19  1  0.956458  0.170273  0.866390  1
  F  F20  1  0.051109  0.840093  0.128297  1
  F  F21  1  0.459714  0.152624  0.368720  1
  F  F22  1  0.788985  0.840093  0.371703  1
  F  F23  1  0.692910  0.152624  0.131280  1
