# generated using pymatgen
data_LiNi4(PO4)3
_symmetry_space_group_name_H-M   'P 1'
_cell_length_a   9.00488709
_cell_length_b   6.39909015
_cell_length_c   14.53040973
_cell_angle_alpha   90.00000000
_cell_angle_beta   90.33402204
_cell_angle_gamma   90.00000000
_symmetry_Int_Tables_number   1
_chemical_formula_structural   LiNi4(PO4)3
_chemical_formula_sum   'Li4 Ni16 P12 O48'
_cell_volume   837.27279650
_cell_formula_units_Z   4
loop_
 _symmetry_equiv_pos_site_id
 _symmetry_equiv_pos_as_xyz
  1  'x, y, z'
loop_
 _atom_site_type_symbol
 _atom_site_label
 _atom_site_symmetry_multiplicity
 _atom_site_fract_x
 _atom_site_fract_y
 _atom_site_fract_z
 _atom_site_occupancy
  Li  Li0  1  0.657542  0.750000  0.682893  1
  Li  Li1  1  0.837306  0.250000  0.838053  1
  Li  Li2  1  0.841657  0.250000  0.173225  1
  Li  Li3  1  0.846001  0.250000  0.509260  1
  Ni  Ni4  1  0.999570  0.507680  0.669212  1
  Ni  Ni5  1  0.991085  0.999099  0.998859  1
  Ni  Ni6  1  0.991085  0.500901  0.998859  1
  Ni  Ni7  1  0.008510  0.001132  0.333893  1
  Ni  Ni8  1  0.008510  0.498868  0.333893  1
  Ni  Ni9  1  0.999570  0.992320  0.669212  1
  Ni  Ni10  1  0.148034  0.750000  0.148917  1
  Ni  Ni11  1  0.354885  0.250000  0.988349  1
  Ni  Ni12  1  0.345188  0.250000  0.646010  1
  Ni  Ni13  1  0.506008  0.001747  0.167928  1
  Ni  Ni14  1  0.506008  0.498253  0.167928  1
  Ni  Ni15  1  0.503266  0.993735  0.831233  1
  Ni  Ni16  1  0.503266  0.506265  0.831233  1
  Ni  Ni17  1  0.492453  0.996499  0.498045  1
  Ni  Ni18  1  0.492453  0.503501  0.498045  1
  Ni  Ni19  1  0.645826  0.750000  0.350273  1
  P  P20  1  0.176375  0.250000  0.489380  1
  P  P21  1  0.179708  0.250000  0.162306  1
  P  P22  1  0.177152  0.250000  0.821555  1
  P  P23  1  0.327368  0.750000  0.319925  1
  P  P24  1  0.315030  0.750000  0.665475  1
  P  P25  1  0.319365  0.750000  0.993703  1
  P  P26  1  0.681754  0.250000  0.338929  1
  P  P27  1  0.675686  0.250000  0.010067  1
  P  P28  1  0.681025  0.250000  0.671832  1
  P  P29  1  0.824827  0.750000  0.176704  1
  P  P30  1  0.821071  0.750000  0.840719  1
  P  P31  1  0.823632  0.750000  0.508197  1
  O  O32  1  0.116297  0.052936  0.114107  1
  O  O33  1  0.123317  0.049053  0.445385  1
  O  O34  1  0.116963  0.049720  0.781299  1
  O  O35  1  0.116963  0.450280  0.781299  1
  O  O36  1  0.123317  0.450947  0.445385  1
  O  O37  1  0.116297  0.447064  0.114107  1
  O  O38  1  0.133611  0.250000  0.263550  1
  O  O39  1  0.131181  0.250000  0.596646  1
  O  O40  1  0.148774  0.250000  0.930830  1
  O  O41  1  0.150589  0.750000  0.298247  1
  O  O42  1  0.144543  0.750000  0.992846  1
  O  O43  1  0.145025  0.750000  0.651934  1
  O  O44  1  0.351277  0.250000  0.133889  1
  O  O45  1  0.354111  0.250000  0.494164  1
  O  O46  1  0.354945  0.250000  0.802586  1
  O  O47  1  0.364191  0.750000  0.099315  1
  O  O48  1  0.380628  0.750000  0.423103  1
  O  O49  1  0.378702  0.750000  0.765220  1
  O  O50  1  0.383528  0.950700  0.275314  1
  O  O51  1  0.378275  0.946870  0.616220  1
  O  O52  1  0.377693  0.949220  0.947530  1
  O  O53  1  0.378275  0.553130  0.616220  1
  O  O54  1  0.377693  0.550780  0.947530  1
  O  O55  1  0.383528  0.549300  0.275314  1
  O  O56  1  0.617103  0.051079  0.055035  1
  O  O57  1  0.618459  0.051986  0.384903  1
  O  O58  1  0.619332  0.051366  0.716667  1
  O  O59  1  0.617103  0.448921  0.055035  1
  O  O60  1  0.618459  0.448014  0.384903  1
  O  O61  1  0.619332  0.448634  0.716667  1
  O  O62  1  0.641690  0.250000  0.234562  1
  O  O63  1  0.627162  0.250000  0.905106  1
  O  O64  1  0.635220  0.250000  0.567142  1
  O  O65  1  0.651207  0.750000  0.201556  1
  O  O66  1  0.646822  0.750000  0.848466  1
  O  O67  1  0.645721  0.750000  0.515966  1
  O  O68  1  0.853976  0.250000  0.689454  1
  O  O69  1  0.851579  0.250000  0.024772  1
  O  O70  1  0.853682  0.250000  0.359629  1
  O  O71  1  0.865026  0.750000  0.735679  1
  O  O72  1  0.859976  0.750000  0.400900  1
  O  O73  1  0.872613  0.750000  0.074059  1
  O  O74  1  0.878607  0.548940  0.552893  1
  O  O75  1  0.884702  0.548509  0.221385  1
  O  O76  1  0.877356  0.547155  0.885514  1
  O  O77  1  0.884702  0.951491  0.221385  1
  O  O78  1  0.878607  0.951060  0.552893  1
  O  O79  1  0.877356  0.952845  0.885514  1
