# generated using pymatgen
data_LiMn3(BO3)3
_symmetry_space_group_name_H-M   'P 1'
_cell_length_a   5.78681698
_cell_length_b   8.18038421
_cell_length_c   9.30432447
_cell_angle_alpha   65.21693816
_cell_angle_beta   101.60181257
_cell_angle_gamma   79.26952674
_symmetry_Int_Tables_number   1
_chemical_formula_structural   LiMn3(BO3)3
_chemical_formula_sum   'Li2 Mn6 B6 O18'
_cell_volume   373.15949322
_cell_formula_units_Z   2
loop_
 _symmetry_equiv_pos_site_id
 _symmetry_equiv_pos_as_xyz
  1  'x, y, z'
loop_
 _atom_site_type_symbol
 _atom_site_label
 _atom_site_symmetry_multiplicity
 _atom_site_fract_x
 _atom_site_fract_y
 _atom_site_fract_z
 _atom_site_occupancy
  Li  Li0  1  0.932133  0.383260  0.781347  1
  Li  Li1  1  0.612173  0.719088  0.107030  1
  Mn  Mn2  1  0.778508  0.973547  0.199650  1
  Mn  Mn3  1  0.915012  0.340979  0.152093  1
  Mn  Mn4  1  0.532460  0.724501  0.453856  1
  Mn  Mn5  1  0.424309  0.329385  0.520861  1
  Mn  Mn6  1  0.110013  0.639565  0.881216  1
  Mn  Mn7  1  0.242907  0.027022  0.788344  1
  B  B8  1  0.880888  0.377711  0.446902  1
  B  B9  1  0.779868  0.972901  0.871635  1
  B  B10  1  0.568849  0.683388  0.796317  1
  B  B11  1  0.451286  0.296301  0.228726  1
  B  B12  1  0.224329  0.030886  0.104909  1
  B  B13  1  0.090938  0.637287  0.550587  1
  O  O14  1  0.831743  0.871763  0.038739  1
  O  O15  1  0.857591  0.763913  0.444775  1
  O  O16  1  0.951913  0.939003  0.791743  1
  O  O17  1  0.805242  0.469402  0.276416  1
  O  O18  1  0.726197  0.411933  0.537126  1
  O  O19  1  0.785345  0.535297  0.889085  1
  O  O20  1  0.439432  0.876156  0.198869  1
  O  O21  1  0.615805  0.257879  0.146770  1
  O  O22  1  0.489486  0.778507  0.626658  1
  O  O23  1  0.524212  0.209033  0.397466  1
  O  O24  1  0.429084  0.746739  0.881577  1
  O  O25  1  0.545148  0.101305  0.769502  1
  O  O26  1  0.213735  0.419550  0.130511  1
  O  O27  1  0.262884  0.604196  0.468099  1
  O  O28  1  0.147358  0.539389  0.716483  1
  O  O29  1  0.083878  0.084154  0.192070  1
  O  O30  1  0.119713  0.256685  0.540261  1
  O  O31  1  0.157679  0.132123  0.935215  1
