# generated using pymatgen
data_Ba5V5O14
_symmetry_space_group_name_H-M   'P 1'
_cell_length_a   5.85169377
_cell_length_b   5.77821422
_cell_length_c   23.75499094
_cell_angle_alpha   89.54001066
_cell_angle_beta   89.55680681
_cell_angle_gamma   120.21767820
_symmetry_Int_Tables_number   1
_chemical_formula_structural   Ba5V5O14
_chemical_formula_sum   'Ba10 V10 O28'
_cell_volume   693.98423623
_cell_formula_units_Z   2
loop_
 _symmetry_equiv_pos_site_id
 _symmetry_equiv_pos_as_xyz
  1  'x, y, z'
loop_
 _atom_site_type_symbol
 _atom_site_label
 _atom_site_symmetry_multiplicity
 _atom_site_fract_x
 _atom_site_fract_y
 _atom_site_fract_z
 _atom_site_occupancy
  Ba  Ba0  1  0.336534  0.667922  0.206042  1
  Ba  Ba1  1  0.328084  0.665365  0.388533  1
  Ba  Ba2  1  0.328113  0.663436  0.705446  1
  Ba  Ba3  1  0.332744  0.663851  0.889149  1
  Ba  Ba4  1  0.002516  0.000028  0.000012  1
  Ba  Ba5  1  0.995914  0.998845  0.500874  1
  Ba  Ba6  1  0.665911  0.333278  0.109079  1
  Ba  Ba7  1  0.665305  0.331604  0.609509  1
  Ba  Ba8  1  0.668143  0.331522  0.793204  1
  Ba  Ba9  1  0.663368  0.332215  0.293096  1
  V  V10  1  0.314072  0.681557  0.053366  1
  V  V11  1  0.368963  0.684042  0.553153  1
  V  V12  1  0.997330  0.004182  0.140158  1
  V  V13  1  0.020353  0.002033  0.859980  1
  V  V14  1  0.996864  0.997126  0.251304  1
  V  V15  1  0.978414  0.986461  0.360747  1
  V  V16  1  0.998831  0.996279  0.640849  1
  V  V17  1  0.993679  0.995696  0.751145  1
  V  V18  1  0.615840  0.307903  0.445403  1
  V  V19  1  0.687143  0.313270  0.946564  1
  O  O20  1  0.008914  0.506417  0.998980  1
  O  O21  1  0.153757  0.845480  0.099740  1
  O  O22  1  0.165962  0.825322  0.594079  1
  O  O23  1  0.140894  0.844836  0.304082  1
  O  O24  1  0.158925  0.846157  0.803111  1
  O  O25  1  0.132631  0.294554  0.300283  1
  O  O26  1  0.162618  0.304579  0.801623  1
  O  O27  1  0.178947  0.340079  0.092350  1
  O  O28  1  0.163304  0.339432  0.593272  1
  O  O29  1  0.707201  0.842528  0.800768  1
  O  O30  1  0.681312  0.838992  0.302110  1
  O  O31  1  0.691031  0.846838  0.599533  1
  O  O32  1  0.660431  0.827089  0.093683  1
  O  O33  1  0.513893  0.500907  0.500200  1
  O  O34  1  0.339479  0.172699  0.401613  1
  O  O35  1  0.344239  0.177062  0.906594  1
  O  O36  1  0.295909  0.151616  0.197562  1
  O  O37  1  0.293421  0.146303  0.694786  1
  O  O38  1  0.845827  0.660180  0.409285  1
  O  O39  1  0.803530  0.648123  0.911735  1
  O  O40  1  0.846603  0.701134  0.199446  1
  O  O41  1  0.852204  0.694624  0.697135  1
  O  O42  1  0.508327  0.030864  0.000602  1
  O  O43  1  0.515621  0.013467  0.500231  1
  O  O44  1  0.853723  0.152926  0.192410  1
  O  O45  1  0.854836  0.153598  0.697730  1
  O  O46  1  0.842236  0.183547  0.407718  1
  O  O47  1  0.828701  0.157234  0.901724  1
