# generated using pymatgen
data_Cs2MoSe4
_symmetry_space_group_name_H-M   'P 1'
_cell_length_a   10.66594246
_cell_length_b   7.61066532
_cell_length_c   13.47716190
_cell_angle_alpha   90.00000000
_cell_angle_beta   90.00000000
_cell_angle_gamma   90.00000000
_symmetry_Int_Tables_number   1
_chemical_formula_structural   Cs2MoSe4
_chemical_formula_sum   'Cs8 Mo4 Se16'
_cell_volume   1094.00751730
_cell_formula_units_Z   4
loop_
 _symmetry_equiv_pos_site_id
 _symmetry_equiv_pos_as_xyz
  1  'x, y, z'
loop_
 _atom_site_type_symbol
 _atom_site_label
 _atom_site_symmetry_multiplicity
 _atom_site_fract_x
 _atom_site_fract_y
 _atom_site_fract_z
 _atom_site_occupancy
  Cs  Cs0  1  0.453686  0.250000  0.157878  1
  Cs  Cs1  1  0.046312  0.749999  0.657878  1
  Cs  Cs2  1  0.953686  0.250000  0.342123  1
  Cs  Cs3  1  0.546314  0.749999  0.842122  1
  Cs  Cs4  1  0.166714  0.250000  0.890017  1
  Cs  Cs5  1  0.333286  0.749999  0.390017  1
  Cs  Cs6  1  0.666715  0.250000  0.609983  1
  Cs  Cs7  1  0.833286  0.749999  0.109983  1
  Mo  Mo8  1  0.257465  0.250000  0.575232  1
  Mo  Mo9  1  0.242535  0.749999  0.075233  1
  Mo  Mo10  1  0.757465  0.250000  0.924767  1
  Mo  Mo11  1  0.742536  0.749999  0.424768  1
  Se  Se12  1  0.285893  0.250000  0.403542  1
  Se  Se13  1  0.214108  0.749999  0.903542  1
  Se  Se14  1  0.785891  0.250000  0.096459  1
  Se  Se15  1  0.714108  0.749999  0.596458  1
  Se  Se16  1  0.542293  0.250000  0.886521  1
  Se  Se17  1  0.957706  0.749999  0.386520  1
  Se  Se18  1  0.042294  0.250000  0.613480  1
  Se  Se19  1  0.457707  0.749999  0.113480  1
  Se  Se20  1  0.148138  0.501595  0.142821  1
  Se  Se21  1  0.351863  0.498406  0.642822  1
  Se  Se22  1  0.648137  0.998407  0.357179  1
  Se  Se23  1  0.851861  0.001594  0.857178  1
  Se  Se24  1  0.851861  0.498406  0.857178  1
  Se  Se25  1  0.648137  0.501595  0.357179  1
  Se  Se26  1  0.351863  0.001594  0.642822  1
  Se  Se27  1  0.148138  0.998407  0.142821  1
