# generated using pymatgen
data_LiMn2(BO3)2
_symmetry_space_group_name_H-M   'P 1'
_cell_length_a   5.80025584
_cell_length_b   5.29727878
_cell_length_c   16.43565742
_cell_angle_alpha   90.03677525
_cell_angle_beta   99.18152390
_cell_angle_gamma   89.37545402
_symmetry_Int_Tables_number   1
_chemical_formula_structural   LiMn2(BO3)2
_chemical_formula_sum   'Li4 Mn8 B8 O24'
_cell_volume   498.49494184
_cell_formula_units_Z   4
loop_
 _symmetry_equiv_pos_site_id
 _symmetry_equiv_pos_as_xyz
  1  'x, y, z'
loop_
 _atom_site_type_symbol
 _atom_site_label
 _atom_site_symmetry_multiplicity
 _atom_site_fract_x
 _atom_site_fract_y
 _atom_site_fract_z
 _atom_site_occupancy
  Li  Li0  1  0.052103  0.830066  0.611351  1
  Li  Li1  1  0.186070  0.660512  0.131120  1
  Li  Li2  1  0.306337  0.336312  0.364183  1
  Li  Li3  1  0.803805  0.331748  0.864734  1
  Mn  Mn4  1  0.301045  0.696083  0.958667  1
  Mn  Mn5  1  0.023194  0.176671  0.214275  1
  Mn  Mn6  1  0.206811  0.305392  0.538167  1
  Mn  Mn7  1  0.541192  0.188131  0.708620  1
  Mn  Mn8  1  0.462226  0.811938  0.285214  1
  Mn  Mn9  1  0.790184  0.689650  0.456985  1
  Mn  Mn10  1  0.964153  0.807052  0.787482  1
  Mn  Mn11  1  0.698340  0.297803  0.042448  1
  B  B12  1  0.043306  0.327014  0.704447  1
  B  B13  1  0.293023  0.826793  0.454021  1
  B  B14  1  0.468220  0.677705  0.795766  1
  B  B15  1  0.203411  0.174064  0.049841  1
  B  B16  1  0.793290  0.821772  0.952107  1
  B  B17  1  0.531893  0.323420  0.207184  1
  B  B18  1  0.712255  0.177405  0.545384  1
  B  B19  1  0.961801  0.672018  0.293015  1
  O  O20  1  0.032517  0.585277  0.695783  1
  O  O21  1  0.169802  0.183066  0.653591  1
  O  O22  1  0.172620  0.696165  0.506532  1
  O  O23  1  0.355186  0.320681  0.012139  1
  O  O24  1  0.107590  0.803859  0.246024  1
  O  O25  1  0.297030  0.808392  0.831773  1
  O  O26  1  0.043165  0.317826  0.089833  1
  O  O27  1  0.278346  0.085550  0.446073  1
  O  O28  1  0.497018  0.425816  0.803230  1
  O  O29  1  0.212064  0.920753  0.054225  1
  O  O30  1  0.421018  0.687626  0.402745  1
  O  O31  1  0.412246  0.192934  0.260629  1
  O  O32  1  0.619596  0.827666  0.758560  1
  O  O33  1  0.539952  0.304030  0.582214  1
  O  O34  1  0.778223  0.082286  0.949441  1
  O  O35  1  0.498451  0.580035  0.195805  1
  O  O36  1  0.743557  0.925481  0.552079  1
  O  O37  1  0.936631  0.691157  0.903826  1
  O  O38  1  0.672146  0.196168  0.160192  1
  O  O39  1  0.924781  0.198771  0.757833  1
  O  O40  1  0.663769  0.674488  0.996124  1
  O  O41  1  0.862401  0.328888  0.507894  1
  O  O42  1  0.797557  0.811309  0.329272  1
  O  O43  1  0.991335  0.422967  0.306536  1
