# generated using pymatgen
data_Li4Fe2(PO4)3
_symmetry_space_group_name_H-M   'P 1'
_cell_length_a   8.96366216
_cell_length_b   12.22773468
_cell_length_c   8.79780113
_cell_angle_alpha   90.00000000
_cell_angle_beta   90.00000000
_cell_angle_gamma   90.00000000
_symmetry_Int_Tables_number   1
_chemical_formula_structural   Li4Fe2(PO4)3
_chemical_formula_sum   'Li16 Fe8 P12 O48'
_cell_volume   964.28547958
_cell_formula_units_Z   4
loop_
 _symmetry_equiv_pos_site_id
 _symmetry_equiv_pos_as_xyz
  1  'x, y, z'
loop_
 _atom_site_type_symbol
 _atom_site_label
 _atom_site_symmetry_multiplicity
 _atom_site_fract_x
 _atom_site_fract_y
 _atom_site_fract_z
 _atom_site_occupancy
  Li  Li0  1  0.050939  0.286869  0.425484  1
  Li  Li1  1  0.050939  0.713131  0.074516  1
  Li  Li2  1  0.202992  0.180069  0.760826  1
  Li  Li3  1  0.202992  0.819931  0.739174  1
  Li  Li4  1  0.297008  0.319931  0.260826  1
  Li  Li5  1  0.297008  0.680069  0.239174  1
  Li  Li6  1  0.449061  0.213131  0.925484  1
  Li  Li7  1  0.449061  0.786869  0.574516  1
  Li  Li8  1  0.550939  0.213131  0.425484  1
  Li  Li9  1  0.550939  0.786869  0.074516  1
  Li  Li10  1  0.702992  0.319931  0.760826  1
  Li  Li11  1  0.702992  0.680069  0.739174  1
  Li  Li12  1  0.797008  0.180069  0.260826  1
  Li  Li13  1  0.797008  0.819931  0.239174  1
  Li  Li14  1  0.949061  0.286869  0.925484  1
  Li  Li15  1  0.949061  0.713131  0.574516  1
  Fe  Fe16  1  0.252801  0.895954  0.046553  1
  Fe  Fe17  1  0.252801  0.104046  0.453447  1
  Fe  Fe18  1  0.247199  0.395954  0.953447  1
  Fe  Fe19  1  0.247199  0.604046  0.546553  1
  Fe  Fe20  1  0.752801  0.395954  0.453447  1
  Fe  Fe21  1  0.752801  0.604046  0.046553  1
  Fe  Fe22  1  0.747199  0.104046  0.953447  1
  Fe  Fe23  1  0.747199  0.895954  0.546553  1
  P  P24  1  0.052465  0.500000  0.250000  1
  P  P25  1  0.104605  0.151844  0.104453  1
  P  P26  1  0.104605  0.848156  0.395547  1
  P  P27  1  0.395395  0.348156  0.604453  1
  P  P28  1  0.395395  0.651844  0.895547  1
  P  P29  1  0.447535  0.000000  0.750000  1
  P  P30  1  0.552465  0.000000  0.250000  1
  P  P31  1  0.604605  0.348156  0.104453  1
  P  P32  1  0.604605  0.651844  0.395547  1
  P  P33  1  0.895395  0.151844  0.604453  1
  P  P34  1  0.895395  0.848156  0.895547  1
  P  P35  1  0.947535  0.500000  0.750000  1
  O  O36  1  0.042532  0.427004  0.856782  1
  O  O37  1  0.042532  0.572996  0.643218  1
  O  O38  1  0.066902  0.170601  0.591512  1
  O  O39  1  0.066902  0.829399  0.908488  1
  O  O40  1  0.155492  0.420515  0.161396  1
  O  O41  1  0.155492  0.579485  0.338604  1
  O  O42  1  0.156246  0.191466  0.264510  1
  O  O43  1  0.156246  0.808534  0.235489  1
  O  O44  1  0.150695  0.033678  0.078417  1
  O  O45  1  0.150695  0.966322  0.421583  1
  O  O46  1  0.173827  0.225003  0.975205  1
  O  O47  1  0.173827  0.774997  0.524795  1
  O  O48  1  0.326173  0.274997  0.475205  1
  O  O49  1  0.326173  0.725003  0.024795  1
  O  O50  1  0.349305  0.466322  0.578417  1
  O  O51  1  0.349305  0.533678  0.921583  1
  O  O52  1  0.343754  0.308534  0.764510  1
  O  O53  1  0.343754  0.691466  0.735490  1
  O  O54  1  0.344508  0.079485  0.661396  1
  O  O55  1  0.344508  0.920515  0.838604  1
  O  O56  1  0.433098  0.329399  0.091512  1
  O  O57  1  0.433098  0.670601  0.408488  1
  O  O58  1  0.457468  0.072996  0.356782  1
  O  O59  1  0.457468  0.927004  0.143218  1
  O  O60  1  0.542532  0.927004  0.643218  1
  O  O61  1  0.542532  0.072996  0.856782  1
  O  O62  1  0.566902  0.329399  0.591512  1
  O  O63  1  0.566902  0.670601  0.908488  1
  O  O64  1  0.655492  0.079485  0.161396  1
  O  O65  1  0.655492  0.920515  0.338604  1
  O  O66  1  0.656246  0.308534  0.264510  1
  O  O67  1  0.656246  0.691466  0.235489  1
  O  O68  1  0.650695  0.466322  0.078417  1
  O  O69  1  0.650695  0.533678  0.421583  1
  O  O70  1  0.673827  0.274997  0.975205  1
  O  O71  1  0.673827  0.725003  0.524795  1
  O  O72  1  0.826173  0.225003  0.475205  1
  O  O73  1  0.826173  0.774997  0.024795  1
  O  O74  1  0.849305  0.033678  0.578417  1
  O  O75  1  0.849305  0.966322  0.921583  1
  O  O76  1  0.843754  0.191466  0.764510  1
  O  O77  1  0.843754  0.808534  0.735490  1
  O  O78  1  0.844508  0.420515  0.661396  1
  O  O79  1  0.844508  0.579485  0.838604  1
  O  O80  1  0.933098  0.170601  0.091512  1
  O  O81  1  0.933098  0.829399  0.408488  1
  O  O82  1  0.957468  0.427004  0.356782  1
  O  O83  1  0.957468  0.572996  0.143218  1
