# generated using pymatgen
data_V3OF11
_symmetry_space_group_name_H-M   'P 1'
_cell_length_a   5.45092601
_cell_length_b   5.26808195
_cell_length_c   14.73279649
_cell_angle_alpha   90.01779526
_cell_angle_beta   100.35532957
_cell_angle_gamma   89.91227615
_symmetry_Int_Tables_number   1
_chemical_formula_structural   V3OF11
_chemical_formula_sum   'V6 O2 F22'
_cell_volume   416.17445560
_cell_formula_units_Z   2
loop_
 _symmetry_equiv_pos_site_id
 _symmetry_equiv_pos_as_xyz
  1  'x, y, z'
loop_
 _atom_site_type_symbol
 _atom_site_label
 _atom_site_symmetry_multiplicity
 _atom_site_fract_x
 _atom_site_fract_y
 _atom_site_fract_z
 _atom_site_occupancy
  V  V0  1  0.000257  0.008577  0.006271  1
  V  V1  1  0.166534  0.499825  0.333642  1
  V  V2  1  0.322243  0.992107  0.667756  1
  V  V3  1  0.498113  0.503639  0.998759  1
  V  V4  1  0.666585  0.999781  0.333663  1
  V  V5  1  0.793275  0.476347  0.663855  1
  O  O6  1  0.044835  0.082095  0.114669  1
  O  O7  1  0.541597  0.295709  0.644327  1
  F  F8  1  0.024183  0.210400  0.642073  1
  F  F9  1  0.193872  0.292435  0.973719  1
  F  F10  1  0.139870  0.706849  0.690293  1
  F  F11  1  0.208568  0.413354  0.451105  1
  F  F12  1  0.383297  0.088240  0.784718  1
  F  F13  1  0.125065  0.585933  0.215878  1
  F  F14  1  0.295682  0.923574  0.548863  1
  F  F15  1  0.458260  0.582347  0.881020  1
  F  F16  1  0.356575  0.198445  0.308785  1
  F  F17  1  0.697055  0.202636  0.974124  1
  F  F18  1  0.303389  0.798223  0.024353  1
  F  F19  1  0.476937  0.698243  0.358440  1
  F  F20  1  0.637728  0.787434  0.690736  1
  F  F21  1  0.542283  0.412514  0.115697  1
  F  F22  1  0.709007  0.087312  0.451068  1
  F  F23  1  0.894271  0.426908  0.783455  1
  F  F24  1  0.623687  0.913452  0.215889  1
  F  F25  1  0.802063  0.591994  0.551557  1
  F  F26  1  0.957035  0.911786  0.884158  1
  F  F27  1  0.856208  0.301503  0.308517  1
  F  F28  1  0.804794  0.706803  0.024498  1
  F  F29  1  0.976733  0.801534  0.358111  1
