# generated using pymatgen
data_Ta6Pb4O19
_symmetry_space_group_name_H-M   'P 1'
_cell_length_a   7.51870022
_cell_length_b   13.03906862
_cell_length_c   10.65395750
_cell_angle_alpha   114.11314154
_cell_angle_beta   90.00000000
_cell_angle_gamma   73.24293997
_symmetry_Int_Tables_number   1
_chemical_formula_structural   Ta6Pb4O19
_chemical_formula_sum   'Ta12 Pb8 O38'
_cell_volume   904.52854270
_cell_formula_units_Z   2
loop_
 _symmetry_equiv_pos_site_id
 _symmetry_equiv_pos_as_xyz
  1  'x, y, z'
loop_
 _atom_site_type_symbol
 _atom_site_label
 _atom_site_symmetry_multiplicity
 _atom_site_fract_x
 _atom_site_fract_y
 _atom_site_fract_z
 _atom_site_occupancy
  Ta  Ta0  1  0.998585  0.502831  0.998607  1
  Ta  Ta1  1  0.833333  0.833333  0.166667  1
  Ta  Ta2  1  0.165253  0.669495  0.334747  1
  Ta  Ta3  1  0.501414  0.997172  0.998586  1
  Ta  Ta4  1  0.665253  0.669495  0.334747  1
  Ta  Ta5  1  0.001414  0.997172  0.998586  1
  Ta  Ta6  1  0.498585  0.502831  0.504224  1
  Ta  Ta7  1  0.668082  0.163836  0.334726  1
  Ta  Ta8  1  0.333333  0.833333  0.666667  1
  Ta  Ta9  1  0.833333  0.333333  0.666667  1
  Ta  Ta10  1  0.333333  0.333333  0.666667  1
  Ta  Ta11  1  0.168082  0.163836  0.829110  1
  Pb  Pb12  1  0.499467  0.501066  0.984182  1
  Pb  Pb13  1  0.333333  0.833333  0.166667  1
  Pb  Pb14  1  0.333333  0.333333  0.166667  1
  Pb  Pb15  1  0.833333  0.333333  0.166667  1
  Pb  Pb16  1  0.167200  0.165601  0.349151  1
  Pb  Pb17  1  0.999467  0.501066  0.516883  1
  Pb  Pb18  1  0.833333  0.833333  0.666667  1
  Pb  Pb19  1  0.667200  0.165601  0.816450  1
  O  O20  1  0.007351  0.875933  0.067132  1
  O  O21  1  0.616716  0.875933  0.067132  1
  O  O22  1  0.916992  0.666016  0.028054  1
  O  O23  1  0.583333  0.333333  0.009122  1
  O  O24  1  0.049951  0.790733  0.266201  1
  O  O25  1  0.788758  0.540134  0.146652  1
  O  O26  1  0.659315  0.790733  0.266201  1
  O  O27  1  0.171107  0.540134  0.146652  1
  O  O28  1  0.414123  0.671754  0.270827  1
  O  O29  1  0.914123  0.671754  0.400928  1
  O  O30  1  0.252544  0.994913  0.062507  1
  O  O31  1  0.877908  0.126533  0.186681  1
  O  O32  1  0.288758  0.540134  0.393482  1
  O  O33  1  0.549951  0.790733  0.524533  1
  O  O34  1  0.159315  0.790733  0.524533  1
  O  O35  1  0.671107  0.540134  0.393482  1
  O  O36  1  0.083333  0.333333  0.324212  1
  O  O37  1  0.495560  0.126533  0.186681  1
  O  O38  1  0.583333  0.333333  0.347749  1
  O  O39  1  0.416992  0.666016  0.637961  1
  O  O40  1  0.749675  0.000651  0.305279  1
  O  O41  1  0.712723  0.455746  0.600386  1
  O  O42  1  0.835135  0.210921  0.477973  1
  O  O43  1  0.331532  0.455746  0.600386  1
  O  O44  1  0.116716  0.875933  0.808801  1
  O  O45  1  0.507351  0.875933  0.808801  1
  O  O46  1  0.453944  0.210921  0.477973  1
  O  O47  1  0.083333  0.333333  0.601748  1
  O  O48  1  0.583333  0.333333  0.731585  1
  O  O49  1  0.953944  0.210921  0.732947  1
  O  O50  1  0.335135  0.210921  0.732947  1
  O  O51  1  0.831532  0.455746  0.855360  1
  O  O52  1  0.212723  0.455746  0.855360  1
  O  O53  1  0.249675  0.000651  0.695373  1
  O  O54  1  0.083333  0.333333  0.985584  1
  O  O55  1  0.377908  0.126533  0.939852  1
  O  O56  1  0.995560  0.126533  0.939852  1
  O  O57  1  0.752544  0.994913  0.932405  1
