# generated using pymatgen
data_TiZnH12(OF)6
_symmetry_space_group_name_H-M   'P 1'
_cell_length_a   6.28941462
_cell_length_b   6.28941592
_cell_length_c   6.28941463
_cell_angle_alpha   96.57231124
_cell_angle_beta   96.57231556
_cell_angle_gamma   96.57231116
_symmetry_Int_Tables_number   1
_chemical_formula_structural   TiZnH12(OF)6
_chemical_formula_sum   'Ti1 Zn1 H12 O6 F6'
_cell_volume   243.47001076
_cell_formula_units_Z   1
loop_
 _symmetry_equiv_pos_site_id
 _symmetry_equiv_pos_as_xyz
  1  'x, y, z'
loop_
 _atom_site_type_symbol
 _atom_site_label
 _atom_site_symmetry_multiplicity
 _atom_site_fract_x
 _atom_site_fract_y
 _atom_site_fract_z
 _atom_site_occupancy
  Ti  Ti0  1  0.500001  0.500001  0.500001  1
  Zn  Zn1  1  0.000000  0.000000  0.000000  1
  H  H2  1  0.418470  0.185384  0.059496  1
  H  H3  1  0.692917  0.756752  0.162601  1
  H  H4  1  0.059497  0.418472  0.185382  1
  H  H5  1  0.837398  0.307083  0.243249  1
  H  H6  1  0.243247  0.837399  0.307083  1
  H  H7  1  0.185384  0.059497  0.418470  1
  H  H8  1  0.814616  0.940505  0.581530  1
  H  H9  1  0.756753  0.162601  0.692917  1
  H  H10  1  0.162601  0.692918  0.756751  1
  H  H11  1  0.940503  0.581531  0.814618  1
  H  H12  1  0.307082  0.243249  0.837398  1
  H  H13  1  0.581530  0.814618  0.940504  1
  O  O14  1  0.693184  0.866058  0.063817  1
  O  O15  1  0.936186  0.306814  0.133943  1
  O  O16  1  0.133942  0.936185  0.306816  1
  O  O17  1  0.866059  0.063816  0.693185  1
  O  O18  1  0.063815  0.693186  0.866058  1
  O  O19  1  0.306817  0.133943  0.936184  1
  F  F20  1  0.347117  0.569060  0.244794  1
  F  F21  1  0.569062  0.244794  0.347115  1
  F  F22  1  0.755207  0.652885  0.430940  1
  F  F23  1  0.244793  0.347118  0.569060  1
  F  F24  1  0.430939  0.755207  0.652886  1
  F  F25  1  0.652884  0.430941  0.755207  1
