# generated using pymatgen
data_Mn8O13F3
_symmetry_space_group_name_H-M   'P 1'
_cell_length_a   9.01737728
_cell_length_b   5.53659195
_cell_length_c   5.00523465
_cell_angle_alpha   90.31851059
_cell_angle_beta   90.49577207
_cell_angle_gamma   89.24659464
_symmetry_Int_Tables_number   1
_chemical_formula_structural   Mn8O13F3
_chemical_formula_sum   'Mn8 O13 F3'
_cell_volume   249.85437252
_cell_formula_units_Z   1
loop_
 _symmetry_equiv_pos_site_id
 _symmetry_equiv_pos_as_xyz
  1  'x, y, z'
loop_
 _atom_site_type_symbol
 _atom_site_label
 _atom_site_symmetry_multiplicity
 _atom_site_fract_x
 _atom_site_fract_y
 _atom_site_fract_z
 _atom_site_occupancy
  Mn  Mn0  1  0.005249  0.170949  0.250566  1
  Mn  Mn1  1  0.005499  0.860188  0.734806  1
  Mn  Mn2  1  0.247279  0.355879  0.737081  1
  Mn  Mn3  1  0.247495  0.664982  0.252896  1
  Mn  Mn4  1  0.499315  0.850812  0.752380  1
  Mn  Mn5  1  0.499437  0.116433  0.253120  1
  Mn  Mn6  1  0.755420  0.353848  0.766747  1
  Mn  Mn7  1  0.746418  0.652593  0.253751  1
  O  O8  1  0.116609  0.119089  0.915033  1
  O  O9  1  0.111168  0.897113  0.414304  1
  O  O10  1  0.137475  0.397694  0.411848  1
  O  O11  1  0.136879  0.617438  0.916321  1
  O  O12  1  0.367669  0.610760  0.575662  1
  O  O13  1  0.383212  0.105438  0.575559  1
  O  O14  1  0.385294  0.885587  0.075137  1
  O  O15  1  0.616549  0.101430  0.931851  1
  O  O16  1  0.613190  0.881006  0.430252  1
  O  O17  1  0.629235  0.605102  0.924957  1
  O  O18  1  0.863811  0.393132  0.087750  1
  O  O19  1  0.862403  0.613436  0.583868  1
  O  O20  1  0.884783  0.117251  0.575244  1
  F  F21  1  0.374080  0.372703  0.082150  1
  F  F22  1  0.624942  0.360848  0.432540  1
  F  F23  1  0.886589  0.896288  0.066178  1
