# generated using pymatgen
data_CoF3
_symmetry_space_group_name_H-M   'P 1'
_cell_length_a   5.11559926
_cell_length_b   5.11559817
_cell_length_c   6.78885935
_cell_angle_alpha   90.00000000
_cell_angle_beta   90.00000000
_cell_angle_gamma   119.99999998
_symmetry_Int_Tables_number   1
_chemical_formula_structural   CoF3
_chemical_formula_sum   'Co3 F9'
_cell_volume   153.85810601
_cell_formula_units_Z   3
loop_
 _symmetry_equiv_pos_site_id
 _symmetry_equiv_pos_as_xyz
  1  'x, y, z'
loop_
 _atom_site_type_symbol
 _atom_site_label
 _atom_site_symmetry_multiplicity
 _atom_site_fract_x
 _atom_site_fract_y
 _atom_site_fract_z
 _atom_site_occupancy
  Co  Co0  1  0.666667  0.333333  0.338107  1
  Co  Co1  1  0.000000  -0.000000  0.000000  1
  Co  Co2  1  0.333333  0.666667  0.661893  1
  F  F3  1  0.936628  0.672184  0.177154  1
  F  F4  1  0.264444  0.327816  0.822846  1
  F  F5  1  0.327816  0.264444  0.177154  1
  F  F6  1  0.614704  0.614704  0.500000  1
  F  F7  1  0.063372  0.735556  0.822846  1
  F  F8  1  0.385296  0.000000  0.500000  1
  F  F9  1  0.735556  0.063372  0.177154  1
  F  F10  1  1.000000  0.385296  0.500000  1
  F  F11  1  0.672184  0.936628  0.822846  1
