# generated using pymatgen
data_Li2Mn3(SiO4)2
_symmetry_space_group_name_H-M   'P 1'
_cell_length_a   5.08588711
_cell_length_b   9.06968894
_cell_length_c   13.81478677
_cell_angle_alpha   68.54587925
_cell_angle_beta   80.01314664
_cell_angle_gamma   89.21192761
_symmetry_Int_Tables_number   1
_chemical_formula_structural   Li2Mn3(SiO4)2
_chemical_formula_sum   'Li6 Mn9 Si6 O24'
_cell_volume   583.24134387
_cell_formula_units_Z   3
loop_
 _symmetry_equiv_pos_site_id
 _symmetry_equiv_pos_as_xyz
  1  'x, y, z'
loop_
 _atom_site_type_symbol
 _atom_site_label
 _atom_site_symmetry_multiplicity
 _atom_site_fract_x
 _atom_site_fract_y
 _atom_site_fract_z
 _atom_site_occupancy
  Li  Li0  1  0.470416  0.406098  0.210540  1
  Li  Li1  1  0.377804  0.064041  0.312889  1
  Li  Li2  1  0.267508  0.939121  0.521585  1
  Li  Li3  1  0.490187  0.755366  0.143290  1
  Li  Li4  1  0.729038  0.020534  0.641102  1
  Li  Li5  1  0.650210  0.877240  0.892906  1
  Mn  Mn6  1  0.021508  0.977847  0.009378  1
  Mn  Mn7  1  0.269250  0.283418  0.505712  1
  Mn  Mn8  1  0.208482  0.743579  0.810295  1
  Mn  Mn9  1  0.283326  0.497421  0.652539  1
  Mn  Mn10  1  0.933122  0.223896  0.172486  1
  Mn  Mn11  1  0.605826  0.499932  0.963995  1
  Mn  Mn12  1  0.684625  0.261726  0.811365  1
  Mn  Mn13  1  0.924082  0.566385  0.307679  1
  Mn  Mn14  1  0.844658  0.826246  0.460013  1
  Si  Si15  1  0.027249  0.606272  0.067068  1
  Si  Si16  1  0.499016  0.129009  0.068041  1
  Si  Si17  1  0.191261  0.103414  0.751785  1
  Si  Si18  1  0.377416  0.676836  0.395954  1
  Si  Si19  1  0.810980  0.183789  0.407448  1
  Si  Si20  1  0.765633  0.656968  0.713434  1
  O  O21  1  0.035251  0.050962  0.405352  1
  O  O22  1  0.980905  0.337499  0.407493  1
  O  O23  1  0.179416  0.572608  0.168279  1
  O  O24  1  0.065806  0.704496  0.378666  1
  O  O25  1  0.386404  0.972681  0.051192  1
  O  O26  1  0.053866  0.126833  0.648706  1
  O  O27  1  0.327470  0.178870  0.163337  1
  O  O28  1  0.385515  0.509802  0.499563  1
  O  O29  1  0.401591  0.959317  0.778460  1
  O  O30  1  0.470869  0.830833  0.422550  1
  O  O31  1  0.553158  0.655539  0.290763  1
  O  O32  1  0.364873  0.265268  0.736302  1
  O  O33  1  0.267493  0.629055  0.964450  1
  O  O34  1  0.443126  0.649462  0.711447  1
  O  O35  1  0.798666  0.089950  0.097948  1
  O  O36  1  0.568241  0.112471  0.511936  1
  O  O37  1  0.663675  0.232258  0.302948  1
  O  O38  1  0.814584  0.454512  0.088567  1
  O  O39  1  0.837937  0.759131  0.040833  1
  O  O40  1  0.528152  0.284286  0.954619  1
  O  O41  1  0.924545  0.802820  0.611142  1
  O  O42  1  0.802430  0.686410  0.823256  1
  O  O43  1  0.878134  0.483575  0.718720  1
  O  O44  1  0.933398  0.065121  0.853166  1
