# generated using pymatgen
data_Li5Fe5(CoO6)2
_symmetry_space_group_name_H-M   'P 1'
_cell_length_a   5.17616863
_cell_length_b   5.17616861
_cell_length_c   9.87180429
_cell_angle_alpha   84.96377935
_cell_angle_beta   95.03621853
_cell_angle_gamma   60.38839012
_symmetry_Int_Tables_number   1
_chemical_formula_structural   Li5Fe5(CoO6)2
_chemical_formula_sum   'Li5 Fe5 Co2 O12'
_cell_volume   226.41842876
_cell_formula_units_Z   1
loop_
 _symmetry_equiv_pos_site_id
 _symmetry_equiv_pos_as_xyz
  1  'x, y, z'
loop_
 _atom_site_type_symbol
 _atom_site_label
 _atom_site_symmetry_multiplicity
 _atom_site_fract_x
 _atom_site_fract_y
 _atom_site_fract_z
 _atom_site_occupancy
  Li  Li0  1  0.167283  0.663006  0.507727  1
  Li  Li1  1  0.323109  0.843028  0.990752  1
  Li  Li2  1  0.663006  0.167283  0.992273  1
  Li  Li3  1  0.843028  0.323109  0.509248  1
  Li  Li4  1  0.919229  0.919229  0.750000  1
  Fe  Fe5  1  0.083635  0.083635  0.250000  1
  Fe  Fe6  1  0.997391  0.511895  0.985762  1
  Fe  Fe7  1  0.511895  0.997391  0.514238  1
  Fe  Fe8  1  0.420669  0.420669  0.250000  1
  Fe  Fe9  1  0.575414  0.575414  0.750000  1
  Co  Co10  1  0.248699  0.248699  0.750000  1
  Co  Co11  1  0.751164  0.751164  0.250000  1
  O  O12  1  0.945147  0.233898  0.875244  1
  O  O13  1  0.233898  0.945147  0.624756  1
  O  O14  1  0.152559  0.350957  0.371915  1
  O  O15  1  0.350957  0.152559  0.128085  1
  O  O16  1  0.287424  0.540712  0.874172  1
  O  O17  1  0.540712  0.287424  0.625828  1
  O  O18  1  0.446403  0.722669  0.365942  1
  O  O19  1  0.722669  0.446403  0.134058  1
  O  O20  1  0.628705  0.851980  0.876782  1
  O  O21  1  0.851980  0.628705  0.623218  1
  O  O22  1  0.781939  0.053083  0.369092  1
  O  O23  1  0.053083  0.781939  0.130908  1
