# generated using pymatgen
data_Ni6OF11
_symmetry_space_group_name_H-M   'P 1'
_cell_length_a   7.35858246
_cell_length_b   5.63113465
_cell_length_c   5.63113465
_cell_angle_alpha   72.01130282
_cell_angle_beta   72.27675868
_cell_angle_gamma   72.27675868
_symmetry_Int_Tables_number   1
_chemical_formula_structural   Ni6OF11
_chemical_formula_sum   'Ni6 O1 F11'
_cell_volume   205.61871326
_cell_formula_units_Z   1
loop_
 _symmetry_equiv_pos_site_id
 _symmetry_equiv_pos_as_xyz
  1  'x, y, z'
loop_
 _atom_site_type_symbol
 _atom_site_label
 _atom_site_symmetry_multiplicity
 _atom_site_fract_x
 _atom_site_fract_y
 _atom_site_fract_z
 _atom_site_occupancy
  Ni  Ni0  1  0.838942  0.655512  0.666864  1
  Ni  Ni1  1  0.333305  0.665975  0.669769  1
  Ni  Ni2  1  0.666695  0.330231  0.334025  1
  Ni  Ni3  1  0.161058  0.333136  0.344488  1
  Ni  Ni4  1  0.500000  -0.000871  0.000871  1
  Ni  Ni5  1  0.000000  0.007335  0.992665  1
  O  O6  1  0.000000  0.308612  0.691388  1
  F  F7  1  0.670661  0.022604  0.637423  1
  F  F8  1  0.329339  0.362577  0.977396  1
  F  F9  1  0.297903  0.900764  0.898322  1
  F  F10  1  0.631071  0.564654  0.564248  1
  F  F11  1  0.964357  0.234313  0.230610  1
  F  F12  1  0.702097  0.101678  0.099236  1
  F  F13  1  0.035643  0.769390  0.765687  1
  F  F14  1  0.368929  0.435752  0.435346  1
  F  F15  1  0.332824  0.970097  0.365428  1
  F  F16  1  0.667176  0.634572  0.029903  1
  F  F17  1  0.000000  0.703670  0.296330  1
