# generated using pymatgen
data_Pr3MnAlS7
_symmetry_space_group_name_H-M   'P 1'
_cell_length_a   10.09304223
_cell_length_b   10.09286274
_cell_length_c   6.10901121
_cell_angle_alpha   90.00009337
_cell_angle_beta   89.99991294
_cell_angle_gamma   120.00813340
_symmetry_Int_Tables_number   1
_chemical_formula_structural   Pr3MnAlS7
_chemical_formula_sum   'Pr6 Mn2 Al2 S14'
_cell_volume   538.89283763
_cell_formula_units_Z   2
loop_
 _symmetry_equiv_pos_site_id
 _symmetry_equiv_pos_as_xyz
  1  'x, y, z'
loop_
 _atom_site_type_symbol
 _atom_site_label
 _atom_site_symmetry_multiplicity
 _atom_site_fract_x
 _atom_site_fract_y
 _atom_site_fract_z
 _atom_site_occupancy
  Pr  Pr0  1  0.144687  0.376144  0.242777  1
  Pr  Pr1  1  0.855313  0.623856  0.742780  1
  Pr  Pr2  1  0.623843  0.768503  0.242867  1
  Pr  Pr3  1  0.231441  0.855279  0.242864  1
  Pr  Pr4  1  0.768559  0.144720  0.742864  1
  Pr  Pr5  1  0.376157  0.231497  0.742867  1
  Mn  Mn6  1  0.000009  0.999868  0.018723  1
  Mn  Mn7  1  0.999988  0.000128  0.518723  1
  Al  Al8  1  0.333265  0.666636  0.664319  1
  Al  Al9  1  0.666735  0.333364  0.164319  1
  S  S10  1  0.333353  0.666686  0.029290  1
  S  S11  1  0.666646  0.333315  0.529290  1
  S  S12  1  0.093147  0.237851  0.791520  1
  S  S13  1  0.906853  0.762148  0.291521  1
  S  S14  1  0.762063  0.855259  0.791415  1
  S  S15  1  0.144739  0.906830  0.791377  1
  S  S16  1  0.855260  0.093171  0.291375  1
  S  S17  1  0.237938  0.144743  0.291416  1
  S  S18  1  0.421388  0.520564  0.517289  1
  S  S19  1  0.578613  0.479436  0.017290  1
  S  S20  1  0.479399  0.900837  0.517244  1
  S  S21  1  0.099111  0.578487  0.517312  1
  S  S22  1  0.900888  0.421513  0.017311  1
  S  S23  1  0.520601  0.099164  0.017244  1
