# generated using pymatgen
data_KYGeS4
_symmetry_space_group_name_H-M   'P 1'
_cell_length_a   6.54213089
_cell_length_b   6.71187793
_cell_length_c   8.70463892
_cell_angle_alpha   90.00000000
_cell_angle_beta   107.32063651
_cell_angle_gamma   90.00000000
_symmetry_Int_Tables_number   1
_chemical_formula_structural   KYGeS4
_chemical_formula_sum   'K2 Y2 Ge2 S8'
_cell_volume   364.88824108
_cell_formula_units_Z   2
loop_
 _symmetry_equiv_pos_site_id
 _symmetry_equiv_pos_as_xyz
  1  'x, y, z'
loop_
 _atom_site_type_symbol
 _atom_site_label
 _atom_site_symmetry_multiplicity
 _atom_site_fract_x
 _atom_site_fract_y
 _atom_site_fract_z
 _atom_site_occupancy
  K  K0  1  0.266827  0.009129  0.065380  1
  K  K1  1  0.733174  0.509129  0.934622  1
  Y  Y2  1  0.771584  0.490890  0.449098  1
  Y  Y3  1  0.228417  0.990892  0.550903  1
  Ge  Ge4  1  0.225217  0.525856  0.325484  1
  Ge  Ge5  1  0.774783  0.025855  0.674516  1
  S  S6  1  0.430593  0.527861  0.166305  1
  S  S7  1  0.974969  0.763673  0.280637  1
  S  S8  1  0.017718  0.255085  0.298571  1
  S  S9  1  0.565966  0.094505  0.426913  1
  S  S10  1  0.434035  0.594505  0.573087  1
  S  S11  1  0.982282  0.755084  0.701429  1
  S  S12  1  0.025029  0.263674  0.719363  1
  S  S13  1  0.569407  0.027862  0.833695  1
