# generated using pymatgen
data_Li3Fe8(BO3)8
_symmetry_space_group_name_H-M   'P 1'
_cell_length_a   5.22017882
_cell_length_b   9.15205509
_cell_length_c   10.13627788
_cell_angle_alpha   90.90217180
_cell_angle_beta   90.42240701
_cell_angle_gamma   89.33641645
_symmetry_Int_Tables_number   1
_chemical_formula_structural   Li3Fe8(BO3)8
_chemical_formula_sum   'Li3 Fe8 B8 O24'
_cell_volume   484.15934120
_cell_formula_units_Z   1
loop_
 _symmetry_equiv_pos_site_id
 _symmetry_equiv_pos_as_xyz
  1  'x, y, z'
loop_
 _atom_site_type_symbol
 _atom_site_label
 _atom_site_symmetry_multiplicity
 _atom_site_fract_x
 _atom_site_fract_y
 _atom_site_fract_z
 _atom_site_occupancy
  Li  Li0  1  0.847998  0.829107  0.647702  1
  Li  Li1  1  0.665109  0.681795  0.911728  1
  Li  Li2  1  0.317942  0.329598  0.150937  1
  Fe  Fe3  1  0.828982  0.171442  0.631092  1
  Fe  Fe4  1  0.813544  0.513058  0.136360  1
  Fe  Fe5  1  0.679347  0.012005  0.879581  1
  Fe  Fe6  1  0.674533  0.339807  0.379727  1
  Fe  Fe7  1  0.350714  0.650761  0.624009  1
  Fe  Fe8  1  0.328971  0.988111  0.125463  1
  Fe  Fe9  1  0.169282  0.833962  0.378330  1
  Fe  Fe10  1  0.168732  0.495014  0.874472  1
  B  B11  1  0.852452  0.500759  0.629670  1
  B  B12  1  0.829512  0.167016  0.133156  1
  B  B13  1  0.661935  0.001947  0.381412  1
  B  B14  1  0.666605  0.342602  0.875717  1
  B  B15  1  0.330032  0.997711  0.626660  1
  B  B16  1  0.327154  0.668271  0.123224  1
  B  B17  1  0.166801  0.504504  0.371525  1
  B  B18  1  0.168510  0.823685  0.879822  1
  O  O19  1  0.907661  0.496170  0.343184  1
  O  O20  1  0.910087  0.833770  0.856348  1
  O  O21  1  0.787696  0.219357  0.823478  1
  O  O22  1  0.740388  0.138152  0.430379  1
  O  O23  1  0.820936  0.884276  0.388380  1
  O  O24  1  0.809319  0.465253  0.914198  1
  O  O25  1  0.724235  0.630677  0.633079  1
  O  O26  1  0.676429  0.055151  0.085324  1
  O  O27  1  0.739121  0.373336  0.577401  1
  O  O28  1  0.706086  0.295039  0.177748  1
  O  O29  1  0.582760  0.676831  0.102723  1
  O  O30  1  0.592613  0.000638  0.661604  1
  O  O31  1  0.413190  0.989034  0.328923  1
  O  O32  1  0.408590  0.344593  0.895510  1
  O  O33  1  0.303523  0.693848  0.846782  1
  O  O34  1  0.264231  0.635117  0.418966  1
  O  O35  1  0.324823  0.386068  0.348811  1
  O  O36  1  0.311184  0.937592  0.933368  1
  O  O37  1  0.192023  0.541377  0.088394  1
  O  O38  1  0.177675  0.118496  0.635950  1
  O  O39  1  0.226429  0.864429  0.582109  1
  O  O40  1  0.192985  0.791815  0.174588  1
  O  O41  1  0.093167  0.154129  0.134060  1
  O  O42  1  0.100958  0.489211  0.679512  1
