# generated using pymatgen
data_LiFePH2O5
_symmetry_space_group_name_H-M   'P 1'
_cell_length_a   11.04421361
_cell_length_b   8.22803720
_cell_length_c   5.10976508
_cell_angle_alpha   90.00000000
_cell_angle_beta   90.00000000
_cell_angle_gamma   90.00000000
_symmetry_Int_Tables_number   1
_chemical_formula_structural   LiFePH2O5
_chemical_formula_sum   'Li4 Fe4 P4 H8 O20'
_cell_volume   464.33559649
_cell_formula_units_Z   4
loop_
 _symmetry_equiv_pos_site_id
 _symmetry_equiv_pos_as_xyz
  1  'x, y, z'
loop_
 _atom_site_type_symbol
 _atom_site_label
 _atom_site_symmetry_multiplicity
 _atom_site_fract_x
 _atom_site_fract_y
 _atom_site_fract_z
 _atom_site_occupancy
  Li  Li0  1  0.115822  0.122724  0.195709  1
  Li  Li1  1  0.384178  0.622724  0.695709  1
  Li  Li2  1  0.615822  0.377276  0.195709  1
  Li  Li3  1  0.884178  0.877276  0.695709  1
  Fe  Fe4  1  0.196549  0.312879  0.699194  1
  Fe  Fe5  1  0.303451  0.812879  0.199194  1
  Fe  Fe6  1  0.696549  0.187121  0.699194  1
  Fe  Fe7  1  0.803451  0.687121  0.199194  1
  P  P8  1  0.167388  0.912828  0.689236  1
  P  P9  1  0.332612  0.412828  0.189236  1
  P  P10  1  0.667388  0.587172  0.689236  1
  P  P11  1  0.832612  0.087172  0.189236  1
  H  H12  1  0.007312  0.569296  0.375738  1
  H  H13  1  0.038198  0.686404  0.143081  1
  H  H14  1  0.461802  0.186404  0.643081  1
  H  H15  1  0.492688  0.069296  0.875738  1
  H  H16  1  0.507312  0.930704  0.375738  1
  H  H17  1  0.538198  0.813596  0.143081  1
  H  H18  1  0.961802  0.313596  0.643081  1
  H  H19  1  0.992688  0.430704  0.875738  1
  O  O20  1  0.014590  0.404379  0.693570  1
  O  O21  1  0.049935  0.824569  0.626032  1
  O  O22  1  0.170298  0.085611  0.560535  1
  O  O23  1  0.183993  0.935970  0.992951  1
  O  O24  1  0.218539  0.316334  0.090224  1
  O  O25  1  0.281461  0.816334  0.590224  1
  O  O26  1  0.316007  0.435970  0.492951  1
  O  O27  1  0.329702  0.585611  0.060535  1
  O  O28  1  0.450065  0.324569  0.126032  1
  O  O29  1  0.485410  0.904379  0.193570  1
  O  O30  1  0.514590  0.095621  0.693570  1
  O  O31  1  0.549935  0.675431  0.626032  1
  O  O32  1  0.670298  0.414389  0.560535  1
  O  O33  1  0.683993  0.564030  0.992951  1
  O  O34  1  0.718539  0.183666  0.090224  1
  O  O35  1  0.781461  0.683666  0.590224  1
  O  O36  1  0.816007  0.064030  0.492951  1
  O  O37  1  0.829702  0.914389  0.060535  1
  O  O38  1  0.950065  0.175431  0.126032  1
  O  O39  1  0.985410  0.595621  0.193570  1
