# generated using pymatgen
data_Ca2SnS4
_symmetry_space_group_name_H-M   'P 1'
_cell_length_a   3.92899462
_cell_length_b   11.80375179
_cell_length_c   11.80347045
_cell_angle_alpha   120.00078521
_cell_angle_beta   90.00000000
_cell_angle_gamma   90.00000000
_symmetry_Int_Tables_number   1
_chemical_formula_structural   Ca2SnS4
_chemical_formula_sum   'Ca6 Sn3 S12'
_cell_volume   474.06557020
_cell_formula_units_Z   3
loop_
 _symmetry_equiv_pos_site_id
 _symmetry_equiv_pos_as_xyz
  1  'x, y, z'
loop_
 _atom_site_type_symbol
 _atom_site_label
 _atom_site_symmetry_multiplicity
 _atom_site_fract_x
 _atom_site_fract_y
 _atom_site_fract_z
 _atom_site_occupancy
  Ca  Ca0  1  0.000000  -0.000011  0.000000  1
  Ca  Ca1  1  0.500000  0.333329  0.666654  1
  Ca  Ca2  1  0.500000  0.666675  0.333346  1
  Ca  Ca3  1  0.500000  0.707683  1.000000  1
  Ca  Ca4  1  0.500000  0.292298  0.292289  1
  Ca  Ca5  1  0.500000  0.000008  0.707711  1
  Sn  Sn6  1  0.000000  0.338861  0.000000  1
  Sn  Sn7  1  0.000000  0.661132  0.661127  1
  Sn  Sn8  1  0.000000  0.000005  0.338873  1
  S  S9  1  0.500000  0.172441  1.000000  1
  S  S10  1  0.500000  0.827544  0.827552  1
  S  S11  1  0.500000  -0.000008  0.172448  1
  S  S12  1  0.500000  0.474660  0.000000  1
  S  S13  1  0.500000  0.525362  0.525344  1
  S  S14  1  0.500000  0.000018  0.474656  1
  S  S15  1  0.000000  0.443434  0.244561  1
  S  S16  1  0.000000  0.801140  0.556570  1
  S  S17  1  0.000000  0.755427  0.198870  1
  S  S18  1  0.000000  0.198873  0.755439  1
  S  S19  1  0.000000  0.244570  0.443430  1
  S  S20  1  0.000000  0.556557  0.801130  1
