# generated using pymatgen
data_In2WO6
_symmetry_space_group_name_H-M   'P 1'
_cell_length_a   7.50396272
_cell_length_b   5.19357884
_cell_length_c   11.88246692
_cell_angle_alpha   90.00000000
_cell_angle_beta   97.36063840
_cell_angle_gamma   90.00000000
_symmetry_Int_Tables_number   1
_chemical_formula_structural   In2WO6
_chemical_formula_sum   'In8 W4 O24'
_cell_volume   459.27239234
_cell_formula_units_Z   4
loop_
 _symmetry_equiv_pos_site_id
 _symmetry_equiv_pos_as_xyz
  1  'x, y, z'
loop_
 _atom_site_type_symbol
 _atom_site_label
 _atom_site_symmetry_multiplicity
 _atom_site_fract_x
 _atom_site_fract_y
 _atom_site_fract_z
 _atom_site_occupancy
  In  In0  1  0.000000  0.220280  0.750000  1
  In  In1  1  0.000000  0.779720  0.250000  1
  In  In2  1  0.232247  0.763913  0.603570  1
  In  In3  1  0.232247  0.236087  0.103570  1
  In  In4  1  0.500000  0.293658  0.750000  1
  In  In5  1  0.500000  0.706342  0.250000  1
  In  In6  1  0.767753  0.763913  0.896430  1
  In  In7  1  0.767753  0.236087  0.396430  1
  W  W8  1  0.263623  0.732260  0.893291  1
  W  W9  1  0.263623  0.267740  0.393291  1
  W  W10  1  0.736377  0.732260  0.606709  1
  W  W11  1  0.736377  0.267740  0.106709  1
  O  O12  1  0.028528  0.911855  0.873832  1
  O  O13  1  0.158865  0.437105  0.946804  1
  O  O14  1  0.028528  0.088145  0.373832  1
  O  O15  1  0.208299  0.494111  0.737091  1
  O  O16  1  0.158865  0.562894  0.446804  1
  O  O17  1  0.308504  0.989303  0.772797  1
  O  O18  1  0.208299  0.505889  0.237091  1
  O  O19  1  0.334774  0.104507  0.529392  1
  O  O20  1  0.499435  0.589859  0.882252  1
  O  O21  1  0.308504  0.010696  0.272797  1
  O  O22  1  0.500565  0.589859  0.617748  1
  O  O23  1  0.665226  0.104507  0.970608  1
  O  O24  1  0.334774  0.895493  0.029392  1
  O  O25  1  0.499435  0.410141  0.382252  1
  O  O26  1  0.691496  0.989303  0.727203  1
  O  O27  1  0.500565  0.410141  0.117748  1
  O  O28  1  0.665226  0.895493  0.470608  1
  O  O29  1  0.791701  0.494111  0.762909  1
  O  O30  1  0.691496  0.010696  0.227203  1
  O  O31  1  0.841135  0.437105  0.553196  1
  O  O32  1  0.791701  0.505889  0.262909  1
  O  O33  1  0.971472  0.911855  0.626168  1
  O  O34  1  0.841135  0.562894  0.053196  1
  O  O35  1  0.971472  0.088145  0.126168  1
