# generated using pymatgen
data_Li2Mn(Si2O5)2
_symmetry_space_group_name_H-M   'P 1'
_cell_length_a   9.60606217
_cell_length_b   14.55483187
_cell_length_c   7.17401684
_cell_angle_alpha   90.00000000
_cell_angle_beta   90.00000000
_cell_angle_gamma   90.00000000
_symmetry_Int_Tables_number   1
_chemical_formula_structural   Li2Mn(Si2O5)2
_chemical_formula_sum   'Li8 Mn4 Si16 O40'
_cell_volume   1003.03243705
_cell_formula_units_Z   4
loop_
 _symmetry_equiv_pos_site_id
 _symmetry_equiv_pos_as_xyz
  1  'x, y, z'
loop_
 _atom_site_type_symbol
 _atom_site_label
 _atom_site_symmetry_multiplicity
 _atom_site_fract_x
 _atom_site_fract_y
 _atom_site_fract_z
 _atom_site_occupancy
  Li  Li0  1  0.089295  0.826849  0.676069  1
  Li  Li1  1  0.147061  0.522537  0.068756  1
  Li  Li2  1  0.352939  0.477463  0.568756  1
  Li  Li3  1  0.410705  0.173151  0.176069  1
  Li  Li4  1  0.589295  0.673151  0.323931  1
  Li  Li5  1  0.647061  0.977463  0.931244  1
  Li  Li6  1  0.852939  0.022537  0.431244  1
  Li  Li7  1  0.910705  0.326849  0.823931  1
  Mn  Mn8  1  0.201118  0.336697  0.006233  1
  Mn  Mn9  1  0.298882  0.663303  0.506233  1
  Mn  Mn10  1  0.701118  0.163303  0.993767  1
  Mn  Mn11  1  0.798882  0.836697  0.493767  1
  Si  Si12  1  0.030739  0.556049  0.466559  1
  Si  Si13  1  0.062713  0.887287  0.238759  1
  Si  Si14  1  0.095213  0.204807  0.316184  1
  Si  Si15  1  0.125909  0.168376  0.738742  1
  Si  Si16  1  0.374091  0.831624  0.238742  1
  Si  Si17  1  0.404787  0.795193  0.816184  1
  Si  Si18  1  0.437287  0.112713  0.738759  1
  Si  Si19  1  0.469261  0.443951  0.966559  1
  Si  Si20  1  0.530739  0.943951  0.533441  1
  Si  Si21  1  0.562713  0.612713  0.761241  1
  Si  Si22  1  0.595213  0.295193  0.683816  1
  Si  Si23  1  0.625909  0.331624  0.261258  1
  Si  Si24  1  0.874091  0.668376  0.761258  1
  Si  Si25  1  0.904787  0.704807  0.183816  1
  Si  Si26  1  0.937287  0.387287  0.261241  1
  Si  Si27  1  0.969261  0.056049  0.033441  1
  O  O28  1  0.000404  0.795205  0.136260  1
  O  O29  1  0.993040  0.133627  0.198988  1
  O  O30  1  0.030072  0.417924  0.084047  1
  O  O31  1  0.012715  0.095319  0.827585  1
  O  O32  1  0.068560  0.966995  0.076295  1
  O  O33  1  0.122793  0.151781  0.513206  1
  O  O34  1  0.088758  0.271813  0.801381  1
  O  O35  1  0.196592  0.536626  0.461241  1
  O  O36  1  0.219310  0.862758  0.313030  1
  O  O37  1  0.234799  0.232182  0.203340  1
  O  O38  1  0.265201  0.767818  0.703340  1
  O  O39  1  0.280690  0.137242  0.813030  1
  O  O40  1  0.303408  0.463374  0.961241  1
  O  O41  1  0.411242  0.728187  0.301381  1
  O  O42  1  0.377207  0.848219  0.013206  1
  O  O43  1  0.431440  0.033005  0.576295  1
  O  O44  1  0.487285  0.904681  0.327585  1
  O  O45  1  0.469928  0.582076  0.584047  1
  O  O46  1  0.506960  0.866373  0.698988  1
  O  O47  1  0.499596  0.204795  0.636260  1
  O  O48  1  0.500404  0.704795  0.863740  1
  O  O49  1  0.493040  0.366373  0.801012  1
  O  O50  1  0.530072  0.082076  0.915953  1
  O  O51  1  0.512715  0.404681  0.172415  1
  O  O52  1  0.568560  0.533005  0.923705  1
  O  O53  1  0.622793  0.348220  0.486794  1
  O  O54  1  0.588758  0.228187  0.198619  1
  O  O55  1  0.696592  0.963374  0.538759  1
  O  O56  1  0.719310  0.637242  0.686970  1
  O  O57  1  0.734799  0.267818  0.796660  1
  O  O58  1  0.765201  0.732182  0.296660  1
  O  O59  1  0.780690  0.362758  0.186970  1
  O  O60  1  0.803408  0.036626  0.038759  1
  O  O61  1  0.911242  0.771813  0.698619  1
  O  O62  1  0.877207  0.651781  0.986794  1
  O  O63  1  0.931440  0.466995  0.423705  1
  O  O64  1  0.987285  0.595319  0.672415  1
  O  O65  1  0.969928  0.917924  0.415953  1
  O  O66  1  0.006960  0.633627  0.301012  1
  O  O67  1  0.999596  0.295205  0.363740  1
