# generated using pymatgen
data_LiMn3(BO3)3
_symmetry_space_group_name_H-M   'P 1'
_cell_length_a   9.14439804
_cell_length_b   7.82076758
_cell_length_c   5.97426387
_cell_angle_alpha   82.02110584
_cell_angle_beta   76.77034246
_cell_angle_gamma   114.62911224
_symmetry_Int_Tables_number   1
_chemical_formula_structural   LiMn3(BO3)3
_chemical_formula_sum   'Li2 Mn6 B6 O18'
_cell_volume   364.59945478
_cell_formula_units_Z   2
loop_
 _symmetry_equiv_pos_site_id
 _symmetry_equiv_pos_as_xyz
  1  'x, y, z'
loop_
 _atom_site_type_symbol
 _atom_site_label
 _atom_site_symmetry_multiplicity
 _atom_site_fract_x
 _atom_site_fract_y
 _atom_site_fract_z
 _atom_site_occupancy
  Li  Li0  1  0.614615  0.159550  0.164836  1
  Li  Li1  1  0.385385  0.840450  0.835164  1
  Mn  Mn2  1  0.252731  0.147909  0.109094  1
  Mn  Mn3  1  0.396421  0.211706  0.546550  1
  Mn  Mn4  1  0.064537  0.510416  0.234823  1
  Mn  Mn5  1  0.935463  0.489584  0.765177  1
  Mn  Mn6  1  0.603579  0.788294  0.453450  1
  Mn  Mn7  1  0.747269  0.852091  0.890906  1
  B  B8  1  0.932619  0.133861  0.118022  1
  B  B9  1  0.722338  0.190522  0.564626  1
  B  B10  1  0.393060  0.534219  0.192350  1
  B  B11  1  0.606940  0.465781  0.807650  1
  B  B12  1  0.277662  0.809478  0.435374  1
  B  B13  1  0.067381  0.866139  0.881978  1
  O  O14  1  0.010269  0.046631  0.219310  1
  O  O15  1  0.765456  0.020011  0.114926  1
  O  O16  1  0.649969  0.995581  0.689490  1
  O  O17  1  0.309526  0.333910  0.303911  1
  O  O18  1  0.645245  0.260780  0.438995  1
  O  O19  1  0.310837  0.624099  0.099055  1
  O  O20  1  0.894632  0.317665  0.548628  1
  O  O21  1  0.560342  0.641725  0.179896  1
  O  O22  1  0.000455  0.665026  0.969262  1
  O  O23  1  0.999545  0.334974  0.030738  1
  O  O24  1  0.439658  0.358275  0.820104  1
  O  O25  1  0.105368  0.682335  0.451372  1
  O  O26  1  0.689163  0.375901  0.900945  1
  O  O27  1  0.354755  0.739220  0.561005  1
  O  O28  1  0.690474  0.666090  0.696089  1
  O  O29  1  0.350031  0.004419  0.310510  1
  O  O30  1  0.234544  0.979989  0.885074  1
  O  O31  1  0.989731  0.953369  0.780690  1
