# generated using pymatgen
data_LiCo2OF3
_symmetry_space_group_name_H-M   'P 1'
_cell_length_a   6.12915499
_cell_length_b   6.13179171
_cell_length_c   8.52072518
_cell_angle_alpha   89.83026518
_cell_angle_beta   90.18617869
_cell_angle_gamma   90.05092664
_symmetry_Int_Tables_number   1
_chemical_formula_structural   LiCo2OF3
_chemical_formula_sum   'Li4 Co8 O4 F12'
_cell_volume   320.22865376
_cell_formula_units_Z   4
loop_
 _symmetry_equiv_pos_site_id
 _symmetry_equiv_pos_as_xyz
  1  'x, y, z'
loop_
 _atom_site_type_symbol
 _atom_site_label
 _atom_site_symmetry_multiplicity
 _atom_site_fract_x
 _atom_site_fract_y
 _atom_site_fract_z
 _atom_site_occupancy
  Li  Li0  1  0.987432  0.750864  0.501174  1
  Li  Li1  1  0.504865  0.749642  0.492695  1
  Li  Li2  1  0.751641  0.986156  0.257367  1
  Li  Li3  1  0.751922  0.513618  0.257110  1
  Co  Co4  1  0.017797  0.253998  0.995665  1
  Co  Co5  1  0.218992  0.509139  0.758244  1
  Co  Co6  1  0.219432  0.993367  0.760272  1
  Co  Co7  1  0.250792  0.249979  0.376262  1
  Co  Co8  1  0.251930  0.749711  0.117527  1
  Co  Co9  1  0.482672  0.249617  0.008410  1
  Co  Co10  1  0.770015  0.250080  0.620804  1
  Co  Co11  1  0.763116  0.750444  0.865733  1
  O  O12  1  0.016304  0.247663  0.757075  1
  O  O13  1  0.008609  0.747032  0.736314  1
  O  O14  1  0.257946  0.481108  0.996011  1
  O  O15  1  0.260978  0.015222  0.992917  1
  F  F16  1  0.254346  0.515054  0.503286  1
  F  F17  1  0.254316  0.983956  0.503072  1
  F  F18  1  0.489809  0.251659  0.747002  1
  F  F19  1  0.486578  0.749393  0.736969  1
  F  F20  1  0.523664  0.249978  0.254425  1
  F  F21  1  0.517609  0.749744  0.258842  1
  F  F22  1  0.746074  0.987146  0.488172  1
  F  F23  1  0.749694  0.018197  0.010791  1
  F  F24  1  0.746455  0.484165  0.012195  1
  F  F25  1  0.746562  0.513079  0.487655  1
  F  F26  1  0.984369  0.249744  0.245708  1
  F  F27  1  0.986082  0.750242  0.258307  1
