# generated using pymatgen
data_LiCrSiO4
_symmetry_space_group_name_H-M   'P 1'
_cell_length_a   4.73200976
_cell_length_b   6.14958664
_cell_length_c   10.27566291
_cell_angle_alpha   90.00057191
_cell_angle_beta   90.00108332
_cell_angle_gamma   89.99930326
_symmetry_Int_Tables_number   1
_chemical_formula_structural   LiCrSiO4
_chemical_formula_sum   'Li4 Cr4 Si4 O16'
_cell_volume   299.02080418
_cell_formula_units_Z   4
loop_
 _symmetry_equiv_pos_site_id
 _symmetry_equiv_pos_as_xyz
  1  'x, y, z'
loop_
 _atom_site_type_symbol
 _atom_site_label
 _atom_site_symmetry_multiplicity
 _atom_site_fract_x
 _atom_site_fract_y
 _atom_site_fract_z
 _atom_site_occupancy
  Li  Li0  1  0.018315  0.006049  0.214435  1
  Li  Li1  1  0.481695  0.006049  0.714437  1
  Li  Li2  1  0.518312  0.506049  0.285568  1
  Li  Li3  1  0.981689  0.506048  0.785566  1
  Cr  Cr4  1  0.000058  0.256749  0.500074  1
  Cr  Cr5  1  0.499929  0.256768  0.000058  1
  Cr  Cr6  1  0.500053  0.756760  0.999933  1
  Cr  Cr7  1  0.999941  0.756756  0.499936  1
  Si  Si8  1  0.080759  0.506723  0.090518  1
  Si  Si9  1  0.419223  0.506720  0.590524  1
  Si  Si10  1  0.580780  0.006718  0.409482  1
  Si  Si11  1  0.919220  0.006720  0.909482  1
  O  O12  1  0.249831  0.507190  0.942903  1
  O  O13  1  0.220545  0.283957  0.149655  1
  O  O14  1  0.221279  0.729285  0.149628  1
  O  O15  1  0.233637  0.005720  0.419661  1
  O  O16  1  0.266365  0.005723  0.919661  1
  O  O17  1  0.278732  0.729303  0.649629  1
  O  O18  1  0.279456  0.283957  0.649656  1
  O  O19  1  0.250164  0.507187  0.442904  1
  O  O20  1  0.749838  0.007189  0.557100  1
  O  O21  1  0.720550  0.783954  0.350347  1
  O  O22  1  0.721283  0.229289  0.350377  1
  O  O23  1  0.733625  0.505760  0.080303  1
  O  O24  1  0.766367  0.505719  0.580342  1
  O  O25  1  0.778732  0.229302  0.850374  1
  O  O26  1  0.779452  0.783957  0.850348  1
  O  O27  1  0.750168  0.007194  0.057099  1
