# generated using pymatgen
data_TbAl3
_symmetry_space_group_name_H-M   'P 1'
_cell_length_a   6.29882345
_cell_length_b   6.29882248
_cell_length_c   4.62291427
_cell_angle_alpha   90.00000000
_cell_angle_beta   90.00000000
_cell_angle_gamma   120.00000514
_symmetry_Int_Tables_number   1
_chemical_formula_structural   TbAl3
_chemical_formula_sum   'Tb2 Al6'
_cell_volume   158.84196589
_cell_formula_units_Z   2
loop_
 _symmetry_equiv_pos_site_id
 _symmetry_equiv_pos_as_xyz
  1  'x, y, z'
loop_
 _atom_site_type_symbol
 _atom_site_label
 _atom_site_symmetry_multiplicity
 _atom_site_fract_x
 _atom_site_fract_y
 _atom_site_fract_z
 _atom_site_occupancy
  Tb  Tb0  1  0.333334  0.666669  0.749999  1
  Tb  Tb1  1  0.666668  0.333333  0.250000  1
  Al  Al2  1  0.707545  0.853774  0.250000  1
  Al  Al3  1  0.146227  0.853774  0.250000  1
  Al  Al4  1  0.853774  0.707546  0.749999  1
  Al  Al5  1  0.292455  0.146227  0.749999  1
  Al  Al6  1  0.853772  0.146227  0.749999  1
  Al  Al7  1  0.146227  0.292455  0.250000  1
