# generated using pymatgen
data_Cu3Mo2(HO5)2
_symmetry_space_group_name_H-M   'P 1'
_cell_length_a   5.40273942
_cell_length_b   5.68633631
_cell_length_c   7.61052614
_cell_angle_alpha   103.42623032
_cell_angle_beta   106.50203287
_cell_angle_gamma   97.32936143
_symmetry_Int_Tables_number   1
_chemical_formula_structural   Cu3Mo2(HO5)2
_chemical_formula_sum   'Cu3 Mo2 H2 O10'
_cell_volume   213.30500721
_cell_formula_units_Z   1
loop_
 _symmetry_equiv_pos_site_id
 _symmetry_equiv_pos_as_xyz
  1  'x, y, z'
loop_
 _atom_site_type_symbol
 _atom_site_label
 _atom_site_symmetry_multiplicity
 _atom_site_fract_x
 _atom_site_fract_y
 _atom_site_fract_z
 _atom_site_occupancy
  Cu  Cu0  1  0.228816  0.086206  0.192892  1
  Cu  Cu1  1  0.771180  0.913784  0.807116  1
  Cu  Cu2  1  0.000000  0.499941  0.999981  1
  Mo  Mo3  1  0.685545  0.720831  0.308097  1
  Mo  Mo4  1  0.314469  0.279186  0.691903  1
  H  H5  1  0.770830  0.173345  0.132339  1
  H  H6  1  0.229165  0.826684  0.867675  1
  O  O7  1  0.892837  0.179284  0.058032  1
  O  O8  1  0.436817  0.454121  0.167487  1
  O  O9  1  0.978937  0.703444  0.236870  1
  O  O10  1  0.572135  0.998081  0.268884  1
  O  O11  1  0.230822  0.265791  0.444550  1
  O  O12  1  0.769182  0.734232  0.555453  1
  O  O13  1  0.427876  0.001944  0.731128  1
  O  O14  1  0.021044  0.296528  0.763091  1
  O  O15  1  0.563187  0.545901  0.832524  1
  O  O16  1  0.107155  0.820691  0.941976  1
