# generated using pymatgen
data_Li2Mn3(BO3)3
_symmetry_space_group_name_H-M   'P 1'
_cell_length_a   8.30196347
_cell_length_b   14.68611024
_cell_length_c   6.34410294
_cell_angle_alpha   102.44131561
_cell_angle_beta   90.00177366
_cell_angle_gamma   89.61293278
_symmetry_Int_Tables_number   1
_chemical_formula_structural   Li2Mn3(BO3)3
_chemical_formula_sum   'Li8 Mn12 B12 O36'
_cell_volume   755.31366066
_cell_formula_units_Z   4
loop_
 _symmetry_equiv_pos_site_id
 _symmetry_equiv_pos_as_xyz
  1  'x, y, z'
loop_
 _atom_site_type_symbol
 _atom_site_label
 _atom_site_symmetry_multiplicity
 _atom_site_fract_x
 _atom_site_fract_y
 _atom_site_fract_z
 _atom_site_occupancy
  Li  Li0  1  0.286641  0.989495  0.742949  1
  Li  Li1  1  0.336560  0.359743  0.931563  1
  Li  Li2  1  0.368146  0.649328  0.073716  1
  Li  Li3  1  0.369204  0.649872  0.577972  1
  Li  Li4  1  0.787985  0.489786  0.494933  1
  Li  Li5  1  0.838869  0.860169  0.179811  1
  Li  Li6  1  0.870590  0.150065  0.824064  1
  Li  Li7  1  0.869104  0.148274  0.327444  1
  Mn  Mn8  1  0.130156  0.500632  0.752944  1
  Mn  Mn9  1  0.131127  0.500978  0.251701  1
  Mn  Mn10  1  0.169771  0.817504  0.907699  1
  Mn  Mn11  1  0.170925  0.815559  0.408744  1
  Mn  Mn12  1  0.198265  0.179786  0.587636  1
  Mn  Mn13  1  0.198812  0.179184  0.098505  1
  Mn  Mn14  1  0.627514  0.001541  0.497146  1
  Mn  Mn15  1  0.630280  0.000733  0.998152  1
  Mn  Mn16  1  0.667904  0.316732  0.656674  1
  Mn  Mn17  1  0.670693  0.319369  0.158921  1
  Mn  Mn18  1  0.697915  0.678648  0.839711  1
  Mn  Mn19  1  0.699135  0.679552  0.341733  1
  B  B20  1  0.997780  0.002371  0.000868  1
  B  B21  1  0.996592  0.001029  0.502076  1
  B  B22  1  0.994994  0.329621  0.417368  1
  B  B23  1  0.002624  0.330338  0.916299  1
  B  B24  1  0.005666  0.662023  0.581152  1
  B  B25  1  0.000020  0.668304  0.083931  1
  B  B26  1  0.497105  0.501386  0.751651  1
  B  B27  1  0.497229  0.503793  0.251711  1
  B  B28  1  0.500378  0.164976  0.832663  1
  B  B29  1  0.505094  0.167545  0.334073  1
  B  B30  1  0.501784  0.830299  0.165835  1
  B  B31  1  0.498530  0.829150  0.664939  1
  O  O32  1  0.033718  0.424936  0.965775  1
  O  O33  1  0.013286  0.425968  0.465037  1
  O  O34  1  0.018275  0.765433  0.131804  1
  O  O35  1  0.026786  0.756292  0.627957  1
  O  O36  1  0.139604  0.601438  0.552342  1
  O  O37  1  0.134158  0.609912  0.055752  1
  O  O38  1  0.124712  0.268964  0.385509  1
  O  O39  1  0.135875  0.270248  0.887894  1
  O  O40  1  0.144452  0.957826  0.962039  1
  O  O41  1  0.141878  0.955564  0.496145  1
  O  O42  1  0.349816  0.131508  0.320075  1
  O  O43  1  0.346554  0.125482  0.817594  1
  O  O44  1  0.348873  0.791876  0.146051  1
  O  O45  1  0.344059  0.791907  0.648791  1
  O  O46  1  0.357635  0.450153  0.745320  1
  O  O47  1  0.358538  0.451879  0.205703  1
  O  O48  1  0.488068  0.598926  0.798826  1
  O  O49  1  0.487185  0.601172  0.303474  1
  O  O50  1  0.514847  0.925689  0.708631  1
  O  O51  1  0.529125  0.924727  0.209721  1
  O  O52  1  0.526801  0.262647  0.378500  1
  O  O53  1  0.516098  0.261486  0.878588  1
  O  O54  1  0.637057  0.106455  0.302757  1
  O  O55  1  0.635493  0.106758  0.800657  1
  O  O56  1  0.637747  0.772001  0.139376  1
  O  O57  1  0.628889  0.768708  0.636831  1
  O  O58  1  0.644235  0.456908  0.712015  1
  O  O59  1  0.644698  0.459559  0.246151  1
  O  O60  1  0.850353  0.623644  0.560822  1
  O  O61  1  0.846161  0.631035  0.065886  1
  O  O62  1  0.841206  0.292405  0.399847  1
  O  O63  1  0.847862  0.294413  0.894899  1
  O  O64  1  0.857942  0.950970  0.992087  1
  O  O65  1  0.855384  0.951199  0.456586  1
  O  O66  1  0.989674  0.098854  0.553935  1
  O  O67  1  0.988359  0.100019  0.049599  1
