# generated using pymatgen
data_Li2Mn2Si2O7
_symmetry_space_group_name_H-M   'P 1'
_cell_length_a   5.08852381
_cell_length_b   4.99632107
_cell_length_c   13.38924952
_cell_angle_alpha   90.00000000
_cell_angle_beta   90.00000000
_cell_angle_gamma   120.61235860
_symmetry_Int_Tables_number   1
_chemical_formula_structural   Li2Mn2Si2O7
_chemical_formula_sum   'Li4 Mn4 Si4 O14'
_cell_volume   292.96516218
_cell_formula_units_Z   2
loop_
 _symmetry_equiv_pos_site_id
 _symmetry_equiv_pos_as_xyz
  1  'x, y, z'
loop_
 _atom_site_type_symbol
 _atom_site_label
 _atom_site_symmetry_multiplicity
 _atom_site_fract_x
 _atom_site_fract_y
 _atom_site_fract_z
 _atom_site_occupancy
  Li  Li0  1  0.348483  0.593708  0.580951  1
  Li  Li1  1  0.348483  0.593708  0.919049  1
  Li  Li2  1  0.754774  0.406292  0.419049  1
  Li  Li3  1  0.754774  0.406292  0.080951  1
  Mn  Mn4  1  0.028538  0.000000  0.000000  1
  Mn  Mn5  1  0.028538  0.000000  0.500000  1
  Mn  Mn6  1  0.031582  0.028595  0.250000  1
  Mn  Mn7  1  0.002987  0.971405  0.750000  1
  Si  Si8  1  0.402287  0.710145  0.363150  1
  Si  Si9  1  0.402287  0.710145  0.136850  1
  Si  Si10  1  0.692143  0.289855  0.636850  1
  Si  Si11  1  0.692143  0.289855  0.863150  1
  O  O12  1  0.125947  0.787335  0.133664  1
  O  O13  1  0.125947  0.787335  0.366336  1
  O  O14  1  0.382770  0.543336  0.250000  1
  O  O15  1  0.707251  0.969446  0.871201  1
  O  O16  1  0.707251  0.969446  0.628799  1
  O  O17  1  0.383788  0.457700  0.056714  1
  O  O18  1  0.383788  0.457700  0.443286  1
  O  O19  1  0.338613  0.212665  0.866336  1
  O  O20  1  0.338613  0.212665  0.633664  1
  O  O21  1  0.839435  0.456664  0.750000  1
  O  O22  1  0.737804  0.030554  0.371201  1
  O  O23  1  0.737804  0.030554  0.128800  1
  O  O24  1  0.926089  0.542300  0.556714  1
  O  O25  1  0.926089  0.542300  0.943286  1
