# generated using pymatgen
data_CsRb2PdF5
_symmetry_space_group_name_H-M   'P 1'
_cell_length_a   6.54181131
_cell_length_b   7.74087043
_cell_length_c   7.74087043
_cell_angle_alpha   90.00000000
_cell_angle_beta   90.00000000
_cell_angle_gamma   90.00000000
_symmetry_Int_Tables_number   1
_chemical_formula_structural   CsRb2PdF5
_chemical_formula_sum   'Cs2 Rb4 Pd2 F10'
_cell_volume   391.99236623
_cell_formula_units_Z   2
loop_
 _symmetry_equiv_pos_site_id
 _symmetry_equiv_pos_as_xyz
  1  'x, y, z'
loop_
 _atom_site_type_symbol
 _atom_site_label
 _atom_site_symmetry_multiplicity
 _atom_site_fract_x
 _atom_site_fract_y
 _atom_site_fract_z
 _atom_site_occupancy
  F  F0  1  0.784100  0.628642  0.128642  1
  F  F1  1  0.784100  0.371358  0.871358  1
  F  F2  1  0.784100  0.128642  0.371358  1
  F  F3  1  0.784100  0.871358  0.628642  1
  F  F4  1  0.215900  0.628642  0.128642  1
  F  F5  1  0.215900  0.871358  0.628642  1
  F  F6  1  0.215900  0.128642  0.371358  1
  F  F7  1  0.215900  0.371358  0.871358  1
  F  F8  1  0.500000  0.000000  0.000000  1
  F  F9  1  0.500000  0.500000  0.500000  1
  Rb  Rb10  1  0.500000  0.321871  0.178129  1
  Rb  Rb11  1  0.500000  0.178129  0.678129  1
  Rb  Rb12  1  0.500000  0.678129  0.821871  1
  Rb  Rb13  1  0.500000  0.821871  0.321871  1
  Pd  Pd14  1  0.000000  0.500000  0.000000  1
  Pd  Pd15  1  0.000000  0.000000  0.500000  1
  Cs  Cs16  1  0.000000  0.500000  0.500000  1
  Cs  Cs17  1  0.000000  0.000000  0.000000  1
