# generated using pymatgen
data_CeHfO4
_symmetry_space_group_name_H-M   'P 1'
_cell_length_a   7.45893825
_cell_length_b   10.55724129
_cell_length_c   10.55927637
_cell_angle_alpha   90.03061812
_cell_angle_beta   90.01830990
_cell_angle_gamma   45.04814547
_symmetry_Int_Tables_number   1
_chemical_formula_structural   CeHfO4
_chemical_formula_sum   'Ce8 Hf8 O32'
_cell_volume   588.45219195
_cell_formula_units_Z   8
loop_
 _symmetry_equiv_pos_site_id
 _symmetry_equiv_pos_as_xyz
  1  'x, y, z'
loop_
 _atom_site_type_symbol
 _atom_site_label
 _atom_site_symmetry_multiplicity
 _atom_site_fract_x
 _atom_site_fract_y
 _atom_site_fract_z
 _atom_site_occupancy
  Ce  Ce0  1  0.247708  0.251754  0.373825  1
  Ce  Ce1  1  0.250561  0.750434  0.874416  1
  Ce  Ce2  1  0.248016  0.501951  0.623897  1
  Ce  Ce3  1  0.249833  0.000263  0.124077  1
  Ce  Ce4  1  0.748906  0.501346  0.623890  1
  Ce  Ce5  1  0.750103  -0.000091  0.123890  1
  Ce  Ce6  1  0.747909  0.751404  0.374015  1
  Ce  Ce7  1  0.750450  0.250039  0.873979  1
  Hf  Hf8  1  0.246933  0.500178  0.122245  1
  Hf  Hf9  1  0.244493  0.002180  0.621983  1
  Hf  Hf10  1  0.260226  0.739196  0.368031  1
  Hf  Hf11  1  0.245641  0.255143  0.875546  1
  Hf  Hf12  1  0.752463  0.246737  0.375242  1
  Hf  Hf13  1  0.737740  0.762790  0.867350  1
  Hf  Hf14  1  0.754107  0.499866  0.121405  1
  Hf  Hf15  1  0.751642  0.002002  0.621528  1
  O  O16  1  0.019731  0.737640  0.247345  1
  O  O17  1  0.002461  0.996303  0.262721  1
  O  O18  1  0.997391  0.739468  0.997159  1
  O  O19  1  0.986254  0.011675  0.504245  1
  O  O20  1  0.001475  0.999512  0.000127  1
  O  O21  1  0.000044  0.001761  0.739979  1
  O  O22  1  0.004006  0.761885  0.497101  1
  O  O23  1  0.023318  0.240889  0.747763  1
  O  O24  1  0.502180  0.999227  0.511529  1
  O  O25  1  0.501122  0.262266  0.247321  1
  O  O26  1  0.501656  0.997634  0.751133  1
  O  O27  1  0.497464  0.762570  0.745678  1
  O  O28  1  0.469413  0.764340  0.495854  1
  O  O29  1  0.481907  0.260296  0.997267  1
  O  O30  1  0.505226  0.496209  0.488643  1
  O  O31  1  0.499594  0.500512  0.749257  1
  O  O32  1  0.498390  0.001488  0.249362  1
  O  O33  1  0.496147  0.004161  0.988638  1
  O  O34  1  0.514459  0.242474  0.497083  1
  O  O35  1  0.527083  0.738385  0.995509  1
  O  O36  1  0.501861  0.739048  0.245414  1
  O  O37  1  0.494680  0.505130  0.251064  1
  O  O38  1  0.497316  0.239733  0.747143  1
  O  O39  1  0.499453  0.501094  0.011399  1
  O  O40  1  0.973883  0.261619  0.247806  1
  O  O41  1  0.995795  0.503309  0.499603  1
  O  O42  1  0.009535  0.491973  0.003358  1
  O  O43  1  0.999386  0.499528  0.239693  1
  O  O44  1  0.977414  0.764557  0.747030  1
  O  O45  1  0.996069  0.505276  0.762226  1
  O  O46  1  0.997940  0.261271  0.997803  1
  O  O47  1  0.002693  0.239672  0.497852  1
