# generated using pymatgen
data_Li2V3SbO8
_symmetry_space_group_name_H-M   'P 1'
_cell_length_a   8.61735477
_cell_length_b   8.61737939
_cell_length_c   8.61798473
_cell_angle_alpha   90.00065137
_cell_angle_beta   89.99955933
_cell_angle_gamma   90.00011130
_symmetry_Int_Tables_number   1
_chemical_formula_structural   Li2V3SbO8
_chemical_formula_sum   'Li8 V12 Sb4 O32'
_cell_volume   639.96306068
_cell_formula_units_Z   4
loop_
 _symmetry_equiv_pos_site_id
 _symmetry_equiv_pos_as_xyz
  1  'x, y, z'
loop_
 _atom_site_type_symbol
 _atom_site_label
 _atom_site_symmetry_multiplicity
 _atom_site_fract_x
 _atom_site_fract_y
 _atom_site_fract_z
 _atom_site_occupancy
  Li  Li0  1  0.003447  0.003576  0.003539  1
  Li  Li1  1  0.246527  0.246542  0.246448  1
  Li  Li2  1  0.253506  0.753431  0.746457  1
  Li  Li3  1  0.496490  0.996449  0.503562  1
  Li  Li4  1  0.503440  0.496489  0.996514  1
  Li  Li5  1  0.746552  0.253411  0.753527  1
  Li  Li6  1  0.753459  0.746557  0.253511  1
  Li  Li7  1  0.996515  0.503548  0.496497  1
  V  V8  1  0.117643  0.132189  0.624994  1
  V  V9  1  0.125021  0.382320  0.867806  1
  V  V10  1  0.132215  0.625070  0.117652  1
  V  V11  1  0.367836  0.374947  0.617620  1
  V  V12  1  0.375002  0.617697  0.367824  1
  V  V13  1  0.382320  0.867804  0.125018  1
  V  V14  1  0.617682  0.367823  0.375010  1
  V  V15  1  0.624994  0.117696  0.132207  1
  V  V16  1  0.632168  0.874961  0.882364  1
  V  V17  1  0.867818  0.125029  0.382353  1
  V  V18  1  0.875005  0.882344  0.632185  1
  V  V19  1  0.882373  0.632227  0.875019  1
  Sb  Sb20  1  0.124871  0.875165  0.375139  1
  Sb  Sb21  1  0.375142  0.124867  0.875113  1
  Sb  Sb22  1  0.624826  0.624743  0.624826  1
  Sb  Sb23  1  0.875136  0.375172  0.124880  1
  O  O24  1  0.107370  0.110244  0.381766  1
  O  O25  1  0.118178  0.892617  0.610193  1
  O  O26  1  0.115939  0.615922  0.884075  1
  O  O27  1  0.139850  0.142592  0.868331  1
  O  O28  1  0.110223  0.381832  0.107372  1
  O  O29  1  0.134070  0.365935  0.634072  1
  O  O30  1  0.131642  0.639912  0.357380  1
  O  O31  1  0.142602  0.868393  0.139851  1
  O  O32  1  0.357388  0.131589  0.639859  1
  O  O33  1  0.368342  0.360065  0.857361  1
  O  O34  1  0.365933  0.634095  0.134089  1
  O  O35  1  0.389807  0.618145  0.607416  1
  O  O36  1  0.360124  0.857409  0.368336  1
  O  O37  1  0.384110  0.384083  0.384065  1
  O  O38  1  0.381782  0.107398  0.110170  1
  O  O39  1  0.392601  0.889734  0.881762  1
  O  O40  1  0.607415  0.389751  0.618223  1
  O  O41  1  0.618213  0.607401  0.389853  1
  O  O42  1  0.615908  0.884100  0.115910  1
  O  O43  1  0.639874  0.357430  0.131669  1
  O  O44  1  0.610197  0.118150  0.892632  1
  O  O45  1  0.634060  0.134066  0.365938  1
  O  O46  1  0.631637  0.860081  0.642647  1
  O  O47  1  0.642636  0.631619  0.860173  1
  O  O48  1  0.857416  0.368385  0.360128  1
  O  O49  1  0.868320  0.139925  0.142611  1
  O  O50  1  0.865919  0.865962  0.865937  1
  O  O51  1  0.889762  0.881818  0.392622  1
  O  O52  1  0.860163  0.642611  0.631695  1
  O  O53  1  0.884086  0.115904  0.615909  1
  O  O54  1  0.881816  0.392644  0.889814  1
  O  O55  1  0.892631  0.610274  0.118219  1
