# generated using pymatgen
data_Pr6O11
_symmetry_space_group_name_H-M   'P 1'
_cell_length_a   6.91687302
_cell_length_b   12.26425225
_cell_length_c   13.45348988
_cell_angle_alpha   89.09660586
_cell_angle_beta   101.72450571
_cell_angle_gamma   90.43430580
_symmetry_Int_Tables_number   1
_chemical_formula_structural   Pr6O11
_chemical_formula_sum   'Pr24 O44'
_cell_volume   1117.30186062
_cell_formula_units_Z   4
loop_
 _symmetry_equiv_pos_site_id
 _symmetry_equiv_pos_as_xyz
  1  'x, y, z'
loop_
 _atom_site_type_symbol
 _atom_site_label
 _atom_site_symmetry_multiplicity
 _atom_site_fract_x
 _atom_site_fract_y
 _atom_site_fract_z
 _atom_site_occupancy
  O  O0  1  0.077828  0.935219  0.427370  1
  O  O1  1  0.922172  0.064781  0.572630  1
  O  O2  1  0.471627  0.922421  0.577420  1
  O  O3  1  0.528373  0.077579  0.422580  1
  O  O4  1  0.067286  0.231243  0.432804  1
  O  O5  1  0.932714  0.768757  0.567196  1
  O  O6  1  0.706071  0.255209  0.321208  1
  O  O7  1  0.293929  0.744791  0.678792  1
  O  O8  1  0.859995  0.095071  0.192901  1
  O  O9  1  0.140005  0.904929  0.807099  1
  O  O10  1  0.310523  0.937866  0.192497  1
  O  O11  1  0.689477  0.062134  0.807503  1
  O  O12  1  0.550763  0.755115  0.434058  1
  O  O13  1  0.449237  0.244885  0.565942  1
  O  O14  1  0.695366  0.906921  0.294161  1
  O  O15  1  0.304634  0.093079  0.705839  1
  O  O16  1  0.570028  0.583979  0.935898  1
  O  O17  1  0.676739  0.758036  0.798639  1
  O  O18  1  0.455655  0.086388  0.062369  1
  O  O19  1  0.544345  0.913612  0.937631  1
  O  O20  1  0.071464  0.748348  0.937243  1
  O  O21  1  0.928536  0.251652  0.062757  1
  O  O22  1  0.927914  0.907881  0.064935  1
  O  O23  1  0.072086  0.092119  0.935065  1
  O  O24  1  0.849267  0.247189  0.700088  1
  O  O25  1  0.150733  0.752811  0.299912  1
  O  O26  1  0.584303  0.420750  0.444701  1
  O  O27  1  0.415697  0.579250  0.555299  1
  O  O28  1  0.692891  0.414853  0.817176  1
  O  O29  1  0.307109  0.585147  0.182824  1
  O  O30  1  0.054442  0.402447  0.930243  1
  O  O31  1  0.945558  0.597553  0.069757  1
  O  O32  1  0.920857  0.411310  0.550291  1
  O  O33  1  0.079143  0.588690  0.449709  1
  O  O34  1  0.790214  0.578494  0.676712  1
  O  O35  1  0.209786  0.421506  0.323288  1
  O  O36  1  0.307156  0.399614  0.696506  1
  O  O37  1  0.692844  0.600386  0.303494  1
  O  O38  1  0.182399  0.577966  0.811998  1
  O  O39  1  0.817601  0.422034  0.188002  1
  O  O40  1  0.531359  0.243808  0.929039  1
  O  O41  1  0.468641  0.756192  0.070961  1
  O  O42  1  0.429972  0.416021  0.064102  1
  O  O43  1  0.323261  0.241964  0.201361  1
  Pr  Pr44  1  0.491394  0.578489  0.748814  1
  Pr  Pr45  1  0.508606  0.421511  0.251186  1
  Pr  Pr46  1  0.750104  0.594926  0.495350  1
  Pr  Pr47  1  0.249896  0.405074  0.504650  1
  Pr  Pr48  1  0.247120  0.763065  0.494285  1
  Pr  Pr49  1  0.752880  0.236935  0.505715  1
  Pr  Pr50  1  0.263403  0.583785  0.997475  1
  Pr  Pr51  1  0.736597  0.416215  0.002525  1
  Pr  Pr52  1  0.242373  0.920267  0.002250  1
  Pr  Pr53  1  0.757627  0.079733  0.997750  1
  Pr  Pr54  1  0.008492  0.269045  0.250238  1
  Pr  Pr55  1  0.991508  0.730955  0.749762  1
  Pr  Pr56  1  0.256849  0.080999  0.522159  1
  Pr  Pr57  1  0.743151  0.919001  0.477841  1
  Pr  Pr58  1  0.543702  0.088540  0.244376  1
  Pr  Pr59  1  0.456298  0.911460  0.755624  1
  Pr  Pr60  1  0.744689  0.752685  0.979468  1
  Pr  Pr61  1  0.255311  0.247315  0.020532  1
  Pr  Pr62  1  0.466147  0.754663  0.251449  1
  Pr  Pr63  1  0.533853  0.245337  0.748551  1
  Pr  Pr64  1  0.016074  0.573682  0.261103  1
  Pr  Pr65  1  0.983926  0.426318  0.738897  1
  Pr  Pr66  1  0.005301  0.922679  0.246425  1
  Pr  Pr67  1  0.994699  0.077321  0.753575  1
