# generated using pymatgen
data_Mn8PbO16
_symmetry_space_group_name_H-M   'P 1'
_cell_length_a   7.20354301
_cell_length_b   5.95415892
_cell_length_c   7.16817335
_cell_angle_alpha   77.91826543
_cell_angle_beta   87.15321516
_cell_angle_gamma   78.12767706
_symmetry_Int_Tables_number   1
_chemical_formula_structural   Mn8PbO16
_chemical_formula_sum   'Mn8 Pb1 O16'
_cell_volume   294.20222361
_cell_formula_units_Z   1
loop_
 _symmetry_equiv_pos_site_id
 _symmetry_equiv_pos_as_xyz
  1  'x, y, z'
loop_
 _atom_site_type_symbol
 _atom_site_label
 _atom_site_symmetry_multiplicity
 _atom_site_fract_x
 _atom_site_fract_y
 _atom_site_fract_z
 _atom_site_occupancy
  Mn  Mn0  1  0.183674  0.575314  0.520240  1
  Mn  Mn1  1  0.185090  0.075775  0.514322  1
  Mn  Mn2  1  0.513266  0.167388  0.815920  1
  Mn  Mn3  1  0.521218  0.666817  0.818411  1
  Mn  Mn4  1  0.480392  0.334492  0.183720  1
  Mn  Mn5  1  0.485553  0.833029  0.181885  1
  Mn  Mn6  1  0.815075  0.429131  0.480253  1
  Mn  Mn7  1  0.816844  0.924932  0.485617  1
  Pb  Pb8  1  0.998365  0.092626  0.000505  1
  O  O9  1  0.048428  0.831987  0.643912  1
  O  O10  1  0.052515  0.321134  0.650113  1
  O  O11  1  0.379500  0.979985  0.704314  1
  O  O12  1  0.381741  0.479388  0.705689  1
  O  O13  1  0.644122  0.858898  0.953181  1
  O  O14  1  0.649036  0.338631  0.959077  1
  O  O15  1  0.286798  0.336694  0.376671  1
  O  O16  1  0.285632  0.834437  0.371452  1
  O  O17  1  0.714023  0.166387  0.626868  1
  O  O18  1  0.713489  0.666722  0.624967  1
  O  O19  1  0.346341  0.145123  0.041383  1
  O  O20  1  0.360406  0.652919  0.045963  1
  O  O21  1  0.621349  0.020174  0.293717  1
  O  O22  1  0.617412  0.524769  0.295631  1
  O  O23  1  0.947824  0.172539  0.347624  1
  O  O24  1  0.951903  0.677808  0.358566  1
