# generated using pymatgen
data_VOF
_symmetry_space_group_name_H-M   'P 1'
_cell_length_a   3.33488301
_cell_length_b   7.92228036
_cell_length_c   3.33488386
_cell_angle_alpha   102.15019007
_cell_angle_beta   59.99999837
_cell_angle_gamma   102.15019028
_symmetry_Int_Tables_number   1
_chemical_formula_structural   VOF
_chemical_formula_sum   'V2 O2 F2'
_cell_volume   74.01532658
_cell_formula_units_Z   2
loop_
 _symmetry_equiv_pos_site_id
 _symmetry_equiv_pos_as_xyz
  1  'x, y, z'
loop_
 _atom_site_type_symbol
 _atom_site_label
 _atom_site_symmetry_multiplicity
 _atom_site_fract_x
 _atom_site_fract_y
 _atom_site_fract_z
 _atom_site_occupancy
  V  V0  1  0.608318  0.824952  0.608318  1
  V  V1  1  0.391682  0.175048  0.391682  1
  O  O2  1  0.300412  0.901235  0.300412  1
  O  O3  1  0.699588  0.098765  0.699588  1
  F  F4  1  0.105711  0.317135  0.105711  1
  F  F5  1  0.894289  0.682865  0.894289  1
