# generated using pymatgen
data_Li4V3CrO8
_symmetry_space_group_name_H-M   'P 1'
_cell_length_a   5.18829978
_cell_length_b   6.00054679
_cell_length_c   10.35904548
_cell_angle_alpha   89.85321230
_cell_angle_beta   80.23651978
_cell_angle_gamma   73.09182412
_symmetry_Int_Tables_number   1
_chemical_formula_structural   Li4V3CrO8
_chemical_formula_sum   'Li8 V6 Cr2 O16'
_cell_volume   303.71989062
_cell_formula_units_Z   2
loop_
 _symmetry_equiv_pos_site_id
 _symmetry_equiv_pos_as_xyz
  1  'x, y, z'
loop_
 _atom_site_type_symbol
 _atom_site_label
 _atom_site_symmetry_multiplicity
 _atom_site_fract_x
 _atom_site_fract_y
 _atom_site_fract_z
 _atom_site_occupancy
  Li  Li0  1  0.997410  0.003305  0.999816  1
  Li  Li1  1  0.998842  0.002183  0.499041  1
  Li  Li2  1  0.000500  0.250222  0.249723  1
  Li  Li3  1  0.999993  0.248846  0.749857  1
  Li  Li4  1  0.001078  0.496589  0.001867  1
  Li  Li5  1  0.002951  0.498107  0.500064  1
  Li  Li6  1  0.999645  0.749655  0.250202  1
  Li  Li7  1  0.999503  0.751128  0.749315  1
  V  V8  1  0.499474  0.124808  0.875131  1
  V  V9  1  0.500615  0.375345  0.625261  1
  V  V10  1  0.500002  0.625787  0.374802  1
  V  V11  1  0.499504  0.624960  0.875728  1
  V  V12  1  0.499780  0.873986  0.124746  1
  V  V13  1  0.501029  0.875097  0.624198  1
  Cr  Cr14  1  0.500827  0.125902  0.374086  1
  Cr  Cr15  1  0.498685  0.373927  0.125823  1
  O  O16  1  0.272997  0.183006  0.060898  1
  O  O17  1  0.275087  0.182136  0.558875  1
  O  O18  1  0.724413  0.069898  0.189217  1
  O  O19  1  0.729209  0.067325  0.688701  1
  O  O20  1  0.274244  0.428492  0.310056  1
  O  O21  1  0.725128  0.318893  0.439157  1
  O  O22  1  0.271439  0.431910  0.811396  1
  O  O23  1  0.726003  0.318574  0.941274  1
  O  O24  1  0.271272  0.679227  0.062574  1
  O  O25  1  0.725763  0.564598  0.189470  1
  O  O26  1  0.271649  0.682813  0.560939  1
  O  O27  1  0.730445  0.567225  0.689458  1
  O  O28  1  0.275211  0.933269  0.310907  1
  O  O29  1  0.729353  0.823289  0.437576  1
  O  O30  1  0.269089  0.931763  0.811165  1
  O  O31  1  0.728856  0.817734  0.938678  1
