# generated using pymatgen
data_LiFeSiO4
_symmetry_space_group_name_H-M   'P 1'
_cell_length_a   9.97626593
_cell_length_b   9.97621613
_cell_length_c   24.57130709
_cell_angle_alpha   89.99998367
_cell_angle_beta   90.00035280
_cell_angle_gamma   120.00007339
_symmetry_Int_Tables_number   1
_chemical_formula_structural   LiFeSiO4
_chemical_formula_sum   'Li24 Fe24 Si24 O96'
_cell_volume   2117.83653945
_cell_formula_units_Z   24
loop_
 _symmetry_equiv_pos_site_id
 _symmetry_equiv_pos_as_xyz
  1  'x, y, z'
loop_
 _atom_site_type_symbol
 _atom_site_label
 _atom_site_symmetry_multiplicity
 _atom_site_fract_x
 _atom_site_fract_y
 _atom_site_fract_z
 _atom_site_occupancy
  Li  Li0  1  0.033312  0.930933  0.683631  1
  Li  Li1  1  0.038850  0.603676  0.033426  1
  Li  Li2  1  0.057801  0.452045  0.195421  1
  Li  Li3  1  0.049862  0.460709  0.845885  1
  Li  Li4  1  0.394244  0.942202  0.862086  1
  Li  Li5  1  0.410819  0.950128  0.512554  1
  Li  Li6  1  0.069080  0.102376  0.016965  1
  Li  Li7  1  0.102351  0.033294  0.850296  1
  Li  Li8  1  0.564845  0.961166  0.700096  1
  Li  Li9  1  0.396313  0.435163  0.366763  1
  Li  Li10  1  0.539304  0.589160  0.179229  1
  Li  Li11  1  0.547967  0.605753  0.528751  1
  Li  Li12  1  0.452046  0.394249  0.028755  1
  Li  Li13  1  0.460707  0.410846  0.679221  1
  Li  Li14  1  0.603680  0.564831  0.866762  1
  Li  Li15  1  0.435165  0.038856  0.200092  1
  Li  Li16  1  0.897634  0.966715  0.350294  1
  Li  Li17  1  0.930931  0.897638  0.516964  1
  Li  Li18  1  0.589163  0.049859  0.012556  1
  Li  Li19  1  0.605741  0.057779  0.362085  1
  Li  Li20  1  0.950133  0.539309  0.345888  1
  Li  Li21  1  0.942212  0.547963  0.695423  1
  Li  Li22  1  0.961148  0.396317  0.533424  1
  Li  Li23  1  0.966694  0.069090  0.183634  1
  Fe  Fe24  1  0.097326  0.825741  0.270297  1
  Fe  Fe25  1  0.076885  0.751529  0.916528  1
  Fe  Fe26  1  0.124653  0.745795  0.591756  1
  Fe  Fe27  1  0.307663  0.674267  0.756287  1
  Fe  Fe28  1  0.325756  0.633408  0.089623  1
  Fe  Fe29  1  0.366594  0.692316  0.422944  1
  Fe  Fe30  1  0.174268  0.271678  0.603606  1
  Fe  Fe31  1  0.254165  0.378805  0.925110  1
  Fe  Fe32  1  0.248427  0.325331  0.249889  1
  Fe  Fe33  1  0.621164  0.875375  0.258426  1
  Fe  Fe34  1  0.674660  0.923102  0.583199  1
  Fe  Fe35  1  0.271638  0.097396  0.436942  1
  Fe  Fe36  1  0.728348  0.902583  0.936953  1
  Fe  Fe37  1  0.325385  0.076903  0.083213  1
  Fe  Fe38  1  0.378812  0.124648  0.758441  1
  Fe  Fe39  1  0.751557  0.674658  0.749857  1
  Fe  Fe40  1  0.745830  0.621186  0.425104  1
  Fe  Fe41  1  0.825758  0.728346  0.103622  1
  Fe  Fe42  1  0.633394  0.307642  0.922961  1
  Fe  Fe43  1  0.674249  0.366614  0.589622  1
  Fe  Fe44  1  0.692318  0.325718  0.256280  1
  Fe  Fe45  1  0.875378  0.254188  0.091773  1
  Fe  Fe46  1  0.923100  0.248445  0.416540  1
  Fe  Fe47  1  0.902584  0.174256  0.770274  1
  Si  Si48  1  0.087165  0.792146  0.787591  1
  Si  Si49  1  0.080549  0.747677  0.465456  1
  Si  Si50  1  0.136650  0.764688  0.142729  1
  Si  Si51  1  0.273503  0.640971  0.299557  1
  Si  Si52  1  0.367472  0.726498  0.966227  1
  Si  Si53  1  0.359027  0.632530  0.632890  1
  Si  Si54  1  0.235314  0.371945  0.476052  1
  Si  Si55  1  0.207864  0.295013  0.120934  1
  Si  Si56  1  0.252316  0.332880  0.798788  1
  Si  Si57  1  0.628058  0.863364  0.809393  1
  Si  Si58  1  0.667139  0.919453  0.132121  1
  Si  Si59  1  0.704972  0.912829  0.454262  1
  Si  Si60  1  0.295013  0.087156  0.954257  1
  Si  Si61  1  0.332864  0.080567  0.632120  1
  Si  Si62  1  0.371939  0.136622  0.309392  1
  Si  Si63  1  0.747682  0.667132  0.298789  1
  Si  Si64  1  0.792153  0.704981  0.620926  1
  Si  Si65  1  0.764690  0.628041  0.976066  1
  Si  Si66  1  0.640985  0.367475  0.132894  1
  Si  Si67  1  0.632514  0.273499  0.466223  1
  Si  Si68  1  0.726497  0.359025  0.799559  1
  Si  Si69  1  0.863368  0.235325  0.642718  1
  Si  Si70  1  0.919446  0.252325  0.965454  1
  Si  Si71  1  0.912814  0.207860  0.287600  1
  O  O72  1  0.023596  0.747435  0.091126  1
  O  O73  1  0.097874  0.921720  0.470814  1
  O  O74  1  0.021709  0.689408  0.843578  1
  O  O75  1  0.130942  0.963937  0.923895  1
  O  O76  1  0.045387  0.755556  0.198561  1
  O  O77  1  0.021613  0.661787  0.525029  1
  O  O78  1  0.233698  0.963477  0.806620  1
  O  O79  1  0.128530  0.673672  0.306527  1
  O  O80  1  0.130684  0.694548  0.744668  1
  O  O81  1  0.304334  0.949475  0.585364  1
  O  O82  1  0.302772  0.930906  0.136940  1
  O  O83  1  0.173657  0.620871  0.139763  1
  O  O84  1  0.255295  0.777934  0.454609  1
  O  O85  1  0.192437  0.614515  0.615390  1
  O  O86  1  0.069099  0.371852  0.470273  1
  O  O87  1  0.273999  0.766726  0.919530  1
  O  O88  1  0.050523  0.354864  0.918691  1
  O  O89  1  0.036539  0.270224  0.139951  1
  O  O90  1  0.035992  0.166956  0.257236  1
  O  O91  1  0.078280  0.176171  0.804140  1
  O  O92  1  0.271149  0.691152  0.023954  1
  O  O93  1  0.233259  0.507242  0.252871  1
  O  O94  1  0.308864  0.579993  0.357280  1
  O  O95  1  0.222048  0.477353  0.787940  1
  O  O96  1  0.420000  0.728873  0.690616  1
  O  O97  1  0.422080  0.807557  0.282059  1
  O  O98  1  0.447240  0.826364  0.806431  1
  O  O99  1  0.305463  0.436127  0.078016  1
  O  O100  1  0.326340  0.454853  0.639851  1
  O  O101  1  0.379126  0.552762  0.473093  1
  O  O102  1  0.244444  0.289804  0.531881  1
  O  O103  1  0.385481  0.577914  0.948738  1
  O  O104  1  0.492747  0.726016  0.586201  1
  O  O105  1  0.545155  0.871477  0.973189  1
  O  O106  1  0.563847  0.869314  0.411344  1
  O  O107  1  0.167017  0.130966  0.090562  1
  O  O108  1  0.252552  0.276135  0.424450  1
  O  O109  1  0.310542  0.332263  0.176927  1
  O  O110  1  0.176164  0.097903  0.637476  1
  O  O111  1  0.338209  0.359851  0.858364  1
  O  O112  1  0.522662  0.744709  0.121277  1
  O  O113  1  0.270228  0.233689  0.973286  1
  O  O114  1  0.640182  0.978393  0.191693  1
  O  O115  1  0.354876  0.304360  0.752031  1
  O  O116  1  0.371850  0.302757  0.303616  1
  O  O117  1  0.667727  0.978300  0.510248  1
  O  O118  1  0.710208  0.954623  0.865225  1
  O  O119  1  0.276131  0.023579  0.257788  1
  O  O120  1  0.723856  0.976412  0.757789  1
  O  O121  1  0.289785  0.045347  0.365222  1
  O  O122  1  0.332300  0.021712  0.010243  1
  O  O123  1  0.628144  0.697237  0.803606  1
  O  O124  1  0.645148  0.695682  0.252028  1
  O  O125  1  0.359822  0.021637  0.691696  1
  O  O126  1  0.729763  0.766293  0.473288  1
  O  O127  1  0.477349  0.255308  0.621274  1
  O  O128  1  0.661808  0.640195  0.358362  1
  O  O129  1  0.823847  0.902124  0.137486  1
  O  O130  1  0.689417  0.667700  0.676910  1
  O  O131  1  0.747438  0.723849  0.924468  1
  O  O132  1  0.833022  0.869060  0.590565  1
  O  O133  1  0.436123  0.130667  0.911336  1
  O  O134  1  0.454838  0.128512  0.473186  1
  O  O135  1  0.507273  0.273995  0.086202  1
  O  O136  1  0.614509  0.422084  0.448727  1
  O  O137  1  0.755580  0.710174  0.031899  1
  O  O138  1  0.620880  0.447229  0.973100  1
  O  O139  1  0.673682  0.545150  0.139868  1
  O  O140  1  0.694548  0.563872  0.578002  1
  O  O141  1  0.552772  0.173637  0.306432  1
  O  O142  1  0.577918  0.192431  0.782063  1
  O  O143  1  0.579998  0.271137  0.190616  1
  O  O144  1  0.777945  0.522649  0.287944  1
  O  O145  1  0.691144  0.419992  0.857290  1
  O  O146  1  0.766731  0.492740  0.752868  1
  O  O147  1  0.728849  0.308867  0.523948  1
  O  O148  1  0.921728  0.823854  0.304148  1
  O  O149  1  0.963945  0.833003  0.757227  1
  O  O150  1  0.963478  0.729778  0.639954  1
  O  O151  1  0.949461  0.645123  0.418694  1
  O  O152  1  0.726012  0.233273  0.419536  1
  O  O153  1  0.930901  0.628141  0.970276  1
  O  O154  1  0.807570  0.385483  0.115401  1
  O  O155  1  0.744697  0.222044  0.954610  1
  O  O156  1  0.826363  0.379147  0.639761  1
  O  O157  1  0.697243  0.069104  0.636937  1
  O  O158  1  0.695674  0.050528  0.085357  1
  O  O159  1  0.869317  0.305478  0.244676  1
  O  O160  1  0.871482  0.326328  0.806517  1
  O  O161  1  0.766272  0.036521  0.306621  1
  O  O162  1  0.978377  0.338221  0.025029  1
  O  O163  1  0.954650  0.244460  0.698547  1
  O  O164  1  0.869040  0.036034  0.423894  1
  O  O165  1  0.978298  0.310578  0.343588  1
  O  O166  1  0.902126  0.078291  0.970817  1
  O  O167  1  0.976417  0.252571  0.591113  1
