# generated using pymatgen
data_Rb2TeO3
_symmetry_space_group_name_H-M   'P 1'
_cell_length_a   6.58960806
_cell_length_b   6.77615458
_cell_length_c   7.67497236
_cell_angle_alpha   94.35435433
_cell_angle_beta   90.00000000
_cell_angle_gamma   119.09342291
_symmetry_Int_Tables_number   1
_chemical_formula_structural   Rb2TeO3
_chemical_formula_sum   'Rb4 Te2 O6'
_cell_volume   298.33219999
_cell_formula_units_Z   2
loop_
 _symmetry_equiv_pos_site_id
 _symmetry_equiv_pos_as_xyz
  1  'x, y, z'
loop_
 _atom_site_type_symbol
 _atom_site_label
 _atom_site_symmetry_multiplicity
 _atom_site_fract_x
 _atom_site_fract_y
 _atom_site_fract_z
 _atom_site_occupancy
  O  O0  1  0.165178  0.774013  0.212097  1
  O  O1  1  0.391165  0.225987  0.787903  1
  O  O2  1  0.834822  0.225987  0.787903  1
  O  O3  1  0.608835  0.774013  0.212097  1
  O  O4  1  0.819093  0.638185  0.730811  1
  O  O5  1  0.180907  0.361815  0.269189  1
  Rb  Rb6  1  0.000000  0.000000  0.000000  1
  Rb  Rb7  1  0.317139  0.634278  0.861726  1
  Rb  Rb8  1  0.000000  0.000000  0.500000  1
  Rb  Rb9  1  0.682861  0.365722  0.138274  1
  Te  Te10  1  0.336938  0.673875  0.339843  1
  Te  Te11  1  0.663062  0.326125  0.660157  1
