# generated using pymatgen
data_Co2OF3
_symmetry_space_group_name_H-M   'P 1'
_cell_length_a   6.16452525
_cell_length_b   6.81863450
_cell_length_c   7.11435867
_cell_angle_alpha   90.00000000
_cell_angle_beta   115.67369361
_cell_angle_gamma   90.00000000
_symmetry_Int_Tables_number   1
_chemical_formula_structural   Co2OF3
_chemical_formula_sum   'Co8 O4 F12'
_cell_volume   269.51976900
_cell_formula_units_Z   4
loop_
 _symmetry_equiv_pos_site_id
 _symmetry_equiv_pos_as_xyz
  1  'x, y, z'
loop_
 _atom_site_type_symbol
 _atom_site_label
 _atom_site_symmetry_multiplicity
 _atom_site_fract_x
 _atom_site_fract_y
 _atom_site_fract_z
 _atom_site_occupancy
  Co  Co0  1  -0.000035  0.000000  0.000107  1
  Co  Co1  1  0.500142  0.000000  0.000107  1
  Co  Co2  1  0.500681  0.000000  0.501361  1
  Co  Co3  1  0.750671  0.500000  0.001343  1
  Co  Co4  1  0.249319  0.500000  0.998639  1
  Co  Co5  1  0.999329  0.000000  0.498657  1
  Co  Co6  1  0.249858  0.500000  0.499893  1
  Co  Co7  1  0.750035  0.500000  0.499893  1
  O  O8  1  0.844712  0.000000  0.189424  1
  O  O9  1  0.155014  0.000000  0.810026  1
  O  O10  1  0.905288  0.500000  0.310576  1
  O  O11  1  0.594986  0.500000  0.689974  1
  F  F12  1  0.348848  0.000000  0.197695  1
  F  F13  1  0.000086  0.301252  0.000263  1
  F  F14  1  0.500177  0.301252  0.000263  1
  F  F15  1  0.249823  0.198748  0.499737  1
  F  F16  1  0.749914  0.198748  0.499737  1
  F  F17  1  0.000086  0.698748  0.000263  1
  F  F18  1  0.500177  0.698748  0.000263  1
  F  F19  1  0.401152  0.500000  0.302305  1
  F  F20  1  0.651785  0.000000  0.803571  1
  F  F21  1  0.098215  0.500000  0.696429  1
  F  F22  1  0.249823  0.801252  0.499737  1
  F  F23  1  0.749914  0.801252  0.499737  1
