# generated using pymatgen
data_Fe10O9F11
_symmetry_space_group_name_H-M   'P 1'
_cell_length_a   4.75466351
_cell_length_b   4.76634067
_cell_length_c   15.50504713
_cell_angle_alpha   90.00000000
_cell_angle_beta   90.00000000
_cell_angle_gamma   92.17771492
_symmetry_Int_Tables_number   1
_chemical_formula_structural   Fe10O9F11
_chemical_formula_sum   'Fe10 O9 F11'
_cell_volume   351.12696654
_cell_formula_units_Z   1
loop_
 _symmetry_equiv_pos_site_id
 _symmetry_equiv_pos_as_xyz
  1  'x, y, z'
loop_
 _atom_site_type_symbol
 _atom_site_label
 _atom_site_symmetry_multiplicity
 _atom_site_fract_x
 _atom_site_fract_y
 _atom_site_fract_z
 _atom_site_occupancy
  Fe  Fe0  1  0.005567  0.985741  0.002866  1
  Fe  Fe1  1  0.023257  0.974222  0.200000  1
  Fe  Fe2  1  0.005567  0.985741  0.397134  1
  Fe  Fe3  1  0.028538  0.011856  0.608984  1
  Fe  Fe4  1  0.028538  0.011856  0.791016  1
  Fe  Fe5  1  0.476053  0.522569  0.088040  1
  Fe  Fe6  1  0.497564  0.480522  0.497661  1
  Fe  Fe7  1  0.476053  0.522569  0.311960  1
  Fe  Fe8  1  0.456704  0.502328  0.700000  1
  Fe  Fe9  1  0.497564  0.480522  0.902339  1
  O  O10  1  0.188248  0.806035  0.101716  1
  O  O11  1  0.188248  0.806035  0.298285  1
  O  O12  1  0.201690  0.799510  0.700000  1
  O  O13  1  0.297947  0.295349  0.999092  1
  O  O14  1  0.297947  0.295349  0.400908  1
  O  O15  1  0.314440  0.315025  0.596894  1
  O  O16  1  0.314440  0.315025  0.803106  1
  O  O17  1  0.697791  0.694814  0.996874  1
  O  O18  1  0.697791  0.694814  0.403126  1
  F  F19  1  0.199287  0.802574  0.499366  1
  F  F20  1  0.199287  0.802574  0.900634  1
  F  F21  1  0.304398  0.311686  0.200000  1
  F  F22  1  0.684023  0.693116  0.200000  1
  F  F23  1  0.704178  0.705304  0.598958  1
  F  F24  1  0.704178  0.705304  0.801042  1
  F  F25  1  0.801190  0.193678  0.104898  1
  F  F26  1  0.810876  0.187727  0.499351  1
  F  F27  1  0.801190  0.193678  0.295102  1
  F  F28  1  0.810876  0.187727  0.900649  1
  F  F29  1  0.786569  0.216754  0.700000  1
