# generated using pymatgen
data_NdSi2
_symmetry_space_group_name_H-M   'P 1'
_cell_length_a   4.21941169
_cell_length_b   4.21941170
_cell_length_c   7.59838223
_cell_angle_alpha   106.12011713
_cell_angle_beta   106.12011716
_cell_angle_gamma   90.00000001
_symmetry_Int_Tables_number   1
_chemical_formula_structural   NdSi2
_chemical_formula_sum   'Nd2 Si4'
_cell_volume   124.41237991
_cell_formula_units_Z   2
loop_
 _symmetry_equiv_pos_site_id
 _symmetry_equiv_pos_as_xyz
  1  'x, y, z'
loop_
 _atom_site_type_symbol
 _atom_site_label
 _atom_site_symmetry_multiplicity
 _atom_site_fract_x
 _atom_site_fract_y
 _atom_site_fract_z
 _atom_site_occupancy
  Si  Si0  1  0.709566  0.959566  0.919132  1
  Si  Si1  1  0.459566  0.209566  0.419132  1
  Si  Si2  1  0.540434  0.790434  0.580868  1
  Si  Si3  1  0.290434  0.040434  0.080868  1
  Nd  Nd4  1  0.875000  0.625000  0.250000  1
  Nd  Nd5  1  0.125000  0.375000  0.750000  1
