# generated using pymatgen
data_LiMn2(BO3)2
_symmetry_space_group_name_H-M   'P 1'
_cell_length_a   5.35828413
_cell_length_b   9.09079991
_cell_length_c   11.52986711
_cell_angle_alpha   65.85392109
_cell_angle_beta   78.59864446
_cell_angle_gamma   90.37182517
_symmetry_Int_Tables_number   1
_chemical_formula_structural   LiMn2(BO3)2
_chemical_formula_sum   'Li4 Mn8 B8 O24'
_cell_volume   499.97807521
_cell_formula_units_Z   4
loop_
 _symmetry_equiv_pos_site_id
 _symmetry_equiv_pos_as_xyz
  1  'x, y, z'
loop_
 _atom_site_type_symbol
 _atom_site_label
 _atom_site_symmetry_multiplicity
 _atom_site_fract_x
 _atom_site_fract_y
 _atom_site_fract_z
 _atom_site_occupancy
  Li  Li0  1  0.287263  0.146245  0.672604  1
  Li  Li1  1  0.569821  0.441650  0.149022  1
  Li  Li2  1  0.075901  0.921867  0.163337  1
  Li  Li3  1  0.660683  0.786622  0.415722  1
  Mn  Mn4  1  0.084344  0.259681  0.131205  1
  Mn  Mn5  1  0.647289  0.154480  0.385453  1
  Mn  Mn6  1  0.397138  0.207107  0.887291  1
  Mn  Mn7  1  0.167749  0.629919  0.375452  1
  Mn  Mn8  1  0.823064  0.378847  0.635683  1
  Mn  Mn9  1  0.599198  0.789397  0.118150  1
  Mn  Mn10  1  0.342105  0.828953  0.630645  1
  Mn  Mn11  1  0.910752  0.746201  0.873355  1
  B  B12  1  0.605545  0.108661  0.133178  1
  B  B13  1  0.838445  0.030062  0.636357  1
  B  B14  1  0.102342  0.604803  0.121709  1
  B  B15  1  0.652668  0.501255  0.370864  1
  B  B16  1  0.365139  0.505792  0.622828  1
  B  B17  1  0.895601  0.396359  0.881910  1
  B  B18  1  0.153771  0.979792  0.368262  1
  B  B19  1  0.387178  0.875444  0.870085  1
  O  O20  1  0.364717  0.116630  0.098447  1
  O  O21  1  0.055184  0.132767  0.322077  1
  O  O22  1  0.953051  0.164644  0.632910  1
  O  O23  1  0.689457  0.227571  0.168846  1
  O  O24  1  0.611589  0.031083  0.591226  1
  O  O25  1  0.217588  0.470306  0.129111  1
  O  O26  1  0.271160  0.010451  0.860401  1
  O  O27  1  0.568449  0.387412  0.337884  1
  O  O28  1  0.191289  0.710457  0.169772  1
  O  O29  1  0.443744  0.348118  0.673499  1
  O  O30  1  0.881992  0.646015  0.068682  1
  O  O31  1  0.136376  0.522423  0.581597  1
  O  O32  1  0.839692  0.478250  0.444467  1
  O  O33  1  0.094011  0.326023  0.946017  1
  O  O34  1  0.561734  0.655302  0.329068  1
  O  O35  1  0.793709  0.305386  0.823734  1
  O  O36  1  0.034699  0.853479  0.357660  1
  O  O37  1  0.512689  0.637871  0.605431  1
  O  O38  1  0.750951  0.989550  0.129370  1
  O  O39  1  0.803390  0.532493  0.877880  1
  O  O40  1  0.369603  0.960761  0.422969  1
  O  O41  1  0.289255  0.759923  0.834131  1
  O  O42  1  0.951143  0.881079  0.683903  1
  O  O43  1  0.605930  0.842801  0.920712  1
