# generated using pymatgen
data_NaGeSbO5
_symmetry_space_group_name_H-M   'P 1'
_cell_length_a   6.50100204
_cell_length_b   10.88316337
_cell_length_c   13.20293053
_cell_angle_alpha   90.00000000
_cell_angle_beta   90.00000000
_cell_angle_gamma   90.00000000
_symmetry_Int_Tables_number   1
_chemical_formula_structural   NaGeSbO5
_chemical_formula_sum   'Na8 Ge8 Sb8 O40'
_cell_volume   934.12670726
_cell_formula_units_Z   8
loop_
 _symmetry_equiv_pos_site_id
 _symmetry_equiv_pos_as_xyz
  1  'x, y, z'
loop_
 _atom_site_type_symbol
 _atom_site_label
 _atom_site_symmetry_multiplicity
 _atom_site_fract_x
 _atom_site_fract_y
 _atom_site_fract_z
 _atom_site_occupancy
  O  O0  1  0.945554  0.152493  0.803009  1
  O  O1  1  0.054446  0.652493  0.196991  1
  O  O2  1  0.554446  0.152493  0.303009  1
  O  O3  1  0.445554  0.652493  0.696991  1
  O  O4  1  0.497661  0.898482  0.257404  1
  O  O5  1  0.502339  0.398482  0.742596  1
  O  O6  1  0.002339  0.898482  0.757404  1
  O  O7  1  0.997661  0.398482  0.242596  1
  O  O8  1  0.497783  0.150595  0.746515  1
  O  O9  1  0.502217  0.650595  0.253485  1
  O  O10  1  0.002217  0.150595  0.246515  1
  O  O11  1  0.997783  0.650595  0.753485  1
  O  O12  1  0.068018  0.905512  0.210359  1
  O  O13  1  0.931982  0.405512  0.789641  1
  O  O14  1  0.431982  0.905512  0.710359  1
  O  O15  1  0.138925  0.782996  0.580401  1
  O  O16  1  0.568018  0.405512  0.289641  1
  O  O17  1  0.735300  0.528318  0.095942  1
  O  O18  1  0.235300  0.028318  0.404058  1
  O  O19  1  0.764700  0.528318  0.595942  1
  O  O20  1  0.830935  0.955122  0.383938  1
  O  O21  1  0.169065  0.455122  0.616062  1
  O  O22  1  0.669065  0.955122  0.883938  1
  O  O23  1  0.330935  0.455122  0.116062  1
  O  O24  1  0.531942  0.843703  0.471279  1
  O  O25  1  0.468058  0.343703  0.528721  1
  O  O26  1  0.968058  0.843703  0.971279  1
  O  O27  1  0.031942  0.343703  0.028721  1
  O  O28  1  0.907805  0.090840  0.013723  1
  O  O29  1  0.092195  0.590840  0.986277  1
  O  O30  1  0.592195  0.090840  0.513723  1
  O  O31  1  0.407805  0.590840  0.486277  1
  O  O32  1  0.167596  0.755192  0.369665  1
  O  O33  1  0.832404  0.255192  0.630335  1
  O  O34  1  0.332404  0.755192  0.869665  1
  O  O35  1  0.667596  0.255192  0.130335  1
  O  O36  1  0.638925  0.282996  0.919599  1
  O  O37  1  0.361075  0.782996  0.080401  1
  O  O38  1  0.861075  0.282996  0.419599  1
  O  O39  1  0.264700  0.028318  0.904058  1
  Na  Na40  1  0.799956  0.732739  0.341318  1
  Na  Na41  1  0.271256  0.412431  0.899746  1
  Na  Na42  1  0.228744  0.412431  0.399746  1
  Na  Na43  1  0.728744  0.912431  0.100254  1
  Na  Na44  1  0.299956  0.232739  0.158682  1
  Na  Na45  1  0.700044  0.732739  0.841318  1
  Na  Na46  1  0.200044  0.232739  0.658682  1
  Na  Na47  1  0.771256  0.912431  0.600254  1
  Ge  Ge48  1  0.684955  0.244683  0.518134  1
  Ge  Ge49  1  0.184955  0.744683  0.981866  1
  Ge  Ge50  1  0.815045  0.244683  0.018134  1
  Ge  Ge51  1  0.539675  0.510681  0.187247  1
  Ge  Ge52  1  0.460325  0.010681  0.812753  1
  Ge  Ge53  1  0.960325  0.510681  0.687247  1
  Ge  Ge54  1  0.315045  0.744683  0.481866  1
  Ge  Ge55  1  0.039675  0.010681  0.312753  1
  Sb  Sb56  1  0.278687  0.772867  0.226794  1
  Sb  Sb57  1  0.721313  0.272867  0.773206  1
  Sb  Sb58  1  0.221313  0.772867  0.726794  1
  Sb  Sb59  1  0.533113  0.999765  0.384572  1
  Sb  Sb60  1  0.466887  0.499765  0.615428  1
  Sb  Sb61  1  0.966887  0.999765  0.884572  1
  Sb  Sb62  1  0.033113  0.499765  0.115428  1
  Sb  Sb63  1  0.778687  0.272867  0.273206  1
