# generated using pymatgen
data_CsAsH6(CSe)2
_symmetry_space_group_name_H-M   'P 1'
_cell_length_a   7.12899766
_cell_length_b   7.12899766
_cell_length_c   9.83924690
_cell_angle_alpha   107.56511260
_cell_angle_beta   107.56511260
_cell_angle_gamma   91.27600318
_symmetry_Int_Tables_number   1
_chemical_formula_structural   CsAsH6(CSe)2
_chemical_formula_sum   'Cs2 As2 H12 C4 Se4'
_cell_volume   450.96475986
_cell_formula_units_Z   2
loop_
 _symmetry_equiv_pos_site_id
 _symmetry_equiv_pos_as_xyz
  1  'x, y, z'
loop_
 _atom_site_type_symbol
 _atom_site_label
 _atom_site_symmetry_multiplicity
 _atom_site_fract_x
 _atom_site_fract_y
 _atom_site_fract_z
 _atom_site_occupancy
  Cs  Cs0  1  0.888267  0.111733  0.250000  1
  Cs  Cs1  1  0.111733  0.888267  0.750000  1
  As  As2  1  0.323408  0.676592  0.250000  1
  As  As3  1  0.676592  0.323408  0.750000  1
  H  H4  1  0.177164  0.413551  0.994235  1
  H  H5  1  0.822837  0.586450  0.005765  1
  H  H6  1  0.442167  0.417040  0.062608  1
  H  H7  1  0.287963  0.302651  0.138459  1
  H  H8  1  0.697348  0.712036  0.361541  1
  H  H9  1  0.582959  0.557832  0.437392  1
  H  H10  1  0.413549  0.177162  0.494234  1
  H  H11  1  0.586450  0.822836  0.505765  1
  H  H12  1  0.417041  0.442168  0.562608  1
  H  H13  1  0.302652  0.287964  0.638460  1
  H  H14  1  0.712035  0.697348  0.861540  1
  H  H15  1  0.557832  0.582959  0.937393  1
  C  C16  1  0.305947  0.422698  0.092892  1
  C  C17  1  0.577303  0.694053  0.407109  1
  C  C18  1  0.422698  0.305947  0.592892  1
  C  C19  1  0.694053  0.577303  0.907108  1
  Se  Se20  1  0.343194  0.932479  0.154523  1
  Se  Se21  1  0.067522  0.656807  0.345477  1
  Se  Se22  1  0.932478  0.343193  0.654523  1
  Se  Se23  1  0.656806  0.067521  0.845477  1
