# generated using pymatgen
data_Cs2MgP4(HO2)8
_symmetry_space_group_name_H-M   'P 1'
_cell_length_a   7.08131183
_cell_length_b   7.52918549
_cell_length_c   8.03264973
_cell_angle_alpha   83.50836630
_cell_angle_beta   68.92687180
_cell_angle_gamma   87.69122006
_symmetry_Int_Tables_number   1
_chemical_formula_structural   Cs2MgP4(HO2)8
_chemical_formula_sum   'Cs2 Mg1 P4 H8 O16'
_cell_volume   397.06862192
_cell_formula_units_Z   1
loop_
 _symmetry_equiv_pos_site_id
 _symmetry_equiv_pos_as_xyz
  1  'x, y, z'
loop_
 _atom_site_type_symbol
 _atom_site_label
 _atom_site_symmetry_multiplicity
 _atom_site_fract_x
 _atom_site_fract_y
 _atom_site_fract_z
 _atom_site_occupancy
  Cs  Cs0  1  0.090079  0.700888  0.279283  1
  Cs  Cs1  1  0.911358  0.296264  0.721351  1
  Mg  Mg2  1  0.503194  0.499075  0.498679  1
  P  P3  1  0.373501  0.251235  0.237398  1
  P  P4  1  0.778891  0.194786  0.248811  1
  P  P5  1  0.223115  0.805048  0.750381  1
  P  P6  1  0.628916  0.748324  0.762434  1
  H  H7  1  0.107193  0.248698  0.089083  1
  H  H8  1  0.610988  0.697953  0.156408  1
  H  H9  1  0.629631  0.823132  0.298251  1
  H  H10  1  0.271565  0.027335  0.451906  1
  H  H11  1  0.730645  0.973852  0.548326  1
  H  H12  1  0.371511  0.174345  0.704072  1
  H  H13  1  0.389875  0.301444  0.843721  1
  H  H14  1  0.893122  0.750298  0.912678  1
  O  O15  1  0.977888  0.198279  0.078471  1
  O  O16  1  0.304793  0.316005  0.082462  1
  O  O17  1  0.615579  0.217750  0.145815  1
  O  O18  1  0.574563  0.708764  0.286130  1
  O  O19  1  0.273961  0.062773  0.322584  1
  O  O20  1  0.742886  0.010244  0.354162  1
  O  O21  1  0.763281  0.352194  0.354612  1
  O  O22  1  0.335495  0.374375  0.382127  1
  O  O23  1  0.667924  0.622947  0.618993  1
  O  O24  1  0.240366  0.649849  0.641765  1
  O  O25  1  0.258061  0.990704  0.646741  1
  O  O26  1  0.726970  0.937360  0.677877  1
  O  O27  1  0.428060  0.289403  0.714546  1
  O  O28  1  0.386982  0.781747  0.853227  1
  O  O29  1  0.697683  0.684050  0.917450  1
  O  O30  1  0.024613  0.799073  0.921550  1
