# generated using pymatgen
data_Li2MnVP2(HO5)2
_symmetry_space_group_name_H-M   'P 1'
_cell_length_a   5.49881416
_cell_length_b   19.87060585
_cell_length_c   5.16412614
_cell_angle_alpha   81.96637339
_cell_angle_beta   99.60256692
_cell_angle_gamma   97.19793636
_symmetry_Int_Tables_number   1
_chemical_formula_structural   Li2MnVP2(HO5)2
_chemical_formula_sum   'Li6 Mn3 V3 P6 H6 O30'
_cell_volume   547.87726726
_cell_formula_units_Z   3
loop_
 _symmetry_equiv_pos_site_id
 _symmetry_equiv_pos_as_xyz
  1  'x, y, z'
loop_
 _atom_site_type_symbol
 _atom_site_label
 _atom_site_symmetry_multiplicity
 _atom_site_fract_x
 _atom_site_fract_y
 _atom_site_fract_z
 _atom_site_occupancy
  Li  Li0  1  0.450472  0.940492  0.862188  1
  Li  Li1  1  0.114367  0.273968  0.196783  1
  Li  Li2  1  0.211841  0.392055  0.473134  1
  Li  Li3  1  0.787989  0.610695  0.528623  1
  Li  Li4  1  0.885074  0.724391  0.801160  1
  Li  Li5  1  0.550638  0.059083  0.135553  1
  Mn  Mn6  1  0.169701  0.832954  0.329121  1
  Mn  Mn7  1  0.337456  0.666856  0.666170  1
  Mn  Mn8  1  0.832998  0.166439  0.665991  1
  V  V9  1  -0.000024  0.999791  0.998664  1
  V  V10  1  0.497018  0.500923  0.003960  1
  V  V11  1  0.663295  0.332778  0.337621  1
  P  P12  1  0.046524  0.588477  0.148956  1
  P  P13  1  0.377561  0.255688  0.817870  1
  P  P14  1  0.287442  0.077563  0.515267  1
  P  P15  1  0.713475  0.921814  0.481089  1
  P  P16  1  0.629637  0.745056  0.180618  1
  P  P17  1  0.944820  0.411588  0.857502  1
  H  H18  1  0.045200  0.886157  0.864179  1
  H  H19  1  0.292530  0.778271  0.801717  1
  H  H20  1  0.382028  0.556169  0.530483  1
  H  H21  1  0.611882  0.446265  0.469356  1
  H  H22  1  0.710751  0.218957  0.198936  1
  H  H23  1  0.956261  0.113665  0.133673  1
  O  O24  1  0.019558  0.625492  0.864842  1
  O  O25  1  0.135145  0.907491  0.023255  1
  O  O26  1  0.106548  0.642628  0.349567  1
  O  O27  1  0.202205  0.757343  0.641101  1
  O  O28  1  0.114488  0.221387  0.864137  1
  O  O29  1  0.201654  0.448690  0.806150  1
  O  O30  1  0.090035  0.127924  0.450777  1
  O  O31  1  0.253889  0.539958  0.203265  1
  O  O32  1  0.450100  0.887267  0.526309  1
  O  O33  1  0.428936  0.794661  0.118125  1
  O  O34  1  0.469563  0.576765  0.690597  1
  O  O35  1  0.571379  0.689572  0.984120  1
  O  O36  1  0.233912  0.022961  0.318787  1
  O  O37  1  0.297525  0.039637  0.803202  1
  O  O38  1  0.365505  0.293429  0.529571  1
  O  O39  1  0.652610  0.708196  0.465789  1
  O  O40  1  0.702353  0.960318  0.194216  1
  O  O41  1  0.764874  0.975863  0.679496  1
  O  O42  1  0.430215  0.310653  0.012651  1
  O  O43  1  0.528579  0.425276  0.309863  1
  O  O44  1  0.575607  0.205494  0.881074  1
  O  O45  1  0.550428  0.111591  0.468977  1
  O  O46  1  0.738765  0.460220  0.804559  1
  O  O47  1  0.912740  0.871971  0.544078  1
  O  O48  1  0.792923  0.550675  0.210738  1
  O  O49  1  0.889248  0.780801  0.123196  1
  O  O50  1  0.799567  0.240024  0.359349  1
  O  O51  1  0.893154  0.358472  0.656920  1
  O  O52  1  0.866925  0.092580  0.973424  1
  O  O53  1  0.962633  0.372562  0.143249  1
