# generated using pymatgen
data_U3(PO9)2
_symmetry_space_group_name_H-M   'P 1'
_cell_length_a   7.20455337
_cell_length_b   17.60979633
_cell_length_c   13.33617645
_cell_angle_alpha   90.00000000
_cell_angle_beta   90.00000000
_cell_angle_gamma   90.00000000
_symmetry_Int_Tables_number   1
_chemical_formula_structural   U3(PO9)2
_chemical_formula_sum   'U12 P8 O72'
_cell_volume   1691.97027484
_cell_formula_units_Z   4
loop_
 _symmetry_equiv_pos_site_id
 _symmetry_equiv_pos_as_xyz
  1  'x, y, z'
loop_
 _atom_site_type_symbol
 _atom_site_label
 _atom_site_symmetry_multiplicity
 _atom_site_fract_x
 _atom_site_fract_y
 _atom_site_fract_z
 _atom_site_occupancy
  U  U0  1  0.243310  0.521442  0.324815  1
  U  U1  1  0.743310  0.978558  0.175185  1
  U  U2  1  0.756690  0.021442  0.675185  1
  U  U3  1  0.256690  0.478558  0.824815  1
  U  U4  1  0.756690  0.478558  0.675185  1
  U  U5  1  0.256690  0.021442  0.824815  1
  U  U6  1  0.243310  0.978558  0.324815  1
  U  U7  1  0.743310  0.521442  0.175185  1
  U  U8  1  0.223222  0.750000  0.037217  1
  U  U9  1  0.723222  0.750000  0.462783  1
  U  U10  1  0.776778  0.250000  0.962783  1
  U  U11  1  0.276778  0.250000  0.537217  1
  P  P12  1  0.241918  0.540172  0.086123  1
  P  P13  1  0.741918  0.959828  0.413877  1
  P  P14  1  0.758082  0.040172  0.913877  1
  P  P15  1  0.258082  0.459828  0.586123  1
  P  P16  1  0.758082  0.459828  0.913877  1
  P  P17  1  0.258082  0.040172  0.586123  1
  P  P18  1  0.241918  0.959828  0.086123  1
  P  P19  1  0.741918  0.540172  0.413877  1
  O  O20  1  0.244065  0.623212  0.326939  1
  O  O21  1  0.744065  0.876788  0.173061  1
  O  O22  1  0.755935  0.123212  0.673061  1
  O  O23  1  0.255935  0.376788  0.826939  1
  O  O24  1  0.755935  0.376788  0.673061  1
  O  O25  1  0.255935  0.123212  0.826939  1
  O  O26  1  0.244065  0.876788  0.326939  1
  O  O27  1  0.744065  0.623212  0.173061  1
  O  O28  1  0.247485  0.486533  0.995848  1
  O  O29  1  0.747485  0.013467  0.504152  1
  O  O30  1  0.752515  0.986533  0.004152  1
  O  O31  1  0.252515  0.513467  0.495848  1
  O  O32  1  0.752515  0.513467  0.004152  1
  O  O33  1  0.252515  0.986533  0.495848  1
  O  O34  1  0.247485  0.013467  0.995848  1
  O  O35  1  0.747485  0.486533  0.504152  1
  O  O36  1  0.074986  0.523424  0.157360  1
  O  O37  1  0.574986  0.976576  0.342640  1
  O  O38  1  0.925014  0.023424  0.842640  1
  O  O39  1  0.425014  0.476576  0.657360  1
  O  O40  1  0.925014  0.476576  0.842640  1
  O  O41  1  0.425014  0.023424  0.657360  1
  O  O42  1  0.074986  0.976576  0.157360  1
  O  O43  1  0.574986  0.523424  0.342640  1
  O  O44  1  0.411111  0.527019  0.156684  1
  O  O45  1  0.911111  0.972981  0.343316  1
  O  O46  1  0.588889  0.027019  0.843316  1
  O  O47  1  0.088889  0.472981  0.656684  1
  O  O48  1  0.588889  0.472981  0.843316  1
  O  O49  1  0.088889  0.027019  0.656684  1
  O  O50  1  0.411111  0.972981  0.156684  1
  O  O51  1  0.911111  0.527019  0.343316  1
  O  O52  1  0.243363  0.419901  0.317952  1
  O  O53  1  0.743363  0.080099  0.182048  1
  O  O54  1  0.756637  0.919901  0.682048  1
  O  O55  1  0.256638  0.580099  0.817952  1
  O  O56  1  0.756637  0.580099  0.682048  1
  O  O57  1  0.256638  0.919901  0.817952  1
  O  O58  1  0.243363  0.080099  0.317952  1
  O  O59  1  0.743363  0.419901  0.182048  1
  O  O60  1  0.228876  0.623110  0.049485  1
  O  O61  1  0.728876  0.876890  0.450516  1
  O  O62  1  0.771124  0.123110  0.950515  1
  O  O63  1  0.271124  0.376890  0.549485  1
  O  O64  1  0.771124  0.376890  0.950515  1
  O  O65  1  0.271124  0.123110  0.549485  1
  O  O66  1  0.228876  0.876890  0.049485  1
  O  O67  1  0.728876  0.623110  0.450516  1
  O  O68  1  0.299991  0.750000  0.906272  1
  O  O69  1  0.799991  0.750000  0.593728  1
  O  O70  1  0.700009  0.250000  0.093728  1
  O  O71  1  0.200009  0.250000  0.406272  1
  O  O72  1  0.056241  0.750000  0.138955  1
  O  O73  1  0.556241  0.750000  0.361045  1
  O  O74  1  0.943759  0.250000  0.861045  1
  O  O75  1  0.443759  0.250000  0.638955  1
  O  O76  1  0.881695  0.714564  0.932400  1
  O  O77  1  0.381695  0.785436  0.567600  1
  O  O78  1  0.118305  0.214564  0.067600  1
  O  O79  1  0.618305  0.285436  0.432400  1
  O  O80  1  0.118305  0.285436  0.067600  1
  O  O81  1  0.618305  0.214564  0.432400  1
  O  O82  1  0.881695  0.785436  0.932400  1
  O  O83  1  0.381695  0.714564  0.567600  1
  O  O84  1  0.455555  0.750000  0.099752  1
  O  O85  1  0.955555  0.750000  0.400248  1
  O  O86  1  0.544445  0.250000  0.900248  1
  O  O87  1  0.044445  0.250000  0.599752  1
  O  O88  1  0.647150  0.750000  0.813580  1
  O  O89  1  0.147150  0.750000  0.686420  1
  O  O90  1  0.352850  0.250000  0.186420  1
  O  O91  1  0.852850  0.250000  0.313580  1
