# generated using pymatgen
data_Mn6O5F7
_symmetry_space_group_name_H-M   'P 1'
_cell_length_a   4.77330818
_cell_length_b   7.92004891
_cell_length_c   5.68499983
_cell_angle_alpha   93.67036015
_cell_angle_beta   88.92513787
_cell_angle_gamma   90.40798843
_symmetry_Int_Tables_number   1
_chemical_formula_structural   Mn6O5F7
_chemical_formula_sum   'Mn6 O5 F7'
_cell_volume   214.43813170
_cell_formula_units_Z   1
loop_
 _symmetry_equiv_pos_site_id
 _symmetry_equiv_pos_as_xyz
  1  'x, y, z'
loop_
 _atom_site_type_symbol
 _atom_site_label
 _atom_site_symmetry_multiplicity
 _atom_site_fract_x
 _atom_site_fract_y
 _atom_site_fract_z
 _atom_site_occupancy
  Mn  Mn0  1  0.453600  0.008571  0.510187  1
  Mn  Mn1  1  0.543725  0.656026  0.163205  1
  Mn  Mn2  1  0.519282  0.342858  0.819054  1
  Mn  Mn3  1  0.992681  0.670991  0.672760  1
  Mn  Mn4  1  0.996576  0.336350  0.345046  1
  Mn  Mn5  1  0.994402  0.982276  0.993017  1
  O  O6  1  0.810210  0.452366  0.614769  1
  O  O7  1  0.806971  0.759917  0.964913  1
  O  O8  1  0.695287  0.429158  0.118543  1
  O  O9  1  0.303333  0.242950  0.545481  1
  O  O10  1  0.174117  0.894072  0.709327  1
  F  F11  1  0.802384  0.083105  0.289952  1
  F  F12  1  0.695929  0.106098  0.800972  1
  F  F13  1  0.684390  0.784582  0.473348  1
  F  F14  1  0.298040  0.560359  0.871473  1
  F  F15  1  0.320427  0.883860  0.191560  1
  F  F16  1  0.214685  0.585404  0.370487  1
  F  F17  1  0.193962  0.221055  0.045904  1
