# generated using pymatgen
data_Co2OF3
_symmetry_space_group_name_H-M   'P 1'
_cell_length_a   4.71620061
_cell_length_b   13.30007125
_cell_length_c   5.68490557
_cell_angle_alpha   101.27236719
_cell_angle_beta   89.46919743
_cell_angle_gamma   90.44314961
_symmetry_Int_Tables_number   1
_chemical_formula_structural   Co2OF3
_chemical_formula_sum   'Co10 O5 F15'
_cell_volume   349.68991996
_cell_formula_units_Z   5
loop_
 _symmetry_equiv_pos_site_id
 _symmetry_equiv_pos_as_xyz
  1  'x, y, z'
loop_
 _atom_site_type_symbol
 _atom_site_label
 _atom_site_symmetry_multiplicity
 _atom_site_fract_x
 _atom_site_fract_y
 _atom_site_fract_z
 _atom_site_occupancy
  Co  Co0  1  0.476835  0.996376  0.517145  1
  Co  Co1  1  0.502834  0.397103  0.303843  1
  Co  Co2  1  0.556945  0.600429  0.682993  1
  Co  Co3  1  0.461296  0.217277  0.902897  1
  Co  Co4  1  0.504839  0.799469  0.096936  1
  Co  Co5  1  0.990732  0.406270  0.781618  1
  Co  Co6  1  0.015332  0.802047  0.599595  1
  Co  Co7  1  0.959730  0.182469  0.399467  1
  Co  Co8  1  0.000359  0.600186  0.215397  1
  Co  Co9  1  0.996977  0.002088  0.995113  1
  O  O10  1  0.789356  0.060838  0.334301  1
  O  O11  1  0.817706  0.662123  0.523556  1
  O  O12  1  0.716154  0.456813  0.618188  1
  O  O13  1  0.293754  0.339648  0.965801  1
  O  O14  1  0.201934  0.942167  0.680447  1
  F  F15  1  0.796843  0.258780  0.713318  1
  F  F16  1  0.806630  0.860903  0.916908  1
  F  F17  1  0.812636  0.458536  0.114692  1
  F  F18  1  0.702428  0.657068  0.018402  1
  F  F19  1  0.678584  0.072381  0.831685  1
  F  F20  1  0.696651  0.861387  0.419709  1
  F  F21  1  0.694956  0.256626  0.208332  1
  F  F22  1  0.317371  0.734819  0.778101  1
  F  F23  1  0.301208  0.940781  0.182829  1
  F  F24  1  0.292270  0.142846  0.590541  1
  F  F25  1  0.316824  0.538682  0.388282  1
  F  F26  1  0.192340  0.143363  0.092346  1
  F  F27  1  0.216279  0.540624  0.878771  1
  F  F28  1  0.203786  0.739983  0.278202  1
  F  F29  1  0.186412  0.327919  0.470583  1
