# generated using pymatgen
data_Li2Mg2MnFe(PO4)4
_symmetry_space_group_name_H-M   'P 1'
_cell_length_a   4.81817091
_cell_length_b   10.07450874
_cell_length_c   5.95548445
_cell_angle_alpha   89.93192536
_cell_angle_beta   90.55621904
_cell_angle_gamma   89.26630760
_symmetry_Int_Tables_number   1
_chemical_formula_structural   Li2Mg2MnFe(PO4)4
_chemical_formula_sum   'Li2 Mg2 Mn1 Fe1 P4 O16'
_cell_volume   289.04584261
_cell_formula_units_Z   1
loop_
 _symmetry_equiv_pos_site_id
 _symmetry_equiv_pos_as_xyz
  1  'x, y, z'
loop_
 _atom_site_type_symbol
 _atom_site_label
 _atom_site_symmetry_multiplicity
 _atom_site_fract_x
 _atom_site_fract_y
 _atom_site_fract_z
 _atom_site_occupancy
  Li  Li0  1  0.000288  0.999388  0.519493  1
  Li  Li1  1  0.496190  0.501822  0.981217  1
  Mg  Mg2  1  0.028727  0.720798  0.751549  1
  Mg  Mg3  1  0.475408  0.224271  0.746698  1
  Mn  Mn4  1  0.550672  0.781772  0.251347  1
  Fe  Fe5  1  0.972303  0.276572  0.248054  1
  P  P6  1  0.086766  0.599825  0.251119  1
  P  P7  1  0.417549  0.095857  0.248454  1
  P  P8  1  0.573880  0.905214  0.751028  1
  P  P9  1  0.921635  0.404610  0.749390  1
  O  O10  1  0.159606  0.449394  0.248613  1
  O  O11  1  0.232682  0.662057  0.042611  1
  O  O12  1  0.217441  0.673067  0.452016  1
  O  O13  1  0.237032  0.391212  0.762442  1
  O  O14  1  0.260402  0.892032  0.737628  1
  O  O15  1  0.276990  0.172078  0.049551  1
  O  O16  1  0.261159  0.162489  0.452739  1
  O  O17  1  0.337008  0.946863  0.252301  1
  O  O18  1  0.675658  0.048538  0.744435  1
  O  O19  1  0.728659  0.832623  0.547582  1
  O  O20  1  0.710231  0.826874  0.953314  1
  O  O21  1  0.733757  0.112010  0.260544  1
  O  O22  1  0.763796  0.616805  0.240499  1
  O  O23  1  0.792959  0.325289  0.545433  1
  O  O24  1  0.774601  0.331003  0.956164  1
  O  O25  1  0.814603  0.547538  0.755777  1
