# generated using pymatgen
data_Li2Fe(PS3)2
_symmetry_space_group_name_H-M   'P 1'
_cell_length_a   6.03174034
_cell_length_b   6.02196651
_cell_length_c   6.67517991
_cell_angle_alpha   89.69423250
_cell_angle_beta   90.46063101
_cell_angle_gamma   120.10955485
_symmetry_Int_Tables_number   1
_chemical_formula_structural   Li2Fe(PS3)2
_chemical_formula_sum   'Li2 Fe1 P2 S6'
_cell_volume   209.73917438
_cell_formula_units_Z   1
loop_
 _symmetry_equiv_pos_site_id
 _symmetry_equiv_pos_as_xyz
  1  'x, y, z'
loop_
 _atom_site_type_symbol
 _atom_site_label
 _atom_site_symmetry_multiplicity
 _atom_site_fract_x
 _atom_site_fract_y
 _atom_site_fract_z
 _atom_site_occupancy
  Li  Li0  1  0.666919  0.333608  0.500006  1
  Li  Li1  1  0.666103  0.333373  0.000035  1
  Fe  Fe2  1  0.319638  0.662215  0.500159  1
  P  P3  1  0.001144  0.001987  0.666736  1
  P  P4  1  -0.000412  0.997772  0.333132  1
  S  S5  1  0.016569  0.678635  0.740055  1
  S  S6  1  0.015927  0.337027  0.259972  1
  S  S7  1  0.324704  0.337607  0.736999  1
  S  S8  1  0.324081  0.986231  0.263732  1
  S  S9  1  0.665562  0.677731  0.259584  1
  S  S10  1  0.666266  0.987112  0.739590  1
