# generated using pymatgen
data_U2Al3C4
_symmetry_space_group_name_H-M   'P 1'
_cell_length_a   3.39821800
_cell_length_b   3.39821800
_cell_length_c   23.33249635
_cell_angle_alpha   90.00000000
_cell_angle_beta   90.00000000
_cell_angle_gamma   119.99999996
_symmetry_Int_Tables_number   1
_chemical_formula_structural   U2Al3C4
_chemical_formula_sum   'U4 Al6 C8'
_cell_volume   233.34274947
_cell_formula_units_Z   2
loop_
 _symmetry_equiv_pos_site_id
 _symmetry_equiv_pos_as_xyz
  1  'x, y, z'
loop_
 _atom_site_type_symbol
 _atom_site_label
 _atom_site_symmetry_multiplicity
 _atom_site_fract_x
 _atom_site_fract_y
 _atom_site_fract_z
 _atom_site_occupancy
  C  C0  1  0.000000  0.000000  0.748461  1
  C  C1  1  0.000000  0.000000  0.248461  1
  C  C2  1  0.000000  0.000000  0.498490  1
  C  C3  1  0.000000  0.000000  0.998490  1
  C  C4  1  0.666667  0.333333  0.633197  1
  C  C5  1  0.333333  0.666667  0.133197  1
  C  C6  1  0.333333  0.666667  0.365602  1
  C  C7  1  0.666667  0.333333  0.865602  1
  Al  Al8  1  0.000000  0.000000  0.335071  1
  Al  Al9  1  0.000000  0.000000  0.835071  1
  Al  Al10  1  0.666667  0.333333  0.746358  1
  Al  Al11  1  0.333333  0.666667  0.246358  1
  Al  Al12  1  0.000000  0.000000  0.161310  1
  Al  Al13  1  0.000000  0.000000  0.661310  1
  U  U14  1  0.666667  0.333333  0.435948  1
  U  U15  1  0.333333  0.666667  0.935948  1
  U  U16  1  0.666667  0.333333  0.060951  1
  U  U17  1  0.333333  0.666667  0.560951  1
