# generated using pymatgen
data_K2Mn3H10S4O21
_symmetry_space_group_name_H-M   'P 1'
_cell_length_a   10.03478415
_cell_length_b   9.94089923
_cell_length_c   19.40432356
_cell_angle_alpha   90.00000000
_cell_angle_beta   103.74134417
_cell_angle_gamma   90.00000000
_symmetry_Int_Tables_number   1
_chemical_formula_structural   K2Mn3H10S4O21
_chemical_formula_sum   'K8 Mn12 H40 S16 O84'
_cell_volume   1880.27106310
_cell_formula_units_Z   4
loop_
 _symmetry_equiv_pos_site_id
 _symmetry_equiv_pos_as_xyz
  1  'x, y, z'
loop_
 _atom_site_type_symbol
 _atom_site_label
 _atom_site_symmetry_multiplicity
 _atom_site_fract_x
 _atom_site_fract_y
 _atom_site_fract_z
 _atom_site_occupancy
  K  K0  1  0.290117  0.989940  0.760612  1
  K  K1  1  0.137104  0.149177  0.380699  1
  K  K2  1  0.362896  0.649177  0.619301  1
  K  K3  1  0.209883  0.489940  0.239388  1
  K  K4  1  0.790117  0.510060  0.760612  1
  K  K5  1  0.637104  0.350823  0.380699  1
  K  K6  1  0.862896  0.850823  0.619301  1
  K  K7  1  0.709883  0.010060  0.239388  1
  Mn  Mn8  1  0.195591  0.343659  0.820171  1
  Mn  Mn9  1  0.058786  0.785776  0.442995  1
  Mn  Mn10  1  0.033208  0.132750  0.161950  1
  Mn  Mn11  1  0.466792  0.632750  0.838050  1
  Mn  Mn12  1  0.441214  0.285776  0.557005  1
  Mn  Mn13  1  0.304409  0.843659  0.179829  1
  Mn  Mn14  1  0.695591  0.156341  0.820171  1
  Mn  Mn15  1  0.558786  0.714224  0.442995  1
  Mn  Mn16  1  0.533208  0.367250  0.161950  1
  Mn  Mn17  1  0.966792  0.867250  0.838050  1
  Mn  Mn18  1  0.941214  0.214224  0.557005  1
  Mn  Mn19  1  0.804409  0.656341  0.179829  1
  H  H20  1  0.078983  0.464727  0.919496  1
  H  H21  1  0.055042  0.425636  0.645987  1
  H  H22  1  0.048009  0.673495  0.582515  1
  H  H23  1  0.084056  0.364260  0.478107  1
  H  H24  1  0.180298  0.353839  0.626432  1
  H  H25  1  0.304899  0.516495  0.929553  1
  H  H26  1  0.021119  0.652176  0.114014  1
  H  H27  1  0.395384  0.825048  0.911200  1
  H  H28  1  0.430659  0.422902  0.918710  1
  H  H29  1  0.022532  0.239510  0.026082  1
  H  H30  1  0.477468  0.739510  0.973918  1
  H  H31  1  0.069341  0.922902  0.081290  1
  H  H32  1  0.104616  0.325048  0.088800  1
  H  H33  1  0.478881  0.152176  0.885986  1
  H  H34  1  0.578983  0.035273  0.919496  1
  H  H35  1  0.195101  0.016495  0.070447  1
  H  H36  1  0.319702  0.853839  0.373568  1
  H  H37  1  0.415944  0.864260  0.521893  1
  H  H38  1  0.555042  0.074364  0.645987  1
  H  H39  1  0.451991  0.173495  0.417485  1
  H  H40  1  0.548009  0.826505  0.582515  1
  H  H41  1  0.444958  0.925636  0.354013  1
  H  H42  1  0.584056  0.135740  0.478107  1
  H  H43  1  0.680298  0.146161  0.626432  1
  H  H44  1  0.804899  0.983505  0.929553  1
  H  H45  1  0.421017  0.964727  0.080504  1
  H  H46  1  0.521119  0.847824  0.114014  1
  H  H47  1  0.895384  0.674952  0.911200  1
  H  H48  1  0.930659  0.077098  0.918710  1
  H  H49  1  0.522532  0.260490  0.026082  1
  H  H50  1  0.977468  0.760490  0.973918  1
  H  H51  1  0.569341  0.577098  0.081290  1
  H  H52  1  0.604616  0.174952  0.088800  1
  H  H53  1  0.978881  0.347824  0.885986  1
  H  H54  1  0.695101  0.483505  0.070447  1
  H  H55  1  0.819702  0.646161  0.373568  1
  H  H56  1  0.915944  0.635740  0.521893  1
  H  H57  1  0.951991  0.326505  0.417485  1
  H  H58  1  0.944958  0.574364  0.354013  1
  H  H59  1  0.921017  0.535273  0.080504  1
  S  S60  1  0.198837  0.086143  0.937019  1
  S  S61  1  0.131082  0.658613  0.748973  1
  S  S62  1  0.055417  0.858341  0.268866  1
  S  S63  1  0.222344  0.023901  0.565554  1
  S  S64  1  0.277656  0.523901  0.434446  1
  S  S65  1  0.444583  0.358341  0.731134  1
  S  S66  1  0.368918  0.158613  0.251027  1
  S  S67  1  0.698837  0.413857  0.937019  1
  S  S68  1  0.301163  0.586143  0.062981  1
  S  S69  1  0.631082  0.841387  0.748973  1
  S  S70  1  0.555417  0.641659  0.268866  1
  S  S71  1  0.722344  0.476099  0.565554  1
  S  S72  1  0.777656  0.976099  0.434446  1
  S  S73  1  0.944583  0.141659  0.731134  1
  S  S74  1  0.868918  0.341387  0.251027  1
  S  S75  1  0.801163  0.913857  0.062981  1
  O  O76  1  0.038201  0.418530  0.874376  1
  O  O77  1  0.072026  0.153186  0.949120  1
  O  O78  1  0.003799  0.704846  0.769544  1
  O  O79  1  0.084794  0.199369  0.743982  1
  O  O80  1  0.211449  0.546019  0.994063  1
  O  O81  1  0.158996  0.964174  0.890975  1
  O  O82  1  0.130194  0.507953  0.745764  1
  O  O83  1  0.006562  0.301651  0.465016  1
  O  O84  1  0.082640  0.376064  0.607771  1
  O  O85  1  0.086675  0.046542  0.583537  1
  O  O86  1  0.134223  0.713351  0.678184  1
  O  O87  1  0.272539  0.181526  0.899076  1
  O  O88  1  0.252361  0.708071  0.803522  1
  O  O89  1  0.045457  0.005132  0.252366  1
  O  O90  1  0.349955  0.479367  0.892849  1
  O  O91  1  0.127812  0.844119  0.345382  1
  O  O92  1  0.207551  0.918869  0.508127  1
  O  O93  1  0.020274  0.273095  0.073767  1
  O  O94  1  0.174454  0.477926  0.371890  1
  O  O95  1  0.367037  0.286212  0.776269  1
  O  O96  1  0.264774  0.151633  0.535907  1
  O  O97  1  0.235226  0.651633  0.464093  1
  O  O98  1  0.132963  0.786212  0.223731  1
  O  O99  1  0.325546  0.977926  0.628110  1
  O  O100  1  0.479726  0.773096  0.926233  1
  O  O101  1  0.292449  0.418869  0.491873  1
  O  O102  1  0.372188  0.344119  0.654618  1
  O  O103  1  0.150044  0.979367  0.107151  1
  O  O104  1  0.454543  0.505132  0.747634  1
  O  O105  1  0.538201  0.081470  0.874376  1
  O  O106  1  0.572026  0.346814  0.949120  1
  O  O107  1  0.503799  0.795154  0.769544  1
  O  O108  1  0.247639  0.208071  0.196478  1
  O  O109  1  0.227461  0.681526  0.100924  1
  O  O110  1  0.365777  0.213351  0.321816  1
  O  O111  1  0.413325  0.546542  0.416463  1
  O  O112  1  0.417360  0.876064  0.392229  1
  O  O113  1  0.584794  0.300631  0.743982  1
  O  O114  1  0.711449  0.953981  0.994063  1
  O  O115  1  0.658996  0.535826  0.890975  1
  O  O116  1  0.493438  0.801651  0.534984  1
  O  O117  1  0.369806  0.007953  0.254236  1
  O  O118  1  0.630194  0.992047  0.745764  1
  O  O119  1  0.506562  0.198349  0.465016  1
  O  O120  1  0.341004  0.464174  0.109025  1
  O  O121  1  0.288551  0.046019  0.005937  1
  O  O122  1  0.415206  0.699369  0.256018  1
  O  O123  1  0.582640  0.123936  0.607771  1
  O  O124  1  0.586675  0.453458  0.583537  1
  O  O125  1  0.634223  0.786649  0.678184  1
  O  O126  1  0.772539  0.318474  0.899076  1
  O  O127  1  0.752361  0.791929  0.803522  1
  O  O128  1  0.496201  0.204846  0.230456  1
  O  O129  1  0.427974  0.653186  0.050880  1
  O  O130  1  0.461799  0.918530  0.125624  1
  O  O131  1  0.545457  0.494868  0.252366  1
  O  O132  1  0.849955  0.020633  0.892849  1
  O  O133  1  0.627812  0.655881  0.345382  1
  O  O134  1  0.707551  0.581131  0.508127  1
  O  O135  1  0.520274  0.226904  0.073767  1
  O  O136  1  0.674454  0.022074  0.371890  1
  O  O137  1  0.867037  0.213788  0.776269  1
  O  O138  1  0.764774  0.348367  0.535907  1
  O  O139  1  0.735226  0.848367  0.464093  1
  O  O140  1  0.632963  0.713788  0.223731  1
  O  O141  1  0.825546  0.522074  0.628110  1
  O  O142  1  0.979726  0.726904  0.926233  1
  O  O143  1  0.792449  0.081131  0.491873  1
  O  O144  1  0.872188  0.155881  0.654618  1
  O  O145  1  0.650045  0.520633  0.107151  1
  O  O146  1  0.954543  0.994868  0.747634  1
  O  O147  1  0.747639  0.291929  0.196478  1
  O  O148  1  0.727461  0.818474  0.100924  1
  O  O149  1  0.865777  0.286649  0.321816  1
  O  O150  1  0.913325  0.953458  0.416463  1
  O  O151  1  0.917360  0.623936  0.392229  1
  O  O152  1  0.993438  0.698349  0.534984  1
  O  O153  1  0.869806  0.492047  0.254236  1
  O  O154  1  0.841004  0.035826  0.109025  1
  O  O155  1  0.788551  0.453981  0.005937  1
  O  O156  1  0.915206  0.800631  0.256018  1
  O  O157  1  0.996201  0.295154  0.230456  1
  O  O158  1  0.927974  0.846814  0.050880  1
  O  O159  1  0.961799  0.581470  0.125624  1
