# generated using pymatgen
data_Li3Fe9O5F11
_symmetry_space_group_name_H-M   'P 1'
_cell_length_a   6.27003551
_cell_length_b   6.28720272
_cell_length_c   10.70296123
_cell_angle_alpha   106.94957959
_cell_angle_beta   72.98149589
_cell_angle_gamma   119.59024190
_symmetry_Int_Tables_number   1
_chemical_formula_structural   Li3Fe9O5F11
_chemical_formula_sum   'Li3 Fe9 O5 F11'
_cell_volume   345.30128291
_cell_formula_units_Z   1
loop_
 _symmetry_equiv_pos_site_id
 _symmetry_equiv_pos_as_xyz
  1  'x, y, z'
loop_
 _atom_site_type_symbol
 _atom_site_label
 _atom_site_symmetry_multiplicity
 _atom_site_fract_x
 _atom_site_fract_y
 _atom_site_fract_z
 _atom_site_occupancy
  Li  Li0  1  0.072691  0.945240  0.312260  1
  Li  Li1  1  0.057191  0.445095  0.805536  1
  Li  Li2  1  0.555984  0.937637  0.802204  1
  Fe  Fe3  1  0.312561  0.702459  0.073382  1
  Fe  Fe4  1  0.016446  0.990907  0.972861  1
  Fe  Fe5  1  0.560358  0.943164  0.307775  1
  Fe  Fe6  1  0.067645  0.446217  0.311606  1
  Fe  Fe7  1  0.136194  0.866452  0.645685  1
  Fe  Fe8  1  0.567273  0.351154  0.140669  1
  Fe  Fe9  1  0.522461  0.474004  0.490697  1
  Fe  Fe10  1  0.576533  0.429028  0.800929  1
  Fe  Fe11  1  0.799820  0.204587  0.574695  1
  O  O12  1  0.407753  0.573012  0.200494  1
  O  O13  1  0.416244  0.030256  0.194489  1
  O  O14  1  0.730388  0.299358  0.425946  1
  O  O15  1  0.928084  0.552096  0.702051  1
  O  O16  1  0.450315  0.080005  0.703666  1
  F  F17  1  0.172443  0.823507  0.434549  1
  F  F18  1  0.178433  0.300327  0.437807  1
  F  F19  1  0.698356  0.828933  0.429632  1
  F  F20  1  0.936044  0.574695  0.188729  1
  F  F21  1  0.205960  0.789013  0.929190  1
  F  F22  1  0.436173  0.569666  0.692623  1
  F  F23  1  0.949321  0.062392  0.177567  1
  F  F24  1  0.202218  0.344808  0.939063  1
  F  F25  1  0.668079  0.796003  0.929088  1
  F  F26  1  0.923006  0.078236  0.691723  1
  F  F27  1  0.702023  0.311747  0.935084  1
