# generated using pymatgen
data_Sm2S2O
_symmetry_space_group_name_H-M   'P 1'
_cell_length_a   7.02292310
_cell_length_b   7.10010312
_cell_length_c   8.47212386
_cell_angle_alpha   90.00000000
_cell_angle_beta   98.86437639
_cell_angle_gamma   90.00000000
_symmetry_Int_Tables_number   1
_chemical_formula_structural   Sm2S2O
_chemical_formula_sum   'Sm8 S8 O4'
_cell_volume   417.40376916
_cell_formula_units_Z   4
loop_
 _symmetry_equiv_pos_site_id
 _symmetry_equiv_pos_as_xyz
  1  'x, y, z'
loop_
 _atom_site_type_symbol
 _atom_site_label
 _atom_site_symmetry_multiplicity
 _atom_site_fract_x
 _atom_site_fract_y
 _atom_site_fract_z
 _atom_site_occupancy
  O  O0  1  0.350775  0.087728  0.382607  1
  O  O1  1  0.850775  0.412272  0.382607  1
  O  O2  1  0.649225  0.912272  0.617393  1
  O  O3  1  0.149225  0.587728  0.617393  1
  S  S4  1  0.970887  0.723997  0.923104  1
  S  S5  1  0.431150  0.640424  0.322301  1
  S  S6  1  0.568850  0.359576  0.677699  1
  S  S7  1  0.931150  0.859576  0.322301  1
  S  S8  1  0.529113  0.223997  0.076896  1
  S  S9  1  0.029113  0.276003  0.076896  1
  S  S10  1  0.470887  0.776003  0.923104  1
  S  S11  1  0.068850  0.140424  0.677699  1
  Sm  Sm12  1  0.749237  0.054981  0.862313  1
  Sm  Sm13  1  0.750763  0.554981  0.137687  1
  Sm  Sm14  1  0.250763  0.945019  0.137687  1
  Sm  Sm15  1  0.249237  0.445019  0.862313  1
  Sm  Sm16  1  0.683229  0.138480  0.420933  1
  Sm  Sm17  1  0.816771  0.638480  0.579067  1
  Sm  Sm18  1  0.316771  0.861520  0.579067  1
  Sm  Sm19  1  0.183229  0.361520  0.420933  1
