# generated using pymatgen
data_Mn12O7F17
_symmetry_space_group_name_H-M   'P 1'
_cell_length_a   4.80947585
_cell_length_b   5.77529636
_cell_length_c   15.96347606
_cell_angle_alpha   90.53938974
_cell_angle_beta   90.58424399
_cell_angle_gamma   84.77169062
_symmetry_Int_Tables_number   1
_chemical_formula_structural   Mn12O7F17
_chemical_formula_sum   'Mn12 O7 F17'
_cell_volume   441.52011115
_cell_formula_units_Z   1
loop_
 _symmetry_equiv_pos_site_id
 _symmetry_equiv_pos_as_xyz
  1  'x, y, z'
loop_
 _atom_site_type_symbol
 _atom_site_label
 _atom_site_symmetry_multiplicity
 _atom_site_fract_x
 _atom_site_fract_y
 _atom_site_fract_z
 _atom_site_occupancy
  Mn  Mn0  1  0.003940  0.150012  0.412640  1
  Mn  Mn1  1  0.033834  0.829248  0.244848  1
  Mn  Mn2  1  0.000279  0.153988  0.085794  1
  Mn  Mn3  1  0.006686  0.156341  0.748180  1
  Mn  Mn4  1  0.009693  0.826226  0.571015  1
  Mn  Mn5  1  0.018453  0.831999  0.906698  1
  Mn  Mn6  1  0.511998  0.329411  0.591703  1
  Mn  Mn7  1  0.513602  0.327770  0.927522  1
  Mn  Mn8  1  0.512507  0.353974  0.261147  1
  Mn  Mn9  1  0.508589  0.658677  0.085730  1
  Mn  Mn10  1  0.487785  0.651544  0.412276  1
  Mn  Mn11  1  0.507790  0.657648  0.750981  1
  O  O12  1  0.226017  0.884137  0.134573  1
  O  O13  1  0.227123  0.889604  0.461611  1
  O  O14  1  0.233897  0.891305  0.796974  1
  O  O15  1  0.291440  0.609147  0.308350  1
  O  O16  1  0.729212  0.390801  0.038004  1
  O  O17  1  0.730515  0.386973  0.363875  1
  O  O18  1  0.731559  0.389827  0.702113  1
  F  F19  1  0.229508  0.117520  0.306085  1
  F  F20  1  0.211002  0.115144  0.638509  1
  F  F21  1  0.212765  0.115890  0.974925  1
  F  F22  1  0.273466  0.381014  0.152967  1
  F  F23  1  0.245916  0.384522  0.481788  1
  F  F24  1  0.269791  0.615254  0.646908  1
  F  F25  1  0.257486  0.392657  0.814850  1
  F  F26  1  0.269359  0.615792  0.983163  1
  F  F27  1  0.731350  0.621885  0.191062  1
  F  F28  1  0.698133  0.619818  0.521889  1
  F  F29  1  0.710726  0.617520  0.862259  1
  F  F30  1  0.768787  0.123533  0.196954  1
  F  F31  1  0.768929  0.115893  0.517250  1
  F  F32  1  0.779482  0.891512  0.350261  1
  F  F33  1  0.758343  0.897586  0.020725  1
  F  F34  1  0.772224  0.115785  0.851788  1
  F  F35  1  0.757817  0.890043  0.684584  1
