# generated using pymatgen
data_Rb2MnSe2
_symmetry_space_group_name_H-M   'P 1'
_cell_length_a   6.70347797
_cell_length_b   7.37592665
_cell_length_c   8.55043187
_cell_angle_alpha   115.55129343
_cell_angle_beta   113.07878182
_cell_angle_gamma   89.99999999
_symmetry_Int_Tables_number   1
_chemical_formula_structural   Rb2MnSe2
_chemical_formula_sum   'Rb4 Mn2 Se4'
_cell_volume   343.53926021
_cell_formula_units_Z   2
loop_
 _symmetry_equiv_pos_site_id
 _symmetry_equiv_pos_as_xyz
  1  'x, y, z'
loop_
 _atom_site_type_symbol
 _atom_site_label
 _atom_site_symmetry_multiplicity
 _atom_site_fract_x
 _atom_site_fract_y
 _atom_site_fract_z
 _atom_site_occupancy
  Mn  Mn0  1  0.750000  0.000000  0.000000  1
  Mn  Mn1  1  0.250000  0.000000  0.000000  1
  Se  Se2  1  0.600885  0.286392  0.201770  1
  Se  Se3  1  0.899115  0.084622  0.798230  1
  Se  Se4  1  0.100885  0.915378  0.201770  1
  Se  Se5  1  0.399115  0.713608  0.798230  1
  Rb  Rb6  1  0.646275  0.813675  0.292551  1
  Rb  Rb7  1  0.353725  0.186325  0.707449  1
  Rb  Rb8  1  0.853725  0.521125  0.707449  1
  Rb  Rb9  1  0.146275  0.478875  0.292551  1
