# generated using pymatgen
data_Mn9Zn6Si4(SbO14)2
_symmetry_space_group_name_H-M   'P 1'
_cell_length_a   5.60933260
_cell_length_b   11.84834605
_cell_length_c   9.28901781
_cell_angle_alpha   92.00069404
_cell_angle_beta   101.01336610
_cell_angle_gamma   76.30644130
_symmetry_Int_Tables_number   1
_chemical_formula_structural   Mn9Zn6Si4(SbO14)2
_chemical_formula_sum   'Mn9 Zn6 Si4 Sb2 O28'
_cell_volume   588.73093633
_cell_formula_units_Z   1
loop_
 _symmetry_equiv_pos_site_id
 _symmetry_equiv_pos_as_xyz
  1  'x, y, z'
loop_
 _atom_site_type_symbol
 _atom_site_label
 _atom_site_symmetry_multiplicity
 _atom_site_fract_x
 _atom_site_fract_y
 _atom_site_fract_z
 _atom_site_occupancy
  Mn  Mn0  1  0.070576  0.291378  0.651009  1
  Mn  Mn1  1  0.000000  0.000000  0.000000  1
  Mn  Mn2  1  0.361269  0.716341  0.641794  1
  Mn  Mn3  1  0.295395  0.425156  0.001196  1
  Mn  Mn4  1  0.429674  0.143876  0.006252  1
  Mn  Mn5  1  0.570326  0.856124  0.993748  1
  Mn  Mn6  1  0.704605  0.574844  0.998804  1
  Mn  Mn7  1  0.638731  0.283659  0.358206  1
  Mn  Mn8  1  0.929424  0.708622  0.348991  1
  Zn  Zn9  1  0.205945  0.138004  0.344539  1
  Zn  Zn10  1  0.516641  0.427816  0.671643  1
  Zn  Zn11  1  0.656997  0.138910  0.662859  1
  Zn  Zn12  1  0.343003  0.861090  0.337141  1
  Zn  Zn13  1  0.483359  0.572184  0.328357  1
  Zn  Zn14  1  0.794055  0.861996  0.655461  1
  Si  Si15  1  0.237480  0.003313  0.690090  1
  Si  Si16  1  0.056926  0.424115  0.314637  1
  Si  Si17  1  0.943074  0.575885  0.685363  1
  Si  Si18  1  0.762520  0.996687  0.309910  1
  Sb  Sb19  1  0.140937  0.719722  0.997874  1
  Sb  Sb20  1  0.859063  0.280278  0.002126  1
  O  O21  1  0.123179  0.290618  0.887820  1
  O  O22  1  0.002570  0.588394  0.869986  1
  O  O23  1  0.305530  0.004799  0.871344  1
  O  O24  1  0.026939  0.304221  0.390233  1
  O  O25  1  0.146413  0.459313  0.649554  1
  O  O26  1  0.116739  0.152655  0.119818  1
  O  O27  1  0.294533  0.121253  0.622399  1
  O  O28  1  0.061684  0.000165  0.355632  1
  O  O29  1  0.346313  0.436368  0.361978  1
  O  O30  1  0.402572  0.713519  0.875325  1
  O  O31  1  0.303880  0.714370  0.407640  1
  O  O32  1  0.727505  0.153849  0.886155  1
  O  O33  1  0.579356  0.112498  0.370319  1
  O  O34  1  0.613893  0.417434  0.893776  1
  O  O35  1  0.386107  0.582566  0.106224  1
  O  O36  1  0.420644  0.887502  0.629681  1
  O  O37  1  0.272495  0.846151  0.113845  1
  O  O38  1  0.696120  0.285630  0.592360  1
  O  O39  1  0.597428  0.286481  0.124675  1
  O  O40  1  0.653687  0.563632  0.638022  1
  O  O41  1  0.938316  0.999835  0.644368  1
  O  O42  1  0.705467  0.878747  0.377601  1
  O  O43  1  0.883261  0.847345  0.880182  1
  O  O44  1  0.853587  0.540687  0.350446  1
  O  O45  1  0.973061  0.695779  0.609767  1
  O  O46  1  0.694470  0.995201  0.128656  1
  O  O47  1  0.997430  0.411606  0.130014  1
  O  O48  1  0.876821  0.709382  0.112180  1
