# generated using pymatgen
data_Mn6O5F7
_symmetry_space_group_name_H-M   'P 1'
_cell_length_a   4.70856678
_cell_length_b   5.71971826
_cell_length_c   15.68255279
_cell_angle_alpha   90.25469691
_cell_angle_beta   89.95224324
_cell_angle_gamma   88.34944180
_symmetry_Int_Tables_number   1
_chemical_formula_structural   Mn6O5F7
_chemical_formula_sum   'Mn12 O10 F14'
_cell_volume   422.17781290
_cell_formula_units_Z   2
loop_
 _symmetry_equiv_pos_site_id
 _symmetry_equiv_pos_as_xyz
  1  'x, y, z'
loop_
 _atom_site_type_symbol
 _atom_site_label
 _atom_site_symmetry_multiplicity
 _atom_site_fract_x
 _atom_site_fract_y
 _atom_site_fract_z
 _atom_site_occupancy
  Mn  Mn0  1  0.010351  0.169700  0.415362  1
  Mn  Mn1  1  0.983472  0.825410  0.237079  1
  Mn  Mn2  1  0.991683  0.149774  0.080538  1
  Mn  Mn3  1  0.059091  0.168911  0.753159  1
  Mn  Mn4  1  0.014554  0.858057  0.579397  1
  Mn  Mn5  1  0.053681  0.833851  0.913077  1
  Mn  Mn6  1  0.459048  0.329852  0.581407  1
  Mn  Mn7  1  0.524216  0.364537  0.922360  1
  Mn  Mn8  1  0.516780  0.359444  0.255025  1
  Mn  Mn9  1  0.493739  0.647436  0.083435  1
  Mn  Mn10  1  0.487299  0.649279  0.421401  1
  Mn  Mn11  1  0.493670  0.649284  0.755767  1
  O  O12  1  0.213028  0.105489  0.633979  1
  O  O13  1  0.206091  0.884387  0.131856  1
  O  O14  1  0.217651  0.891881  0.469534  1
  O  O15  1  0.255015  0.884076  0.811169  1
  O  O16  1  0.262089  0.396326  0.477428  1
  O  O17  1  0.313548  0.400578  0.814775  1
  O  O18  1  0.298837  0.614840  0.975047  1
  O  O19  1  0.728828  0.380613  0.031325  1
  O  O20  1  0.699744  0.620633  0.192637  1
  O  O21  1  0.722745  0.394489  0.366005  1
  F  F22  1  0.219848  0.106841  0.297811  1
  F  F23  1  0.241056  0.119319  0.975342  1
  F  F24  1  0.244145  0.377448  0.149053  1
  F  F25  1  0.241677  0.612789  0.310571  1
  F  F26  1  0.241851  0.604527  0.645675  1
  F  F27  1  0.728316  0.620150  0.538110  1
  F  F28  1  0.783397  0.616220  0.856697  1
  F  F29  1  0.709189  0.372686  0.690687  1
  F  F30  1  0.745389  0.114113  0.185722  1
  F  F31  1  0.750036  0.115208  0.522347  1
  F  F32  1  0.754249  0.887548  0.355743  1
  F  F33  1  0.787013  0.880304  0.012525  1
  F  F34  1  0.792244  0.126535  0.864681  1
  F  F35  1  0.756432  0.867463  0.693276  1
