# generated using pymatgen
data_LiMn2(BO3)2
_symmetry_space_group_name_H-M   'P 1'
_cell_length_a   5.79413634
_cell_length_b   5.30157048
_cell_length_c   22.20928675
_cell_angle_alpha   89.49115071
_cell_angle_beta   90.41758206
_cell_angle_gamma   113.73445103
_symmetry_Int_Tables_number   1
_chemical_formula_structural   LiMn2(BO3)2
_chemical_formula_sum   'Li5 Mn10 B10 O30'
_cell_volume   624.49348044
_cell_formula_units_Z   5
loop_
 _symmetry_equiv_pos_site_id
 _symmetry_equiv_pos_as_xyz
  1  'x, y, z'
loop_
 _atom_site_type_symbol
 _atom_site_label
 _atom_site_symmetry_multiplicity
 _atom_site_fract_x
 _atom_site_fract_y
 _atom_site_fract_z
 _atom_site_occupancy
  Li  Li0  1  0.948384  0.385531  0.388893  1
  Li  Li1  1  0.856326  0.026603  0.813343  1
  Li  Li2  1  0.746033  0.783291  0.588435  1
  Li  Li3  1  0.147917  0.984708  0.189324  1
  Li  Li4  1  0.346163  0.579888  0.989133  1
  Mn  Mn5  1  0.863562  0.522565  0.881231  1
  Mn  Mn6  1  0.734769  0.276402  0.522393  1
  Mn  Mn7  1  0.932406  0.877379  0.323598  1
  Mn  Mn8  1  0.476120  0.331578  0.279066  1
  Mn  Mn9  1  0.677260  0.930079  0.077580  1
  Mn  Mn10  1  0.329052  0.075599  0.921769  1
  Mn  Mn11  1  0.521763  0.665876  0.726116  1
  Mn  Mn12  1  0.073910  0.123858  0.677984  1
  Mn  Mn13  1  0.276531  0.730296  0.478936  1
  Mn  Mn14  1  0.132841  0.476705  0.123385  1
  B  B15  1  0.997863  0.576828  0.750224  1
  B  B16  1  0.606497  0.226701  0.651321  1
  B  B17  1  0.802326  0.821849  0.452459  1
  B  B18  1  0.596731  0.377652  0.145657  1
  B  B19  1  0.793178  0.971977  0.944642  1
  B  B20  1  0.199778  0.021597  0.052730  1
  B  B21  1  0.401511  0.627106  0.856429  1
  B  B22  1  0.196935  0.175903  0.545631  1
  B  B23  1  0.396586  0.778358  0.345961  1
  B  B24  1  0.002158  0.422938  0.252766  1
  O  O25  1  0.869867  0.000425  0.404014  1
  O  O26  1  0.932188  0.404399  0.798250  1
  O  O27  1  0.877264  0.480396  0.301606  1
  O  O28  1  0.672414  0.003013  0.659478  1
  O  O29  1  0.864241  0.595462  0.456462  1
  O  O30  1  0.696213  0.169030  0.932591  1
  O  O31  1  0.901394  0.782700  0.741192  1
  O  O32  1  0.773564  0.351610  0.105372  1
  O  O33  1  0.959673  0.953106  0.899324  1
  O  O34  1  0.681248  0.400674  0.602051  1
  O  O35  1  0.510668  0.207374  0.193497  1
  O  O36  1  0.715497  0.796076  0.991456  1
  O  O37  1  0.468059  0.288626  0.695590  1
  O  O38  1  0.677937  0.877959  0.501518  1
  O  O39  1  0.476438  0.415768  0.866721  1
  O  O40  1  0.498921  0.572647  0.130065  1
  O  O41  1  0.374478  0.151458  0.505510  1
  O  O42  1  0.573638  0.753542  0.305671  1
  O  O43  1  0.257633  0.194159  0.003498  1
  O  O44  1  0.485473  0.802698  0.807851  1
  O  O45  1  0.310794  0.605678  0.393512  1
  O  O46  1  0.075025  0.076062  0.102101  1
  O  O47  1  0.256499  0.674742  0.902434  1
  O  O48  1  0.063933  0.196581  0.257459  1
  O  O49  1  0.267653  0.798698  0.057214  1
  O  O50  1  0.099896  0.372048  0.530842  1
  O  O51  1  0.298279  0.973382  0.330974  1
  O  O52  1  0.160312  0.549219  0.706673  1
  O  O53  1  0.070116  0.599251  0.203946  1
  O  O54  1  0.109779  0.001479  0.592884  1
