# generated using pymatgen
data_Li8Mn7Fe(BO3)8
_symmetry_space_group_name_H-M   'P 1'
_cell_length_a   6.07597451
_cell_length_b   5.24025508
_cell_length_c   16.32310452
_cell_angle_alpha   91.14817869
_cell_angle_beta   97.65282435
_cell_angle_gamma   89.23659230
_symmetry_Int_Tables_number   1
_chemical_formula_structural   Li8Mn7Fe(BO3)8
_chemical_formula_sum   'Li8 Mn7 Fe1 B8 O24'
_cell_volume   514.95977239
_cell_formula_units_Z   1
loop_
 _symmetry_equiv_pos_site_id
 _symmetry_equiv_pos_as_xyz
  1  'x, y, z'
loop_
 _atom_site_type_symbol
 _atom_site_label
 _atom_site_symmetry_multiplicity
 _atom_site_fract_x
 _atom_site_fract_y
 _atom_site_fract_z
 _atom_site_occupancy
  Li  Li0  1  0.063728  0.846660  0.610625  1
  Li  Li1  1  0.435452  0.151619  0.890424  1
  Li  Li2  1  0.186830  0.651595  0.140519  1
  Li  Li3  1  0.313168  0.348422  0.359143  1
  Li  Li4  1  0.688662  0.651540  0.642001  1
  Li  Li5  1  0.812339  0.348246  0.858773  1
  Li  Li6  1  0.563765  0.847773  0.108584  1
  Li  Li7  1  0.936453  0.151417  0.390797  1
  Mn  Mn8  1  0.271675  0.668411  0.958512  1
  Mn  Mn9  1  0.024017  0.167849  0.209718  1
  Mn  Mn10  1  0.226933  0.332087  0.540035  1
  Mn  Mn11  1  0.522257  0.166427  0.709734  1
  Mn  Mn12  1  0.475507  0.831960  0.290243  1
  Mn  Mn13  1  0.774100  0.667892  0.459905  1
  Mn  Mn14  1  0.725118  0.331974  0.040132  1
  Fe  Fe15  1  0.976276  0.839613  0.791346  1
  B  B16  1  0.037758  0.329047  0.703412  1
  B  B17  1  0.285384  0.829569  0.452250  1
  B  B18  1  0.462734  0.670714  0.797294  1
  B  B19  1  0.214672  0.170441  0.047606  1
  B  B20  1  0.784952  0.830775  0.950797  1
  B  B21  1  0.535292  0.329876  0.202052  1
  B  B22  1  0.715597  0.169329  0.548300  1
  B  B23  1  0.964665  0.670062  0.297905  1
  O  O24  1  0.012157  0.589423  0.692173  1
  O  O25  1  0.169201  0.184129  0.655401  1
  O  O26  1  0.169616  0.713061  0.508940  1
  O  O27  1  0.330234  0.288723  0.991383  1
  O  O28  1  0.081009  0.787257  0.241611  1
  O  O29  1  0.327224  0.818729  0.843571  1
  O  O30  1  0.079741  0.317911  0.094229  1
  O  O31  1  0.262836  0.089834  0.438607  1
  O  O32  1  0.486763  0.410211  0.811014  1
  O  O33  1  0.237623  0.909937  0.060614  1
  O  O34  1  0.419870  0.681207  0.405948  1
  O  O35  1  0.419312  0.212858  0.258478  1
  O  O36  1  0.578414  0.787530  0.740827  1
  O  O37  1  0.581025  0.318005  0.594767  1
  O  O38  1  0.762830  0.091384  0.938435  1
  O  O39  1  0.513230  0.589790  0.188569  1
  O  O40  1  0.738061  0.909619  0.561670  1
  O  O41  1  0.918664  0.683455  0.902798  1
  O  O42  1  0.670186  0.180993  0.155779  1
  O  O43  1  0.925839  0.205142  0.760248  1
  O  O44  1  0.672002  0.711913  0.007808  1
  O  O45  1  0.830402  0.287024  0.491549  1
  O  O46  1  0.829506  0.818472  0.344164  1
  O  O47  1  0.986923  0.410094  0.311307  1
