# generated using pymatgen
data_Fe10O9F11
_symmetry_space_group_name_H-M   'P 1'
_cell_length_a   4.76085470
_cell_length_b   4.77491657
_cell_length_c   15.42073141
_cell_angle_alpha   90.00000000
_cell_angle_beta   90.00000000
_cell_angle_gamma   92.99103246
_symmetry_Int_Tables_number   1
_chemical_formula_structural   Fe10O9F11
_chemical_formula_sum   'Fe10 O9 F11'
_cell_volume   350.07705839
_cell_formula_units_Z   1
loop_
 _symmetry_equiv_pos_site_id
 _symmetry_equiv_pos_as_xyz
  1  'x, y, z'
loop_
 _atom_site_type_symbol
 _atom_site_label
 _atom_site_symmetry_multiplicity
 _atom_site_fract_x
 _atom_site_fract_y
 _atom_site_fract_z
 _atom_site_occupancy
  Fe  Fe0  1  0.993976  0.994081  0.003360  1
  Fe  Fe1  1  0.993976  0.994081  0.196640  1
  Fe  Fe2  1  0.032294  0.011764  0.402910  1
  Fe  Fe3  1  0.041758  0.989791  0.600000  1
  Fe  Fe4  1  0.032294  0.011764  0.797090  1
  Fe  Fe5  1  0.497862  0.498175  0.100000  1
  Fe  Fe6  1  0.451325  0.506403  0.496690  1
  Fe  Fe7  1  0.492127  0.484332  0.288541  1
  Fe  Fe8  1  0.451325  0.506403  0.703310  1
  Fe  Fe9  1  0.492127  0.484332  0.911459  1
  O  O10  1  0.193424  0.810834  0.498554  1
  O  O11  1  0.193424  0.810834  0.701446  1
  O  O12  1  0.295314  0.293182  0.002505  1
  O  O13  1  0.295314  0.293182  0.197495  1
  O  O14  1  0.311042  0.312806  0.396555  1
  O  O15  1  0.307372  0.313667  0.600000  1
  O  O16  1  0.311042  0.312806  0.803445  1
  O  O17  1  0.696257  0.693517  -0.000041  1
  O  O18  1  0.696257  0.693517  0.200041  1
  F  F19  1  0.197807  0.793416  0.100000  1
  F  F20  1  0.196312  0.804163  0.303422  1
  F  F21  1  0.196312  0.804163  0.896578  1
  F  F22  1  0.704785  0.706496  0.398442  1
  F  F23  1  0.696293  0.702538  0.600000  1
  F  F24  1  0.704785  0.706496  0.801558  1
  F  F25  1  0.793478  0.196881  0.100000  1
  F  F26  1  0.808414  0.194218  0.500053  1
  F  F27  1  0.807444  0.190971  0.304904  1
  F  F28  1  0.807444  0.190971  0.895096  1
  F  F29  1  0.808414  0.194218  0.699947  1
