# generated using pymatgen
data_Li5V4(PO4)6
_symmetry_space_group_name_H-M   'P 1'
_cell_length_a   8.69187732
_cell_length_b   12.18258629
_cell_length_c   8.72200083
_cell_angle_alpha   90.00000000
_cell_angle_beta   90.00000000
_cell_angle_gamma   90.43960304
_symmetry_Int_Tables_number   1
_chemical_formula_structural   Li5V4(PO4)6
_chemical_formula_sum   'Li10 V8 P12 O48'
_cell_volume   923.54151922
_cell_formula_units_Z   2
loop_
 _symmetry_equiv_pos_site_id
 _symmetry_equiv_pos_as_xyz
  1  'x, y, z'
loop_
 _atom_site_type_symbol
 _atom_site_label
 _atom_site_symmetry_multiplicity
 _atom_site_fract_x
 _atom_site_fract_y
 _atom_site_fract_z
 _atom_site_occupancy
  Li  Li0  1  0.074483  0.699841  0.073841  1
  Li  Li1  1  0.209329  0.179582  0.777866  1
  Li  Li2  1  0.295093  0.321793  0.277290  1
  Li  Li3  1  0.418858  0.739305  0.198108  1
  Li  Li4  1  0.415804  0.804475  0.589070  1
  Li  Li5  1  0.574483  0.199841  0.426159  1
  Li  Li6  1  0.709329  0.679582  0.722134  1
  Li  Li7  1  0.795093  0.821794  0.222710  1
  Li  Li8  1  0.918858  0.239305  0.301892  1
  Li  Li9  1  0.915804  0.304475  0.910930  1
  V  V10  1  0.250490  0.889956  0.028363  1
  V  V11  1  0.240208  0.610005  0.537093  1
  V  V12  1  0.253794  0.387239  0.961316  1
  V  V13  1  0.247511  0.110804  0.461533  1
  V  V14  1  0.753794  0.887239  0.538684  1
  V  V15  1  0.747511  0.610804  0.038467  1
  V  V16  1  0.750490  0.389956  0.471637  1
  V  V17  1  0.740208  0.110005  0.962907  1
  P  P18  1  0.037842  0.492834  0.250687  1
  P  P19  1  0.106346  0.848930  0.384938  1
  P  P20  1  0.103028  0.148071  0.101975  1
  P  P21  1  0.395663  0.646045  0.883088  1
  P  P22  1  0.394133  0.354691  0.604721  1
  P  P23  1  0.464965  0.004606  0.749015  1
  P  P24  1  0.537842  0.992834  0.249313  1
  P  P25  1  0.603028  0.648071  0.398025  1
  P  P26  1  0.606346  0.348930  0.115062  1
  P  P27  1  0.894133  0.854691  0.895279  1
  P  P28  1  0.895663  0.146045  0.616912  1
  P  P29  1  0.964965  0.504606  0.750985  1
  O  O30  1  0.049011  0.434275  0.870504  1
  O  O31  1  0.070219  0.859650  0.892687  1
  O  O32  1  0.078377  0.588402  0.676084  1
  O  O33  1  0.070144  0.167547  0.595029  1
  O  O34  1  0.110579  0.572019  0.369606  1
  O  O35  1  0.152712  0.968629  0.417806  1
  O  O36  1  0.139509  0.819198  0.213700  1
  O  O37  1  0.143595  0.238559  0.981397  1
  O  O38  1  0.153135  0.186902  0.265195  1
  O  O39  1  0.170879  0.430796  0.173314  1
  O  O40  1  0.178896  0.042890  0.052661  1
  O  O41  1  0.202392  0.773109  0.492447  1
  O  O42  1  0.304493  0.719100  0.998417  1
  O  O43  1  0.321909  0.464438  0.551965  1
  O  O44  1  0.337325  0.072569  0.671970  1
  O  O45  1  0.327268  0.318883  0.759821  1
  O  O46  1  0.362053  0.675541  0.711669  1
  O  O47  1  0.351052  0.527227  0.915445  1
  O  O48  1  0.350878  0.265505  0.480821  1
  O  O49  1  0.394562  0.924762  0.864848  1
  O  O50  1  0.429421  0.904591  0.180176  1
  O  O51  1  0.423510  0.643835  0.391473  1
  O  O52  1  0.431576  0.330494  0.093021  1
  O  O53  1  0.453616  0.068959  0.362998  1
  O  O54  1  0.549011  0.934275  0.629496  1
  O  O55  1  0.570144  0.667547  0.904971  1
  O  O56  1  0.570219  0.359650  0.607313  1
  O  O57  1  0.578377  0.088402  0.823916  1
  O  O58  1  0.610579  0.072019  0.130394  1
  O  O59  1  0.643595  0.738559  0.518603  1
  O  O60  1  0.652712  0.468629  0.082194  1
  O  O61  1  0.639509  0.319198  0.286300  1
  O  O62  1  0.653135  0.686902  0.234805  1
  O  O63  1  0.670879  0.930796  0.326686  1
  O  O64  1  0.678896  0.542890  0.447339  1
  O  O65  1  0.702392  0.273109  0.007553  1
  O  O66  1  0.804493  0.219100  0.501583  1
  O  O67  1  0.821909  0.964438  0.948035  1
  O  O68  1  0.837325  0.572569  0.828030  1
  O  O69  1  0.827268  0.818883  0.740179  1
  O  O70  1  0.850878  0.765505  0.019179  1
  O  O71  1  0.862053  0.175541  0.788331  1
  O  O72  1  0.851052  0.027227  0.584555  1
  O  O73  1  0.894562  0.424762  0.635152  1
  O  O74  1  0.931576  0.830494  0.406979  1
  O  O75  1  0.929421  0.404591  0.319824  1
  O  O76  1  0.923510  0.143835  0.108527  1
  O  O77  1  0.953616  0.568959  0.137002  1
