# generated using pymatgen
data_NiS2
_symmetry_space_group_name_H-M   'P 1'
_cell_length_a   3.28495477
_cell_length_b   3.28495485
_cell_length_c   9.30752884
_cell_angle_alpha   89.99987524
_cell_angle_beta   89.99993299
_cell_angle_gamma   90.00001116
_symmetry_Int_Tables_number   1
_chemical_formula_structural   NiS2
_chemical_formula_sum   'Ni2 S4'
_cell_volume   100.43687454
_cell_formula_units_Z   2
loop_
 _symmetry_equiv_pos_site_id
 _symmetry_equiv_pos_as_xyz
  1  'x, y, z'
loop_
 _atom_site_type_symbol
 _atom_site_label
 _atom_site_symmetry_multiplicity
 _atom_site_fract_x
 _atom_site_fract_y
 _atom_site_fract_z
 _atom_site_occupancy
  Ni  Ni0  1  0.500001  0.000001  0.390129  1
  Ni  Ni1  1  0.999999  0.499999  0.610061  1
  S  S2  1  0.000000  0.000001  -0.000188  1
  S  S3  1  0.499999  0.999998  0.632227  1
  S  S4  1  0.000001  0.500001  0.367958  1
  S  S5  1  0.500000  0.500001  -0.000188  1
