# generated using pymatgen
data_LiScVO4
_symmetry_space_group_name_H-M   'P 1'
_cell_length_a   6.08487009
_cell_length_b   6.08487009
_cell_length_c   6.08486994
_cell_angle_alpha   62.17670788
_cell_angle_beta   88.63448866
_cell_angle_gamma   120.62542993
_symmetry_Int_Tables_number   1
_chemical_formula_structural   LiScVO4
_chemical_formula_sum   'Li2 Sc2 V2 O8'
_cell_volume   161.00966657
_cell_formula_units_Z   2
loop_
 _symmetry_equiv_pos_site_id
 _symmetry_equiv_pos_as_xyz
  1  'x, y, z'
loop_
 _atom_site_type_symbol
 _atom_site_label
 _atom_site_symmetry_multiplicity
 _atom_site_fract_x
 _atom_site_fract_y
 _atom_site_fract_z
 _atom_site_occupancy
  Li  Li0  1  0.119362  0.250000  0.130638  1
  Li  Li1  1  0.880638  0.750000  0.869362  1
  Sc  Sc2  1  0.500000  0.000000  0.000000  1
  Sc  Sc3  1  0.500000  0.500000  0.500000  1
  V  V4  1  0.500000  0.000000  0.500000  1
  V  V5  1  0.000000  0.500000  0.500000  1
  O  O6  1  0.290998  0.016245  0.725247  1
  O  O7  1  0.241492  0.516245  0.274753  1
  O  O8  1  0.254528  0.535760  0.709712  1
  O  O9  1  0.254528  0.964240  0.281231  1
  O  O10  1  0.745472  0.035760  0.718769  1
  O  O11  1  0.745472  0.464240  0.290288  1
  O  O12  1  0.758508  0.483755  0.725247  1
  O  O13  1  0.709002  0.983755  0.274753  1
