# generated using pymatgen
data_SmAsPd
_symmetry_space_group_name_H-M   'P 1'
_cell_length_a   4.37524837
_cell_length_b   4.37524838
_cell_length_c   7.65491501
_cell_angle_alpha   90.00000000
_cell_angle_beta   90.00000000
_cell_angle_gamma   120.00000003
_symmetry_Int_Tables_number   1
_chemical_formula_structural   SmAsPd
_chemical_formula_sum   'Sm2 As2 Pd2'
_cell_volume   126.90432654
_cell_formula_units_Z   2
loop_
 _symmetry_equiv_pos_site_id
 _symmetry_equiv_pos_as_xyz
  1  'x, y, z'
loop_
 _atom_site_type_symbol
 _atom_site_label
 _atom_site_symmetry_multiplicity
 _atom_site_fract_x
 _atom_site_fract_y
 _atom_site_fract_z
 _atom_site_occupancy
  As  As0  1  0.666667  0.333333  0.269370  1
  As  As1  1  0.333333  0.666667  0.769370  1
  Pd  Pd2  1  0.333333  0.666667  0.230312  1
  Pd  Pd3  1  0.666667  0.333333  0.730312  1
  Sm  Sm4  1  0.000000  0.000000  0.499717  1
  Sm  Sm5  1  0.000000  0.000000  0.999717  1
