# generated using pymatgen
data_PmI3
_symmetry_space_group_name_H-M   'P 1'
_cell_length_a   11.49968492
_cell_length_b   11.49968411
_cell_length_c   4.10335843
_cell_angle_alpha   90.00000000
_cell_angle_beta   90.00000000
_cell_angle_gamma   119.99999461
_symmetry_Int_Tables_number   1
_chemical_formula_structural   PmI3
_chemical_formula_sum   'Pm2 I6'
_cell_volume   469.93951208
_cell_formula_units_Z   2
loop_
 _symmetry_equiv_pos_site_id
 _symmetry_equiv_pos_as_xyz
  1  'x, y, z'
loop_
 _atom_site_type_symbol
 _atom_site_label
 _atom_site_symmetry_multiplicity
 _atom_site_fract_x
 _atom_site_fract_y
 _atom_site_fract_z
 _atom_site_occupancy
  Pm  Pm0  1  0.333333  0.666665  0.749999  1
  Pm  Pm1  1  0.666667  0.333333  0.250000  1
  I  I2  1  0.214423  0.428847  0.249999  1
  I  I3  1  0.571152  0.785576  0.249999  1
  I  I4  1  0.214422  0.785576  0.249999  1
  I  I5  1  0.785578  0.571154  0.750000  1
  I  I6  1  0.428846  0.214423  0.750000  1
  I  I7  1  0.785576  0.214423  0.750000  1
