# generated using pymatgen
data_Li4V7O9F7
_symmetry_space_group_name_H-M   'P 1'
_cell_length_a   6.02532325
_cell_length_b   6.02532325
_cell_length_c   10.59464533
_cell_angle_alpha   89.69686809
_cell_angle_beta   73.81932516
_cell_angle_gamma   120.04644113
_symmetry_Int_Tables_number   1
_chemical_formula_structural   Li4V7O9F7
_chemical_formula_sum   'Li4 V7 O9 F7'
_cell_volume   314.86850580
_cell_formula_units_Z   1
loop_
 _symmetry_equiv_pos_site_id
 _symmetry_equiv_pos_as_xyz
  1  'x, y, z'
loop_
 _atom_site_type_symbol
 _atom_site_label
 _atom_site_symmetry_multiplicity
 _atom_site_fract_x
 _atom_site_fract_y
 _atom_site_fract_z
 _atom_site_occupancy
  Li  Li0  1  0.984480  0.005885  0.009636  1
  Li  Li1  1  0.266280  0.615464  0.118258  1
  Li  Li2  1  0.255112  0.123075  0.621814  1
  Li  Li3  1  0.981828  0.509572  0.508599  1
  V  V4  1  0.631150  0.295971  0.072880  1
  V  V5  1  0.107472  0.059216  0.307665  1
  V  V6  1  0.633017  0.056616  0.806892  1
  V  V7  1  0.633118  0.584863  0.307665  1
  V  V8  1  0.627527  0.571411  0.801062  1
  V  V9  1  0.622553  0.813337  0.564110  1
  V  V10  1  0.136493  0.560091  0.806892  1
  O  O11  1  0.856716  0.428381  0.714903  1
  O  O12  1  0.854000  0.210502  0.935498  1
  O  O13  1  0.854262  0.713962  0.431777  1
  O  O14  1  0.401185  0.410297  0.188518  1
  O  O15  1  0.885727  0.916564  0.197709  1
  O  O16  1  0.844842  0.919259  0.688872  1
  O  O17  1  0.391869  0.466286  0.688872  1
  O  O18  1  0.388695  0.918911  0.692394  1
  O  O19  1  0.393727  0.689782  0.916491  1
  F  F20  1  0.879495  0.177129  0.440865  1
  F  F21  1  0.866400  0.442026  0.186931  1
  F  F22  1  0.366832  0.210719  0.422449  1
  F  F23  1  0.861676  0.663027  0.939477  1
  F  F24  1  0.397496  0.198847  0.939477  1
  F  F25  1  0.382006  0.679640  0.440865  1
  F  F26  1  0.371043  0.946668  0.186931  1
