# generated using pymatgen
data_Li4V3P8O29
_symmetry_space_group_name_H-M   'P 1'
_cell_length_a   9.78583203
_cell_length_b   9.74126245
_cell_length_c   14.16296867
_cell_angle_alpha   90.09264652
_cell_angle_beta   90.03020674
_cell_angle_gamma   60.38034034
_symmetry_Int_Tables_number   1
_chemical_formula_structural   Li4V3P8O29
_chemical_formula_sum   'Li8 V6 P16 O58'
_cell_volume   1173.67829376
_cell_formula_units_Z   2
loop_
 _symmetry_equiv_pos_site_id
 _symmetry_equiv_pos_as_xyz
  1  'x, y, z'
loop_
 _atom_site_type_symbol
 _atom_site_label
 _atom_site_symmetry_multiplicity
 _atom_site_fract_x
 _atom_site_fract_y
 _atom_site_fract_z
 _atom_site_occupancy
  Li  Li0  1  0.916399  0.776342  0.058928  1
  Li  Li1  1  0.904755  0.330163  0.555247  1
  Li  Li2  1  0.321591  0.909485  0.059351  1
  Li  Li3  1  0.334172  0.765093  0.556257  1
  Li  Li4  1  0.681587  0.090549  0.944584  1
  Li  Li5  1  0.091256  0.672550  0.440401  1
  Li  Li6  1  0.082686  0.221332  0.942791  1
  Li  Li7  1  0.945968  0.037160  0.491865  1
  V  V8  1  0.567381  0.430282  0.247240  1
  V  V9  1  0.434773  0.565482  0.754870  1
  V  V10  1  0.568559  0.995983  0.739064  1
  V  V11  1  0.434044  0.003954  0.260853  1
  V  V12  1  -0.000079  0.566009  0.247614  1
  V  V13  1  0.000069  0.433051  0.751186  1
  P  P14  1  0.908317  0.773899  0.838309  1
  P  P15  1  0.780766  0.914887  0.341814  1
  P  P16  1  0.910540  0.312230  0.340147  1
  P  P17  1  0.660625  0.673690  0.132725  1
  P  P18  1  0.663776  0.662154  0.628730  1
  P  P19  1  0.769634  0.314627  0.844748  1
  P  P20  1  0.691735  0.227910  0.659089  1
  P  P21  1  0.321691  0.913039  0.842186  1
  P  P22  1  0.681252  0.086569  0.159348  1
  P  P23  1  0.314890  0.768421  0.341845  1
  P  P24  1  0.230254  0.685179  0.157849  1
  P  P25  1  0.333570  0.340062  0.370521  1
  P  P26  1  0.338615  0.324189  0.867153  1
  P  P27  1  0.091269  0.684488  0.658598  1
  P  P28  1  0.222288  0.083798  0.659880  1
  P  P29  1  0.093975  0.224623  0.161359  1
  O  O30  1  0.022412  0.769557  0.568463  1
  O  O31  1  0.916479  0.740835  0.336377  1
  O  O32  1  0.753601  -0.000130  0.069172  1
  O  O33  1  0.740716  0.920576  0.831623  1
  O  O34  1  0.900449  0.620124  0.817882  1
  O  O35  1  0.814491  0.671323  0.168029  1
  O  O36  1  0.913655  0.467098  0.329946  1
  O  O37  1  0.017437  0.230281  0.069794  1
  O  O38  1  0.915773  0.337181  0.842954  1
  O  O39  1  0.670407  0.810635  0.673163  1
  O  O40  1  0.619357  0.919600  0.333122  1
  O  O41  1  0.810918  0.509903  0.664495  1
  O  O42  1  0.646490  0.679990  0.028076  1
  O  O43  1  0.646873  0.675413  0.524238  1
  O  O44  1  0.658279  0.526987  0.178158  1
  O  O45  1  0.478997  0.905874  0.819273  1
  O  O46  1  0.516913  0.821785  0.179932  1
  O  O47  1  0.740064  0.342184  0.326897  1
  O  O48  1  0.793496  0.206496  0.752624  1
  O  O49  1  0.792588  0.212513  0.576144  1
  O  O50  1  0.755591  0.234978  0.929715  1
  O  O51  1  0.619470  0.476968  0.823910  1
  O  O52  1  0.510957  0.673361  0.674049  1
  O  O53  1  0.658032  0.254964  0.162782  1
  O  O54  1  0.470317  0.613630  0.328568  1
  O  O55  1  0.344340  0.911450  0.336313  1
  O  O56  1  0.798286  0.991990  0.244560  1
  O  O57  1  0.800069  0.997045  0.424324  1
  O  O58  1  0.214939  0.989709  0.579341  1
  O  O59  1  0.655053  0.089286  0.663405  1
  O  O60  1  0.537681  0.386061  0.670019  1
  O  O61  1  0.343815  0.744567  0.835275  1
  O  O62  1  0.481450  0.332607  0.321028  1
  O  O63  1  0.380830  0.524842  0.175281  1
  O  O64  1  0.238764  0.774128  0.075696  1
  O  O65  1  0.229409  0.774040  0.431473  1
  O  O66  1  0.203387  0.788316  0.254355  1
  O  O67  1  0.262651  0.657472  0.667952  1
  O  O68  1  0.484571  0.178084  0.821857  1
  O  O69  1  0.523215  0.093881  0.181407  1
  O  O70  1  0.341813  0.472096  0.820394  1
  O  O71  1  0.348552  0.324031  0.971818  1
  O  O72  1  0.342991  0.333198  0.474940  1
  O  O73  1  0.186340  0.491558  0.333244  1
  O  O74  1  0.381529  0.083760  0.669095  1
  O  O75  1  0.329500  0.189653  0.326786  1
  O  O76  1  0.083815  0.662613  0.157140  1
  O  O77  1  0.001177  0.793332  0.749821  1
  O  O78  1  0.983481  0.767406  0.930471  1
  O  O79  1  0.091139  0.528434  0.671891  1
  O  O80  1  0.185708  0.326947  0.830519  1
  O  O81  1  0.100499  0.378629  0.181032  1
  O  O82  1  0.262386  0.079343  0.167387  1
  O  O83  1  0.250197  0.996387  0.933254  1
  O  O84  1  0.201800  0.012244  0.758753  1
  O  O85  1  0.083410  0.255957  0.660819  1
  O  O86  1  0.976999  0.224094  0.430189  1
  O  O87  1  0.003671  0.202854  0.250122  1
