# generated using pymatgen
data_Na4CrO3
_symmetry_space_group_name_H-M   'P 1'
_cell_length_a   5.84294911
_cell_length_b   6.40087442
_cell_length_c   8.28761206
_cell_angle_alpha   69.28235172
_cell_angle_beta   90.00000000
_cell_angle_gamma   62.84378434
_symmetry_Int_Tables_number   1
_chemical_formula_structural   Na4CrO3
_chemical_formula_sum   'Na8 Cr2 O6'
_cell_volume   253.05333478
_cell_formula_units_Z   2
loop_
 _symmetry_equiv_pos_site_id
 _symmetry_equiv_pos_as_xyz
  1  'x, y, z'
loop_
 _atom_site_type_symbol
 _atom_site_label
 _atom_site_symmetry_multiplicity
 _atom_site_fract_x
 _atom_site_fract_y
 _atom_site_fract_z
 _atom_site_occupancy
  Na  Na0  1  0.962687  0.774242  0.940799  1
  Na  Na1  1  0.263071  0.774242  0.440799  1
  Na  Na2  1  0.873317  0.571081  0.636581  1
  Na  Na3  1  0.507599  0.394697  0.845802  1
  Na  Na4  1  0.555604  0.571081  0.136581  1
  Na  Na5  1  0.097703  0.394697  0.345802  1
  Na  Na6  1  0.727818  0.240610  0.531832  1
  Na  Na7  1  0.031572  0.240610  0.031832  1
  Cr  Cr8  1  0.345744  0.032020  0.749332  1
  Cr  Cr9  1  0.622237  0.032020  0.249332  1
  O  O10  1  0.646514  0.693046  0.847677  1
  O  O11  1  0.660438  0.693046  0.347677  1
  O  O12  1  0.309810  0.373789  0.606372  1
  O  O13  1  0.986493  0.135395  0.793973  1
  O  O14  1  0.316401  0.373789  0.106372  1
  O  O15  1  0.878113  0.135395  0.293973  1
