# generated using pymatgen
data_V6O5F19
_symmetry_space_group_name_H-M   'P 1'
_cell_length_a   5.49263730
_cell_length_b   5.29305033
_cell_length_c   14.76392011
_cell_angle_alpha   89.89354121
_cell_angle_beta   100.38197082
_cell_angle_gamma   90.80717485
_symmetry_Int_Tables_number   1
_chemical_formula_structural   V6O5F19
_chemical_formula_sum   'V6 O5 F19'
_cell_volume   422.15934974
_cell_formula_units_Z   1
loop_
 _symmetry_equiv_pos_site_id
 _symmetry_equiv_pos_as_xyz
  1  'x, y, z'
loop_
 _atom_site_type_symbol
 _atom_site_label
 _atom_site_symmetry_multiplicity
 _atom_site_fract_x
 _atom_site_fract_y
 _atom_site_fract_z
 _atom_site_occupancy
  V  V0  1  0.041122  0.968197  0.003499  1
  V  V1  1  0.123926  0.477062  0.330695  1
  V  V2  1  0.276186  0.024508  0.663743  1
  V  V3  1  0.529991  0.459479  0.996483  1
  V  V4  1  0.651459  0.992887  0.333926  1
  V  V5  1  0.780408  0.481177  0.664415  1
  O  O6  1  0.034077  0.210254  0.642266  1
  O  O7  1  0.536471  0.288862  0.643706  1
  O  O8  1  0.697551  0.221873  0.979677  1
  O  O9  1  0.283377  0.793777  0.020598  1
  O  O10  1  0.873332  0.296785  0.310888  1
  F  F11  1  0.209219  0.279716  0.973063  1
  F  F12  1  0.140159  0.724225  0.690749  1
  F  F13  1  0.042419  0.097467  0.114678  1
  F  F14  1  0.231521  0.423537  0.449308  1
  F  F15  1  0.396578  0.081837  0.781583  1
  F  F16  1  0.135861  0.598577  0.219723  1
  F  F17  1  0.309199  0.917263  0.552943  1
  F  F18  1  0.453570  0.593697  0.884951  1
  F  F19  1  0.352901  0.203815  0.307742  1
  F  F20  1  0.476932  0.703633  0.356981  1
  F  F21  1  0.643576  0.773588  0.691759  1
  F  F22  1  0.522963  0.436494  0.116008  1
  F  F23  1  0.712704  0.093746  0.449932  1
  F  F24  1  0.902503  0.419915  0.781697  1
  F  F25  1  0.638375  0.927065  0.215908  1
  F  F26  1  0.810617  0.583554  0.552415  1
  F  F27  1  0.926868  0.930535  0.884067  1
  F  F28  1  0.797759  0.712385  0.027274  1
  F  F29  1  0.968377  0.784088  0.359325  1
