# generated using pymatgen
data_Mn4O7F
_symmetry_space_group_name_H-M   'P 1'
_cell_length_a   7.00010229
_cell_length_b   7.17883663
_cell_length_c   4.96270917
_cell_angle_alpha   90.00000000
_cell_angle_beta   90.00000000
_cell_angle_gamma   101.75950030
_symmetry_Int_Tables_number   1
_chemical_formula_structural   Mn4O7F
_chemical_formula_sum   'Mn8 O14 F2'
_cell_volume   244.15474017
_cell_formula_units_Z   2
loop_
 _symmetry_equiv_pos_site_id
 _symmetry_equiv_pos_as_xyz
  1  'x, y, z'
loop_
 _atom_site_type_symbol
 _atom_site_label
 _atom_site_symmetry_multiplicity
 _atom_site_fract_x
 _atom_site_fract_y
 _atom_site_fract_z
 _atom_site_occupancy
  Mn  Mn0  1  0.425962  0.064016  0.264342  1
  Mn  Mn1  1  0.078143  0.412872  0.745716  1
  Mn  Mn2  1  0.925931  0.069871  0.261941  1
  Mn  Mn3  1  0.577659  0.432919  0.728526  1
  Mn  Mn4  1  0.421857  0.587128  0.245716  1
  Mn  Mn5  1  0.074038  0.935984  0.764342  1
  Mn  Mn6  1  0.574069  0.930129  0.761941  1
  Mn  Mn7  1  0.922341  0.567081  0.228526  1
  O  O8  1  0.059749  0.165939  0.935592  1
  O  O9  1  0.173279  0.064989  0.434945  1
  O  O10  1  0.672240  0.061371  0.089672  1
  O  O11  1  0.171155  0.558034  0.066471  1
  O  O12  1  0.559296  0.171130  0.583687  1
  O  O13  1  0.328845  0.441966  0.566471  1
  O  O14  1  0.559882  0.671754  0.914067  1
  O  O15  1  0.672879  0.559634  0.405890  1
  O  O16  1  0.326721  0.935011  0.934945  1
  O  O17  1  0.440251  0.834061  0.435592  1
  O  O18  1  0.940118  0.328246  0.414067  1
  O  O19  1  0.827121  0.440366  0.905890  1
  O  O20  1  0.940704  0.828870  0.083687  1
  O  O21  1  0.827760  0.938629  0.589672  1
  F  F22  1  0.059990  0.683519  0.569151  1
  F  F23  1  0.440010  0.316481  0.069151  1
