# generated using pymatgen
data_Mn6OF11
_symmetry_space_group_name_H-M   'P 1'
_cell_length_a   10.97221641
_cell_length_b   7.06944958
_cell_length_c   3.29100637
_cell_angle_alpha   90.00000000
_cell_angle_beta   90.00000000
_cell_angle_gamma   108.81598976
_symmetry_Int_Tables_number   1
_chemical_formula_structural   Mn6OF11
_chemical_formula_sum   'Mn6 O1 F11'
_cell_volume   241.63314702
_cell_formula_units_Z   1
loop_
 _symmetry_equiv_pos_site_id
 _symmetry_equiv_pos_as_xyz
  1  'x, y, z'
loop_
 _atom_site_type_symbol
 _atom_site_label
 _atom_site_symmetry_multiplicity
 _atom_site_fract_x
 _atom_site_fract_y
 _atom_site_fract_z
 _atom_site_occupancy
  Mn  Mn0  1  0.002165  0.001228  0.000000  1
  Mn  Mn1  1  0.342177  0.171044  0.500000  1
  Mn  Mn2  1  0.987148  0.493678  0.500000  1
  Mn  Mn3  1  0.686512  0.343128  0.000000  1
  Mn  Mn4  1  0.324960  0.662401  0.000000  1
  Mn  Mn5  1  0.663807  0.831718  0.500000  1
  O  O6  1  0.801189  0.400618  0.500000  1
  F  F7  1  0.134634  0.067674  0.500000  1
  F  F8  1  0.000368  0.306129  0.000000  1
  F  F9  1  0.334107  0.362986  0.000000  1
  F  F10  1  0.000334  0.694517  0.000000  1
  F  F11  1  0.662338  0.024974  0.000000  1
  F  F12  1  0.549005  0.274461  0.500000  1
  F  F13  1  0.188363  0.594126  0.500000  1
  F  F14  1  0.455557  0.727797  0.500000  1
  F  F15  1  0.662376  0.637013  0.000000  1
  F  F16  1  0.334043  0.970977  0.000000  1
  F  F17  1  0.870917  0.935532  0.500000  1
