# generated using pymatgen
data_Li7V3P8O29
_symmetry_space_group_name_H-M   'P 1'
_cell_length_a   9.84788485
_cell_length_b   9.88751926
_cell_length_c   13.92639768
_cell_angle_alpha   90.27520473
_cell_angle_beta   90.37759425
_cell_angle_gamma   60.04280495
_symmetry_Int_Tables_number   1
_chemical_formula_structural   Li7V3P8O29
_chemical_formula_sum   'Li14 V6 P16 O58'
_cell_volume   1174.83479045
_cell_formula_units_Z   2
loop_
 _symmetry_equiv_pos_site_id
 _symmetry_equiv_pos_as_xyz
  1  'x, y, z'
loop_
 _atom_site_type_symbol
 _atom_site_label
 _atom_site_symmetry_multiplicity
 _atom_site_fract_x
 _atom_site_fract_y
 _atom_site_fract_z
 _atom_site_occupancy
  Li  Li0  1  0.768233  0.908813  0.559897  1
  Li  Li1  1  0.909890  0.326468  0.563088  1
  Li  Li2  1  0.666940  0.673028  0.382273  1
  Li  Li3  1  0.670972  0.663856  0.885015  1
  Li  Li4  1  0.773933  0.309377  0.061493  1
  Li  Li5  1  0.314639  0.908339  0.067398  1
  Li  Li6  1  0.668699  0.234821  0.439867  1
  Li  Li7  1  0.327845  0.762329  0.563422  1
  Li  Li8  1  0.701435  0.080197  0.938782  1
  Li  Li9  1  0.221905  0.687994  0.939638  1
  Li  Li10  1  0.333821  0.327458  0.116283  1
  Li  Li11  1  0.102253  0.663477  0.437970  1
  Li  Li12  1  0.090593  0.223700  0.941902  1
  Li  Li13  1  0.040526  0.017028  0.488262  1
  V  V14  1  0.562528  0.432873  0.250549  1
  V  V15  1  0.432659  0.569455  0.749196  1
  V  V16  1  0.563526  0.999788  0.746727  1
  V  V17  1  0.431026  0.003536  0.252379  1
  V  V18  1  0.999260  0.568395  0.248474  1
  V  V19  1  0.002315  0.435966  0.750083  1
  P  P20  1  0.909843  0.772491  0.838972  1
  P  P21  1  0.773211  0.911882  0.341426  1
  P  P22  1  0.910211  0.317356  0.345872  1
  P  P23  1  0.664163  0.663916  0.126960  1
  P  P24  1  0.669340  0.665518  0.624867  1
  P  P25  1  0.770075  0.323193  0.841984  1
  P  P26  1  0.682691  0.230518  0.657469  1
  P  P27  1  0.322235  0.911284  0.846995  1
  P  P28  1  0.676545  0.090639  0.154908  1
  P  P29  1  0.317375  0.772945  0.342342  1
  P  P30  1  0.228172  0.676617  0.157397  1
  P  P31  1  0.329932  0.337977  0.373961  1
  P  P32  1  0.334459  0.332707  0.872762  1
  P  P33  1  0.083074  0.685124  0.654045  1
  P  P34  1  0.223216  0.081987  0.660281  1
  P  P35  1  0.087085  0.233111  0.159327  1
  O  O36  1  0.997775  0.765339  0.562480  1
  O  O37  1  0.923219  0.749612  0.341533  1
  O  O38  1  0.751799  0.004933  0.064749  1
  O  O39  1  0.742830  0.918339  0.840104  1
  O  O40  1  0.886841  0.627777  0.824510  1
  O  O41  1  0.815255  0.652727  0.175848  1
  O  O42  1  0.898083  0.479014  0.336897  1
  O  O43  1  0.991133  0.253847  0.069970  1
  O  O44  1  0.922560  0.332193  0.843080  1
  O  O45  1  0.678963  0.810534  0.664977  1
  O  O46  1  0.631005  0.887894  0.333112  1
  O  O47  1  0.815715  0.511463  0.666377  1
  O  O48  1  0.676013  0.650063  0.019723  1
  O  O49  1  0.678909  0.661869  0.516881  1
  O  O50  1  0.656882  0.518305  0.168987  1
  O  O51  1  0.489447  0.883528  0.824423  1
  O  O52  1  0.518005  0.814955  0.160813  1
  O  O53  1  0.744385  0.336550  0.342264  1
  O  O54  1  0.789525  0.212563  0.751242  1
  O  O55  1  0.774446  0.226341  0.569093  1
  O  O56  1  0.753583  0.245956  0.930793  1
  O  O57  1  0.632310  0.489861  0.826175  1
  O  O58  1  0.514592  0.676750  0.659205  1
  O  O59  1  0.667202  0.252496  0.159399  1
  O  O60  1  0.480939  0.622986  0.332401  1
  O  O61  1  0.334767  0.916398  0.340531  1
  O  O62  1  0.784316  0.998979  0.247414  1
  O  O63  1  0.769772  0.005104  0.429442  1
  O  O64  1  0.208303  0.987726  0.580071  1
  O  O65  1  0.665709  0.082406  0.659620  1
  O  O66  1  0.525911  0.378512  0.669226  1
  O  O67  1  0.329421  0.752994  0.845653  1
  O  O68  1  0.483109  0.336805  0.330676  1
  O  O69  1  0.372417  0.509749  0.172524  1
  O  O70  1  0.247914  0.752389  0.069125  1
  O  O71  1  0.228504  0.771174  0.431070  1
  O  O72  1  0.214931  0.781674  0.249445  1
  O  O73  1  0.245392  0.669666  0.658297  1
  O  O74  1  0.480185  0.182595  0.829142  1
  O  O75  1  0.510063  0.118015  0.172275  1
  O  O76  1  0.333053  0.481563  0.839225  1
  O  O77  1  0.332498  0.322353  0.980307  1
  O  O78  1  0.333530  0.355816  0.480179  1
  O  O79  1  0.181306  0.489972  0.330367  1
  O  O80  1  0.384133  0.074437  0.665777  1
  O  O81  1  0.328148  0.195396  0.333802  1
  O  O82  1  0.080917  0.662536  0.158032  1
  O  O83  1  0.985193  0.795923  0.742241  1
  O  O84  1  0.006850  0.761852  0.923332  1
  O  O85  1  0.090506  0.526931  0.669740  1
  O  O86  1  0.181358  0.336022  0.830536  1
  O  O87  1  0.114623  0.373412  0.175214  1
  O  O88  1  0.245007  0.082182  0.156877  1
  O  O89  1  0.254630  0.001869  0.938316  1
  O  O90  1  0.206579  0.011663  0.761181  1
  O  O91  1  0.086477  0.250902  0.658964  1
  O  O92  1  0.992845  0.226369  0.434862  1
  O  O93  1  0.996388  0.218785  0.251067  1
