# generated using pymatgen
data_Li2Mn2(SiO3)3
_symmetry_space_group_name_H-M   'P 1'
_cell_length_a   10.80939426
_cell_length_b   7.43356046
_cell_length_c   12.43054480
_cell_angle_alpha   90.00000000
_cell_angle_beta   111.54037220
_cell_angle_gamma   90.00000000
_symmetry_Int_Tables_number   1
_chemical_formula_structural   Li2Mn2(SiO3)3
_chemical_formula_sum   'Li8 Mn8 Si12 O36'
_cell_volume   929.06400271
_cell_formula_units_Z   4
loop_
 _symmetry_equiv_pos_site_id
 _symmetry_equiv_pos_as_xyz
  1  'x, y, z'
loop_
 _atom_site_type_symbol
 _atom_site_label
 _atom_site_symmetry_multiplicity
 _atom_site_fract_x
 _atom_site_fract_y
 _atom_site_fract_z
 _atom_site_occupancy
  Li  Li0  1  0.048874  0.967976  0.637834  1
  Li  Li1  1  0.048874  0.532024  0.137834  1
  Li  Li2  1  0.464668  0.064383  0.644254  1
  Li  Li3  1  0.535332  0.564383  0.855746  1
  Li  Li4  1  0.464668  0.435617  0.144254  1
  Li  Li5  1  0.535332  0.935617  0.355746  1
  Li  Li6  1  0.951126  0.467976  0.862166  1
  Li  Li7  1  0.951126  0.032024  0.362166  1
  Mn  Mn8  1  0.049794  0.892976  0.918658  1
  Mn  Mn9  1  0.049794  0.607024  0.418658  1
  Mn  Mn10  1  0.435432  0.631623  0.565071  1
  Mn  Mn11  1  0.564568  0.131623  0.934929  1
  Mn  Mn12  1  0.435432  0.868377  0.065071  1
  Mn  Mn13  1  0.564568  0.368377  0.434929  1
  Mn  Mn14  1  0.950206  0.392976  0.581342  1
  Mn  Mn15  1  0.950206  0.107024  0.081342  1
  Si  Si16  1  0.227689  0.543617  0.933178  1
  Si  Si17  1  0.238657  0.158287  0.853658  1
  Si  Si18  1  0.259521  0.472818  0.704951  1
  Si  Si19  1  0.227689  0.956383  0.433178  1
  Si  Si20  1  0.238657  0.341713  0.353658  1
  Si  Si21  1  0.259521  0.027182  0.204951  1
  Si  Si22  1  0.740479  0.972818  0.795049  1
  Si  Si23  1  0.761343  0.658287  0.646342  1
  Si  Si24  1  0.772311  0.043617  0.566822  1
  Si  Si25  1  0.740479  0.527182  0.295049  1
  Si  Si26  1  0.761343  0.841713  0.146342  1
  Si  Si27  1  0.772311  0.456383  0.066822  1
  O  O28  1  0.096934  0.625647  0.952363  1
  O  O29  1  0.113265  0.022181  0.802221  1
  O  O30  1  0.134306  0.493369  0.583185  1
  O  O31  1  0.206886  0.321731  0.931483  1
  O  O32  1  0.096934  0.874353  0.452363  1
  O  O33  1  0.228665  0.595125  0.803893  1
  O  O34  1  0.265468  0.256797  0.743948  1
  O  O35  1  0.113265  0.477819  0.302221  1
  O  O36  1  0.369670  0.604633  0.031025  1
  O  O37  1  0.134306  0.006631  0.083185  1
  O  O38  1  0.376262  0.059061  0.932643  1
  O  O39  1  0.206886  0.178269  0.431483  1
  O  O40  1  0.228665  0.904875  0.303893  1
  O  O41  1  0.405114  0.530065  0.706173  1
  O  O42  1  0.265468  0.243203  0.243948  1
  O  O43  1  0.369670  0.895367  0.531025  1
  O  O44  1  0.376262  0.440939  0.432643  1
  O  O45  1  0.405114  0.969935  0.206173  1
  O  O46  1  0.594886  0.030065  0.793827  1
  O  O47  1  0.623738  0.559061  0.567357  1
  O  O48  1  0.630330  0.104633  0.468975  1
  O  O49  1  0.734532  0.756797  0.756052  1
  O  O50  1  0.594886  0.469935  0.293827  1
  O  O51  1  0.771335  0.095125  0.696107  1
  O  O52  1  0.793114  0.821731  0.568517  1
  O  O53  1  0.623738  0.940939  0.067357  1
  O  O54  1  0.865694  0.993369  0.916815  1
  O  O55  1  0.630330  0.395367  0.968975  1
  O  O56  1  0.886735  0.522181  0.697779  1
  O  O57  1  0.734532  0.743203  0.256052  1
  O  O58  1  0.771335  0.404875  0.196107  1
  O  O59  1  0.903066  0.125647  0.547637  1
  O  O60  1  0.793114  0.678269  0.068517  1
  O  O61  1  0.865694  0.506631  0.416815  1
  O  O62  1  0.886735  0.977819  0.197779  1
  O  O63  1  0.903066  0.374353  0.047637  1
