# generated using pymatgen
data_SrZn2(PO4)2
_symmetry_space_group_name_H-M   'P 1'
_cell_length_a   8.44752414
_cell_length_b   9.14225623
_cell_length_c   9.64712661
_cell_angle_alpha   90.00000000
_cell_angle_beta   90.00000000
_cell_angle_gamma   92.10376877
_symmetry_Int_Tables_number   1
_chemical_formula_structural   SrZn2(PO4)2
_chemical_formula_sum   'Sr4 Zn8 P8 O32'
_cell_volume   744.53991901
_cell_formula_units_Z   4
loop_
 _symmetry_equiv_pos_site_id
 _symmetry_equiv_pos_as_xyz
  1  'x, y, z'
loop_
 _atom_site_type_symbol
 _atom_site_label
 _atom_site_symmetry_multiplicity
 _atom_site_fract_x
 _atom_site_fract_y
 _atom_site_fract_z
 _atom_site_occupancy
  O  O0  1  0.051334  0.623123  0.872850  1
  O  O1  1  0.948666  0.876877  0.372850  1
  O  O2  1  0.948666  0.376877  0.127150  1
  O  O3  1  0.051334  0.123123  0.627150  1
  O  O4  1  0.298913  0.507591  0.643583  1
  O  O5  1  0.701087  0.992409  0.143583  1
  O  O6  1  0.701087  0.492409  0.356417  1
  O  O7  1  0.298913  0.007591  0.856417  1
  O  O8  1  0.433696  0.123205  0.642322  1
  O  O9  1  0.566304  0.376795  0.142322  1
  O  O10  1  0.566304  0.876795  0.357678  1
  O  O11  1  0.433696  0.623205  0.857678  1
  O  O12  1  0.935914  0.872678  0.804655  1
  O  O13  1  0.064086  0.627322  0.304655  1
  O  O14  1  0.064086  0.127322  0.195345  1
  O  O15  1  0.935914  0.372678  0.695345  1
  O  O16  1  0.984217  0.189513  0.947900  1
  O  O17  1  0.015783  0.310487  0.447900  1
  O  O18  1  0.015783  0.810487  0.052100  1
  O  O19  1  0.984217  0.689513  0.552100  1
  O  O20  1  0.522973  0.696183  0.611687  1
  O  O21  1  0.477027  0.803817  0.111686  1
  O  O22  1  0.477027  0.303817  0.388313  1
  O  O23  1  0.522973  0.196183  0.888313  1
  O  O24  1  0.580865  0.947842  0.791921  1
  O  O25  1  0.419135  0.552158  0.291921  1
  O  O26  1  0.419135  0.052158  0.208079  1
  O  O27  1  0.580865  0.447842  0.708079  1
  O  O28  1  0.773214  0.679338  0.934674  1
  O  O29  1  0.226786  0.820662  0.434674  1
  O  O30  1  0.226786  0.320662  0.065326  1
  O  O31  1  0.773214  0.179338  0.565326  1
  P  P32  1  0.942363  0.249975  0.584810  1
  P  P33  1  0.057637  0.250025  0.084810  1
  P  P34  1  0.057637  0.750025  0.415190  1
  P  P35  1  0.942363  0.749975  0.915190  1
  P  P36  1  0.455662  0.069127  0.793995  1
  P  P37  1  0.544338  0.430873  0.293995  1
  P  P38  1  0.544338  0.930873  0.206005  1
  P  P39  1  0.455662  0.569127  0.706005  1
  Zn  Zn40  1  0.080670  0.050339  0.818924  1
  Zn  Zn41  1  0.919330  0.449661  0.318924  1
  Zn  Zn42  1  0.919330  0.949661  0.181076  1
  Zn  Zn43  1  0.080670  0.550339  0.681076  1
  Zn  Zn44  1  0.424815  0.210542  0.072785  1
  Zn  Zn45  1  0.575185  0.289458  0.572785  1
  Zn  Zn46  1  0.575185  0.789458  0.927215  1
  Zn  Zn47  1  0.424815  0.710542  0.427215  1
  Sr  Sr48  1  0.753350  0.889930  0.581579  1
  Sr  Sr49  1  0.246650  0.610070  0.081579  1
  Sr  Sr50  1  0.246650  0.110070  0.418421  1
  Sr  Sr51  1  0.753350  0.389930  0.918421  1
