# generated using pymatgen
data_Li9Mn7Cr12O48
_symmetry_space_group_name_H-M   'P 1'
_cell_length_a   5.14796853
_cell_length_b   10.35787025
_cell_length_c   17.43450476
_cell_angle_alpha   90.12498213
_cell_angle_beta   90.51513463
_cell_angle_gamma   90.19960033
_symmetry_Int_Tables_number   1
_chemical_formula_structural   Li9Mn7Cr12O48
_chemical_formula_sum   'Li9 Mn7 Cr12 O48'
_cell_volume   929.59700106
_cell_formula_units_Z   1
loop_
 _symmetry_equiv_pos_site_id
 _symmetry_equiv_pos_as_xyz
  1  'x, y, z'
loop_
 _atom_site_type_symbol
 _atom_site_label
 _atom_site_symmetry_multiplicity
 _atom_site_fract_x
 _atom_site_fract_y
 _atom_site_fract_z
 _atom_site_occupancy
  Li  Li0  1  0.243185  0.424019  0.968865  1
  Li  Li1  1  0.244861  0.747384  0.302304  1
  Li  Li2  1  0.258879  0.255010  0.799015  1
  Li  Li3  1  0.254708  0.577623  0.470473  1
  Li  Li4  1  0.402609  0.748419  0.750552  1
  Li  Li5  1  0.597829  0.252021  0.249355  1
  Li  Li6  1  0.744740  0.077848  0.530298  1
  Li  Li7  1  0.740197  0.745966  0.202306  1
  Li  Li8  1  0.755914  0.249500  0.698510  1
  Mn  Mn9  1  0.096606  0.251010  0.251920  1
  Mn  Mn10  1  0.248041  0.080053  0.970872  1
  Mn  Mn11  1  0.250540  0.927937  0.474272  1
  Mn  Mn12  1  0.750060  0.431649  0.525122  1
  Mn  Mn13  1  0.750668  0.570692  0.027075  1
  Mn  Mn14  1  0.749684  0.921357  0.029179  1
  Mn  Mn15  1  0.903489  0.749504  0.748053  1
  Cr  Cr16  1  0.219801  0.749567  0.943989  1
  Cr  Cr17  1  0.222575  0.027217  0.656283  1
  Cr  Cr18  1  0.218057  0.471644  0.653942  1
  Cr  Cr19  1  0.277053  0.529659  0.154909  1
  Cr  Cr20  1  0.277348  0.970755  0.156432  1
  Cr  Cr21  1  0.280799  0.251143  0.444816  1
  Cr  Cr22  1  0.719468  0.749711  0.555119  1
  Cr  Cr23  1  0.722122  0.029326  0.844087  1
  Cr  Cr24  1  0.725573  0.471890  0.843851  1
  Cr  Cr25  1  0.778337  0.527386  0.344942  1
  Cr  Cr26  1  0.778535  0.971714  0.345124  1
  Cr  Cr27  1  0.779995  0.249624  0.056547  1
  O  O28  1  0.043310  0.248726  0.999120  1
  O  O29  1  0.046825  0.605782  0.369593  1
  O  O30  1  0.055703  0.893196  0.372567  1
  O  O31  1  0.101500  0.625643  0.208303  1
  O  O32  1  0.097968  0.876642  0.209064  1
  O  O33  1  0.105807  0.120497  0.465425  1
  O  O34  1  0.092811  0.377028  0.465403  1
  O  O35  1  0.095860  0.003311  0.076522  1
  O  O36  1  0.097640  0.496448  0.076722  1
  O  O37  1  0.149822  0.749869  0.850389  1
  O  O38  1  0.156171  0.608985  0.701114  1
  O  O39  1  0.155590  0.888415  0.703306  1
  O  O40  1  0.340779  0.109980  0.202973  1
  O  O41  1  0.340469  0.390509  0.201947  1
  O  O42  1  0.345648  0.251159  0.350975  1
  O  O43  1  0.400679  0.993508  0.576751  1
  O  O44  1  0.400851  0.505051  0.577267  1
  O  O45  1  0.401650  0.881823  0.965414  1
  O  O46  1  0.406332  0.623791  0.965633  1
  O  O47  1  0.406230  0.121231  0.709752  1
  O  O48  1  0.391862  0.375631  0.707421  1
  O  O49  1  0.449101  0.108342  0.869893  1
  O  O50  1  0.454298  0.395645  0.869047  1
  O  O51  1  0.452273  0.753597  0.498044  1
  O  O52  1  0.553100  0.257738  0.502693  1
  O  O53  1  0.553480  0.607226  0.128612  1
  O  O54  1  0.550594  0.892060  0.130619  1
  O  O55  1  0.593871  0.620418  0.291844  1
  O  O56  1  0.603927  0.875665  0.290828  1
  O  O57  1  0.593392  0.118969  0.035405  1
  O  O58  1  0.598407  0.377613  0.035678  1
  O  O59  1  0.597719  0.004192  0.422688  1
  O  O60  1  0.600830  0.492615  0.425882  1
  O  O61  1  0.654269  0.750678  0.648750  1
  O  O62  1  0.659360  0.611135  0.796710  1
  O  O63  1  0.658739  0.890325  0.797584  1
  O  O64  1  0.844053  0.109518  0.298082  1
  O  O65  1  0.843371  0.389820  0.297578  1
  O  O66  1  0.852520  0.249065  0.150350  1
  O  O67  1  0.904198  0.506014  0.923149  1
  O  O68  1  0.903018  0.994994  0.924286  1
  O  O69  1  0.895792  0.615404  0.534055  1
  O  O70  1  0.909418  0.875331  0.533747  1
  O  O71  1  0.903668  0.123509  0.792496  1
  O  O72  1  0.903900  0.376652  0.790253  1
  O  O73  1  0.953988  0.105377  0.631029  1
  O  O74  1  0.936549  0.392620  0.624275  1
  O  O75  1  0.950984  0.748627  0.002549  1
