# generated using pymatgen
data_Nb3Fe(PO4)6
_symmetry_space_group_name_H-M   'P 1'
_cell_length_a   8.98225708
_cell_length_b   8.98225769
_cell_length_c   8.98225709
_cell_angle_alpha   58.55029578
_cell_angle_beta   58.55029859
_cell_angle_gamma   58.55029934
_symmetry_Int_Tables_number   1
_chemical_formula_structural   Nb3Fe(PO4)6
_chemical_formula_sum   'Nb3 Fe1 P6 O24'
_cell_volume   495.44889998
_cell_formula_units_Z   1
loop_
 _symmetry_equiv_pos_site_id
 _symmetry_equiv_pos_as_xyz
  1  'x, y, z'
loop_
 _atom_site_type_symbol
 _atom_site_label
 _atom_site_symmetry_multiplicity
 _atom_site_fract_x
 _atom_site_fract_y
 _atom_site_fract_z
 _atom_site_occupancy
  Nb  Nb0  1  0.140636  0.140636  0.140636  1
  Nb  Nb1  1  0.358555  0.358555  0.358555  1
  Nb  Nb2  1  0.639856  0.639856  0.639856  1
  Fe  Fe3  1  0.858093  0.858093  0.858093  1
  P  P4  1  0.032606  0.750632  0.470817  1
  P  P5  1  0.470817  0.032606  0.750632  1
  P  P6  1  0.750632  0.470817  0.032606  1
  P  P7  1  0.242877  0.540170  0.965168  1
  P  P8  1  0.540170  0.965168  0.242877  1
  P  P9  1  0.965168  0.242877  0.540170  1
  O  O10  1  0.133010  0.283414  0.500751  1
  O  O11  1  0.283414  0.500751  0.133010  1
  O  O12  1  0.062712  0.919884  0.288471  1
  O  O13  1  0.500751  0.133010  0.283414  1
  O  O14  1  0.210612  0.580264  0.434303  1
  O  O15  1  0.008244  0.778419  0.634429  1
  O  O16  1  0.288471  0.062712  0.919884  1
  O  O17  1  0.434303  0.210612  0.580264  1
  O  O18  1  0.580264  0.434303  0.210612  1
  O  O19  1  0.220387  0.364582  0.996625  1
  O  O20  1  0.078207  0.714185  0.939056  1
  O  O21  1  0.364582  0.996625  0.220387  1
  O  O22  1  0.634429  0.008244  0.778419  1
  O  O23  1  0.919884  0.288471  0.062712  1
  O  O24  1  0.778419  0.634429  0.008244  1
  O  O25  1  0.421088  0.560935  0.789989  1
  O  O26  1  0.560935  0.789989  0.421088  1
  O  O27  1  0.714185  0.939056  0.078207  1
  O  O28  1  0.996625  0.220387  0.364582  1
  O  O29  1  0.789989  0.421088  0.560935  1
  O  O30  1  0.496370  0.865594  0.719062  1
  O  O31  1  0.939056  0.078207  0.714185  1
  O  O32  1  0.719062  0.496370  0.865594  1
  O  O33  1  0.865594  0.719062  0.496370  1
