# generated using pymatgen
data_CsGe
_symmetry_space_group_name_H-M   'P 1'
_cell_length_a   12.62380057
_cell_length_b   12.62380057
_cell_length_c   12.62380057
_cell_angle_alpha   124.66896837
_cell_angle_beta   124.66896837
_cell_angle_gamma   82.08705526
_symmetry_Int_Tables_number   1
_chemical_formula_structural   CsGe
_chemical_formula_sum   'Cs16 Ge16'
_cell_volume   1308.39100043
_cell_formula_units_Z   16
loop_
 _symmetry_equiv_pos_site_id
 _symmetry_equiv_pos_as_xyz
  1  'x, y, z'
loop_
 _atom_site_type_symbol
 _atom_site_label
 _atom_site_symmetry_multiplicity
 _atom_site_fract_x
 _atom_site_fract_y
 _atom_site_fract_z
 _atom_site_occupancy
  Cs  Cs0  1  0.250000  0.391478  0.141478  1
  Cs  Cs1  1  0.750000  0.108522  0.358522  1
  Cs  Cs2  1  0.108522  0.250000  0.358522  1
  Cs  Cs3  1  0.391478  0.750000  0.141478  1
  Cs  Cs4  1  0.750000  0.608522  0.858522  1
  Cs  Cs5  1  0.250000  0.891478  0.641478  1
  Cs  Cs6  1  0.891478  0.750000  0.641478  1
  Cs  Cs7  1  0.608522  0.250000  0.858522  1
  Cs  Cs8  1  0.494713  0.244713  0.489427  1
  Cs  Cs9  1  0.255287  0.005287  0.010573  1
  Cs  Cs10  1  0.005287  0.494713  0.750000  1
  Cs  Cs11  1  0.244713  0.255287  0.750000  1
  Cs  Cs12  1  0.505287  0.755287  0.510573  1
  Cs  Cs13  1  0.744713  0.994713  0.989427  1
  Cs  Cs14  1  0.994713  0.505287  0.250000  1
  Cs  Cs15  1  0.755287  0.744713  0.250000  1
  Ge  Ge16  1  0.576983  0.480637  0.210240  1
  Ge  Ge17  1  0.770397  0.366743  0.289760  1
  Ge  Ge18  1  0.923017  0.133257  0.903654  1
  Ge  Ge19  1  0.729603  0.019363  0.596346  1
  Ge  Ge20  1  0.019363  0.923017  0.289760  1
  Ge  Ge21  1  0.133257  0.729603  0.210240  1
  Ge  Ge22  1  0.366743  0.576983  0.596346  1
  Ge  Ge23  1  0.480637  0.770397  0.903654  1
  Ge  Ge24  1  0.423017  0.519362  0.789759  1
  Ge  Ge25  1  0.229603  0.633257  0.710240  1
  Ge  Ge26  1  0.076983  0.866742  0.096345  1
  Ge  Ge27  1  0.270397  0.980637  0.403654  1
  Ge  Ge28  1  0.980637  0.076983  0.710240  1
  Ge  Ge29  1  0.866742  0.270397  0.789759  1
  Ge  Ge30  1  0.633257  0.423017  0.403654  1
  Ge  Ge31  1  0.519363  0.229603  0.096346  1
