# generated using pymatgen
data_Pr3AgGeS7
_symmetry_space_group_name_H-M   'P 1'
_cell_length_a   10.37398628
_cell_length_b   10.37394544
_cell_length_c   5.88615497
_cell_angle_alpha   90.00000000
_cell_angle_beta   90.00000000
_cell_angle_gamma   120.00705741
_symmetry_Int_Tables_number   1
_chemical_formula_structural   Pr3AgGeS7
_chemical_formula_sum   'Pr6 Ag2 Ge2 S14'
_cell_volume   548.55611787
_cell_formula_units_Z   2
loop_
 _symmetry_equiv_pos_site_id
 _symmetry_equiv_pos_as_xyz
  1  'x, y, z'
loop_
 _atom_site_type_symbol
 _atom_site_label
 _atom_site_symmetry_multiplicity
 _atom_site_fract_x
 _atom_site_fract_y
 _atom_site_fract_z
 _atom_site_occupancy
  Pr  Pr0  1  0.129912  0.359777  0.254087  1
  Pr  Pr1  1  0.870087  0.640223  0.754087  1
  Pr  Pr2  1  0.640226  0.770100  0.254096  1
  Pr  Pr3  1  0.229882  0.870112  0.254125  1
  Pr  Pr4  1  0.770118  0.129888  0.754126  1
  Pr  Pr5  1  0.359773  0.229900  0.754096  1
  Ag  Ag6  1  0.999998  0.999984  0.314319  1
  Ag  Ag7  1  0.000002  0.000017  0.814320  1
  Ge  Ge8  1  0.333316  0.666689  0.671589  1
  Ge  Ge9  1  0.666685  0.333312  0.171590  1
  S  S10  1  0.333335  0.666686  0.046990  1
  S  S11  1  0.666665  0.333314  0.546990  1
  S  S12  1  0.415928  0.522651  0.517487  1
  S  S13  1  0.584072  0.477349  0.017486  1
  S  S14  1  0.477392  0.893336  0.517435  1
  S  S15  1  0.106651  0.584025  0.517470  1
  S  S16  1  0.893350  0.415975  0.017469  1
  S  S17  1  0.522609  0.106665  0.017435  1
  S  S18  1  0.098152  0.269630  0.774435  1
  S  S19  1  0.901848  0.730369  0.274435  1
  S  S20  1  0.730377  0.828517  0.774462  1
  S  S21  1  0.171459  0.901869  0.774503  1
  S  S22  1  0.828541  0.098133  0.274503  1
  S  S23  1  0.269622  0.171483  0.274462  1
