# generated using pymatgen
data_V2O3F
_symmetry_space_group_name_H-M   'P 1'
_cell_length_a   8.96415095
_cell_length_b   5.55627809
_cell_length_c   5.55627809
_cell_angle_alpha   72.08205636
_cell_angle_beta   87.76605721
_cell_angle_gamma   87.76605721
_symmetry_Int_Tables_number   1
_chemical_formula_structural   V2O3F
_chemical_formula_sum   'V8 O12 F4'
_cell_volume   263.01457847
_cell_formula_units_Z   4
loop_
 _symmetry_equiv_pos_site_id
 _symmetry_equiv_pos_as_xyz
  1  'x, y, z'
loop_
 _atom_site_type_symbol
 _atom_site_label
 _atom_site_symmetry_multiplicity
 _atom_site_fract_x
 _atom_site_fract_y
 _atom_site_fract_z
 _atom_site_occupancy
  V  V0  1  0.895960  0.608221  0.608221  1
  V  V1  1  0.604040  0.891779  0.891779  1
  V  V2  1  0.750000  0.250000  0.250000  1
  V  V3  1  0.512633  0.508472  0.508472  1
  V  V4  1  0.250000  0.750000  0.750000  1
  V  V5  1  0.385644  0.147155  0.147155  1
  V  V6  1  0.114356  0.352845  0.352845  1
  V  V7  1  0.987367  0.991528  0.991528  1
  O  O8  1  0.491222  0.199426  0.811906  1
  O  O9  1  0.969968  0.221120  0.221120  1
  O  O10  1  0.478792  0.730719  0.730719  1
  O  O11  1  0.735445  0.477783  0.477783  1
  O  O12  1  0.764555  0.022217  0.022217  1
  O  O13  1  0.021208  0.769281  0.769281  1
  O  O14  1  0.530032  0.278880  0.278880  1
  O  O15  1  0.491222  0.811906  0.199426  1
  O  O16  1  0.008778  0.300574  0.688094  1
  O  O17  1  0.250000  0.056628  0.443372  1
  O  O18  1  0.008778  0.688094  0.300574  1
  O  O19  1  0.250000  0.443372  0.056628  1
  F  F20  1  0.750000  0.559508  0.940492  1
  F  F21  1  0.750000  0.940492  0.559508  1
  F  F22  1  0.222136  0.979278  0.979278  1
  F  F23  1  0.277864  0.520722  0.520722  1
