# generated using pymatgen
data_MnOF
_symmetry_space_group_name_H-M   'P 1'
_cell_length_a   4.63328000
_cell_length_b   4.62142018
_cell_length_c   9.56206026
_cell_angle_alpha   90.00000000
_cell_angle_beta   90.00000000
_cell_angle_gamma   90.00000000
_symmetry_Int_Tables_number   1
_chemical_formula_structural   MnOF
_chemical_formula_sum   'Mn6 O6 F6'
_cell_volume   204.74602507
_cell_formula_units_Z   6
loop_
 _symmetry_equiv_pos_site_id
 _symmetry_equiv_pos_as_xyz
  1  'x, y, z'
loop_
 _atom_site_type_symbol
 _atom_site_label
 _atom_site_symmetry_multiplicity
 _atom_site_fract_x
 _atom_site_fract_y
 _atom_site_fract_z
 _atom_site_occupancy
  Mn  Mn0  1  0.982222  0.972105  0.999354  1
  Mn  Mn1  1  0.982222  0.972105  0.333980  1
  Mn  Mn2  1  0.046451  0.025771  0.666667  1
  Mn  Mn3  1  0.482222  0.527895  0.833980  1
  Mn  Mn4  1  0.546451  0.474229  0.166667  1
  Mn  Mn5  1  0.482222  0.527895  0.499354  1
  O  O6  1  0.188489  0.823409  0.495891  1
  O  O7  1  0.188489  0.823409  0.837442  1
  O  O8  1  0.309072  0.340541  0.666667  1
  O  O9  1  0.688489  0.676591  0.995891  1
  O  O10  1  0.688489  0.676591  0.337442  1
  O  O11  1  0.809072  0.159459  0.166667  1
  F  F12  1  0.218806  0.751840  0.166667  1
  F  F13  1  0.292125  0.272785  0.007099  1
  F  F14  1  0.292125  0.272785  0.326235  1
  F  F15  1  0.718806  0.748160  0.666667  1
  F  F16  1  0.792125  0.227215  0.507099  1
  F  F17  1  0.792125  0.227215  0.826235  1
