# generated using pymatgen
data_LiMnBO3
_symmetry_space_group_name_H-M   'P 1'
_cell_length_a   10.55147008
_cell_length_b   9.11028827
_cell_length_c   10.53791284
_cell_angle_alpha   90.00000000
_cell_angle_beta   87.78837305
_cell_angle_gamma   90.00000000
_symmetry_Int_Tables_number   1
_chemical_formula_structural   LiMnBO3
_chemical_formula_sum   'Li16 Mn16 B16 O48'
_cell_volume   1012.22269230
_cell_formula_units_Z   16
loop_
 _symmetry_equiv_pos_site_id
 _symmetry_equiv_pos_as_xyz
  1  'x, y, z'
loop_
 _atom_site_type_symbol
 _atom_site_label
 _atom_site_symmetry_multiplicity
 _atom_site_fract_x
 _atom_site_fract_y
 _atom_site_fract_z
 _atom_site_occupancy
  Li  Li0  1  0.082613  0.487353  0.838313  1
  Li  Li1  1  0.082613  0.512647  0.338313  1
  Li  Li2  1  0.167387  0.987353  0.661687  1
  Li  Li3  1  0.167387  0.012647  0.161687  1
  Li  Li4  1  0.329516  0.005398  0.909789  1
  Li  Li5  1  0.329516  0.994602  0.409789  1
  Li  Li6  1  0.417703  0.489398  0.660980  1
  Li  Li7  1  0.417703  0.510602  0.160980  1
  Li  Li8  1  0.578882  0.506050  0.910011  1
  Li  Li9  1  0.578882  0.493950  0.410011  1
  Li  Li10  1  0.671118  0.006050  0.589989  1
  Li  Li11  1  0.671118  0.993950  0.089989  1
  Li  Li12  1  0.832297  0.989398  0.839020  1
  Li  Li13  1  0.832297  0.010602  0.339020  1
  Li  Li14  1  0.920484  0.505398  0.590211  1
  Li  Li15  1  0.920484  0.494602  0.090211  1
  Mn  Mn16  1  0.077996  0.163175  0.880585  1
  Mn  Mn17  1  0.077996  0.836825  0.380585  1
  Mn  Mn18  1  0.172004  0.663175  0.619415  1
  Mn  Mn19  1  0.172004  0.336825  0.119415  1
  Mn  Mn20  1  0.328907  0.666996  0.877644  1
  Mn  Mn21  1  0.328907  0.333004  0.377644  1
  Mn  Mn22  1  0.416072  0.162616  0.627283  1
  Mn  Mn23  1  0.416072  0.837384  0.127283  1
  Mn  Mn24  1  0.585080  0.165962  0.869808  1
  Mn  Mn25  1  0.585080  0.834038  0.369808  1
  Mn  Mn26  1  0.664920  0.665962  0.630192  1
  Mn  Mn27  1  0.664920  0.334038  0.130192  1
  Mn  Mn28  1  0.833928  0.662616  0.872717  1
  Mn  Mn29  1  0.833928  0.337384  0.372717  1
  Mn  Mn30  1  0.921093  0.166996  0.622356  1
  Mn  Mn31  1  0.921093  0.833004  0.122356  1
  B  B32  1  0.083107  0.830166  0.869855  1
  B  B33  1  0.083107  0.169834  0.369855  1
  B  B34  1  0.166893  0.330166  0.630145  1
  B  B35  1  0.166893  0.669834  0.130145  1
  B  B36  1  0.333466  0.330742  0.868864  1
  B  B37  1  0.333466  0.669258  0.368864  1
  B  B38  1  0.416238  0.830967  0.619202  1
  B  B39  1  0.416238  0.169033  0.119202  1
  B  B40  1  0.583884  0.831560  0.880191  1
  B  B41  1  0.583884  0.168440  0.380191  1
  B  B42  1  0.666116  0.331560  0.619809  1
  B  B43  1  0.666116  0.668440  0.119809  1
  B  B44  1  0.833762  0.330967  0.880798  1
  B  B45  1  0.833762  0.669033  0.380798  1
  B  B46  1  0.916534  0.830742  0.631136  1
  B  B47  1  0.916534  0.169258  0.131136  1
  O  O48  1  0.044222  0.839833  0.590419  1
  O  O49  1  0.044222  0.160167  0.090419  1
  O  O50  1  0.092679  0.455018  0.644237  1
  O  O51  1  0.092679  0.544982  0.144237  1
  O  O52  1  0.115342  0.192761  0.660049  1
  O  O53  1  0.115342  0.807239  0.160049  1
  O  O54  1  0.134658  0.692761  0.839951  1
  O  O55  1  0.134658  0.307239  0.339951  1
  O  O56  1  0.157321  0.955018  0.855763  1
  O  O57  1  0.157321  0.044982  0.355763  1
  O  O58  1  0.205778  0.339833  0.909581  1
  O  O59  1  0.205778  0.660167  0.409581  1
  O  O60  1  0.294856  0.342227  0.590087  1
  O  O61  1  0.294856  0.657773  0.090087  1
  O  O62  1  0.339152  0.952702  0.605421  1
  O  O63  1  0.339152  0.047298  0.105421  1
  O  O64  1  0.364725  0.696600  0.659675  1
  O  O65  1  0.364725  0.303400  0.159675  1
  O  O66  1  0.387104  0.193602  0.838728  1
  O  O67  1  0.406239  0.456607  0.854616  1
  O  O68  1  0.387104  0.806398  0.338728  1
  O  O69  1  0.406239  0.543393  0.354616  1
  O  O70  1  0.454425  0.839991  0.912069  1
  O  O71  1  0.454425  0.160009  0.412069  1
  O  O72  1  0.546081  0.842064  0.588489  1
  O  O73  1  0.546081  0.157936  0.088489  1
  O  O74  1  0.590219  0.454463  0.607357  1
  O  O75  1  0.590219  0.545537  0.107357  1
  O  O76  1  0.612824  0.197066  0.659732  1
  O  O77  1  0.612824  0.802934  0.159732  1
  O  O78  1  0.637176  0.697066  0.840268  1
  O  O79  1  0.637176  0.302934  0.340268  1
  O  O80  1  0.659781  0.954463  0.892643  1
  O  O81  1  0.659781  0.045537  0.392643  1
  O  O82  1  0.703919  0.342064  0.911511  1
  O  O83  1  0.703919  0.657936  0.411511  1
  O  O84  1  0.795575  0.339991  0.587931  1
  O  O85  1  0.795575  0.660009  0.087931  1
  O  O86  1  0.843761  0.956607  0.645384  1
  O  O87  1  0.862896  0.693602  0.661272  1
  O  O88  1  0.843761  0.043393  0.145384  1
  O  O89  1  0.862896  0.306398  0.161272  1
  O  O90  1  0.885275  0.196600  0.840325  1
  O  O91  1  0.885275  0.803400  0.340325  1
  O  O92  1  0.910848  0.452702  0.894579  1
  O  O93  1  0.910848  0.547298  0.394579  1
  O  O94  1  0.955144  0.842227  0.909913  1
  O  O95  1  0.955144  0.157773  0.409913  1
