# generated using pymatgen
data_Li2MnFe(BO3)2
_symmetry_space_group_name_H-M   'P 1'
_cell_length_a   6.02858563
_cell_length_b   5.23351133
_cell_length_c   8.23262645
_cell_angle_alpha   90.60584473
_cell_angle_beta   76.65319104
_cell_angle_gamma   88.91600668
_symmetry_Int_Tables_number   1
_chemical_formula_structural   Li2MnFe(BO3)2
_chemical_formula_sum   'Li4 Mn2 Fe2 B4 O12'
_cell_volume   252.65430487
_cell_formula_units_Z   2
loop_
 _symmetry_equiv_pos_site_id
 _symmetry_equiv_pos_as_xyz
  1  'x, y, z'
loop_
 _atom_site_type_symbol
 _atom_site_label
 _atom_site_symmetry_multiplicity
 _atom_site_fract_x
 _atom_site_fract_y
 _atom_site_fract_z
 _atom_site_occupancy
  Li  Li0  1  0.047533  0.654931  0.278856  1
  Li  Li1  1  0.452467  0.845069  0.221144  1
  Li  Li2  1  0.545927  0.153873  0.780629  1
  Li  Li3  1  0.954073  0.346127  0.719371  1
  Mn  Mn4  1  0.686755  0.331276  0.079425  1
  Mn  Mn5  1  0.813245  0.168724  0.420575  1
  Fe  Fe6  1  0.185899  0.835700  0.582589  1
  Fe  Fe7  1  0.314101  0.664300  0.917411  1
  B  B8  1  0.167773  0.172157  0.091390  1
  B  B9  1  0.332227  0.327843  0.408610  1
  B  B10  1  0.665537  0.671648  0.595244  1
  B  B11  1  0.834463  0.828352  0.904756  1
  O  O12  1  0.183115  0.912025  0.113698  1
  O  O13  1  0.014231  0.679667  0.808744  1
  O  O14  1  0.163799  0.203788  0.523942  1
  O  O15  1  0.316885  0.587975  0.386302  1
  O  O16  1  0.512634  0.182204  0.310582  1
  O  O17  1  0.664582  0.712946  0.021745  1
  O  O18  1  0.336201  0.296212  0.976058  1
  O  O19  1  0.485769  0.820333  0.691256  1
  O  O20  1  0.676445  0.412352  0.622841  1
  O  O21  1  0.835418  0.787054  0.478255  1
  O  O22  1  0.987366  0.317796  0.189418  1
  O  O23  1  0.823555  0.087648  0.877159  1
