# generated using pymatgen
data_Ti2Co12P7
_symmetry_space_group_name_H-M   'P 1'
_cell_length_a   8.86708320
_cell_length_b   8.86457281
_cell_length_c   3.50381566
_cell_angle_alpha   90.00000000
_cell_angle_beta   90.00000000
_cell_angle_gamma   119.97228859
_symmetry_Int_Tables_number   1
_chemical_formula_structural   Ti2Co12P7
_chemical_formula_sum   'Ti2 Co12 P7'
_cell_volume   238.57870686
_cell_formula_units_Z   1
loop_
 _symmetry_equiv_pos_site_id
 _symmetry_equiv_pos_as_xyz
  1  'x, y, z'
loop_
 _atom_site_type_symbol
 _atom_site_label
 _atom_site_symmetry_multiplicity
 _atom_site_fract_x
 _atom_site_fract_y
 _atom_site_fract_z
 _atom_site_occupancy
  Ti  Ti0  1  0.333315  0.666871  0.000000  1
  Ti  Ti1  1  0.666535  0.333132  0.499999  1
  Co  Co2  1  0.438879  0.064576  0.000000  1
  Co  Co3  1  0.935464  0.374229  0.000000  1
  Co  Co4  1  0.625753  0.561274  0.000000  1
  Co  Co5  1  0.387111  0.440408  0.499999  1
  Co  Co6  1  0.559368  0.946599  0.499999  1
  Co  Co7  1  0.053421  0.612985  0.499999  1
  Co  Co8  1  0.161744  0.279156  0.000000  1
  Co  Co9  1  0.720804  0.882375  0.000000  1
  Co  Co10  1  0.117528  0.838344  0.000000  1
  Co  Co11  1  0.225103  0.094139  0.499999  1
  Co  Co12  1  0.905804  0.131046  0.499999  1
  Co  Co13  1  0.869024  0.774856  0.499999  1
  P  P14  1  0.122383  0.411114  0.499999  1
  P  P15  1  0.588927  0.711297  0.499999  1
  P  P16  1  0.288706  0.877850  0.499999  1
  P  P17  1  0.000233  -0.000020  0.000000  1
  P  P18  1  0.414336  0.292197  0.000000  1
  P  P19  1  0.707295  0.121841  0.000000  1
  P  P20  1  0.878270  0.585727  0.000000  1
