# generated using pymatgen
data_Li2VFe(PO4)2
_symmetry_space_group_name_H-M   'P 1'
_cell_length_a   10.45678504
_cell_length_b   6.10454223
_cell_length_c   4.75924536
_cell_angle_alpha   90.00000000
_cell_angle_beta   89.77658886
_cell_angle_gamma   90.00000000
_symmetry_Int_Tables_number   1
_chemical_formula_structural   Li2VFe(PO4)2
_chemical_formula_sum   'Li4 V2 Fe2 P4 O16'
_cell_volume   303.79881569
_cell_formula_units_Z   2
loop_
 _symmetry_equiv_pos_site_id
 _symmetry_equiv_pos_as_xyz
  1  'x, y, z'
loop_
 _atom_site_type_symbol
 _atom_site_label
 _atom_site_symmetry_multiplicity
 _atom_site_fract_x
 _atom_site_fract_y
 _atom_site_fract_z
 _atom_site_occupancy
  Li  Li0  1  0.000000  0.000000  0.000000  1
  Li  Li1  1  0.000000  0.500000  0.000000  1
  Li  Li2  1  0.500000  0.000000  0.500000  1
  Li  Li3  1  0.500000  0.500000  0.500000  1
  V  V4  1  0.224028  0.750000  0.483373  1
  V  V5  1  0.775972  0.250000  0.516627  1
  Fe  Fe6  1  0.277736  0.250000  0.974413  1
  Fe  Fe7  1  0.722264  0.750000  0.025587  1
  P  P8  1  0.091791  0.250000  0.412576  1
  P  P9  1  0.408225  0.750000  0.918659  1
  P  P10  1  0.591775  0.250000  0.081341  1
  P  P11  1  0.908209  0.750000  0.587424  1
  O  O12  1  0.046000  0.750000  0.710265  1
  O  O13  1  0.095175  0.250000  0.735601  1
  O  O14  1  0.162039  0.047772  0.276812  1
  O  O15  1  0.162039  0.452228  0.276812  1
  O  O16  1  0.336708  0.547096  0.786591  1
  O  O17  1  0.336708  0.952904  0.786591  1
  O  O18  1  0.406742  0.750000  0.241278  1
  O  O19  1  0.454695  0.250000  0.208691  1
  O  O20  1  0.545305  0.750000  0.791309  1
  O  O21  1  0.593258  0.250000  0.758722  1
  O  O22  1  0.663292  0.047096  0.213409  1
  O  O23  1  0.663292  0.452904  0.213409  1
  O  O24  1  0.837961  0.547772  0.723188  1
  O  O25  1  0.837961  0.952228  0.723188  1
  O  O26  1  0.904825  0.750000  0.264399  1
  O  O27  1  0.954000  0.250000  0.289735  1
