# generated using pymatgen
data_KNa2Li3Zr2(Si2O5)6
_symmetry_space_group_name_H-M   'P 1'
_cell_length_a   10.46747230
_cell_length_b   10.46820329
_cell_length_c   14.26997026
_cell_angle_alpha   89.99354317
_cell_angle_beta   89.99653569
_cell_angle_gamma   120.00590881
_symmetry_Int_Tables_number   1
_chemical_formula_structural   KNa2Li3Zr2(Si2O5)6
_chemical_formula_sum   'K2 Na4 Li6 Zr4 Si24 O60'
_cell_volume   1354.07213219
_cell_formula_units_Z   2
loop_
 _symmetry_equiv_pos_site_id
 _symmetry_equiv_pos_as_xyz
  1  'x, y, z'
loop_
 _atom_site_type_symbol
 _atom_site_label
 _atom_site_symmetry_multiplicity
 _atom_site_fract_x
 _atom_site_fract_y
 _atom_site_fract_z
 _atom_site_occupancy
  K  K0  1  0.000141  0.000283  0.250049  1
  K  K1  1  0.999741  0.000150  0.749947  1
  Na  Na2  1  0.333091  0.666645  0.001058  1
  Na  Na3  1  0.333444  0.666541  0.498941  1
  Na  Na4  1  0.666585  0.332943  0.997463  1
  Na  Na5  1  0.667085  0.333811  0.502523  1
  Li  Li6  1  0.999676  0.499836  0.249998  1
  Li  Li7  1  0.000232  0.499934  0.750031  1
  Li  Li8  1  0.500158  0.499821  0.250013  1
  Li  Li9  1  0.499555  0.500136  0.749853  1
  Li  Li10  1  0.500214  0.000421  0.250023  1
  Li  Li11  1  0.499797  0.999550  0.750079  1
  Zr  Zr12  1  0.333364  0.666700  0.249984  1
  Zr  Zr13  1  0.333279  0.666675  0.750029  1
  Zr  Zr14  1  0.666681  0.333363  0.249996  1
  Zr  Zr15  1  0.666526  0.333336  0.749991  1
  Si  Si16  1  0.108251  0.762234  0.389005  1
  Si  Si17  1  0.108229  0.762008  0.610615  1
  Si  Si18  1  0.237751  0.891872  0.111023  1
  Si  Si19  1  0.237867  0.891827  0.889397  1
  Si  Si20  1  0.108173  0.345950  0.111054  1
  Si  Si21  1  0.108047  0.346073  0.889489  1
  Si  Si22  1  0.237847  0.345938  0.388970  1
  Si  Si23  1  0.238059  0.346152  0.610582  1
  Si  Si24  1  0.654090  0.891850  0.388944  1
  Si  Si25  1  0.653913  0.891909  0.610507  1
  Si  Si26  1  0.346145  0.237925  0.110934  1
  Si  Si27  1  0.345898  0.237845  0.889363  1
  Si  Si28  1  0.653975  0.762166  0.110988  1
  Si  Si29  1  0.653696  0.761898  0.889434  1
  Si  Si30  1  0.346140  0.108164  0.610709  1
  Si  Si31  1  0.346235  0.108271  0.389129  1
  Si  Si32  1  0.762180  0.653957  0.389058  1
  Si  Si33  1  0.762226  0.654169  0.610677  1
  Si  Si34  1  0.891734  0.653885  0.889270  1
  Si  Si35  1  0.891694  0.653813  0.110856  1
  Si  Si36  1  0.762081  0.108178  0.110942  1
  Si  Si37  1  0.762007  0.108021  0.889361  1
  Si  Si38  1  0.891814  0.237924  0.389059  1
  Si  Si39  1  0.891928  0.237931  0.610642  1
  O  O40  1  0.059994  0.788460  0.130614  1
  O  O41  1  0.059978  0.789008  0.869664  1
  O  O42  1  0.211584  0.940014  0.369400  1
  O  O43  1  0.211000  0.939905  0.630258  1
  O  O44  1  0.130792  0.731054  0.499848  1
  O  O45  1  0.268928  0.869391  0.000178  1
  O  O46  1  0.149096  0.661899  0.325570  1
  O  O47  1  0.149133  0.661655  0.674172  1
  O  O48  1  0.149048  0.487127  0.174540  1
  O  O49  1  0.149087  0.487316  0.825827  1
  O  O50  1  0.060133  0.271545  0.369305  1
  O  O51  1  0.060186  0.270999  0.630255  1
  O  O52  1  0.338099  0.851073  0.174501  1
  O  O53  1  0.338182  0.850806  0.825882  1
  O  O54  1  0.130620  0.399711  0.000233  1
  O  O55  1  0.269170  0.399621  0.499800  1
  O  O56  1  0.512921  0.851002  0.325432  1
  O  O57  1  0.512650  0.850860  0.674160  1
  O  O58  1  0.211526  0.271579  0.130678  1
  O  O59  1  0.210693  0.270854  0.869906  1
  O  O60  1  0.338231  0.487512  0.674080  1
  O  O61  1  0.338198  0.487144  0.325531  1
  O  O62  1  0.512837  0.661823  0.174507  1
  O  O63  1  0.512484  0.661676  0.825801  1
  O  O64  1  0.600237  0.869265  0.499760  1
  O  O65  1  0.270904  0.210755  0.369405  1
  O  O66  1  0.271916  0.211626  0.630500  1
  O  O67  1  0.600051  0.730826  0.000184  1
  O  O68  1  0.728485  0.939896  0.130646  1
  O  O69  1  0.729046  0.939783  0.869814  1
  O  O70  1  0.270841  0.060068  0.130662  1
  O  O71  1  0.271602  0.060148  0.869551  1
  O  O72  1  0.399673  0.268812  0.000076  1
  O  O73  1  0.728594  0.788606  0.369304  1
  O  O74  1  0.729373  0.789466  0.630147  1
  O  O75  1  0.399806  0.130908  0.499976  1
  O  O76  1  0.487435  0.338364  0.174325  1
  O  O77  1  0.487224  0.338426  0.825879  1
  O  O78  1  0.661626  0.512550  0.325771  1
  O  O79  1  0.661572  0.512759  0.674050  1
  O  O80  1  0.789120  0.729016  0.130521  1
  O  O81  1  0.788274  0.728110  0.869587  1
  O  O82  1  0.487572  0.149144  0.325778  1
  O  O83  1  0.487478  0.148944  0.674099  1
  O  O84  1  0.731303  0.600577  0.499943  1
  O  O85  1  0.869161  0.600272  0.000008  1
  O  O86  1  0.661595  0.149086  0.174268  1
  O  O87  1  0.661523  0.148934  0.825965  1
  O  O88  1  0.939989  0.729039  0.369329  1
  O  O89  1  0.939938  0.728301  0.630496  1
  O  O90  1  0.850854  0.512480  0.174208  1
  O  O91  1  0.850823  0.512487  0.825902  1
  O  O92  1  0.850927  0.338398  0.325721  1
  O  O93  1  0.850905  0.338341  0.674032  1
  O  O94  1  0.731002  0.130594  0.000094  1
  O  O95  1  0.869388  0.268975  0.499907  1
  O  O96  1  0.789173  0.060125  0.369344  1
  O  O97  1  0.788555  0.060244  0.630333  1
  O  O98  1  0.939894  0.210883  0.130680  1
  O  O99  1  0.939707  0.211552  0.869605  1
