# generated using pymatgen
data_Li2VH2OF5
_symmetry_space_group_name_H-M   'P 1'
_cell_length_a   5.78609028
_cell_length_b   5.81346354
_cell_length_c   7.84977678
_cell_angle_alpha   85.88239783
_cell_angle_beta   94.69967696
_cell_angle_gamma   112.15882711
_symmetry_Int_Tables_number   1
_chemical_formula_structural   Li2VH2OF5
_chemical_formula_sum   'Li4 V2 H4 O2 F10'
_cell_volume   243.48127453
_cell_formula_units_Z   2
loop_
 _symmetry_equiv_pos_site_id
 _symmetry_equiv_pos_as_xyz
  1  'x, y, z'
loop_
 _atom_site_type_symbol
 _atom_site_label
 _atom_site_symmetry_multiplicity
 _atom_site_fract_x
 _atom_site_fract_y
 _atom_site_fract_z
 _atom_site_occupancy
  Li  Li0  1  0.733106  0.153459  0.556258  1
  Li  Li1  1  0.838642  0.277181  0.050174  1
  Li  Li2  1  0.273603  0.719805  0.999422  1
  Li  Li3  1  0.271474  0.793649  0.466765  1
  V  V4  1  0.773824  0.765355  0.250118  1
  V  V5  1  0.238036  0.228350  0.754001  1
  H  H6  1  0.204828  0.136223  0.159861  1
  H  H7  1  0.128356  0.216019  0.337153  1
  H  H8  1  0.863587  0.797335  0.663582  1
  H  H9  1  0.787554  0.874927  0.838637  1
  O  O10  1  0.069275  0.104833  0.239068  1
  O  O11  1  0.885200  0.939130  0.736102  1
  F  F12  1  0.399665  0.039701  0.631914  1
  F  F13  1  0.298904  0.066362  0.970890  1
  F  F14  1  0.976165  0.602521  0.146178  1
  F  F15  1  0.101651  0.324571  0.530738  1
  F  F16  1  0.482419  0.480098  0.233588  1
  F  F17  1  0.538724  0.501991  0.761243  1
  F  F18  1  0.917659  0.698587  0.472816  1
  F  F19  1  0.078149  0.413748  0.881495  1
  F  F20  1  0.670581  0.897622  0.026668  1
  F  F21  1  0.588793  0.939831  0.365624  1
