# generated using pymatgen
data_KNd(SO4)2
_symmetry_space_group_name_H-M   'P 1'
_cell_length_a   7.04934805
_cell_length_b   5.42806958
_cell_length_c   8.55236665
_cell_angle_alpha   91.61175835
_cell_angle_beta   94.01542883
_cell_angle_gamma   88.50502059
_symmetry_Int_Tables_number   1
_chemical_formula_structural   KNd(SO4)2
_chemical_formula_sum   'K2 Nd2 S4 O16'
_cell_volume   326.22280839
_cell_formula_units_Z   2
loop_
 _symmetry_equiv_pos_site_id
 _symmetry_equiv_pos_as_xyz
  1  'x, y, z'
loop_
 _atom_site_type_symbol
 _atom_site_label
 _atom_site_symmetry_multiplicity
 _atom_site_fract_x
 _atom_site_fract_y
 _atom_site_fract_z
 _atom_site_occupancy
  K  K0  1  0.841999  0.257739  0.814333  1
  K  K1  1  0.158003  0.742265  0.185667  1
  Nd  Nd2  1  0.679541  0.316146  0.297081  1
  Nd  Nd3  1  0.320459  0.683856  0.702919  1
  S  S4  1  0.197212  0.223621  0.454370  1
  S  S5  1  0.802789  0.776379  0.545630  1
  S  S6  1  0.326149  0.239192  0.928586  1
  S  S7  1  0.673852  0.760808  0.071413  1
  O  O8  1  0.457972  0.264433  0.800440  1
  O  O9  1  0.542030  0.735567  0.199560  1
  O  O10  1  0.426541  0.239065  0.085985  1
  O  O11  1  0.573459  0.760934  0.914016  1
  O  O12  1  0.048119  0.210210  0.324252  1
  O  O13  1  0.951880  0.789788  0.675749  1
  O  O14  1  0.192398  0.459547  0.918151  1
  O  O15  1  0.807604  0.540455  0.081849  1
  O  O16  1  0.216770  0.008599  0.900536  1
  O  O17  1  0.783231  0.991403  0.099464  1
  O  O18  1  0.356968  0.382980  0.412689  1
  O  O19  1  0.643032  0.617020  0.587312  1
  O  O20  1  0.725555  0.030994  0.512640  1
  O  O21  1  0.274445  0.969004  0.487360  1
  O  O22  1  0.122262  0.339332  0.597889  1
  O  O23  1  0.877738  0.660669  0.402112  1
