# generated using pymatgen
data_YNb2NO5
_symmetry_space_group_name_H-M   'P 1'
_cell_length_a   14.99130053
_cell_length_b   5.95722417
_cell_length_c   5.27082453
_cell_angle_alpha   89.68926095
_cell_angle_beta   90.00000000
_cell_angle_gamma   90.00000000
_symmetry_Int_Tables_number   1
_chemical_formula_structural   YNb2NO5
_chemical_formula_sum   'Y4 Nb8 N4 O20'
_cell_volume   470.71216816
_cell_formula_units_Z   4
loop_
 _symmetry_equiv_pos_site_id
 _symmetry_equiv_pos_as_xyz
  1  'x, y, z'
loop_
 _atom_site_type_symbol
 _atom_site_label
 _atom_site_symmetry_multiplicity
 _atom_site_fract_x
 _atom_site_fract_y
 _atom_site_fract_z
 _atom_site_occupancy
  Y  Y0  1  0.001781  0.294553  0.264517  1
  Y  Y1  1  0.001906  0.701892  0.745072  1
  Y  Y2  1  0.498094  0.201892  0.745072  1
  Y  Y3  1  0.498219  0.794553  0.264517  1
  Nb  Nb4  1  0.173909  0.184333  0.745601  1
  Nb  Nb5  1  0.167481  0.816732  0.224127  1
  Nb  Nb6  1  0.332519  0.316732  0.224127  1
  Nb  Nb7  1  0.326091  0.684333  0.745601  1
  Nb  Nb8  1  0.663114  0.311632  0.273082  1
  Nb  Nb9  1  0.667954  0.683053  0.773745  1
  Nb  Nb10  1  0.832046  0.183053  0.773745  1
  Nb  Nb11  1  0.836886  0.811632  0.273082  1
  N  N12  1  0.243390  0.881356  0.907359  1
  N  N13  1  0.256610  0.381356  0.907359  1
  N  N14  1  0.582095  0.110023  0.392537  1
  N  N15  1  0.917905  0.610023  0.392537  1
  O  O16  1  0.084468  0.608622  0.102139  1
  O  O17  1  0.083683  0.383509  0.609235  1
  O  O18  1  0.097750  0.085102  0.039077  1
  O  O19  1  0.097682  0.916734  0.525162  1
  O  O20  1  0.244756  0.134223  0.409716  1
  O  O21  1  0.255244  0.634223  0.409716  1
  O  O22  1  0.402318  0.416734  0.525162  1
  O  O23  1  0.402250  0.585102  0.039077  1
  O  O24  1  0.415532  0.108622  0.102139  1
  O  O25  1  0.416317  0.883509  0.609235  1
  O  O26  1  0.582131  0.881096  0.896561  1
  O  O27  1  0.599230  0.414832  0.955637  1
  O  O28  1  0.602475  0.587958  0.460692  1
  O  O29  1  0.744265  0.368197  0.596681  1
  O  O30  1  0.745334  0.636153  0.079060  1
  O  O31  1  0.754666  0.136153  0.079060  1
  O  O32  1  0.755735  0.868197  0.596681  1
  O  O33  1  0.897525  0.087958  0.460692  1
  O  O34  1  0.900770  0.914832  0.955637  1
  O  O35  1  0.917869  0.381096  0.896561  1
