# generated using pymatgen
data_Li2Si3NiO8
_symmetry_space_group_name_H-M   'P 1'
_cell_length_a   6.77956019
_cell_length_b   10.07986445
_cell_length_c   4.93573740
_cell_angle_alpha   90.00000000
_cell_angle_beta   89.42279743
_cell_angle_gamma   90.00000000
_symmetry_Int_Tables_number   1
_chemical_formula_structural   Li2Si3NiO8
_chemical_formula_sum   'Li4 Si6 Ni2 O16'
_cell_volume   337.27660720
_cell_formula_units_Z   2
loop_
 _symmetry_equiv_pos_site_id
 _symmetry_equiv_pos_as_xyz
  1  'x, y, z'
loop_
 _atom_site_type_symbol
 _atom_site_label
 _atom_site_symmetry_multiplicity
 _atom_site_fract_x
 _atom_site_fract_y
 _atom_site_fract_z
 _atom_site_occupancy
  Li  Li0  1  0.999429  0.146731  0.179955  1
  Li  Li1  1  0.500571  0.646731  0.320045  1
  Li  Li2  1  0.486092  0.341302  0.657904  1
  Li  Li3  1  0.013908  0.841302  0.842096  1
  Si  Si4  1  0.975926  0.336330  0.693425  1
  Si  Si5  1  0.269498  0.912368  0.301522  1
  Si  Si6  1  0.230502  0.412368  0.198478  1
  Si  Si7  1  0.524074  0.836330  0.806575  1
  Si  Si8  1  0.776903  0.594247  0.845611  1
  Si  Si9  1  0.723097  0.094247  0.654389  1
  Ni  Ni10  1  0.498245  0.161226  0.170718  1
  Ni  Ni11  1  0.001755  0.661226  0.329282  1
  O  O12  1  0.063451  0.842301  0.230812  1
  O  O13  1  0.042846  0.339226  0.372386  1
  O  O14  1  0.331961  0.879013  0.624210  1
  O  O15  1  0.248039  0.567843  0.262617  1
  O  O16  1  0.168039  0.379013  0.875790  1
  O  O17  1  0.251961  0.067843  0.237383  1
  O  O18  1  0.457154  0.839226  0.127614  1
  O  O19  1  0.436549  0.342301  0.269188  1
  O  O20  1  0.581162  0.680979  0.719625  1
  O  O21  1  0.527071  0.164979  0.772715  1
  O  O22  1  0.721637  0.933900  0.761707  1
  O  O23  1  0.750622  0.599554  0.168978  1
  O  O24  1  0.778363  0.433900  0.738293  1
  O  O25  1  0.749378  0.099554  0.331022  1
  O  O26  1  0.972929  0.664979  0.727285  1
  O  O27  1  0.918838  0.180979  0.780375  1
