# generated using pymatgen
data_Li4Co3NiO8
_symmetry_space_group_name_H-M   'P 1'
_cell_length_a   5.71210772
_cell_length_b   5.71200246
_cell_length_c   5.77053204
_cell_angle_alpha   60.36004946
_cell_angle_beta   60.35868411
_cell_angle_gamma   59.95799220
_symmetry_Int_Tables_number   1
_chemical_formula_structural   Li4Co3NiO8
_chemical_formula_sum   'Li4 Co3 Ni1 O8'
_cell_volume   133.80855185
_cell_formula_units_Z   1
loop_
 _symmetry_equiv_pos_site_id
 _symmetry_equiv_pos_as_xyz
  1  'x, y, z'
loop_
 _atom_site_type_symbol
 _atom_site_label
 _atom_site_symmetry_multiplicity
 _atom_site_fract_x
 _atom_site_fract_y
 _atom_site_fract_z
 _atom_site_occupancy
  Li  Li0  1  0.000000  0.500002  0.499999  1
  Li  Li1  1  0.999995  0.000004  0.500000  1
  Li  Li2  1  0.500000  0.500000  0.499998  1
  Li  Li3  1  0.500003  0.999998  0.499998  1
  Co  Co4  1  0.000001  0.500003  -0.000003  1
  Co  Co5  1  0.499999  0.500002  -0.000002  1
  Co  Co6  1  0.500002  -0.000001  0.999999  1
  Ni  Ni7  1  0.999990  -0.000002  0.000019  1
  O  O8  1  0.244268  0.730479  0.779931  1
  O  O9  1  0.269530  0.755730  0.220086  1
  O  O10  1  0.260945  0.260959  0.217373  1
  O  O11  1  0.753845  0.753864  0.221536  1
  O  O12  1  0.246156  0.246138  0.778460  1
  O  O13  1  0.739056  0.739040  0.782627  1
  O  O14  1  0.730471  0.244269  0.779910  1
  O  O15  1  0.755731  0.269521  0.220071  1
