# generated using pymatgen
data_Al(Ni3B2)4
_symmetry_space_group_name_H-M   'P 1'
_cell_length_a   8.96885403
_cell_length_b   8.96885403
_cell_length_c   14.55772270
_cell_angle_alpha   90.00000000
_cell_angle_beta   90.00000000
_cell_angle_gamma   72.03715023
_symmetry_Int_Tables_number   1
_chemical_formula_structural   Al(Ni3B2)4
_chemical_formula_sum   'Al6 Ni72 B48'
_cell_volume   1113.94840041
_cell_formula_units_Z   6
loop_
 _symmetry_equiv_pos_site_id
 _symmetry_equiv_pos_as_xyz
  1  'x, y, z'
loop_
 _atom_site_type_symbol
 _atom_site_label
 _atom_site_symmetry_multiplicity
 _atom_site_fract_x
 _atom_site_fract_y
 _atom_site_fract_z
 _atom_site_occupancy
  Al  Al0  1  0.000000  0.000000  0.000000  1
  Al  Al1  1  0.500000  0.500000  0.500001  1
  Al  Al2  1  0.232888  0.232888  0.260560  1
  Al  Al3  1  0.267111  0.267111  0.760561  1
  Al  Al4  1  0.767111  0.767111  0.739440  1
  Al  Al5  1  0.732889  0.732889  0.239439  1
  Ni  Ni6  1  0.074663  0.074663  0.421905  1
  Ni  Ni7  1  0.425338  0.425338  0.921906  1
  Ni  Ni8  1  0.925338  0.925338  0.578095  1
  Ni  Ni9  1  0.574663  0.574663  0.078095  1
  Ni  Ni10  1  0.862921  0.862921  0.125059  1
  Ni  Ni11  1  0.637079  0.637079  0.625059  1
  Ni  Ni12  1  0.137079  0.137079  0.874940  1
  Ni  Ni13  1  0.362920  0.362920  0.374941  1
  Ni  Ni14  1  0.117719  0.117719  0.130793  1
  Ni  Ni15  1  0.382280  0.382280  0.630792  1
  Ni  Ni16  1  0.882280  0.882280  0.869208  1
  Ni  Ni17  1  0.617719  0.617719  0.369208  1
  Ni  Ni18  1  0.485193  0.985192  0.250000  1
  Ni  Ni19  1  0.014807  0.514807  0.750000  1
  Ni  Ni20  1  0.514807  0.014807  0.750000  1
  Ni  Ni21  1  0.985192  0.485193  0.250000  1
  Ni  Ni22  1  0.200357  0.534567  0.497799  1
  Ni  Ni23  1  0.299643  0.965434  0.997799  1
  Ni  Ni24  1  0.465433  0.799643  0.502200  1
  Ni  Ni25  1  0.034567  0.700357  0.002201  1
  Ni  Ni26  1  0.799643  0.465433  0.502200  1
  Ni  Ni27  1  0.700357  0.034567  0.002201  1
  Ni  Ni28  1  0.534567  0.200357  0.497799  1
  Ni  Ni29  1  0.965434  0.299643  0.997799  1
  Ni  Ni30  1  0.157840  0.824481  0.132066  1
  Ni  Ni31  1  0.342160  0.675520  0.632067  1
  Ni  Ni32  1  0.175520  0.842160  0.867933  1
  Ni  Ni33  1  0.324481  0.657840  0.367933  1
  Ni  Ni34  1  0.842160  0.175520  0.867933  1
  Ni  Ni35  1  0.657840  0.324481  0.367933  1
  Ni  Ni36  1  0.824481  0.157840  0.132066  1
  Ni  Ni37  1  0.675520  0.342160  0.632067  1
  Ni  Ni38  1  0.022464  0.752770  0.267632  1
  Ni  Ni39  1  0.477536  0.747230  0.767632  1
  Ni  Ni40  1  0.247230  0.977536  0.732368  1
  Ni  Ni41  1  0.252770  0.522464  0.232367  1
  Ni  Ni42  1  0.977536  0.247230  0.732368  1
  Ni  Ni43  1  0.522464  0.252770  0.232367  1
  Ni  Ni44  1  0.752770  0.022464  0.267632  1
  Ni  Ni45  1  0.747230  0.477536  0.767632  1
  Ni  Ni46  1  0.061963  0.798552  0.434060  1
  Ni  Ni47  1  0.438036  0.701447  0.934060  1
  Ni  Ni48  1  0.201447  0.938036  0.565940  1
  Ni  Ni49  1  0.298552  0.561963  0.065939  1
  Ni  Ni50  1  0.938036  0.201447  0.565940  1
  Ni  Ni51  1  0.561963  0.298552  0.065939  1
  Ni  Ni52  1  0.798552  0.061963  0.434060  1
  Ni  Ni53  1  0.701447  0.438036  0.934060  1
  Ni  Ni54  1  0.212448  0.950433  0.279843  1
  Ni  Ni55  1  0.287550  0.549567  0.779843  1
  Ni  Ni56  1  0.049566  0.787551  0.720157  1
  Ni  Ni57  1  0.450432  0.712450  0.220157  1
  Ni  Ni58  1  0.787551  0.049566  0.720157  1
  Ni  Ni59  1  0.712450  0.450432  0.220157  1
  Ni  Ni60  1  0.950433  0.212448  0.279843  1
  Ni  Ni61  1  0.549567  0.287550  0.779843  1
  Ni  Ni62  1  0.349583  0.082971  0.412097  1
  Ni  Ni63  1  0.150417  0.417029  0.912096  1
  Ni  Ni64  1  0.917029  0.650417  0.587903  1
  Ni  Ni65  1  0.582971  0.849583  0.087903  1
  Ni  Ni66  1  0.650417  0.917029  0.587903  1
  Ni  Ni67  1  0.849583  0.582971  0.087903  1
  Ni  Ni68  1  0.082971  0.349583  0.412097  1
  Ni  Ni69  1  0.417029  0.150417  0.912096  1
  Ni  Ni70  1  0.896218  0.629875  0.396120  1
  Ni  Ni71  1  0.603781  0.870125  0.896120  1
  Ni  Ni72  1  0.370124  0.103781  0.603879  1
  Ni  Ni73  1  0.129876  0.396219  0.103880  1
  Ni  Ni74  1  0.103781  0.370124  0.603879  1
  Ni  Ni75  1  0.396219  0.129876  0.103880  1
  Ni  Ni76  1  0.629875  0.896218  0.396120  1
  Ni  Ni77  1  0.870125  0.603781  0.896120  1
  B  B78  1  0.826199  0.826199  0.481681  1
  B  B79  1  0.673801  0.673801  0.981681  1
  B  B80  1  0.173801  0.173801  0.518319  1
  B  B81  1  0.326199  0.326199  0.018319  1
  B  B82  1  0.705015  0.705015  0.498060  1
  B  B83  1  0.794984  0.794984  0.998060  1
  B  B84  1  0.294984  0.294984  0.501940  1
  B  B85  1  0.205015  0.205015  0.001940  1
  B  B86  1  0.727130  0.272869  0.500001  1
  B  B87  1  0.772868  0.227131  0.000000  1
  B  B88  1  0.272869  0.727130  0.500001  1
  B  B89  1  0.227131  0.772868  0.000000  1
  B  B90  1  0.265659  0.883644  0.421159  1
  B  B91  1  0.234341  0.616355  0.921160  1
  B  B92  1  0.116355  0.734340  0.578841  1
  B  B93  1  0.383645  0.765658  0.078841  1
  B  B94  1  0.734340  0.116355  0.578841  1
  B  B95  1  0.765658  0.383645  0.078841  1
  B  B96  1  0.883644  0.265659  0.421159  1
  B  B97  1  0.616355  0.234341  0.921160  1
  B  B98  1  0.990091  0.990091  0.205603  1
  B  B99  1  0.509909  0.509909  0.705603  1
  B  B100  1  0.009909  0.009909  0.794397  1
  B  B101  1  0.490091  0.490091  0.294398  1
  B  B102  1  0.974903  0.974903  0.326414  1
  B  B103  1  0.525098  0.525098  0.826414  1
  B  B104  1  0.025097  0.025097  0.673587  1
  B  B105  1  0.474902  0.474902  0.173586  1
  B  B106  1  0.856239  0.856239  0.361140  1
  B  B107  1  0.643760  0.643760  0.861140  1
  B  B108  1  0.143760  0.143760  0.638861  1
  B  B109  1  0.356239  0.356239  0.138860  1
  B  B110  1  0.339511  0.935597  0.151995  1
  B  B111  1  0.160490  0.564402  0.651995  1
  B  B112  1  0.064403  0.660489  0.848005  1
  B  B113  1  0.435598  0.839510  0.348006  1
  B  B114  1  0.660489  0.064403  0.848005  1
  B  B115  1  0.839510  0.435598  0.348006  1
  B  B116  1  0.935597  0.339511  0.151995  1
  B  B117  1  0.564402  0.160490  0.651995  1
  B  B118  1  0.134712  0.553908  0.357365  1
  B  B119  1  0.365288  0.946092  0.857365  1
  B  B120  1  0.446091  0.865288  0.642635  1
  B  B121  1  0.053908  0.634712  0.142635  1
  B  B122  1  0.865288  0.446091  0.642635  1
  B  B123  1  0.634712  0.053908  0.142635  1
  B  B124  1  0.553908  0.134712  0.357365  1
  B  B125  1  0.946092  0.365288  0.857365  1
