# generated using pymatgen
data_LiFeP2O7
_symmetry_space_group_name_H-M   'P 1'
_cell_length_a   9.73147099
_cell_length_b   9.78538150
_cell_length_c   11.14188721
_cell_angle_alpha   90.06032861
_cell_angle_beta   101.85303080
_cell_angle_gamma   90.23802220
_symmetry_Int_Tables_number   1
_chemical_formula_structural   LiFeP2O7
_chemical_formula_sum   'Li8 Fe8 P16 O56'
_cell_volume   1038.36521623
_cell_formula_units_Z   8
loop_
 _symmetry_equiv_pos_site_id
 _symmetry_equiv_pos_as_xyz
  1  'x, y, z'
loop_
 _atom_site_type_symbol
 _atom_site_label
 _atom_site_symmetry_multiplicity
 _atom_site_fract_x
 _atom_site_fract_y
 _atom_site_fract_z
 _atom_site_occupancy
  Li  Li0  1  0.094418  0.106029  0.028215  1
  Li  Li1  1  0.418906  0.599754  0.980670  1
  Li  Li2  1  0.393918  0.963822  0.502954  1
  Li  Li3  1  0.850752  0.591494  0.951595  1
  Li  Li4  1  0.647167  0.112167  0.045579  1
  Li  Li5  1  0.906926  0.889880  0.969229  1
  Li  Li6  1  0.856302  0.576797  0.478158  1
  Li  Li7  1  0.881854  0.282103  0.544543  1
  Fe  Fe8  1  0.202728  0.914842  0.672695  1
  Fe  Fe9  1  0.249072  0.211813  0.825420  1
  Fe  Fe10  1  0.256023  0.704533  0.178116  1
  Fe  Fe11  1  0.292560  0.415145  0.336027  1
  Fe  Fe12  1  0.698678  0.584584  0.671391  1
  Fe  Fe13  1  0.740931  0.294230  0.824672  1
  Fe  Fe14  1  0.743807  0.774809  0.174558  1
  Fe  Fe15  1  0.791876  0.070239  0.332825  1
  P  P16  1  0.016711  0.449941  0.749606  1
  P  P17  1  0.117654  0.707921  0.885456  1
  P  P18  1  0.058597  0.920029  0.233257  1
  P  P19  1  0.124081  0.140549  0.425368  1
  P  P20  1  0.371928  0.643169  0.571954  1
  P  P21  1  0.428563  0.422738  0.762872  1
  P  P22  1  0.518422  0.048861  0.747712  1
  P  P23  1  0.385903  0.214434  0.118232  1
  P  P24  1  0.608543  0.787829  0.881929  1
  P  P25  1  0.474237  0.945669  0.245576  1
  P  P26  1  0.573000  0.584659  0.244246  1
  P  P27  1  0.623970  0.356595  0.418712  1
  P  P28  1  0.873220  0.858249  0.573662  1
  P  P29  1  0.934666  0.077847  0.762331  1
  P  P30  1  0.891255  0.284420  0.119429  1
  P  P31  1  0.978559  0.552231  0.242535  1
  O  O32  1  0.001966  0.431038  0.614396  1
  O  O33  1  0.028905  0.847999  0.571350  1
  O  O34  1  0.086276  0.085609  0.735416  1
  O  O35  1  0.106469  0.586650  0.786086  1
  O  O36  1  0.096501  0.339526  0.833786  1
  O  O37  1  0.177358  0.827675  0.824609  1
  O  O38  1  0.221706  0.657931  0.002863  1
  O  O39  1  0.036022  0.253138  0.105943  1
  O  O40  1  0.120150  0.058173  0.299033  1
  O  O41  1  0.059784  0.934958  0.099228  1
  O  O42  1  0.131724  0.533994  0.220203  1
  O  O43  1  0.182485  0.280848  0.403248  1
  O  O44  1  0.158333  0.804018  0.287558  1
  O  O45  1  0.214021  0.056416  0.526763  1
  O  O46  1  0.290845  0.569132  0.460314  1
  O  O47  1  0.341383  0.297998  0.705782  1
  O  O48  1  0.318692  0.787075  0.594936  1
  O  O49  1  0.367874  0.032328  0.778478  1
  O  O50  1  0.359711  0.555194  0.691948  1
  O  O51  1  0.419691  0.433645  0.895126  1
  O  O52  1  0.465106  0.750728  0.895516  1
  O  O53  1  0.278609  0.168858  0.998142  1
  O  O54  1  0.323339  0.327676  0.184607  1
  O  O55  1  0.389113  0.084940  0.209964  1
  O  O56  1  0.417671  0.586526  0.259576  1
  O  O57  1  0.396195  0.838502  0.153988  1
  O  O58  1  0.472820  0.347019  0.432451  1
  O  O59  1  0.520835  0.072933  0.617068  1
  O  O60  1  0.475893  0.917279  0.376202  1
  O  O61  1  0.530431  0.652876  0.574297  1
  O  O62  1  0.605279  0.150469  0.843589  1
  O  O63  1  0.584676  0.417380  0.739770  1
  O  O64  1  0.602256  0.907035  0.783231  1
  O  O65  1  0.691211  0.673189  0.831030  1
  O  O66  1  0.709688  0.844749  0.001661  1
  O  O67  1  0.528399  0.237715  0.094173  1
  O  O68  1  0.590124  0.606643  0.112318  1
  O  O69  1  0.628932  0.437474  0.292194  1
  O  O70  1  0.626886  0.964591  0.215467  1
  O  O71  1  0.694364  0.219577  0.403951  1
  O  O72  1  0.674934  0.691439  0.317331  1
  O  O73  1  0.718954  0.439292  0.522461  1
  O  O74  1  0.788082  0.932967  0.464237  1
  O  O75  1  0.842937  0.201361  0.707406  1
  O  O76  1  0.815909  0.715378  0.596711  1
  O  O77  1  0.866912  0.471544  0.786020  1
  O  O78  1  0.930813  0.063904  0.895915  1
  O  O79  1  0.861634  0.944576  0.695207  1
  O  O80  1  0.973323  0.729727  0.909314  1
  O  O81  1  0.796331  0.336547  0.995614  1
  O  O82  1  0.812015  0.168990  0.172745  1
  O  O83  1  0.894775  0.647781  0.140054  1
  O  O84  1  0.896676  0.407735  0.215629  1
  O  O85  1  0.905569  0.905547  0.257989  1
  O  O86  1  0.968876  0.152882  0.437138  1
  O  O87  1  0.969175  0.591726  0.368693  1
