# generated using pymatgen
data_Na2Li2CoO4
_symmetry_space_group_name_H-M   'P 1'
_cell_length_a   8.31292919
_cell_length_b   8.00536909
_cell_length_c   6.58529321
_cell_angle_alpha   90.29692259
_cell_angle_beta   88.87040438
_cell_angle_gamma   90.13391111
_symmetry_Int_Tables_number   1
_chemical_formula_structural   Na2Li2CoO4
_chemical_formula_sum   'Na8 Li8 Co4 O16'
_cell_volume   438.14638512
_cell_formula_units_Z   4
loop_
 _symmetry_equiv_pos_site_id
 _symmetry_equiv_pos_as_xyz
  1  'x, y, z'
loop_
 _atom_site_type_symbol
 _atom_site_label
 _atom_site_symmetry_multiplicity
 _atom_site_fract_x
 _atom_site_fract_y
 _atom_site_fract_z
 _atom_site_occupancy
  Na  Na0  1  0.031542  0.510534  0.265267  1
  Na  Na1  1  0.008344  0.506836  0.736659  1
  Na  Na2  1  0.243444  0.211018  0.466909  1
  Na  Na3  1  0.234042  0.780634  0.026901  1
  Na  Na4  1  0.488829  0.001061  0.757378  1
  Na  Na5  1  0.501810  0.998705  0.243391  1
  Na  Na6  1  0.767191  0.258996  0.006193  1
  Na  Na7  1  0.749837  0.758289  0.491413  1
  Li  Li8  1  0.349525  0.485413  0.746631  1
  Li  Li9  1  0.411322  0.293827  0.021449  1
  Li  Li10  1  0.579617  0.731907  0.998704  1
  Li  Li11  1  0.630455  0.512242  0.247868  1
  Li  Li12  1  0.649193  0.516073  0.751883  1
  Li  Li13  1  0.875416  0.010647  0.250135  1
  Li  Li14  1  0.871018  0.009010  0.747933  1
  Li  Li15  1  0.919087  0.237288  0.499575  1
  Co  Co16  1  0.125856  0.219711  0.992324  1
  Co  Co17  1  0.367453  0.720251  0.496381  1
  Co  Co18  1  0.629633  0.270860  0.504201  1
  Co  Co19  1  0.860276  0.765064  0.998104  1
  O  O20  1  0.004545  0.213875  0.226689  1
  O  O21  1  0.002570  0.208139  0.768323  1
  O  O22  1  0.214483  0.428566  0.982627  1
  O  O23  1  0.228647  0.546535  0.512309  1
  O  O24  1  0.291178  0.077105  0.006313  1
  O  O25  1  0.309564  0.931137  0.499630  1
  O  O26  1  0.499146  0.708604  0.269646  1
  O  O27  1  0.485247  0.693527  0.737386  1
  O  O28  1  0.531011  0.287656  0.267280  1
  O  O29  1  0.516711  0.303316  0.738636  1
  O  O30  1  0.735468  0.072483  0.505543  1
  O  O31  1  0.731742  0.956826  0.003070  1
  O  O32  1  0.774056  0.442266  0.502081  1
  O  O33  1  0.765660  0.554309  0.000381  1
  O  O34  1  0.945900  0.781150  0.234865  1
  O  O35  1  0.930502  0.778314  0.751681  1
