# generated using pymatgen
data_Cu5Sn4
_symmetry_space_group_name_H-M   'P 1'
_cell_length_a   7.32459806
_cell_length_b   10.03382545
_cell_length_c   9.98812276
_cell_angle_alpha   118.01966079
_cell_angle_beta   90.00000000
_cell_angle_gamma   90.00000000
_symmetry_Int_Tables_number   1
_chemical_formula_structural   Cu5Sn4
_chemical_formula_sum   'Cu20 Sn16'
_cell_volume   648.02217318
_cell_formula_units_Z   4
loop_
 _symmetry_equiv_pos_site_id
 _symmetry_equiv_pos_as_xyz
  1  'x, y, z'
loop_
 _atom_site_type_symbol
 _atom_site_label
 _atom_site_symmetry_multiplicity
 _atom_site_fract_x
 _atom_site_fract_y
 _atom_site_fract_z
 _atom_site_occupancy
  Cu  Cu0  1  0.776701  0.944396  0.056856  1
  Cu  Cu1  1  0.276701  0.055604  0.443144  1
  Cu  Cu2  1  0.223299  0.055604  0.943144  1
  Cu  Cu3  1  0.723299  0.944396  0.556856  1
  Cu  Cu4  1  0.255963  0.810197  0.186596  1
  Cu  Cu5  1  0.755963  0.189803  0.313404  1
  Cu  Cu6  1  0.744037  0.189803  0.813404  1
  Cu  Cu7  1  0.244037  0.810197  0.686596  1
  Cu  Cu8  1  0.723218  0.683742  0.316349  1
  Cu  Cu9  1  0.223218  0.316258  0.183651  1
  Cu  Cu10  1  0.276782  0.316258  0.683651  1
  Cu  Cu11  1  0.776782  0.683742  0.816349  1
  Cu  Cu12  1  0.242839  0.570411  0.431420  1
  Cu  Cu13  1  0.742839  0.429589  0.068580  1
  Cu  Cu14  1  0.757161  0.429589  0.568580  1
  Cu  Cu15  1  0.257161  0.570411  0.931420  1
  Cu  Cu16  1  0.089228  0.808925  0.937843  1
  Cu  Cu17  1  0.589228  0.191075  0.562157  1
  Cu  Cu18  1  0.910772  0.191075  0.062157  1
  Cu  Cu19  1  0.410772  0.808925  0.437843  1
  Sn  Sn20  1  0.599474  0.929247  0.284378  1
  Sn  Sn21  1  0.099474  0.070753  0.215622  1
  Sn  Sn22  1  0.400526  0.070753  0.715622  1
  Sn  Sn23  1  0.900526  0.929247  0.784378  1
  Sn  Sn24  1  0.051505  0.816629  0.435317  1
  Sn  Sn25  1  0.551505  0.183371  0.064683  1
  Sn  Sn26  1  0.948495  0.183371  0.564683  1
  Sn  Sn27  1  0.448495  0.816629  0.935317  1
  Sn  Sn28  1  0.586833  0.676434  0.577335  1
  Sn  Sn29  1  0.086833  0.323566  0.922665  1
  Sn  Sn30  1  0.413167  0.323566  0.422665  1
  Sn  Sn31  1  0.913167  0.676434  0.077335  1
  Sn  Sn32  1  0.097587  0.544047  0.668746  1
  Sn  Sn33  1  0.597587  0.455953  0.831254  1
  Sn  Sn34  1  0.902413  0.455953  0.331254  1
  Sn  Sn35  1  0.402413  0.544047  0.168746  1
