# generated using pymatgen
data_Yb2Ni12As7
_symmetry_space_group_name_H-M   'P 1'
_cell_length_a   9.35881844
_cell_length_b   9.36227206
_cell_length_c   3.79663445
_cell_angle_alpha   90.00000000
_cell_angle_beta   90.00000000
_cell_angle_gamma   120.01622651
_symmetry_Int_Tables_number   1
_chemical_formula_structural   Yb2Ni12As7
_chemical_formula_sum   'Yb2 Ni12 As7'
_cell_volume   288.04521196
_cell_formula_units_Z   1
loop_
 _symmetry_equiv_pos_site_id
 _symmetry_equiv_pos_as_xyz
  1  'x, y, z'
loop_
 _atom_site_type_symbol
 _atom_site_label
 _atom_site_symmetry_multiplicity
 _atom_site_fract_x
 _atom_site_fract_y
 _atom_site_fract_z
 _atom_site_occupancy
  Yb  Yb0  1  0.333289  0.666663  0.000000  1
  Yb  Yb1  1  0.666532  0.333091  0.500000  1
  Ni  Ni2  1  0.374628  0.424233  0.500000  1
  Ni  Ni3  1  0.575702  0.950054  0.500000  1
  Ni  Ni4  1  0.049349  0.625269  0.500000  1
  Ni  Ni5  1  0.440029  0.054861  0.000000  1
  Ni  Ni6  1  0.944941  0.385125  0.000000  1
  Ni  Ni7  1  0.614710  0.559865  0.000000  1
  Ni  Ni8  1  0.212881  0.095949  0.500000  1
  Ni  Ni9  1  0.903987  0.116975  0.500000  1
  Ni  Ni10  1  0.883130  0.787273  0.500000  1
  Ni  Ni11  1  0.152069  0.280890  0.000000  1
  Ni  Ni12  1  0.720019  0.871421  0.000000  1
  Ni  Ni13  1  0.128517  0.848146  0.000000  1
  As  As14  1  0.000526  0.000521  0.000000  1
  As  As15  1  0.109507  0.409632  0.500000  1
  As  As16  1  0.590471  0.700000  0.500000  1
  As  As17  1  0.299909  0.890361  0.500000  1
  As  As18  1  0.403925  0.284165  0.000000  1
  As  As19  1  0.715733  0.119464  0.000000  1
  As  As20  1  0.880148  0.596047  0.000000  1
