# generated using pymatgen
data_CaSnS3
_symmetry_space_group_name_H-M   'P 1'
_cell_length_a   7.00881486
_cell_length_b   6.96537776
_cell_length_c   6.95391940
_cell_angle_alpha   59.31933880
_cell_angle_beta   59.73851737
_cell_angle_gamma   59.79349473
_symmetry_Int_Tables_number   1
_chemical_formula_structural   CaSnS3
_chemical_formula_sum   'Ca2 Sn2 S6'
_cell_volume   237.95256002
_cell_formula_units_Z   2
loop_
 _symmetry_equiv_pos_site_id
 _symmetry_equiv_pos_as_xyz
  1  'x, y, z'
loop_
 _atom_site_type_symbol
 _atom_site_label
 _atom_site_symmetry_multiplicity
 _atom_site_fract_x
 _atom_site_fract_y
 _atom_site_fract_z
 _atom_site_occupancy
  Ca  Ca0  1  0.716368  0.218504  0.279667  1
  Ca  Ca1  1  0.214539  0.781496  0.720333  1
  Sn  Sn2  1  0.492396  0.000000  0.000000  1
  Sn  Sn3  1  0.992741  0.500000  0.500000  1
  S  S4  1  0.306487  0.375985  0.123977  1
  S  S5  1  0.806449  0.624015  0.876023  1
  S  S6  1  0.315473  0.162811  0.683988  1
  S  S7  1  0.162272  0.837189  0.316012  1
  S  S8  1  0.662423  0.815178  0.337251  1
  S  S9  1  0.814852  0.184822  0.662749  1
