# generated using pymatgen
data_YbB2C
_symmetry_space_group_name_H-M   'P 1'
_cell_length_a   6.73912182
_cell_length_b   6.73910810
_cell_length_c   7.64514551
_cell_angle_alpha   90.00005250
_cell_angle_beta   89.99987372
_cell_angle_gamma   90.00004914
_symmetry_Int_Tables_number   1
_chemical_formula_structural   YbB2C
_chemical_formula_sum   'Yb8 B16 C8'
_cell_volume   347.20940898
_cell_formula_units_Z   8
loop_
 _symmetry_equiv_pos_site_id
 _symmetry_equiv_pos_as_xyz
  1  'x, y, z'
loop_
 _atom_site_type_symbol
 _atom_site_label
 _atom_site_symmetry_multiplicity
 _atom_site_fract_x
 _atom_site_fract_y
 _atom_site_fract_z
 _atom_site_occupancy
  Yb  Yb0  1  0.314825  0.814824  0.250001  1
  Yb  Yb1  1  0.685176  0.185178  0.249999  1
  Yb  Yb2  1  0.814825  0.685176  0.750003  1
  Yb  Yb3  1  0.185176  0.314823  0.750001  1
  Yb  Yb4  1  0.685176  0.185177  0.750000  1
  Yb  Yb5  1  0.314822  0.814822  0.750000  1
  Yb  Yb6  1  0.185174  0.314825  0.250000  1
  Yb  Yb7  1  0.814824  0.685177  0.250001  1
  B  B8  1  0.404670  0.097155  0.000000  1
  B  B9  1  0.595329  0.902844  0.000001  1
  B  B10  1  0.904671  0.402846  0.000000  1
  B  B11  1  0.095330  0.597152  0.999999  1
  B  B12  1  0.902845  0.404673  0.500000  1
  B  B13  1  0.097156  0.595329  0.500000  1
  B  B14  1  0.597154  0.904670  0.500000  1
  B  B15  1  0.402846  0.095329  0.499999  1
  B  B16  1  0.149912  0.035056  0.000000  1
  B  B17  1  0.850087  0.964942  0.000000  1
  B  B18  1  0.649914  0.464944  0.000000  1
  B  B19  1  0.350088  0.535056  -0.000000  1
  B  B20  1  0.464944  0.350087  0.500000  1
  B  B21  1  0.535057  0.649913  0.500000  1
  B  B22  1  0.035055  0.850089  0.500000  1
  B  B23  1  0.964944  0.149913  0.500001  1
  C  C24  1  0.459001  0.322642  0.000001  1
  C  C25  1  0.541000  0.677355  -0.000001  1
  C  C26  1  0.959000  0.177353  0.000002  1
  C  C27  1  0.040998  0.822646  -0.000001  1
  C  C28  1  0.177355  0.040999  0.499999  1
  C  C29  1  0.822645  0.959003  0.500001  1
  C  C30  1  0.322642  0.541000  0.500000  1
  C  C31  1  0.677357  0.459000  0.499999  1
