# generated using pymatgen
data_H12PtC6(N3O4)2
_symmetry_space_group_name_H-M   'P 1'
_cell_length_a   3.62186513
_cell_length_b   14.94923201
_cell_length_c   12.43221692
_cell_angle_alpha   90.00000000
_cell_angle_beta   94.96215404
_cell_angle_gamma   90.00000000
_symmetry_Int_Tables_number   1
_chemical_formula_structural   H12PtC6(N3O4)2
_chemical_formula_sum   'H24 Pt2 C12 N12 O16'
_cell_volume   670.60836043
_cell_formula_units_Z   2
loop_
 _symmetry_equiv_pos_site_id
 _symmetry_equiv_pos_as_xyz
  1  'x, y, z'
loop_
 _atom_site_type_symbol
 _atom_site_label
 _atom_site_symmetry_multiplicity
 _atom_site_fract_x
 _atom_site_fract_y
 _atom_site_fract_z
 _atom_site_occupancy
  H  H0  1  0.357325  0.563285  0.947132  1
  H  H1  1  0.238165  0.909732  0.578439  1
  H  H2  1  0.309329  0.764230  0.638927  1
  H  H3  1  0.361805  0.281510  0.616102  1
  H  H4  1  0.357325  0.936715  0.447132  1
  H  H5  1  0.238165  0.590268  0.078439  1
  H  H6  1  0.410125  0.169050  0.660235  1
  H  H7  1  0.522063  0.180806  0.942633  1
  H  H8  1  0.309329  0.735770  0.138927  1
  H  H9  1  0.477937  0.680806  0.557367  1
  H  H10  1  0.589875  0.669050  0.839765  1
  H  H11  1  0.361805  0.218490  0.116102  1
  H  H12  1  0.638195  0.781510  0.883898  1
  H  H13  1  0.410125  0.330950  0.160235  1
  H  H14  1  0.522063  0.319194  0.442633  1
  H  H15  1  0.690671  0.264230  0.861073  1
  H  H16  1  0.477937  0.819194  0.057367  1
  H  H17  1  0.589875  0.830950  0.339765  1
  H  H18  1  0.761835  0.409732  0.921561  1
  H  H19  1  0.642675  0.063285  0.552868  1
  H  H20  1  0.638195  0.718490  0.383898  1
  H  H21  1  0.690671  0.235770  0.361073  1
  H  H22  1  0.761835  0.090268  0.421561  1
  H  H23  1  0.642675  0.436715  0.052868  1
  Pt  Pt24  1  0.000000  0.500000  0.500000  1
  Pt  Pt25  1  0.000000  0.000000  0.000000  1
  C  C26  1  0.161669  0.015277  0.782761  1
  C  C27  1  0.161669  0.484723  0.282761  1
  C  C28  1  0.838331  0.515277  0.717239  1
  C  C29  1  0.838331  0.984723  0.217239  1
  C  C30  1  0.021983  0.918573  0.795374  1
  C  C31  1  0.021983  0.581427  0.295374  1
  C  C32  1  0.432620  0.693580  0.990240  1
  C  C33  1  0.432620  0.806420  0.490240  1
  C  C34  1  0.567380  0.193580  0.509760  1
  C  C35  1  0.567380  0.306420  0.009760  1
  C  C36  1  0.978017  0.418573  0.704626  1
  C  C37  1  0.978017  0.081427  0.204626  1
  N  N38  1  0.338476  0.891515  0.507247  1
  N  N39  1  0.404212  0.745475  0.567840  1
  N  N40  1  0.447744  0.217522  0.604287  1
  N  N41  1  0.552256  0.717522  0.895713  1
  N  N42  1  0.338476  0.608485  0.007247  1
  N  N43  1  0.595789  0.245475  0.932160  1
  N  N44  1  0.404212  0.754525  0.067840  1
  N  N45  1  0.661524  0.391515  0.992753  1
  N  N46  1  0.447744  0.282478  0.104287  1
  N  N47  1  0.552256  0.782478  0.395713  1
  N  N48  1  0.595789  0.254525  0.432160  1
  N  N49  1  0.661524  0.108485  0.492753  1
  O  O50  1  0.019482  0.863926  0.720704  1
  O  O51  1  0.148011  0.066063  0.867531  1
  O  O52  1  0.097406  0.400536  0.610335  1
  O  O53  1  0.019482  0.636074  0.220704  1
  O  O54  1  0.148011  0.433937  0.367531  1
  O  O55  1  0.097406  0.099464  0.110335  1
  O  O56  1  0.274096  0.040544  0.696158  1
  O  O57  1  0.274096  0.459456  0.196158  1
  O  O58  1  0.725904  0.540544  0.803842  1
  O  O59  1  0.725904  0.959456  0.303842  1
  O  O60  1  0.902594  0.900536  0.889665  1
  O  O61  1  0.851989  0.566063  0.632469  1
  O  O62  1  0.980518  0.363926  0.779296  1
  O  O63  1  0.902594  0.599464  0.389665  1
  O  O64  1  0.851989  0.933937  0.132469  1
  O  O65  1  0.980518  0.136074  0.279296  1
