# generated using pymatgen
data_Gd5(C2Cl)3
_symmetry_space_group_name_H-M   'P 1'
_cell_length_a   11.01013673
_cell_length_b   11.01013673
_cell_length_c   15.34676785
_cell_angle_alpha   57.50635591
_cell_angle_beta   122.49364409
_cell_angle_gamma   160.49719836
_symmetry_Int_Tables_number   1
_chemical_formula_structural   Gd5(C2Cl)3
_chemical_formula_sum   'Gd10 C12 Cl6'
_cell_volume   520.71500063
_cell_formula_units_Z   2
loop_
 _symmetry_equiv_pos_site_id
 _symmetry_equiv_pos_as_xyz
  1  'x, y, z'
loop_
 _atom_site_type_symbol
 _atom_site_label
 _atom_site_symmetry_multiplicity
 _atom_site_fract_x
 _atom_site_fract_y
 _atom_site_fract_z
 _atom_site_occupancy
  Gd  Gd0  1  0.173395  0.826605  0.380773  1
  Gd  Gd1  1  0.826605  0.173395  0.619227  1
  Gd  Gd2  1  0.833122  0.166879  0.390977  1
  Gd  Gd3  1  0.166879  0.833122  0.609022  1
  Gd  Gd4  1  0.493204  0.506796  0.103820  1
  Gd  Gd5  1  0.506797  0.493204  0.896179  1
  Gd  Gd6  1  0.163590  0.836410  0.138993  1
  Gd  Gd7  1  0.836410  0.163590  0.861008  1
  Gd  Gd8  1  0.494504  0.505497  0.386898  1
  Gd  Gd9  1  0.505497  0.494503  0.613102  1
  C  C10  1  0.037097  0.962903  0.530261  1
  C  C11  1  0.962904  0.037097  0.469739  1
  C  C12  1  0.696745  0.303255  0.276681  1
  C  C13  1  0.303255  0.696746  0.723319  1
  C  C14  1  0.037255  0.962746  0.027384  1
  C  C15  1  0.962746  0.037255  0.972616  1
  C  C16  1  0.624208  0.375793  0.226829  1
  C  C17  1  0.375792  0.624208  0.773172  1
  C  C18  1  0.624244  0.375756  0.460828  1
  C  C19  1  0.375757  0.624244  0.539172  1
  C  C20  1  0.302936  0.697064  0.482284  1
  C  C21  1  0.697064  0.302936  0.517717  1
  Cl  Cl22  1  0.327985  0.672016  0.247307  1
  Cl  Cl23  1  0.672015  0.327985  0.752693  1
  Cl  Cl24  1  0.668885  0.331116  0.009778  1
  Cl  Cl25  1  0.331115  0.668885  0.990221  1
  Cl  Cl26  1  0.969824  0.030177  0.227233  1
  Cl  Cl27  1  0.030177  0.969824  0.772766  1
