# generated using pymatgen
data_Li3VPCO7
_symmetry_space_group_name_H-M   'P 1'
_cell_length_a   8.51075505
_cell_length_b   4.98557300
_cell_length_c   13.24247665
_cell_angle_alpha   90.33769072
_cell_angle_beta   90.88387018
_cell_angle_gamma   85.07393076
_symmetry_Int_Tables_number   1
_chemical_formula_structural   Li3VPCO7
_chemical_formula_sum   'Li12 V4 P4 C4 O28'
_cell_volume   559.74346175
_cell_formula_units_Z   4
loop_
 _symmetry_equiv_pos_site_id
 _symmetry_equiv_pos_as_xyz
  1  'x, y, z'
loop_
 _atom_site_type_symbol
 _atom_site_label
 _atom_site_symmetry_multiplicity
 _atom_site_fract_x
 _atom_site_fract_y
 _atom_site_fract_z
 _atom_site_occupancy
  Li  Li0  1  0.097076  0.772407  0.127647  1
  Li  Li1  1  0.100906  0.773924  0.630077  1
  Li  Li2  1  0.280995  0.248443  0.519003  1
  Li  Li3  1  0.277495  0.254014  0.242162  1
  Li  Li4  1  0.287017  0.233792  0.736054  1
  Li  Li5  1  0.353257  0.774799  0.866313  1
  Li  Li6  1  0.717745  0.753516  0.978021  1
  Li  Li7  1  0.715949  0.750372  0.267317  1
  Li  Li8  1  0.720720  0.745196  0.490586  1
  Li  Li9  1  0.717085  0.749759  0.765165  1
  Li  Li10  1  0.901036  0.225585  0.377612  1
  Li  Li11  1  0.894964  0.235485  0.869970  1
  V  V12  1  0.259854  0.243295  0.992448  1
  V  V13  1  0.327890  0.790448  0.375591  1
  V  V14  1  0.669525  0.205423  0.124841  1
  V  V15  1  0.671216  0.207237  0.625209  1
  P  P16  1  0.410242  0.721232  0.122904  1
  P  P17  1  0.409081  0.720901  0.626958  1
  P  P18  1  0.589219  0.278392  0.374917  1
  P  P19  1  0.588578  0.279237  0.874139  1
  C  C20  1  0.034512  0.691593  0.373706  1
  C  C21  1  0.041179  0.716334  0.882700  1
  C  C22  1  0.965224  0.307190  0.625025  1
  C  C23  1  0.962212  0.305064  0.125604  1
  O  O24  1  0.068950  0.967569  0.887065  1
  O  O25  1  0.072591  0.938604  0.372895  1
  O  O26  1  0.109670  0.361547  0.122280  1
  O  O27  1  0.110358  0.364171  0.626143  1
  O  O28  1  0.148562  0.499301  0.372500  1
  O  O29  1  0.157575  0.529790  0.884384  1
  O  O30  1  0.306896  0.827684  0.534240  1
  O  O31  1  0.312688  0.833041  0.030750  1
  O  O32  1  0.307033  0.813792  0.214938  1
  O  O33  1  0.309160  0.820167  0.718341  1
  O  O34  1  0.422874  0.176095  0.372449  1
  O  O35  1  0.422345  0.173806  0.870168  1
  O  O36  1  0.431561  0.405362  0.623870  1
  O  O37  1  0.425973  0.403867  0.114919  1
  O  O38  1  0.568226  0.593032  0.375553  1
  O  O39  1  0.573550  0.591137  0.875236  1
  O  O40  1  0.577873  0.816175  0.129145  1
  O  O41  1  0.576425  0.822165  0.626349  1
  O  O42  1  0.692346  0.171686  0.466205  1
  O  O43  1  0.691619  0.175191  0.283836  1
  O  O44  1  0.691521  0.170195  0.784200  1
  O  O45  1  0.689141  0.167009  0.966573  1
  O  O46  1  0.850851  0.498129  0.127551  1
  O  O47  1  0.850219  0.498741  0.623145  1
  O  O48  1  0.888824  0.635061  0.375588  1
  O  O49  1  0.896899  0.644800  0.874664  1
  O  O50  1  0.926027  0.058581  0.126826  1
  O  O51  1  0.927264  0.059660  0.626221  1
