# generated using pymatgen
data_Pr4Ge7
_symmetry_space_group_name_H-M   'P 1'
_cell_length_a   7.65436415
_cell_length_b   7.65436415
_cell_length_c   12.13909847
_cell_angle_alpha   90.00000000
_cell_angle_beta   90.00000000
_cell_angle_gamma   46.82859667
_symmetry_Int_Tables_number   1
_chemical_formula_structural   Pr4Ge7
_chemical_formula_sum   'Pr8 Ge14'
_cell_volume   518.70085085
_cell_formula_units_Z   2
loop_
 _symmetry_equiv_pos_site_id
 _symmetry_equiv_pos_as_xyz
  1  'x, y, z'
loop_
 _atom_site_type_symbol
 _atom_site_label
 _atom_site_symmetry_multiplicity
 _atom_site_fract_x
 _atom_site_fract_y
 _atom_site_fract_z
 _atom_site_occupancy
  Pr  Pr0  1  0.479969  0.010235  0.380511  1
  Pr  Pr1  1  0.520032  0.989765  0.880511  1
  Pr  Pr2  1  0.989765  0.520032  0.619490  1
  Pr  Pr3  1  0.010235  0.479969  0.119489  1
  Pr  Pr4  1  0.016067  0.983933  0.000000  1
  Pr  Pr5  1  0.983933  0.016067  0.500000  1
  Pr  Pr6  1  0.503926  0.503926  0.250000  1
  Pr  Pr7  1  0.496074  0.496074  0.750000  1
  Ge  Ge8  1  0.677240  0.025197  0.161665  1
  Ge  Ge9  1  0.322761  0.974803  0.661665  1
  Ge  Ge10  1  0.974803  0.322761  0.838335  1
  Ge  Ge11  1  0.025197  0.677240  0.338335  1
  Ge  Ge12  1  0.419051  0.924103  0.129295  1
  Ge  Ge13  1  0.580950  0.075898  0.629295  1
  Ge  Ge14  1  0.075898  0.580950  0.870705  1
  Ge  Ge15  1  0.924103  0.419051  0.370704  1
  Ge  Ge16  1  0.430049  0.393749  0.009759  1
  Ge  Ge17  1  0.569951  0.606252  0.509759  1
  Ge  Ge18  1  0.606252  0.569951  0.990241  1
  Ge  Ge19  1  0.393749  0.430049  0.490241  1
  Ge  Ge20  1  0.061170  0.061170  0.250000  1
  Ge  Ge21  1  0.938830  0.938830  0.750000  1
