# generated using pymatgen
data_Ce3AgGeS7
_symmetry_space_group_name_H-M   'P 1'
_cell_length_a   10.37653987
_cell_length_b   10.39165678
_cell_length_c   5.87445854
_cell_angle_alpha   90.09929152
_cell_angle_beta   89.78074967
_cell_angle_gamma   120.19216552
_symmetry_Int_Tables_number   1
_chemical_formula_structural   Ce3AgGeS7
_chemical_formula_sum   'Ce6 Ag2 Ge2 S14'
_cell_volume   547.50540975
_cell_formula_units_Z   2
loop_
 _symmetry_equiv_pos_site_id
 _symmetry_equiv_pos_as_xyz
  1  'x, y, z'
loop_
 _atom_site_type_symbol
 _atom_site_label
 _atom_site_symmetry_multiplicity
 _atom_site_fract_x
 _atom_site_fract_y
 _atom_site_fract_z
 _atom_site_occupancy
  Ce  Ce0  1  0.128503  0.359704  0.254356  1
  Ce  Ce1  1  0.871616  0.640273  0.754304  1
  Ce  Ce2  1  0.640300  0.768472  0.254433  1
  Ce  Ce3  1  0.231462  0.871806  0.254328  1
  Ce  Ce4  1  0.768565  0.128166  0.754329  1
  Ce  Ce5  1  0.359978  0.231510  0.754431  1
  Ag  Ag6  1  -0.000167  -0.000053  0.311407  1
  Ag  Ag7  1  0.000012  0.000050  0.811326  1
  Ge  Ge8  1  0.333323  0.666630  0.672514  1
  Ge  Ge9  1  0.666295  0.333172  0.172470  1
  S  S10  1  0.333463  0.667036  0.048940  1
  S  S11  1  0.666346  0.332900  0.548878  1
  S  S12  1  0.414808  0.521787  0.516485  1
  S  S13  1  0.585086  0.478135  0.016438  1
  S  S14  1  0.478674  0.893352  0.516407  1
  S  S15  1  0.106594  0.585038  0.516426  1
  S  S16  1  0.893449  0.414999  0.015964  1
  S  S17  1  0.521425  0.106721  0.016409  1
  S  S18  1  0.096369  0.267951  0.775451  1
  S  S19  1  0.903719  0.732014  0.275500  1
  S  S20  1  0.731677  0.828045  0.775456  1
  S  S21  1  0.171900  0.903904  0.775006  1
  S  S22  1  0.828188  0.096250  0.275439  1
  S  S23  1  0.268414  0.172137  0.275304  1
