# generated using pymatgen
data_LiMnPO4
_symmetry_space_group_name_H-M   'P 1'
_cell_length_a   8.61766575
_cell_length_b   5.26397136
_cell_length_c   8.03190053
_cell_angle_alpha   90.00000000
_cell_angle_beta   90.00000000
_cell_angle_gamma   90.00000000
_symmetry_Int_Tables_number   1
_chemical_formula_structural   LiMnPO4
_chemical_formula_sum   'Li4 Mn4 P4 O16'
_cell_volume   364.35227397
_cell_formula_units_Z   4
loop_
 _symmetry_equiv_pos_site_id
 _symmetry_equiv_pos_as_xyz
  1  'x, y, z'
loop_
 _atom_site_type_symbol
 _atom_site_label
 _atom_site_symmetry_multiplicity
 _atom_site_fract_x
 _atom_site_fract_y
 _atom_site_fract_z
 _atom_site_occupancy
  Li  Li0  1  0.201357  0.360059  0.530108  1
  Li  Li1  1  0.298643  0.360059  0.030108  1
  Li  Li2  1  0.701357  0.860059  0.969892  1
  Li  Li3  1  0.798643  0.860059  0.469892  1
  Mn  Mn4  1  0.062513  0.966630  0.823747  1
  Mn  Mn5  1  0.437487  0.966630  0.323747  1
  Mn  Mn6  1  0.562513  0.466630  0.676253  1
  Mn  Mn7  1  0.937487  0.466630  0.176253  1
  P  P8  1  0.074409  0.002260  0.249781  1
  P  P9  1  0.425591  0.002260  0.749781  1
  P  P10  1  0.574409  0.502260  0.250219  1
  P  P11  1  0.925591  0.502260  0.750219  1
  O  O12  1  0.060601  0.240367  0.363417  1
  O  O13  1  0.077231  0.342925  0.737827  1
  O  O14  1  0.087681  0.126786  0.069220  1
  O  O15  1  0.214074  0.830336  0.286287  1
  O  O16  1  0.285926  0.830336  0.786287  1
  O  O17  1  0.412319  0.126786  0.569220  1
  O  O18  1  0.422769  0.342925  0.237827  1
  O  O19  1  0.439399  0.240367  0.863417  1
  O  O20  1  0.560601  0.740367  0.136583  1
  O  O21  1  0.577231  0.842925  0.762173  1
  O  O22  1  0.587681  0.626786  0.430780  1
  O  O23  1  0.714074  0.330336  0.213713  1
  O  O24  1  0.785926  0.330336  0.713713  1
  O  O25  1  0.912319  0.626786  0.930780  1
  O  O26  1  0.922769  0.842925  0.262173  1
  O  O27  1  0.939399  0.740367  0.636583  1
