# generated using pymatgen
data_Ca3Sn4S11
_symmetry_space_group_name_H-M   'P 1'
_cell_length_a   9.89065324
_cell_length_b   10.06299798
_cell_length_c   10.26034066
_cell_angle_alpha   94.95721628
_cell_angle_beta   114.30745624
_cell_angle_gamma   104.03004765
_symmetry_Int_Tables_number   1
_chemical_formula_structural   Ca3Sn4S11
_chemical_formula_sum   'Ca6 Sn8 S22'
_cell_volume   882.66399788
_cell_formula_units_Z   2
loop_
 _symmetry_equiv_pos_site_id
 _symmetry_equiv_pos_as_xyz
  1  'x, y, z'
loop_
 _atom_site_type_symbol
 _atom_site_label
 _atom_site_symmetry_multiplicity
 _atom_site_fract_x
 _atom_site_fract_y
 _atom_site_fract_z
 _atom_site_occupancy
  Ca  Ca0  1  0.485308  0.688758  0.676865  1
  Ca  Ca1  1  0.906567  0.625742  0.482926  1
  Ca  Ca2  1  0.545365  0.258708  0.181652  1
  Ca  Ca3  1  0.719100  0.794394  0.098335  1
  Ca  Ca4  1  0.090822  0.143550  0.404180  1
  Ca  Ca5  1  0.146308  0.715812  0.930300  1
  Sn  Sn6  1  0.986468  0.037354  0.925174  1
  Sn  Sn7  1  0.835692  0.382525  0.045014  1
  Sn  Sn8  1  0.398346  0.033680  0.737124  1
  Sn  Sn9  1  0.704787  0.369358  0.679271  1
  Sn  Sn10  1  0.252933  0.384501  0.833281  1
  Sn  Sn11  1  0.274626  0.864091  0.336811  1
  Sn  Sn12  1  0.357280  0.528979  0.284817  1
  Sn  Sn13  1  0.796778  0.036631  0.539385  1
  S  S14  1  0.227245  0.793406  0.570122  1
  S  S15  1  0.871325  0.774019  0.742319  1
  S  S16  1  0.601348  0.457346  0.434043  1
  S  S17  1  0.119430  0.128402  0.698480  1
  S  S18  1  0.286474  0.004240  0.962870  1
  S  S19  1  0.877109  0.886404  0.399054  1
  S  S20  1  0.206417  0.455419  0.430859  1
  S  S21  1  0.513766  0.777218  0.421036  1
  S  S22  1  0.123815  0.618851  0.169374  1
  S  S23  1  0.634596  0.956693  0.857142  1
  S  S24  1  0.416567  0.943361  0.155347  1
  S  S25  1  0.003899  0.464992  0.715271  1
  S  S26  1  0.255909  0.323414  0.079025  1
  S  S27  1  0.398376  0.103639  0.500818  1
  S  S28  1  0.844470  0.251731  0.397230  1
  S  S29  1  0.795352  0.160923  0.182395  1
  S  S30  1  0.039119  0.939465  0.160333  1
  S  S31  1  0.748357  0.528660  0.182537  1
  S  S32  1  0.772597  0.634660  0.844517  1
  S  S33  1  0.508989  0.282896  0.887392  1
  S  S34  1  0.401837  0.634539  0.937477  1
  S  S35  1  0.347721  0.393939  0.616325  1
