# generated using pymatgen
data_Yb2CdSe4
_symmetry_space_group_name_H-M   'P 1'
_cell_length_a   8.39312466
_cell_length_b   8.39312466
_cell_length_c   8.39312466
_cell_angle_alpha   60.00000000
_cell_angle_beta   59.99999999
_cell_angle_gamma   60.00000001
_symmetry_Int_Tables_number   1
_chemical_formula_structural   Yb2CdSe4
_chemical_formula_sum   'Yb4 Cd2 Se8'
_cell_volume   418.07675629
_cell_formula_units_Z   2
loop_
 _symmetry_equiv_pos_site_id
 _symmetry_equiv_pos_as_xyz
  1  'x, y, z'
loop_
 _atom_site_type_symbol
 _atom_site_label
 _atom_site_symmetry_multiplicity
 _atom_site_fract_x
 _atom_site_fract_y
 _atom_site_fract_z
 _atom_site_occupancy
  Se  Se0  1  0.745306  0.745306  0.745306  1
  Se  Se1  1  0.254694  0.254694  0.735919  1
  Se  Se2  1  0.254694  0.735919  0.254694  1
  Se  Se3  1  0.735919  0.254694  0.254694  1
  Se  Se4  1  0.745306  0.264081  0.745306  1
  Se  Se5  1  0.264081  0.745306  0.745306  1
  Se  Se6  1  0.254694  0.254694  0.254694  1
  Se  Se7  1  0.745306  0.745306  0.264081  1
  Cd  Cd8  1  0.875000  0.875000  0.875000  1
  Cd  Cd9  1  0.125000  0.125000  0.125000  1
  Yb  Yb10  1  0.500000  0.500000  0.000000  1
  Yb  Yb11  1  0.500000  0.500000  0.500000  1
  Yb  Yb12  1  0.000000  0.500000  0.500000  1
  Yb  Yb13  1  0.500000  0.000000  0.500000  1
