# generated using pymatgen
data_Fe2O3F
_symmetry_space_group_name_H-M   'P 1'
_cell_length_a   4.68803214
_cell_length_b   9.84529078
_cell_length_c   6.00708209
_cell_angle_alpha   72.22598222
_cell_angle_beta   89.98668972
_cell_angle_gamma   86.11031064
_symmetry_Int_Tables_number   1
_chemical_formula_structural   Fe2O3F
_chemical_formula_sum   'Fe8 O12 F4'
_cell_volume   263.35369612
_cell_formula_units_Z   4
loop_
 _symmetry_equiv_pos_site_id
 _symmetry_equiv_pos_as_xyz
  1  'x, y, z'
loop_
 _atom_site_type_symbol
 _atom_site_label
 _atom_site_symmetry_multiplicity
 _atom_site_fract_x
 _atom_site_fract_y
 _atom_site_fract_z
 _atom_site_occupancy
  Fe  Fe0  1  0.465457  0.232642  0.633651  1
  Fe  Fe1  1  0.500000  0.750000  0.875000  1
  Fe  Fe2  1  0.500000  0.750000  0.375000  1
  Fe  Fe3  1  0.534543  0.267358  0.116349  1
  Fe  Fe4  1  -0.000512  0.001151  0.494465  1
  Fe  Fe5  1  0.000560  0.498871  0.745617  1
  Fe  Fe6  1  -0.000560  0.001129  0.004383  1
  Fe  Fe7  1  0.000512  0.498849  0.255535  1
  O  O8  1  0.821897  0.412702  0.043547  1
  O  O9  1  0.820777  0.910668  0.294518  1
  O  O10  1  0.692562  0.153552  0.423067  1
  O  O11  1  0.693822  0.653342  0.173040  1
  O  O12  1  0.692499  0.153485  0.923406  1
  O  O13  1  0.693861  0.653303  0.673528  1
  O  O14  1  0.306139  0.846697  0.076472  1
  O  O15  1  0.306178  0.846658  0.576960  1
  O  O16  1  0.307501  0.346515  0.826594  1
  O  O17  1  0.307438  0.346448  0.326933  1
  O  O18  1  0.179223  0.589332  0.455482  1
  O  O19  1  0.178103  0.087298  0.706453  1
  F  F20  1  0.797590  0.397271  0.551441  1
  F  F21  1  0.799978  0.899356  0.800299  1
  F  F22  1  0.200022  0.600644  0.949701  1
  F  F23  1  0.202410  0.102729  0.198559  1
