# generated using pymatgen
data_LiFe2OF5
_symmetry_space_group_name_H-M   'P 1'
_cell_length_a   8.71380639
_cell_length_b   8.68162940
_cell_length_c   4.56313841
_cell_angle_alpha   90.45302805
_cell_angle_beta   89.79650732
_cell_angle_gamma   119.97753811
_symmetry_Int_Tables_number   1
_chemical_formula_structural   LiFe2OF5
_chemical_formula_sum   'Li3 Fe6 O3 F15'
_cell_volume   299.01161264
_cell_formula_units_Z   3
loop_
 _symmetry_equiv_pos_site_id
 _symmetry_equiv_pos_as_xyz
  1  'x, y, z'
loop_
 _atom_site_type_symbol
 _atom_site_label
 _atom_site_symmetry_multiplicity
 _atom_site_fract_x
 _atom_site_fract_y
 _atom_site_fract_z
 _atom_site_occupancy
  Li  Li0  1  0.331872  0.667550  0.492804  1
  Li  Li1  1  0.998886  0.998148  0.007844  1
  Li  Li2  1  0.665072  0.334638  0.514620  1
  Fe  Fe3  1  0.006647  0.643479  0.981370  1
  Fe  Fe4  1  0.005109  0.329268  0.516903  1
  Fe  Fe5  1  0.355270  0.341452  0.981392  1
  Fe  Fe6  1  0.322712  0.012645  0.517810  1
  Fe  Fe7  1  0.678394  0.690870  0.479432  1
  Fe  Fe8  1  0.645254  0.986009  0.020515  1
  O  O9  1  0.101556  0.540583  0.738228  1
  O  O10  1  0.566770  0.788632  0.263582  1
  O  O11  1  0.434537  0.222262  0.737414  1
  F  F12  1  0.106415  0.879823  0.764726  1
  F  F13  1  0.213548  0.783568  0.262880  1
  F  F14  1  0.438616  0.895700  0.743726  1
  F  F15  1  0.222833  0.428855  0.259856  1
  F  F16  1  0.116657  0.223131  0.764816  1
  F  F17  1  0.223392  0.116582  0.235625  1
  F  F18  1  0.458853  0.562844  0.742585  1
  F  F19  1  0.778289  0.894621  0.766006  1
  F  F20  1  0.562268  0.455736  0.256743  1
  F  F21  1  0.541936  0.106015  0.256504  1
  F  F22  1  0.784575  0.569276  0.733972  1
  F  F23  1  0.893723  0.769196  0.232855  1
  F  F24  1  0.889137  0.436111  0.255258  1
  F  F25  1  0.774160  0.206076  0.736538  1
  F  F26  1  0.883416  0.116930  0.235994  1
