# generated using pymatgen
data_Fe3(O2F)2
_symmetry_space_group_name_H-M   'P 1'
_cell_length_a   7.51987297
_cell_length_b   5.62529727
_cell_length_c   5.62529727
_cell_angle_alpha   69.38085230
_cell_angle_beta   69.64745869
_cell_angle_gamma   69.64745869
_symmetry_Int_Tables_number   1
_chemical_formula_structural   Fe3(O2F)2
_chemical_formula_sum   'Fe6 O8 F4'
_cell_volume   201.81054793
_cell_formula_units_Z   2
loop_
 _symmetry_equiv_pos_site_id
 _symmetry_equiv_pos_as_xyz
  1  'x, y, z'
loop_
 _atom_site_type_symbol
 _atom_site_label
 _atom_site_symmetry_multiplicity
 _atom_site_fract_x
 _atom_site_fract_y
 _atom_site_fract_z
 _atom_site_occupancy
  Fe  Fe0  1  0.838005  0.668549  0.668549  1
  Fe  Fe1  1  0.666667  0.333333  0.333333  1
  Fe  Fe2  1  0.328965  0.648682  0.648682  1
  Fe  Fe3  1  0.166667  0.333333  0.333333  1
  Fe  Fe4  1  0.495328  0.998118  0.998118  1
  Fe  Fe5  1  0.004368  0.017985  0.017985  1
  O  O6  1  0.666667  0.026367  0.640300  1
  O  O7  1  0.329283  0.357368  0.966627  1
  O  O8  1  0.950224  0.239122  0.239122  1
  O  O9  1  0.383109  0.427545  0.427545  1
  O  O10  1  0.329283  0.966627  0.357368  1
  O  O11  1  0.666667  0.640300  0.026367  1
  O  O12  1  0.004050  0.309299  0.700039  1
  O  O13  1  0.004050  0.700039  0.309299  1
  F  F14  1  0.299627  0.888286  0.888286  1
  F  F15  1  0.630505  0.568228  0.568228  1
  F  F16  1  0.033706  0.778381  0.778381  1
  F  F17  1  0.702828  0.098439  0.098439  1
