# generated using pymatgen
data_BP4(SBr)3
_symmetry_space_group_name_H-M   'P 1'
_cell_length_a   9.04422759
_cell_length_b   11.13340226
_cell_length_c   6.73269542
_cell_angle_alpha   90.00000000
_cell_angle_beta   109.44161238
_cell_angle_gamma   90.00000000
_symmetry_Int_Tables_number   1
_chemical_formula_structural   BP4(SBr)3
_chemical_formula_sum   'B2 P8 S6 Br6'
_cell_volume   639.28037354
_cell_formula_units_Z   2
loop_
 _symmetry_equiv_pos_site_id
 _symmetry_equiv_pos_as_xyz
  1  'x, y, z'
loop_
 _atom_site_type_symbol
 _atom_site_label
 _atom_site_symmetry_multiplicity
 _atom_site_fract_x
 _atom_site_fract_y
 _atom_site_fract_z
 _atom_site_occupancy
  B  B0  1  0.721137  0.750000  0.321742  1
  B  B1  1  0.278864  0.249999  0.678258  1
  P  P2  1  0.860455  0.352350  0.942693  1
  P  P3  1  0.139546  0.852350  0.057308  1
  P  P4  1  0.139546  0.647650  0.057308  1
  P  P5  1  0.860455  0.147651  0.942693  1
  P  P6  1  0.486347  0.750000  0.253121  1
  P  P7  1  0.513653  0.249999  0.746879  1
  P  P8  1  0.170950  0.750000  0.361538  1
  P  P9  1  0.829050  0.249999  0.638461  1
  S  S10  1  0.414852  0.750000  0.517831  1
  S  S11  1  0.585148  0.249999  0.482170  1
  S  S12  1  0.629846  0.398003  0.921903  1
  S  S13  1  0.370153  0.898003  0.078098  1
  S  S14  1  0.370153  0.601996  0.078098  1
  S  S15  1  0.629846  0.101997  0.921903  1
  Br  Br16  1  0.759317  0.750000  0.041850  1
  Br  Br17  1  0.240683  0.249999  0.958151  1
  Br  Br18  1  0.202162  0.400640  0.513822  1
  Br  Br19  1  0.797837  0.900640  0.486179  1
  Br  Br20  1  0.797837  0.599360  0.486179  1
  Br  Br21  1  0.202162  0.099360  0.513822  1
