# generated using pymatgen
data_Co2OF3
_symmetry_space_group_name_H-M   'P 1'
_cell_length_a   4.80451376
_cell_length_b   10.08497692
_cell_length_c   6.10279392
_cell_angle_alpha   72.38805761
_cell_angle_beta   90.00000000
_cell_angle_gamma   87.44433482
_symmetry_Int_Tables_number   1
_chemical_formula_structural   Co2OF3
_chemical_formula_sum   'Co8 O4 F12'
_cell_volume   281.53236913
_cell_formula_units_Z   4
loop_
 _symmetry_equiv_pos_site_id
 _symmetry_equiv_pos_as_xyz
  1  'x, y, z'
loop_
 _atom_site_type_symbol
 _atom_site_label
 _atom_site_symmetry_multiplicity
 _atom_site_fract_x
 _atom_site_fract_y
 _atom_site_fract_z
 _atom_site_occupancy
  Co  Co0  1  0.499286  0.250130  0.618181  1
  Co  Co1  1  0.499286  0.250130  0.131690  1
  Co  Co2  1  0.500714  0.749870  0.381819  1
  Co  Co3  1  0.500714  0.749870  0.868310  1
  Co  Co4  1  0.000000  0.000000  0.500000  1
  Co  Co5  1  0.039599  0.479992  0.760003  1
  Co  Co6  1  0.000000  0.000000  0.000000  1
  Co  Co7  1  0.960401  0.520008  0.239997  1
  O  O8  1  0.680607  0.659528  0.170236  1
  O  O9  1  0.672966  0.163310  0.418344  1
  O  O10  1  0.319393  0.340472  0.829764  1
  O  O11  1  0.327034  0.836690  0.581656  1
  F  F12  1  0.807393  0.403920  0.547717  1
  F  F13  1  0.804789  0.901586  0.299601  1
  F  F14  1  0.807393  0.403920  0.048363  1
  F  F15  1  0.804789  0.901586  0.798813  1
  F  F16  1  0.701233  0.150519  0.924740  1
  F  F17  1  0.717120  0.639081  0.680460  1
  F  F18  1  0.298767  0.849481  0.075260  1
  F  F19  1  0.282880  0.360919  0.319540  1
  F  F20  1  0.192607  0.596080  0.951637  1
  F  F21  1  0.192607  0.596080  0.452283  1
  F  F22  1  0.195211  0.098414  0.700399  1
  F  F23  1  0.195211  0.098414  0.201187  1
