# generated using pymatgen
data_TlInS2
_symmetry_space_group_name_H-M   'P 1'
_cell_length_a   7.88644746
_cell_length_b   7.88644746
_cell_length_c   15.37830220
_cell_angle_alpha   82.55554153
_cell_angle_beta   97.44445847
_cell_angle_gamma   89.93519179
_symmetry_Int_Tables_number   1
_chemical_formula_structural   TlInS2
_chemical_formula_sum   'Tl8 In8 S16'
_cell_volume   940.25717774
_cell_formula_units_Z   8
loop_
 _symmetry_equiv_pos_site_id
 _symmetry_equiv_pos_as_xyz
  1  'x, y, z'
loop_
 _atom_site_type_symbol
 _atom_site_label
 _atom_site_symmetry_multiplicity
 _atom_site_fract_x
 _atom_site_fract_y
 _atom_site_fract_z
 _atom_site_occupancy
  Tl  Tl0  1  0.344123  0.772624  0.380500  1
  Tl  Tl1  1  0.772623  0.344124  0.119500  1
  Tl  Tl2  1  0.655877  0.227375  0.619500  1
  Tl  Tl3  1  0.227375  0.655876  0.880500  1
  Tl  Tl4  1  0.781479  0.843551  0.117120  1
  Tl  Tl5  1  0.843550  0.781479  0.382879  1
  Tl  Tl6  1  0.218522  0.156450  0.882879  1
  Tl  Tl7  1  0.156449  0.218521  0.617120  1
  In  In8  1  0.288524  0.088855  0.155043  1
  In  In9  1  0.088856  0.288524  0.344958  1
  In  In10  1  0.711475  0.911145  0.844958  1
  In  In11  1  0.911146  0.711475  0.655043  1
  In  In12  1  0.587604  0.288053  0.345103  1
  In  In13  1  0.288053  0.587603  0.154897  1
  In  In14  1  0.412396  0.711946  0.654897  1
  In  In15  1  0.711947  0.412396  0.845103  1
  S  S16  1  0.573687  0.052218  0.249583  1
  S  S17  1  0.052216  0.573688  0.250416  1
  S  S18  1  0.426312  0.947783  0.750416  1
  S  S19  1  0.947782  0.426312  0.749583  1
  S  S20  1  0.573282  0.573282  0.250000  1
  S  S21  1  0.426720  0.426719  0.750000  1
  S  S22  1  0.052357  0.052357  0.250000  1
  S  S23  1  0.947642  0.947642  0.750000  1
  S  S24  1  0.363357  0.266798  0.444718  1
  S  S25  1  0.266797  0.363357  0.055282  1
  S  S26  1  0.636645  0.733203  0.555282  1
  S  S27  1  0.733203  0.636645  0.944717  1
  S  S28  1  0.261530  0.863385  0.055489  1
  S  S29  1  0.863385  0.261530  0.444511  1
  S  S30  1  0.738472  0.136615  0.944511  1
  S  S31  1  0.136615  0.738472  0.555489  1
