# generated using pymatgen
data_Li2Fe5F17
_symmetry_space_group_name_H-M   'P 1'
_cell_length_a   7.51683593
_cell_length_b   13.05194680
_cell_length_c   14.96175338
_cell_angle_alpha   90.00000000
_cell_angle_beta   90.00000000
_cell_angle_gamma   106.73577127
_symmetry_Int_Tables_number   1
_chemical_formula_structural   Li2Fe5F17
_chemical_formula_sum   'Li8 Fe20 F68'
_cell_volume   1405.71232109
_cell_formula_units_Z   4
loop_
 _symmetry_equiv_pos_site_id
 _symmetry_equiv_pos_as_xyz
  1  'x, y, z'
loop_
 _atom_site_type_symbol
 _atom_site_label
 _atom_site_symmetry_multiplicity
 _atom_site_fract_x
 _atom_site_fract_y
 _atom_site_fract_z
 _atom_site_occupancy
  Li  Li0  1  0.000000  0.000000  0.000000  1
  Li  Li1  1  0.000000  0.000000  0.500000  1
  Li  Li2  1  0.305927  0.611855  0.250000  1
  Li  Li3  1  0.250400  0.500800  0.444160  1
  Li  Li4  1  0.250400  0.500800  0.055840  1
  Li  Li5  1  0.694073  0.388145  0.750000  1
  Li  Li6  1  0.749600  0.499200  0.555840  1
  Li  Li7  1  0.749600  0.499200  0.944160  1
  Fe  Fe8  1  0.117228  0.737008  0.875700  1
  Fe  Fe9  1  0.117228  0.737008  0.624300  1
  Fe  Fe10  1  0.249975  0.995065  0.750000  1
  Fe  Fe11  1  0.125637  0.749331  0.119727  1
  Fe  Fe12  1  0.125637  0.749331  0.380273  1
  Fe  Fe13  1  0.623694  0.749331  0.380273  1
  Fe  Fe14  1  0.623694  0.749331  0.119727  1
  Fe  Fe15  1  0.380220  0.262992  0.375700  1
  Fe  Fe16  1  0.380220  0.262992  0.124300  1
  Fe  Fe17  1  0.745090  0.995065  0.750000  1
  Fe  Fe18  1  0.254910  0.004935  0.250000  1
  Fe  Fe19  1  0.619780  0.737008  0.624300  1
  Fe  Fe20  1  0.619780  0.737008  0.875700  1
  Fe  Fe21  1  0.376306  0.250669  0.619727  1
  Fe  Fe22  1  0.376306  0.250669  0.880273  1
  Fe  Fe23  1  0.874363  0.250669  0.619727  1
  Fe  Fe24  1  0.874363  0.250669  0.880273  1
  Fe  Fe25  1  0.750025  0.004935  0.250000  1
  Fe  Fe26  1  0.882772  0.262992  0.375700  1
  Fe  Fe27  1  0.882772  0.262992  0.124300  1
  F  F28  1  0.985778  0.599784  0.910581  1
  F  F29  1  0.985778  0.599784  0.589419  1
  F  F30  1  0.142746  0.899245  0.156031  1
  F  F31  1  0.142746  0.899245  0.343969  1
  F  F32  1  0.098512  0.799975  0.501830  1
  F  F33  1  0.098512  0.799975  0.998170  1
  F  F34  1  0.245870  0.891096  0.843646  1
  F  F35  1  0.245870  0.891096  0.656354  1
  F  F36  1  0.127796  0.609910  0.095047  1
  F  F37  1  0.127796  0.609910  0.404953  1
  F  F38  1  0.144365  0.698789  0.750000  1
  F  F39  1  0.160775  0.710794  0.250000  1
  F  F40  1  0.399151  0.798302  0.390577  1
  F  F41  1  0.113963  0.227927  0.151962  1
  F  F42  1  0.358306  0.716613  0.591235  1
  F  F43  1  0.021586  0.043171  0.250000  1
  F  F44  1  0.145162  0.290324  0.639515  1
  F  F45  1  0.113963  0.227927  0.348038  1
  F  F46  1  0.478393  0.956786  0.250000  1
  F  F47  1  0.145162  0.290324  0.860485  1
  F  F48  1  0.399151  0.798302  0.109423  1
  F  F49  1  0.358306  0.716613  0.908765  1
  F  F50  1  0.385994  0.400216  0.089419  1
  F  F51  1  0.385994  0.400216  0.410581  1
  F  F52  1  0.550019  0.710794  0.250000  1
  F  F53  1  0.243502  0.100755  0.656031  1
  F  F54  1  0.243502  0.100755  0.843969  1
  F  F55  1  0.554424  0.698789  0.750000  1
  F  F56  1  0.482114  0.609910  0.095047  1
  F  F57  1  0.482114  0.609910  0.404953  1
  F  F58  1  0.298537  0.200025  0.001830  1
  F  F59  1  0.298537  0.200025  0.498170  1
  F  F60  1  0.645226  0.891096  0.843646  1
  F  F61  1  0.645226  0.891096  0.656354  1
  F  F62  1  0.354774  0.108904  0.156354  1
  F  F63  1  0.354774  0.108904  0.343646  1
  F  F64  1  0.701463  0.799975  0.501830  1
  F  F65  1  0.701463  0.799975  0.998170  1
  F  F66  1  0.517886  0.390090  0.595047  1
  F  F67  1  0.517886  0.390090  0.904953  1
  F  F68  1  0.445576  0.301211  0.250000  1
  F  F69  1  0.756498  0.899245  0.156031  1
  F  F70  1  0.756498  0.899245  0.343969  1
  F  F71  1  0.449981  0.289206  0.750000  1
  F  F72  1  0.614006  0.599784  0.589419  1
  F  F73  1  0.614006  0.599784  0.910581  1
  F  F74  1  0.886037  0.772073  0.651962  1
  F  F75  1  0.521607  0.043214  0.750000  1
  F  F76  1  0.978414  0.956829  0.750000  1
  F  F77  1  0.600849  0.201698  0.609423  1
  F  F78  1  0.600849  0.201698  0.890577  1
  F  F79  1  0.641694  0.283387  0.408765  1
  F  F80  1  0.641694  0.283387  0.091235  1
  F  F81  1  0.886037  0.772073  0.848038  1
  F  F82  1  0.854838  0.709676  0.360485  1
  F  F83  1  0.854838  0.709676  0.139515  1
  F  F84  1  0.839225  0.289206  0.750000  1
  F  F85  1  0.855635  0.301211  0.250000  1
  F  F86  1  0.872204  0.390090  0.595047  1
  F  F87  1  0.872204  0.390090  0.904953  1
  F  F88  1  0.754130  0.108904  0.343646  1
  F  F89  1  0.754130  0.108904  0.156354  1
  F  F90  1  0.901488  0.200025  0.498170  1
  F  F91  1  0.901488  0.200025  0.001830  1
  F  F92  1  0.857254  0.100755  0.656031  1
  F  F93  1  0.857254  0.100755  0.843969  1
  F  F94  1  0.014222  0.400216  0.410581  1
  F  F95  1  0.014222  0.400216  0.089419  1
