# generated using pymatgen
data_Li3Fe(PO4)2
_symmetry_space_group_name_H-M   'P 1'
_cell_length_a   8.76147694
_cell_length_b   8.75442066
_cell_length_c   6.88949644
_cell_angle_alpha   90.03164449
_cell_angle_beta   90.09330327
_cell_angle_gamma   120.03694481
_symmetry_Int_Tables_number   1
_chemical_formula_structural   Li3Fe(PO4)2
_chemical_formula_sum   'Li9 Fe3 P6 O24'
_cell_volume   457.46716514
_cell_formula_units_Z   3
loop_
 _symmetry_equiv_pos_site_id
 _symmetry_equiv_pos_as_xyz
  1  'x, y, z'
loop_
 _atom_site_type_symbol
 _atom_site_label
 _atom_site_symmetry_multiplicity
 _atom_site_fract_x
 _atom_site_fract_y
 _atom_site_fract_z
 _atom_site_occupancy
  Li  Li0  1  0.370771  0.069961  0.714086  1
  Li  Li1  1  0.928737  0.300158  0.714834  1
  Li  Li2  1  0.000032  0.999973  0.499896  1
  Li  Li3  1  0.334587  0.666310  0.479684  1
  Li  Li4  1  0.301274  0.370741  0.284954  1
  Li  Li5  1  0.698712  0.629240  0.715078  1
  Li  Li6  1  0.665417  0.333693  0.520314  1
  Li  Li7  1  0.071315  0.699865  0.285122  1
  Li  Li8  1  0.629217  0.930063  0.285921  1
  Fe  Fe9  1  0.999976  0.000000  0.999961  1
  Fe  Fe10  1  0.333271  0.666659  0.046214  1
  Fe  Fe11  1  0.666851  0.333310  0.953827  1
  P  P12  1  0.028192  0.681911  0.755812  1
  P  P13  1  0.318208  0.346645  0.755128  1
  P  P14  1  0.652922  0.971136  0.756148  1
  P  P15  1  0.347096  0.028892  0.243811  1
  P  P16  1  0.681844  0.653337  0.244904  1
  P  P17  1  0.971844  0.318104  0.244253  1
  O  O18  1  0.145500  0.950529  0.201579  1
  O  O19  1  0.125725  0.727132  0.562843  1
  O  O20  1  0.157597  0.705796  0.921657  1
  O  O21  1  0.377205  0.866501  0.246153  1
  O  O22  1  0.133742  0.511108  0.245931  1
  O  O23  1  0.050549  0.195355  0.200698  1
  O  O24  1  0.548642  0.843300  0.923187  1
  O  O25  1  0.294148  0.451075  0.921605  1
  O  O26  1  0.194486  0.144990  0.796322  1
  O  O27  1  0.274922  0.401207  0.562695  1
  O  O28  1  0.598349  0.872172  0.563909  1
  O  O29  1  0.489558  0.622965  0.245513  1
  O  O30  1  0.510443  0.377026  0.754499  1
  O  O31  1  0.401632  0.127829  0.436068  1
  O  O32  1  0.725046  0.598832  0.437296  1
  O  O33  1  0.805487  0.854994  0.203646  1
  O  O34  1  0.705830  0.548880  0.078432  1
  O  O35  1  0.451368  0.156695  0.076813  1
  O  O36  1  0.949433  0.804624  0.799365  1
  O  O37  1  0.866279  0.488898  0.754079  1
  O  O38  1  0.622783  0.133497  0.753853  1
  O  O39  1  0.842479  0.294181  0.078352  1
  O  O40  1  0.874241  0.272920  0.437141  1
  O  O41  1  0.854489  0.049496  0.798416  1
