# generated using pymatgen
data_Li4V3P8O29
_symmetry_space_group_name_H-M   'P 1'
_cell_length_a   9.74983113
_cell_length_b   9.74752097
_cell_length_c   14.25744319
_cell_angle_alpha   90.28319246
_cell_angle_beta   90.71322043
_cell_angle_gamma   60.30078596
_symmetry_Int_Tables_number   1
_chemical_formula_structural   Li4V3P8O29
_chemical_formula_sum   'Li8 V6 P16 O58'
_cell_volume   1176.89528034
_cell_formula_units_Z   2
loop_
 _symmetry_equiv_pos_site_id
 _symmetry_equiv_pos_as_xyz
  1  'x, y, z'
loop_
 _atom_site_type_symbol
 _atom_site_label
 _atom_site_symmetry_multiplicity
 _atom_site_fract_x
 _atom_site_fract_y
 _atom_site_fract_z
 _atom_site_occupancy
  Li  Li0  1  0.767024  0.331552  0.049385  1
  Li  Li1  1  0.328782  0.907337  0.062819  1
  Li  Li2  1  0.668716  0.233353  0.444928  1
  Li  Li3  1  0.328900  0.767651  0.564284  1
  Li  Li4  1  0.671298  0.091834  0.935017  1
  Li  Li5  1  0.090578  0.675648  0.441840  1
  Li  Li6  1  0.037822  0.951464  0.992156  1
  Li  Li7  1  0.987377  0.054071  0.513554  1
  V  V8  1  0.563903  0.435289  0.248825  1
  V  V9  1  0.432628  0.566155  0.750185  1
  V  V10  1  0.563496  0.996683  0.746113  1
  V  V11  1  0.433513  0.003660  0.251512  1
  V  V12  1  0.996770  0.563058  0.249593  1
  V  V13  1  0.003204  0.434751  0.753529  1
  P  P14  1  0.917846  0.781934  0.837592  1
  P  P15  1  0.780393  0.917717  0.335797  1
  P  P16  1  0.916672  0.304576  0.344573  1
  P  P17  1  0.664705  0.664657  0.132901  1
  P  P18  1  0.668091  0.663046  0.632373  1
  P  P19  1  0.776494  0.313185  0.838284  1
  P  P20  1  0.684992  0.225309  0.658687  1
  P  P21  1  0.312612  0.911979  0.845649  1
  P  P22  1  0.684157  0.086928  0.152839  1
  P  P23  1  0.317639  0.772304  0.343703  1
  P  P24  1  0.217364  0.693923  0.163678  1
  P  P25  1  0.333494  0.335627  0.367012  1
  P  P26  1  0.338704  0.330067  0.867167  1
  P  P27  1  0.084103  0.688927  0.654693  1
  P  P28  1  0.212615  0.087707  0.665666  1
  P  P29  1  0.080756  0.221777  0.160480  1
  O  O30  1  0.011777  0.766063  0.563156  1
  O  O31  1  0.920440  0.742820  0.336154  1
  O  O32  1  0.757914  0.021017  0.061025  1
  O  O33  1  0.740588  0.916214  0.834970  1
  O  O34  1  0.926142  0.618992  0.829543  1
  O  O35  1  0.810353  0.667131  0.182245  1
  O  O36  1  0.921964  0.460624  0.329893  1
  O  O37  1  0.989052  0.218286  0.077349  1
  O  O38  1  0.919511  0.341292  0.834884  1
  O  O39  1  0.663013  0.815122  0.680010  1
  O  O40  1  0.623744  0.917404  0.327551  1
  O  O41  1  0.812580  0.522373  0.682840  1
  O  O42  1  0.675875  0.645236  0.029332  1
  O  O43  1  0.674883  0.667883  0.528703  1
  O  O44  1  0.671513  0.511335  0.176951  1
  O  O45  1  0.465705  0.918518  0.829928  1
  O  O46  1  0.512119  0.812351  0.167009  1
  O  O47  1  0.740360  0.342374  0.335430  1
  O  O48  1  0.798869  0.202771  0.747455  1
  O  O49  1  0.769742  0.210493  0.569022  1
  O  O50  1  0.780246  0.223300  0.925293  1
  O  O51  1  0.623867  0.469140  0.826520  1
  O  O52  1  0.512082  0.671462  0.665237  1
  O  O53  1  0.656418  0.259950  0.163301  1
  O  O54  1  0.474203  0.616053  0.324613  1
  O  O55  1  0.347026  0.912211  0.333439  1
  O  O56  1  0.803002  0.988228  0.236846  1
  O  O57  1  0.796136  0.011044  0.413915  1
  O  O58  1  0.196767  0.996851  0.585403  1
  O  O59  1  0.650084  0.086340  0.668033  1
  O  O60  1  0.531632  0.382708  0.670431  1
  O  O61  1  0.346352  0.741608  0.829393  1
  O  O62  1  0.484788  0.332300  0.320290  1
  O  O63  1  0.379998  0.539000  0.172940  1
  O  O64  1  0.205523  0.796873  0.083521  1
  O  O65  1  0.242982  0.767422  0.433839  1
  O  O66  1  0.198545  0.789814  0.259842  1
  O  O67  1  0.254230  0.662452  0.661659  1
  O  O68  1  0.487552  0.179694  0.824700  1
  O  O69  1  0.526877  0.088911  0.171447  1
  O  O70  1  0.333088  0.476717  0.822957  1
  O  O71  1  0.346273  0.319970  0.971386  1
  O  O72  1  0.351431  0.341538  0.470479  1
  O  O73  1  0.184934  0.490287  0.328011  1
  O  O74  1  0.376615  0.078647  0.672859  1
  O  O75  1  0.325172  0.194900  0.323725  1
  O  O76  1  0.083474  0.653368  0.167270  1
  O  O77  1  0.988300  0.804427  0.740215  1
  O  O78  1  0.999513  0.805163  0.919314  1
  O  O79  1  0.084462  0.532171  0.674058  1
  O  O80  1  0.189050  0.329382  0.821842  1
  O  O81  1  0.080403  0.381730  0.175815  1
  O  O82  1  0.252187  0.083119  0.161468  1
  O  O83  1  0.235070  0.973884  0.938245  1
  O  O84  1  0.192599  0.014751  0.762719  1
  O  O85  1  0.080283  0.261583  0.666571  1
  O  O86  1  0.990964  0.212634  0.430597  1
  O  O87  1  0.001329  0.199906  0.253519  1
