# generated using pymatgen
data_CsMn(CN)3
_symmetry_space_group_name_H-M   'P 1'
_cell_length_a   7.14797815
_cell_length_b   7.14785207
_cell_length_c   7.14782114
_cell_angle_alpha   60.00243768
_cell_angle_beta   59.99973475
_cell_angle_gamma   60.00102185
_symmetry_Int_Tables_number   1
_chemical_formula_structural   CsMn(CN)3
_chemical_formula_sum   'Cs2 Mn2 C6 N6'
_cell_volume   258.24262900
_cell_formula_units_Z   2
loop_
 _symmetry_equiv_pos_site_id
 _symmetry_equiv_pos_as_xyz
  1  'x, y, z'
loop_
 _atom_site_type_symbol
 _atom_site_label
 _atom_site_symmetry_multiplicity
 _atom_site_fract_x
 _atom_site_fract_y
 _atom_site_fract_z
 _atom_site_occupancy
  Cs  Cs0  1  0.249997  0.249999  0.249999  1
  Cs  Cs1  1  0.750000  0.750000  0.749999  1
  Mn  Mn2  1  0.000000  0.000001  -0.000001  1
  Mn  Mn3  1  0.500000  0.499993  0.500003  1
  C  C4  1  0.690123  0.309881  0.309880  1
  C  C5  1  0.309880  0.690116  0.690117  1
  C  C6  1  0.309873  0.690130  0.309873  1
  C  C7  1  0.309876  0.309876  0.690127  1
  C  C8  1  0.690124  0.309873  0.690124  1
  C  C9  1  0.690121  0.690121  0.309876  1
  N  N10  1  0.807511  0.192493  0.192494  1
  N  N11  1  0.192487  0.807511  0.807507  1
  N  N12  1  0.192502  0.807503  0.192502  1
  N  N13  1  0.192498  0.192498  0.807506  1
  N  N14  1  0.807501  0.192495  0.807501  1
  N  N15  1  0.807504  0.807505  0.192491  1
