# generated using pymatgen
data_Ca2SiB5H5O14
_symmetry_space_group_name_H-M   'P 1'
_cell_length_a   12.91378498
_cell_length_b   9.45158156
_cell_length_c   8.68346102
_cell_angle_alpha   90.00000000
_cell_angle_beta   105.15804925
_cell_angle_gamma   90.00000000
_symmetry_Int_Tables_number   1
_chemical_formula_structural   Ca2SiB5H5O14
_chemical_formula_sum   'Ca8 Si4 B20 H20 O56'
_cell_volume   1022.99120863
_cell_formula_units_Z   4
loop_
 _symmetry_equiv_pos_site_id
 _symmetry_equiv_pos_as_xyz
  1  'x, y, z'
loop_
 _atom_site_type_symbol
 _atom_site_label
 _atom_site_symmetry_multiplicity
 _atom_site_fract_x
 _atom_site_fract_y
 _atom_site_fract_z
 _atom_site_occupancy
  Ca  Ca0  1  0.118083  0.316741  0.648976  1
  Ca  Ca1  1  0.118083  0.183259  0.148976  1
  Ca  Ca2  1  0.413103  0.822564  0.524541  1
  Ca  Ca3  1  0.413103  0.677436  0.024541  1
  Ca  Ca4  1  0.586897  0.322564  0.975459  1
  Ca  Ca5  1  0.586897  0.177436  0.475459  1
  Ca  Ca6  1  0.881917  0.816741  0.851024  1
  Ca  Ca7  1  0.881917  0.683259  0.351024  1
  Si  Si8  1  0.140960  0.944284  0.510689  1
  Si  Si9  1  0.140960  0.555716  0.010689  1
  Si  Si10  1  0.859040  0.444284  0.989311  1
  Si  Si11  1  0.859040  0.055716  0.489311  1
  B  B12  1  0.037944  0.026225  0.756291  1
  B  B13  1  0.158102  0.851029  0.970923  1
  B  B14  1  0.037944  0.473775  0.256291  1
  B  B15  1  0.158102  0.648971  0.470923  1
  B  B16  1  0.341903  0.236676  0.785985  1
  B  B17  1  0.322056  0.117276  0.526285  1
  B  B18  1  0.341903  0.263324  0.285985  1
  B  B19  1  0.322056  0.382724  0.026285  1
  B  B20  1  0.492453  0.081042  0.749649  1
  B  B21  1  0.507547  0.581042  0.750351  1
  B  B22  1  0.492453  0.418958  0.249649  1
  B  B23  1  0.507547  0.918958  0.250351  1
  B  B24  1  0.677944  0.617276  0.973715  1
  B  B25  1  0.658097  0.736676  0.714015  1
  B  B26  1  0.677944  0.882724  0.473715  1
  B  B27  1  0.658097  0.763324  0.214015  1
  B  B28  1  0.841898  0.351029  0.529077  1
  B  B29  1  0.962056  0.526225  0.743709  1
  B  B30  1  0.841898  0.148971  0.029077  1
  B  B31  1  0.962056  0.973775  0.243709  1
  H  H32  1  0.012820  0.710140  0.655679  1
  H  H33  1  0.012820  0.789860  0.155679  1
  H  H34  1  0.180833  0.574752  0.697552  1
  H  H35  1  0.223707  0.812464  0.785427  1
  H  H36  1  0.180833  0.925248  0.197552  1
  H  H37  1  0.223707  0.687536  0.285427  1
  H  H38  1  0.336740  0.586632  0.675267  1
  H  H39  1  0.336740  0.913368  0.175267  1
  H  H40  1  0.462565  0.406080  0.603154  1
  H  H41  1  0.537435  0.906080  0.896846  1
  H  H42  1  0.462565  0.093920  0.103154  1
  H  H43  1  0.537435  0.593920  0.396846  1
  H  H44  1  0.663260  0.086632  0.824733  1
  H  H45  1  0.663260  0.413368  0.324733  1
  H  H46  1  0.776293  0.312464  0.714573  1
  H  H47  1  0.819167  0.074752  0.802448  1
  H  H48  1  0.776293  0.187536  0.214573  1
  H  H49  1  0.819167  0.425248  0.302448  1
  H  H50  1  0.987180  0.210140  0.844321  1
  H  H51  1  0.987180  0.289860  0.344321  1
  O  O52  1  0.056539  0.162395  0.852576  1
  O  O53  1  0.062323  0.899642  0.853088  1
  O  O54  1  0.079826  0.514673  0.824373  1
  O  O55  1  0.098661  0.046382  0.634437  1
  O  O56  1  0.056539  0.337605  0.352576  1
  O  O57  1  0.062323  0.600358  0.353088  1
  O  O58  1  0.079826  0.985327  0.324373  1
  O  O59  1  0.125817  0.777791  0.552756  1
  O  O60  1  0.098661  0.453618  0.134437  1
  O  O61  1  0.248326  0.815195  0.902062  1
  O  O62  1  0.200043  0.543072  0.600731  1
  O  O63  1  0.125817  0.722209  0.052756  1
  O  O64  1  0.290543  0.328901  0.862920  1
  O  O65  1  0.268388  0.977252  0.529134  1
  O  O66  1  0.286327  0.218564  0.628930  1
  O  O67  1  0.248326  0.684805  0.402062  1
  O  O68  1  0.200043  0.956928  0.100731  1
  O  O69  1  0.290543  0.171099  0.362920  1
  O  O70  1  0.268388  0.522748  0.029134  1
  O  O71  1  0.286327  0.281436  0.128930  1
  O  O72  1  0.399628  0.646627  0.727975  1
  O  O73  1  0.436686  0.166326  0.853678  1
  O  O74  1  0.437734  0.093485  0.579292  1
  O  O75  1  0.399628  0.853373  0.227975  1
  O  O76  1  0.496270  0.930772  0.789140  1
  O  O77  1  0.436686  0.333674  0.353678  1
  O  O78  1  0.503730  0.430772  0.710860  1
  O  O79  1  0.562266  0.593485  0.920708  1
  O  O80  1  0.437734  0.406515  0.079292  1
  O  O81  1  0.496270  0.569228  0.289140  1
  O  O82  1  0.563314  0.666326  0.646322  1
  O  O83  1  0.503730  0.069228  0.210860  1
  O  O84  1  0.600372  0.146627  0.772025  1
  O  O85  1  0.562266  0.906515  0.420708  1
  O  O86  1  0.563314  0.833674  0.146322  1
  O  O87  1  0.600372  0.353373  0.272025  1
  O  O88  1  0.713673  0.718564  0.871070  1
  O  O89  1  0.731612  0.477252  0.970866  1
  O  O90  1  0.709457  0.828901  0.637080  1
  O  O91  1  0.799957  0.043072  0.899269  1
  O  O92  1  0.751674  0.315195  0.597938  1
  O  O93  1  0.713673  0.781436  0.371070  1
  O  O94  1  0.731612  0.022748  0.470866  1
  O  O95  1  0.709457  0.671099  0.137080  1
  O  O96  1  0.874183  0.277791  0.947244  1
  O  O97  1  0.799957  0.456928  0.399269  1
  O  O98  1  0.751674  0.184805  0.097938  1
  O  O99  1  0.901339  0.546382  0.865563  1
  O  O100  1  0.874183  0.222209  0.447244  1
  O  O101  1  0.920174  0.014673  0.675627  1
  O  O102  1  0.937677  0.399642  0.646912  1
  O  O103  1  0.943461  0.662395  0.647424  1
  O  O104  1  0.901339  0.953618  0.365563  1
  O  O105  1  0.920174  0.485327  0.175627  1
  O  O106  1  0.937677  0.100358  0.146912  1
  O  O107  1  0.943461  0.837605  0.147424  1
