# generated using pymatgen
data_Li10Mg12Fe(PO4)12
_symmetry_space_group_name_H-M   'P 1'
_cell_length_a   10.25419646
_cell_length_b   5.96716900
_cell_length_c   14.26189498
_cell_angle_alpha   89.71685805
_cell_angle_beta   90.02983669
_cell_angle_gamma   90.10631451
_symmetry_Int_Tables_number   1
_chemical_formula_structural   Li10Mg12Fe(PO4)12
_chemical_formula_sum   'Li10 Mg12 Fe1 P12 O48'
_cell_volume   872.65201914
_cell_formula_units_Z   1
loop_
 _symmetry_equiv_pos_site_id
 _symmetry_equiv_pos_as_xyz
  1  'x, y, z'
loop_
 _atom_site_type_symbol
 _atom_site_label
 _atom_site_symmetry_multiplicity
 _atom_site_fract_x
 _atom_site_fract_y
 _atom_site_fract_z
 _atom_site_occupancy
  Li  Li0  1  0.999982  0.500113  0.666714  1
  Li  Li1  1  0.000157  0.999931  0.999943  1
  Li  Li2  1  0.000018  0.499887  0.999953  1
  Li  Li3  1  0.000000  0.000000  0.333333  1
  Li  Li4  1  0.000000  0.500000  0.333333  1
  Li  Li5  1  0.999843  0.000069  0.666724  1
  Li  Li6  1  0.500208  0.000237  0.499804  1
  Li  Li7  1  0.499792  0.999763  0.166863  1
  Li  Li8  1  0.500018  0.499459  0.499948  1
  Li  Li9  1  0.499982  0.500541  0.166719  1
  Mg  Mg10  1  0.222080  0.750062  0.160706  1
  Mg  Mg11  1  0.221824  0.749459  0.493860  1
  Mg  Mg12  1  0.221957  0.755865  0.827611  1
  Mg  Mg13  1  0.277889  0.249745  0.327398  1
  Mg  Mg14  1  0.277096  0.249252  0.660581  1
  Mg  Mg15  1  0.277610  0.247442  0.993949  1
  Mg  Mg16  1  0.722904  0.750748  0.006086  1
  Mg  Mg17  1  0.722111  0.750255  0.339269  1
  Mg  Mg18  1  0.722390  0.752558  0.672718  1
  Mg  Mg19  1  0.777920  0.249938  0.505961  1
  Mg  Mg20  1  0.778176  0.250541  0.172806  1
  Mg  Mg21  1  0.778043  0.244135  0.839056  1
  Fe  Fe22  1  0.500000  0.500000  0.833333  1
  P  P23  1  0.095413  0.250143  0.139260  1
  P  P24  1  0.095404  0.249958  0.472701  1
  P  P25  1  0.095427  0.250623  0.806009  1
  P  P26  1  0.404546  0.750048  0.306018  1
  P  P27  1  0.404277  0.747788  0.638623  1
  P  P28  1  0.403793  0.757588  0.973345  1
  P  P29  1  0.595454  0.249952  0.360648  1
  P  P30  1  0.595723  0.252212  0.028044  1
  P  P31  1  0.596207  0.242412  0.693322  1
  P  P32  1  0.904596  0.750042  0.193966  1
  P  P33  1  0.904587  0.749857  0.527407  1
  P  P34  1  0.904573  0.749377  0.860657  1
  O  O35  1  0.046390  0.749792  0.565637  1
  O  O36  1  0.046390  0.750076  0.232366  1
  O  O37  1  0.046332  0.749495  0.899011  1
  O  O38  1  0.102060  0.249978  0.247239  1
  O  O39  1  0.102064  0.249584  0.580379  1
  O  O40  1  0.102010  0.249920  0.913776  1
  O  O41  1  0.166192  0.044611  0.093878  1
  O  O42  1  0.166796  0.456086  0.093239  1
  O  O43  1  0.166566  0.044498  0.426961  1
  O  O44  1  0.165915  0.045114  0.759836  1
  O  O45  1  0.166585  0.456037  0.426571  1
  O  O46  1  0.167099  0.456677  0.760306  1
  O  O47  1  0.332858  0.543934  0.591805  1
  O  O48  1  0.333627  0.955640  0.594290  1
  O  O49  1  0.333394  0.544416  0.260247  1
  O  O50  1  0.334526  0.545106  0.926941  1
  O  O51  1  0.333441  0.956049  0.260126  1
  O  O52  1  0.327961  0.954684  0.929346  1
  O  O53  1  0.397924  0.749941  0.413817  1
  O  O54  1  0.397682  0.751083  0.081423  1
  O  O55  1  0.396166  0.739631  0.746304  1
  O  O56  1  0.453642  0.249801  0.398961  1
  O  O57  1  0.453650  0.250361  0.065572  1
  O  O58  1  0.453374  0.256376  0.729167  1
  O  O59  1  0.546358  0.750199  0.267705  1
  O  O60  1  0.546626  0.743624  0.937500  1
  O  O61  1  0.546350  0.749639  0.601095  1
  O  O62  1  0.602076  0.250059  0.252850  1
  O  O63  1  0.603834  0.260369  0.920362  1
  O  O64  1  0.602318  0.248917  0.585244  1
  O  O65  1  0.666373  0.044360  0.072377  1
  O  O66  1  0.666559  0.043951  0.406541  1
  O  O67  1  0.667142  0.456066  0.074862  1
  O  O68  1  0.666606  0.455584  0.406420  1
  O  O69  1  0.672039  0.045316  0.737320  1
  O  O70  1  0.665474  0.454894  0.739726  1
  O  O71  1  0.832901  0.543323  0.906361  1
  O  O72  1  0.834085  0.954886  0.906831  1
  O  O73  1  0.833204  0.543914  0.573428  1
  O  O74  1  0.833415  0.543963  0.240096  1
  O  O75  1  0.833434  0.955502  0.239705  1
  O  O76  1  0.833808  0.955389  0.572788  1
  O  O77  1  0.897990  0.750080  0.752890  1
  O  O78  1  0.897940  0.750022  0.419427  1
  O  O79  1  0.897936  0.750416  0.086288  1
  O  O80  1  0.953668  0.250505  0.767656  1
  O  O81  1  0.953610  0.250208  0.101030  1
  O  O82  1  0.953610  0.249924  0.434301  1
