# generated using pymatgen
data_V3(O2F)2
_symmetry_space_group_name_H-M   'P 1'
_cell_length_a   7.11070834
_cell_length_b   5.61788214
_cell_length_c   5.61748266
_cell_angle_alpha   76.08437380
_cell_angle_beta   73.53311598
_cell_angle_gamma   73.50294684
_symmetry_Int_Tables_number   1
_chemical_formula_structural   V3(O2F)2
_chemical_formula_sum   'V6 O8 F4'
_cell_volume   203.19156337
_cell_formula_units_Z   2
loop_
 _symmetry_equiv_pos_site_id
 _symmetry_equiv_pos_as_xyz
  1  'x, y, z'
loop_
 _atom_site_type_symbol
 _atom_site_label
 _atom_site_symmetry_multiplicity
 _atom_site_fract_x
 _atom_site_fract_y
 _atom_site_fract_z
 _atom_site_occupancy
  V  V0  1  0.833335  0.666664  0.666672  1
  V  V1  1  0.667366  0.376048  0.289291  1
  V  V2  1  0.333336  0.666675  0.666660  1
  V  V3  1  0.162982  0.340175  0.334348  1
  V  V4  1  0.503681  0.993156  0.998991  1
  V  V5  1  0.999306  0.957293  0.044032  1
  O  O6  1  0.960875  0.230523  0.233503  1
  O  O7  1  0.634105  0.562044  0.558591  1
  O  O8  1  0.294731  0.901077  0.904316  1
  O  O9  1  0.705792  0.102808  0.099830  1
  O  O10  1  0.032560  0.771289  0.774741  1
  O  O11  1  0.371934  0.432253  0.429019  1
  O  O12  1  0.666324  0.634845  0.029383  1
  O  O13  1  0.000343  0.698488  0.303951  1
  F  F14  1  0.664019  0.031927  0.633110  1
  F  F15  1  0.335560  0.360376  0.969896  1
  F  F16  1  0.002643  0.301405  0.700224  1
  F  F17  1  0.331108  0.972953  0.363444  1
