# generated using pymatgen
data_V2(OF)3
_symmetry_space_group_name_H-M   'P 1'
_cell_length_a   5.23969723
_cell_length_b   13.28538567
_cell_length_c   5.23207445
_cell_angle_alpha   89.64753027
_cell_angle_beta   119.41869839
_cell_angle_gamma   90.87504312
_symmetry_Int_Tables_number   1
_chemical_formula_structural   V2(OF)3
_chemical_formula_sum   'V6 O9 F9'
_cell_volume   317.21079764
_cell_formula_units_Z   3
loop_
 _symmetry_equiv_pos_site_id
 _symmetry_equiv_pos_as_xyz
  1  'x, y, z'
loop_
 _atom_site_type_symbol
 _atom_site_label
 _atom_site_symmetry_multiplicity
 _atom_site_fract_x
 _atom_site_fract_y
 _atom_site_fract_z
 _atom_site_occupancy
  V  V0  1  0.988671  0.490504  0.022421  1
  V  V1  1  0.971403  0.993130  0.993507  1
  V  V2  1  0.633294  0.819384  0.321341  1
  V  V3  1  0.308395  0.660227  0.680929  1
  V  V4  1  0.655999  0.332703  0.379791  1
  V  V5  1  0.362734  0.151936  0.699449  1
  O  O6  1  0.430918  0.756642  0.001024  1
  O  O7  1  0.778934  0.919132  0.096900  1
  O  O8  1  0.100790  0.584443  0.761488  1
  O  O9  1  0.433273  0.252411  0.425153  1
  O  O10  1  0.568534  0.753777  0.556601  1
  O  O11  1  0.901445  0.417560  0.229550  1
  O  O12  1  0.237457  0.086530  0.889599  1
  O  O13  1  0.759082  0.414463  0.660828  1
  O  O14  1  0.658815  0.086431  0.753120  1
  F  F15  1  0.995641  0.752745  0.408771  1
  F  F16  1  0.342811  0.415209  0.086656  1
  F  F17  1  0.090802  0.092685  0.324689  1
  F  F18  1  0.359230  0.924036  0.253365  1
  F  F19  1  0.260990  0.584034  0.335255  1
  F  F20  1  0.564877  0.252880  0.985099  1
  F  F21  1  0.992907  0.252881  0.557572  1
  F  F22  1  0.921654  0.915040  0.657689  1
  F  F23  1  0.681346  0.591219  0.919205  1
