# generated using pymatgen
data_LiAgF6
_symmetry_space_group_name_H-M   'P 1'
_cell_length_a   8.09740083
_cell_length_b   8.09740087
_cell_length_c   8.09740022
_cell_angle_alpha   109.47122139
_cell_angle_beta   109.47121962
_cell_angle_gamma   109.47121798
_symmetry_Int_Tables_number   1
_chemical_formula_structural   LiAgF6
_chemical_formula_sum   'Li4 Ag4 F24'
_cell_volume   408.70975896
_cell_formula_units_Z   4
loop_
 _symmetry_equiv_pos_site_id
 _symmetry_equiv_pos_as_xyz
  1  'x, y, z'
loop_
 _atom_site_type_symbol
 _atom_site_label
 _atom_site_symmetry_multiplicity
 _atom_site_fract_x
 _atom_site_fract_y
 _atom_site_fract_z
 _atom_site_occupancy
  Li  Li0  1  0.000000  0.500000  0.500000  1
  Li  Li1  1  0.000000  0.000000  0.000000  1
  Li  Li2  1  0.500000  0.000000  0.500000  1
  Li  Li3  1  0.500000  0.500000  0.000000  1
  Ag  Ag4  1  0.000000  0.500000  0.000000  1
  Ag  Ag5  1  0.000000  0.000000  0.500000  1
  Ag  Ag6  1  0.500000  0.500000  0.500000  1
  Ag  Ag7  1  0.500000  0.000000  0.000000  1
  F  F8  1  0.027716  0.943762  0.721857  1
  F  F9  1  0.083954  0.527716  0.805859  1
  F  F10  1  0.056238  0.278143  0.972284  1
  F  F11  1  0.194141  0.916046  0.472284  1
  F  F12  1  0.305859  0.778143  0.721905  1
  F  F13  1  0.221857  0.278095  0.694141  1
  F  F14  1  0.221905  0.443762  0.416046  1
  F  F15  1  0.278143  0.972284  0.056238  1
  F  F16  1  0.278095  0.694141  0.221857  1
  F  F17  1  0.472284  0.194141  0.916046  1
  F  F18  1  0.556238  0.583954  0.778095  1
  F  F19  1  0.583954  0.778095  0.556238  1
  F  F20  1  0.416046  0.221905  0.443762  1
  F  F21  1  0.443762  0.416046  0.221905  1
  F  F22  1  0.527716  0.805859  0.083954  1
  F  F23  1  0.721905  0.305859  0.778143  1
  F  F24  1  0.721857  0.027716  0.943762  1
  F  F25  1  0.778095  0.556238  0.583954  1
  F  F26  1  0.778143  0.721905  0.305859  1
  F  F27  1  0.694141  0.221857  0.278095  1
  F  F28  1  0.805859  0.083954  0.527716  1
  F  F29  1  0.943762  0.721857  0.027716  1
  F  F30  1  0.916046  0.472284  0.194141  1
  F  F31  1  0.972284  0.056238  0.278143  1
