# generated using pymatgen
data_Li17Ag12F29
_symmetry_space_group_name_H-M   'P 1'
_cell_length_a   10.90464923
_cell_length_b   10.90464953
_cell_length_c   10.90464970
_cell_angle_alpha   119.99999713
_cell_angle_beta   60.00000138
_cell_angle_gamma   119.99999911
_symmetry_Int_Tables_number   1
_chemical_formula_structural   Li17Ag12F29
_chemical_formula_sum   'Li17 Ag12 F29'
_cell_volume   916.89615238
_cell_formula_units_Z   1
loop_
 _symmetry_equiv_pos_site_id
 _symmetry_equiv_pos_as_xyz
  1  'x, y, z'
loop_
 _atom_site_type_symbol
 _atom_site_label
 _atom_site_symmetry_multiplicity
 _atom_site_fract_x
 _atom_site_fract_y
 _atom_site_fract_z
 _atom_site_occupancy
  Li  Li0  1  0.147180  0.852820  0.147180  1
  Li  Li1  1  0.013120  0.671040  0.328960  1
  Li  Li2  1  0.147180  0.852820  0.558460  1
  Li  Li3  1  0.147180  0.441540  0.147180  1
  Li  Li4  1  0.328960  0.986880  0.328960  1
  Li  Li5  1  0.328960  0.671040  0.013120  1
  Li  Li6  1  0.328960  0.671040  0.328960  1
  Li  Li7  1  0.558460  0.852820  0.147180  1
  Li  Li8  1  0.092020  0.364006  0.635994  1
  Li  Li9  1  0.635994  0.364006  0.092020  1
  Li  Li10  1  0.635994  0.907980  0.635994  1
  Li  Li11  1  0.500000  0.500000  0.500000  1
  Li  Li12  1  0.635994  0.364006  0.635994  1
  Li  Li13  1  0.442376  0.147458  0.852542  1
  Li  Li14  1  0.852542  0.557624  0.852542  1
  Li  Li15  1  0.852542  0.147458  0.442376  1
  Li  Li16  1  0.852542  0.147458  0.852542  1
  Ag  Ag17  1  0.298090  0.298090  0.298090  1
  Ag  Ag18  1  0.298090  0.701910  0.701910  1
  Ag  Ag19  1  0.298090  0.298090  0.701910  1
  Ag  Ag20  1  0.701910  0.701910  0.298090  1
  Ag  Ag21  1  0.701910  0.298090  0.298090  1
  Ag  Ag22  1  0.701910  0.701910  0.701910  1
  Ag  Ag23  1  0.505324  0.005324  0.505324  1
  Ag  Ag24  1  0.505324  0.494676  0.994676  1
  Ag  Ag25  1  0.994676  0.494676  0.505324  1
  Ag  Ag26  1  0.505324  0.005324  0.994676  1
  Ag  Ag27  1  0.994676  0.005324  0.505324  1
  Ag  Ag28  1  0.994676  0.494676  0.994676  1
  F  F29  1  0.250000  0.750000  0.250000  1
  F  F30  1  0.030279  0.249272  0.468266  1
  F  F31  1  0.030279  0.531734  0.750728  1
  F  F32  1  0.249429  0.465166  0.249429  1
  F  F33  1  0.249429  0.750571  0.534834  1
  F  F34  1  0.030279  0.249272  0.750728  1
  F  F35  1  0.534834  0.750571  0.249429  1
  F  F36  1  0.249429  0.033691  0.249429  1
  F  F37  1  0.249429  0.750571  0.966309  1
  F  F38  1  0.468266  0.249272  0.030279  1
  F  F39  1  0.468266  0.969721  0.750728  1
  F  F40  1  0.294530  0.431510  0.568490  1
  F  F41  1  0.249429  0.033691  0.534834  1
  F  F42  1  0.249429  0.465166  0.966309  1
  F  F43  1  0.568490  0.431510  0.294530  1
  F  F44  1  0.568490  0.705470  0.568490  1
  F  F45  1  0.750728  0.531734  0.030279  1
  F  F46  1  0.750728  0.969721  0.468266  1
  F  F47  1  0.568490  0.431510  0.568490  1
  F  F48  1  0.750728  0.249272  0.030279  1
  F  F49  1  0.750728  0.969721  0.750728  1
  F  F50  1  0.534834  0.750571  0.966309  1
  F  F51  1  0.534834  0.033691  0.249429  1
  F  F52  1  0.966309  0.750571  0.249429  1
  F  F53  1  0.468266  0.249272  0.750728  1
  F  F54  1  0.966309  0.750571  0.534834  1
  F  F55  1  0.966309  0.465166  0.249429  1
  F  F56  1  0.750728  0.249272  0.468266  1
  F  F57  1  0.750728  0.531734  0.750728  1
