# generated using pymatgen
data_NaZn4H18SClO16
_symmetry_space_group_name_H-M   'P 1'
_cell_length_a   8.47123277
_cell_length_b   8.47123871
_cell_length_c   13.18980684
_cell_angle_alpha   90.00011205
_cell_angle_beta   89.99982709
_cell_angle_gamma   120.00131098
_symmetry_Int_Tables_number   1
_chemical_formula_structural   NaZn4H18SClO16
_chemical_formula_sum   'Na2 Zn8 H36 S2 Cl2 O32'
_cell_volume   819.70364283
_cell_formula_units_Z   2
loop_
 _symmetry_equiv_pos_site_id
 _symmetry_equiv_pos_as_xyz
  1  'x, y, z'
loop_
 _atom_site_type_symbol
 _atom_site_label
 _atom_site_symmetry_multiplicity
 _atom_site_fract_x
 _atom_site_fract_y
 _atom_site_fract_z
 _atom_site_occupancy
  Na  Na0  1  0.333333  0.666666  0.591890  1
  Na  Na1  1  0.666666  0.333332  0.408110  1
  Zn  Zn2  1  0.127522  0.713625  0.992585  1
  Zn  Zn3  1  0.000001  0.000003  0.137539  1
  Zn  Zn4  1  0.000000  0.999996  0.862462  1
  Zn  Zn5  1  0.286374  0.413892  0.992584  1
  Zn  Zn6  1  0.586106  0.872477  0.992586  1
  Zn  Zn7  1  0.413895  0.127522  0.007414  1
  Zn  Zn8  1  0.713629  0.586107  0.007417  1
  Zn  Zn9  1  0.872480  0.286376  0.007414  1
  H  H10  1  0.008830  0.459657  0.715895  1
  H  H11  1  0.234023  0.909029  0.154804  1
  H  H12  1  0.241361  0.923982  0.704778  1
  H  H13  1  0.272510  0.951720  0.498239  1
  H  H14  1  0.241964  0.822421  0.407535  1
  H  H15  1  0.119387  0.478518  0.854779  1
  H  H16  1  0.048281  0.320791  0.498240  1
  H  H17  1  0.359131  0.880612  0.854779  1
  H  H18  1  0.076014  0.317376  0.704779  1
  H  H19  1  0.090977  0.324999  0.154804  1
  H  H20  1  0.177580  0.419542  0.407533  1
  H  H21  1  0.450831  0.991173  0.715895  1
  H  H22  1  0.317375  0.241359  0.295221  1
  H  H23  1  0.324999  0.234024  0.845195  1
  H  H24  1  0.320796  0.272511  0.501759  1
  H  H25  1  0.521481  0.640866  0.854779  1
  H  H26  1  0.580455  0.758037  0.407536  1
  H  H27  1  0.459658  0.450832  0.284106  1
  H  H28  1  0.540345  0.549168  0.715897  1
  H  H29  1  0.419544  0.241961  0.592464  1
  H  H30  1  0.478520  0.359131  0.145221  1
  H  H31  1  0.679213  0.727490  0.498237  1
  H  H32  1  0.675002  0.765976  0.154807  1
  H  H33  1  0.682630  0.758637  0.704781  1
  H  H34  1  0.549171  0.008828  0.284104  1
  H  H35  1  0.822418  0.580455  0.592465  1
  H  H36  1  0.909021  0.674999  0.845196  1
  H  H37  1  0.923986  0.682623  0.295221  1
  H  H38  1  0.640870  0.119386  0.145221  1
  H  H39  1  0.951722  0.679209  0.501762  1
  H  H40  1  0.880616  0.521481  0.145221  1
  H  H41  1  0.758035  0.177577  0.592464  1
  H  H42  1  0.727491  0.048272  0.501762  1
  H  H43  1  0.758638  0.076009  0.295219  1
  H  H44  1  0.765980  0.090968  0.845197  1
  H  H45  1  0.991175  0.540345  0.284102  1
  S  S46  1  0.333339  0.666680  0.223199  1
  S  S47  1  0.666663  0.333329  0.776802  1
  Cl  Cl48  1  0.000001  0.000001  0.311073  1
  Cl  Cl49  1  0.999998  0.999998  0.688927  1
  O  O50  1  0.186376  0.936940  0.092956  1
  O  O51  1  0.221397  0.821542  0.480780  1
  O  O52  1  0.105546  0.478981  0.929269  1
  O  O53  1  0.328304  0.880793  0.715455  1
  O  O54  1  0.119206  0.447512  0.715454  1
  O  O55  1  0.320417  0.826511  0.261272  1
  O  O56  1  0.373438  0.894455  0.929268  1
  O  O57  1  0.173507  0.493924  0.261276  1
  O  O58  1  0.063067  0.249441  0.092955  1
  O  O59  1  0.178461  0.399855  0.480777  1
  O  O60  1  0.333337  0.666673  0.109765  1
  O  O61  1  0.249438  0.186378  0.907043  1
  O  O62  1  0.506094  0.679609  0.261275  1
  O  O63  1  0.521017  0.626561  0.929269  1
  O  O64  1  0.600147  0.778602  0.480781  1
  O  O65  1  0.552495  0.671695  0.715454  1
  O  O66  1  0.447510  0.328307  0.284544  1
  O  O67  1  0.399862  0.221401  0.519218  1
  O  O68  1  0.478986  0.373438  0.070732  1
  O  O69  1  0.493910  0.320399  0.738726  1
  O  O70  1  0.750561  0.813624  0.092958  1
  O  O71  1  0.666663  0.333325  0.890235  1
  O  O72  1  0.821542  0.600143  0.519220  1
  O  O73  1  0.936935  0.750559  0.907044  1
  O  O74  1  0.826496  0.506092  0.738731  1
  O  O75  1  0.626563  0.105544  0.070731  1
  O  O76  1  0.679595  0.173505  0.738726  1
  O  O77  1  0.880796  0.552488  0.284545  1
  O  O78  1  0.671702  0.119206  0.284546  1
  O  O79  1  0.894458  0.521019  0.070731  1
  O  O80  1  0.778606  0.178452  0.519219  1
  O  O81  1  0.813628  0.063062  0.907045  1
