# generated using pymatgen
data_LiCuSbO4
_symmetry_space_group_name_H-M   'P 1'
_cell_length_a   6.10354464
_cell_length_b   6.23142542
_cell_length_c   6.23142500
_cell_angle_alpha   56.07934393
_cell_angle_beta   60.67656675
_cell_angle_gamma   60.67656894
_symmetry_Int_Tables_number   1
_chemical_formula_structural   LiCuSbO4
_chemical_formula_sum   'Li2 Cu2 Sb2 O8'
_cell_volume   163.61656371
_cell_formula_units_Z   2
loop_
 _symmetry_equiv_pos_site_id
 _symmetry_equiv_pos_as_xyz
  1  'x, y, z'
loop_
 _atom_site_type_symbol
 _atom_site_label
 _atom_site_symmetry_multiplicity
 _atom_site_fract_x
 _atom_site_fract_y
 _atom_site_fract_z
 _atom_site_occupancy
  Li  Li0  1  0.100165  0.149836  0.149836  1
  Li  Li1  1  0.899836  0.850164  0.850164  1
  Cu  Cu2  1  0.500000  0.000000  0.500000  1
  Cu  Cu3  1  0.500000  0.500000  0.000000  1
  Sb  Sb4  1  0.000000  0.500000  0.500000  1
  Sb  Sb5  1  0.500000  0.500000  0.500000  1
  O  O6  1  0.247940  0.281597  0.281597  1
  O  O7  1  0.235847  0.284654  0.743653  1
  O  O8  1  0.235847  0.743653  0.284654  1
  O  O9  1  0.688866  0.281597  0.281597  1
  O  O10  1  0.311134  0.718403  0.718403  1
  O  O11  1  0.764153  0.715346  0.256347  1
  O  O12  1  0.764153  0.256347  0.715346  1
  O  O13  1  0.752060  0.718403  0.718403  1
