# generated using pymatgen
data_Na2VSi(W2O9)6
_symmetry_space_group_name_H-M   'P 1'
_cell_length_a   14.71316233
_cell_length_b   14.71316233
_cell_length_c   10.79268547
_cell_angle_alpha   90.00000000
_cell_angle_beta   90.00000000
_cell_angle_gamma   90.00000000
_symmetry_Int_Tables_number   1
_chemical_formula_structural   Na2VSi(W2O9)6
_chemical_formula_sum   'Na4 V2 Si2 W24 O108'
_cell_volume   2336.36974551
_cell_formula_units_Z   2
loop_
 _symmetry_equiv_pos_site_id
 _symmetry_equiv_pos_as_xyz
  1  'x, y, z'
loop_
 _atom_site_type_symbol
 _atom_site_label
 _atom_site_symmetry_multiplicity
 _atom_site_fract_x
 _atom_site_fract_y
 _atom_site_fract_z
 _atom_site_occupancy
  Na  Na0  1  0.500000  0.000000  0.000000  1
  Na  Na1  1  0.000000  0.500000  0.000000  1
  Na  Na2  1  0.000000  0.000000  0.000000  1
  Na  Na3  1  0.500000  0.500000  0.000000  1
  V  V4  1  0.750000  0.750000  0.818100  1
  V  V5  1  0.250000  0.250000  0.181900  1
  Si  Si6  1  0.250000  0.750000  0.500000  1
  Si  Si7  1  0.750000  0.250000  0.500000  1
  W  W8  1  0.302596  0.989090  0.489825  1
  W  W9  1  0.197404  0.510910  0.489825  1
  W  W10  1  0.989090  0.197404  0.489825  1
  W  W11  1  0.510910  0.302596  0.489825  1
  W  W12  1  0.697404  0.010910  0.510175  1
  W  W13  1  0.802596  0.489090  0.510175  1
  W  W14  1  0.010910  0.802596  0.510175  1
  W  W15  1  0.489090  0.697404  0.510175  1
  W  W16  1  0.398775  0.835494  0.736391  1
  W  W17  1  0.101225  0.664506  0.736391  1
  W  W18  1  0.835494  0.101225  0.736391  1
  W  W19  1  0.664506  0.398775  0.736391  1
  W  W20  1  0.601225  0.164506  0.263609  1
  W  W21  1  0.898775  0.335494  0.263609  1
  W  W22  1  0.164506  0.898775  0.263609  1
  W  W23  1  0.335494  0.601225  0.263609  1
  W  W24  1  0.392029  0.850490  0.263349  1
  W  W25  1  0.107971  0.649510  0.263349  1
  W  W26  1  0.850490  0.107971  0.263349  1
  W  W27  1  0.649510  0.392029  0.263349  1
  W  W28  1  0.607971  0.149510  0.736651  1
  W  W29  1  0.892029  0.350490  0.736651  1
  W  W30  1  0.149510  0.892029  0.736651  1
  W  W31  1  0.350490  0.607971  0.736651  1
  O  O32  1  0.328459  0.101101  0.524522  1
  O  O33  1  0.171541  0.398899  0.524522  1
  O  O34  1  0.101101  0.171541  0.524522  1
  O  O35  1  0.398899  0.328459  0.524522  1
  O  O36  1  0.671541  0.898899  0.475478  1
  O  O37  1  0.828459  0.601101  0.475478  1
  O  O38  1  0.898899  0.828459  0.475478  1
  O  O39  1  0.601101  0.671541  0.475478  1
  O  O40  1  0.455669  0.899385  0.848894  1
  O  O41  1  0.044331  0.600615  0.848894  1
  O  O42  1  0.899385  0.044331  0.848894  1
  O  O43  1  0.600615  0.455669  0.848894  1
  O  O44  1  0.544331  0.100615  0.151106  1
  O  O45  1  0.955669  0.399385  0.151106  1
  O  O46  1  0.100615  0.955669  0.151106  1
  O  O47  1  0.399385  0.544331  0.151106  1
  O  O48  1  0.473511  0.877966  0.150860  1
  O  O49  1  0.026489  0.622034  0.150860  1
  O  O50  1  0.877966  0.026489  0.150860  1
  O  O51  1  0.622034  0.473511  0.150860  1
  O  O52  1  0.526489  0.122034  0.849140  1
  O  O53  1  0.973511  0.377966  0.849140  1
  O  O54  1  0.122034  0.973511  0.849140  1
  O  O55  1  0.377966  0.526489  0.849140  1
  O  O56  1  0.379206  0.924470  0.607477  1
  O  O57  1  0.120794  0.575530  0.607477  1
  O  O58  1  0.924470  0.120794  0.607477  1
  O  O59  1  0.575530  0.379206  0.607477  1
  O  O60  1  0.620794  0.075530  0.392523  1
  O  O61  1  0.879206  0.424470  0.392523  1
  O  O62  1  0.075530  0.879206  0.392523  1
  O  O63  1  0.424470  0.620794  0.392523  1
  O  O64  1  0.393705  0.717658  0.820266  1
  O  O65  1  0.106295  0.782342  0.820266  1
  O  O66  1  0.717658  0.106295  0.820266  1
  O  O67  1  0.782342  0.393705  0.820266  1
  O  O68  1  0.606295  0.282342  0.179734  1
  O  O69  1  0.893705  0.217659  0.179734  1
  O  O70  1  0.282342  0.893705  0.179734  1
  O  O71  1  0.217659  0.606295  0.179734  1
  O  O72  1  0.391638  0.961957  0.360180  1
  O  O73  1  0.108362  0.538043  0.360180  1
  O  O74  1  0.961957  0.108362  0.360180  1
  O  O75  1  0.538043  0.391638  0.360180  1
  O  O76  1  0.608362  0.038043  0.639820  1
  O  O77  1  0.891638  0.461957  0.639820  1
  O  O78  1  0.038043  0.891638  0.639820  1
  O  O79  1  0.461957  0.608362  0.639820  1
  O  O80  1  0.501391  0.788660  0.640639  1
  O  O81  1  0.998609  0.711340  0.640639  1
  O  O82  1  0.788660  0.998609  0.640639  1
  O  O83  1  0.711340  0.501391  0.640639  1
  O  O84  1  0.498609  0.211340  0.359361  1
  O  O85  1  0.001391  0.288660  0.359361  1
  O  O86  1  0.211340  0.001391  0.359361  1
  O  O87  1  0.288660  0.498609  0.359361  1
  O  O88  1  0.357698  0.726969  0.218480  1
  O  O89  1  0.142302  0.773031  0.218480  1
  O  O90  1  0.726969  0.142302  0.218480  1
  O  O91  1  0.773031  0.357698  0.218480  1
  O  O92  1  0.642302  0.273031  0.781520  1
  O  O93  1  0.857698  0.226969  0.781520  1
  O  O94  1  0.273031  0.857698  0.781520  1
  O  O95  1  0.226969  0.642302  0.781520  1
  O  O96  1  0.464312  0.793907  0.391237  1
  O  O97  1  0.035688  0.706093  0.391237  1
  O  O98  1  0.793907  0.035688  0.391237  1
  O  O99  1  0.706093  0.464312  0.391237  1
  O  O100  1  0.535688  0.206093  0.608763  1
  O  O101  1  0.964312  0.293907  0.608763  1
  O  O102  1  0.206093  0.964312  0.608763  1
  O  O103  1  0.293907  0.535688  0.608763  1
  O  O104  1  0.269350  0.838310  0.410418  1
  O  O105  1  0.230650  0.661690  0.410418  1
  O  O106  1  0.838310  0.230650  0.410418  1
  O  O107  1  0.661690  0.269350  0.410418  1
  O  O108  1  0.730650  0.161690  0.589582  1
  O  O109  1  0.769350  0.338310  0.589582  1
  O  O110  1  0.161690  0.769350  0.589582  1
  O  O111  1  0.338310  0.730650  0.589582  1
  O  O112  1  0.750000  0.750000  0.608050  1
  O  O113  1  0.250000  0.250000  0.391950  1
  O  O114  1  0.840009  0.826795  0.754270  1
  O  O115  1  0.659991  0.673205  0.754270  1
  O  O116  1  0.826795  0.659991  0.754270  1
  O  O117  1  0.673205  0.840009  0.754270  1
  O  O118  1  0.159991  0.173205  0.245730  1
  O  O119  1  0.340009  0.326795  0.245730  1
  O  O120  1  0.173205  0.340009  0.245730  1
  O  O121  1  0.326795  0.159991  0.245730  1
  O  O122  1  0.750000  0.750000  0.968693  1
  O  O123  1  0.250000  0.250000  0.031307  1
  O  O124  1  0.667831  0.944537  0.984645  1
  O  O125  1  0.832169  0.555463  0.984645  1
  O  O126  1  0.944537  0.832169  0.984645  1
  O  O127  1  0.555463  0.667831  0.984645  1
  O  O128  1  0.332169  0.055463  0.015355  1
  O  O129  1  0.167831  0.444537  0.015355  1
  O  O130  1  0.055463  0.167831  0.015355  1
  O  O131  1  0.444537  0.332169  0.015355  1
  O  O132  1  0.725530  0.814993  0.197167  1
  O  O133  1  0.774470  0.685007  0.197167  1
  O  O134  1  0.814993  0.774470  0.197167  1
  O  O135  1  0.685007  0.725530  0.197167  1
  O  O136  1  0.274470  0.185007  0.802833  1
  O  O137  1  0.225530  0.314993  0.802833  1
  O  O138  1  0.185007  0.225530  0.802833  1
  O  O139  1  0.314993  0.274470  0.802833  1
