# generated using pymatgen
data_Li4V3P8O29
_symmetry_space_group_name_H-M   'P 1'
_cell_length_a   9.80551928
_cell_length_b   9.78632624
_cell_length_c   14.24359819
_cell_angle_alpha   90.22072470
_cell_angle_beta   90.12774720
_cell_angle_gamma   60.02628354
_symmetry_Int_Tables_number   1
_chemical_formula_structural   Li4V3P8O29
_chemical_formula_sum   'Li8 V6 P16 O58'
_cell_volume   1184.00175348
_cell_formula_units_Z   2
loop_
 _symmetry_equiv_pos_site_id
 _symmetry_equiv_pos_as_xyz
  1  'x, y, z'
loop_
 _atom_site_type_symbol
 _atom_site_label
 _atom_site_symmetry_multiplicity
 _atom_site_fract_x
 _atom_site_fract_y
 _atom_site_fract_z
 _atom_site_occupancy
  Li  Li0  1  0.768759  0.914975  0.560987  1
  Li  Li1  1  0.916874  0.307504  0.561053  1
  Li  Li2  1  0.769532  0.326922  0.056955  1
  Li  Li3  1  0.332353  0.898007  0.055825  1
  Li  Li4  1  0.323104  0.771428  0.562138  1
  Li  Li5  1  0.325812  0.337019  0.104533  1
  Li  Li6  1  0.088459  0.683755  0.439648  1
  Li  Li7  1  0.972868  0.975583  0.998629  1
  V  V8  1  0.574083  0.429803  0.252882  1
  V  V9  1  0.433336  0.565602  0.750449  1
  V  V10  1  0.563576  0.002377  0.753343  1
  V  V11  1  0.432121  0.997487  0.251834  1
  V  V12  1  0.995457  0.572509  0.245212  1
  V  V13  1  0.001852  0.434002  0.755815  1
  P  P14  1  0.916169  0.779458  0.838988  1
  P  P15  1  0.767753  0.916242  0.342479  1
  P  P16  1  0.918756  0.318415  0.343488  1
  P  P17  1  0.662092  0.668000  0.129895  1
  P  P18  1  0.669622  0.667459  0.631575  1
  P  P19  1  0.771637  0.313716  0.843821  1
  P  P20  1  0.685696  0.227666  0.662615  1
  P  P21  1  0.313334  0.913729  0.842223  1
  P  P22  1  0.690495  0.086426  0.159357  1
  P  P23  1  0.317356  0.768661  0.342004  1
  P  P24  1  0.225038  0.687947  0.160095  1
  P  P25  1  0.332577  0.336854  0.367456  1
  P  P26  1  0.332668  0.334633  0.868787  1
  P  P27  1  0.087698  0.680259  0.657038  1
  P  P28  1  0.226713  0.087969  0.661952  1
  P  P29  1  0.088282  0.222273  0.161791  1
  O  O30  1  0.000053  0.752051  0.567233  1
  O  O31  1  0.916396  0.751120  0.334908  1
  O  O32  1  0.792726  0.003253  0.078777  1
  O  O33  1  0.741045  0.912973  0.830260  1
  O  O34  1  0.921195  0.617645  0.830135  1
  O  O35  1  0.804996  0.672498  0.170801  1
  O  O36  1  0.908373  0.476992  0.318317  1
  O  O37  1  0.991718  0.213772  0.084284  1
  O  O38  1  0.913994  0.342891  0.828119  1
  O  O39  1  0.665466  0.820444  0.672928  1
  O  O40  1  0.618213  0.903765  0.315906  1
  O  O41  1  0.818710  0.522336  0.677880  1
  O  O42  1  0.647229  0.666341  0.026158  1
  O  O43  1  0.683086  0.664340  0.527225  1
  O  O44  1  0.665961  0.515475  0.172816  1
  O  O45  1  0.472903  0.910056  0.824772  1
  O  O46  1  0.508721  0.816852  0.172502  1
  O  O47  1  0.749606  0.339831  0.328659  1
  O  O48  1  0.786714  0.198705  0.758611  1
  O  O49  1  0.775541  0.231423  0.580437  1
  O  O50  1  0.790332  0.231510  0.934842  1
  O  O51  1  0.619496  0.469722  0.830213  1
  O  O52  1  0.519244  0.666872  0.666277  1
  O  O53  1  0.654733  0.262855  0.161492  1
  O  O54  1  0.477927  0.618809  0.320295  1
  O  O55  1  0.339139  0.915108  0.333775  1
  O  O56  1  0.781639  0.016823  0.258018  1
  O  O57  1  0.751490  0.991532  0.434909  1
  O  O58  1  0.232667  0.993236  0.579029  1
  O  O59  1  0.657745  0.084026  0.661963  1
  O  O60  1  0.526017  0.380486  0.677931  1
  O  O61  1  0.342594  0.745364  0.826935  1
  O  O62  1  0.478159  0.341671  0.319816  1
  O  O63  1  0.378552  0.525773  0.168210  1
  O  O64  1  0.212865  0.791977  0.081094  1
  O  O65  1  0.249038  0.757015  0.433123  1
  O  O66  1  0.202418  0.784003  0.258311  1
  O  O67  1  0.252906  0.661982  0.657781  1
  O  O68  1  0.481559  0.183990  0.825612  1
  O  O69  1  0.528311  0.093463  0.167486  1
  O  O70  1  0.329310  0.480636  0.828300  1
  O  O71  1  0.332983  0.325512  0.973357  1
  O  O72  1  0.345514  0.326908  0.470801  1
  O  O73  1  0.183290  0.486293  0.330736  1
  O  O74  1  0.380850  0.093308  0.678619  1
  O  O75  1  0.340589  0.185441  0.318426  1
  O  O76  1  0.086670  0.653676  0.163189  1
  O  O77  1  0.993316  0.797354  0.742703  1
  O  O78  1  0.995106  0.799121  0.921859  1
  O  O79  1  0.097268  0.521279  0.679489  1
  O  O80  1  0.185629  0.329397  0.825784  1
  O  O81  1  0.103865  0.371620  0.168289  1
  O  O82  1  0.261001  0.078246  0.160361  1
  O  O83  1  0.241568  0.981966  0.934592  1
  O  O84  1  0.199754  0.014917  0.757717  1
  O  O85  1  0.083988  0.258646  0.661343  1
  O  O86  1  0.985555  0.255550  0.436277  1
  O  O87  1  0.021560  0.198643  0.261191  1
