# generated using pymatgen
data_Li9V12Te7O48
_symmetry_space_group_name_H-M   'P 1'
_cell_length_a   5.40980022
_cell_length_b   10.58900749
_cell_length_c   18.18989736
_cell_angle_alpha   91.06158112
_cell_angle_beta   90.65496972
_cell_angle_gamma   91.01689076
_symmetry_Int_Tables_number   1
_chemical_formula_structural   Li9V12Te7O48
_chemical_formula_sum   'Li9 V12 Te7 O48'
_cell_volume   1041.58262299
_cell_formula_units_Z   1
loop_
 _symmetry_equiv_pos_site_id
 _symmetry_equiv_pos_as_xyz
  1  'x, y, z'
loop_
 _atom_site_type_symbol
 _atom_site_label
 _atom_site_symmetry_multiplicity
 _atom_site_fract_x
 _atom_site_fract_y
 _atom_site_fract_z
 _atom_site_occupancy
  Li  Li0  1  0.253613  0.423544  0.954102  1
  Li  Li1  1  0.215014  0.744106  0.297203  1
  Li  Li2  1  0.272097  0.275040  0.789233  1
  Li  Li3  1  0.254321  0.579159  0.465830  1
  Li  Li4  1  0.422694  0.752081  0.756551  1
  Li  Li5  1  0.577074  0.247937  0.241760  1
  Li  Li6  1  0.753468  0.071387  0.540744  1
  Li  Li7  1  0.725865  0.733211  0.216673  1
  Li  Li8  1  0.784418  0.244506  0.703066  1
  V  V9  1  0.221038  0.031149  0.655558  1
  V  V10  1  0.239806  0.476462  0.656113  1
  V  V11  1  0.240343  0.517360  0.158257  1
  V  V12  1  0.268741  0.971927  0.161812  1
  V  V13  1  0.725199  0.468252  0.842204  1
  V  V14  1  0.700616  0.039678  0.837924  1
  V  V15  1  0.787280  0.532037  0.348714  1
  V  V16  1  0.749190  0.970735  0.342017  1
  V  V17  1  0.268005  0.740507  0.938841  1
  V  V18  1  0.260707  0.248474  0.444329  1
  V  V19  1  0.731497  0.747398  0.559834  1
  V  V20  1  0.837377  0.272574  0.062188  1
  Te  Te21  1  0.073580  0.253125  0.262542  1
  Te  Te22  1  0.235562  0.092604  0.959192  1
  Te  Te23  1  0.270592  0.931568  0.474586  1
  Te  Te24  1  0.727193  0.433920  0.527561  1
  Te  Te25  1  0.750195  0.555488  0.024938  1
  Te  Te26  1  0.742017  0.937870  0.039093  1
  Te  Te27  1  0.925329  0.745509  0.745059  1
  O  O28  1  0.084922  0.251297  0.983947  1
  O  O29  1  0.054033  0.609570  0.371151  1
  O  O30  1  0.022127  0.896953  0.360240  1
  O  O31  1  0.067675  0.617979  0.206568  1
  O  O32  1  0.089905  0.873771  0.207709  1
  O  O33  1  0.097326  0.106960  0.465774  1
  O  O34  1  0.082034  0.375756  0.463936  1
  O  O35  1  0.077407  0.020062  0.084821  1
  O  O36  1  0.050667  0.455395  0.077231  1
  O  O37  1  0.197825  0.743195  0.846568  1
  O  O38  1  0.168491  0.625221  0.704681  1
  O  O39  1  0.169363  0.881941  0.698998  1
  O  O40  1  0.340493  0.109002  0.209928  1
  O  O41  1  0.315997  0.383335  0.212823  1
  O  O42  1  0.318772  0.252077  0.347277  1
  O  O43  1  0.403107  0.998350  0.569094  1
  O  O44  1  0.416232  0.504328  0.570653  1
  O  O45  1  0.448480  0.880048  0.963461  1
  O  O46  1  0.437847  0.603846  0.963698  1
  O  O47  1  0.401706  0.124133  0.710117  1
  O  O48  1  0.417639  0.386071  0.706788  1
  O  O49  1  0.410718  0.126478  0.868077  1
  O  O50  1  0.452302  0.396560  0.861432  1
  O  O51  1  0.462215  0.750554  0.506497  1
  O  O52  1  0.532025  0.253094  0.496065  1
  O  O53  1  0.507511  0.595636  0.134138  1
  O  O54  1  0.550880  0.894531  0.126023  1
  O  O55  1  0.604870  0.622546  0.298701  1
  O  O56  1  0.575305  0.879075  0.285144  1
  O  O57  1  0.631558  0.113036  0.035171  1
  O  O58  1  0.597583  0.385126  0.028571  1
  O  O59  1  0.575289  0.996551  0.429379  1
  O  O60  1  0.603180  0.494242  0.431882  1
  O  O61  1  0.681924  0.740264  0.657509  1
  O  O62  1  0.684812  0.613682  0.791351  1
  O  O63  1  0.638122  0.896951  0.798067  1
  O  O64  1  0.803346  0.122350  0.302836  1
  O  O65  1  0.839955  0.382762  0.298689  1
  O  O66  1  0.822302  0.252234  0.154211  1
  O  O67  1  0.900400  0.502703  0.929999  1
  O  O68  1  0.911384  0.014625  0.918012  1
  O  O69  1  0.904255  0.610446  0.535163  1
  O  O70  1  0.907629  0.876763  0.541628  1
  O  O71  1  0.881440  0.122518  0.784379  1
  O  O72  1  0.907249  0.371487  0.794423  1
  O  O73  1  0.959086  0.107463  0.632044  1
  O  O74  1  0.970391  0.395659  0.638234  1
  O  O75  1  0.009393  0.745758  0.990989  1
