# generated using pymatgen
data_Li3V(BO3)2
_symmetry_space_group_name_H-M   'P 1'
_cell_length_a   5.06407389
_cell_length_b   6.39178800
_cell_length_c   8.09468225
_cell_angle_alpha   74.44332864
_cell_angle_beta   89.71678971
_cell_angle_gamma   89.69674028
_symmetry_Int_Tables_number   1
_chemical_formula_structural   Li3V(BO3)2
_chemical_formula_sum   'Li6 V2 B4 O12'
_cell_volume   252.40873058
_cell_formula_units_Z   2
loop_
 _symmetry_equiv_pos_site_id
 _symmetry_equiv_pos_as_xyz
  1  'x, y, z'
loop_
 _atom_site_type_symbol
 _atom_site_label
 _atom_site_symmetry_multiplicity
 _atom_site_fract_x
 _atom_site_fract_y
 _atom_site_fract_z
 _atom_site_occupancy
  Li  Li0  1  0.175916  0.895941  0.925725  1
  Li  Li1  1  0.327830  0.025634  0.257190  1
  Li  Li2  1  0.331164  0.743179  0.611682  1
  Li  Li3  1  0.668836  0.256821  0.388318  1
  Li  Li4  1  0.672170  0.974366  0.742810  1
  Li  Li5  1  0.824084  0.104059  0.074275  1
  V  V6  1  0.149682  0.551213  0.272078  1
  V  V7  1  0.850318  0.448787  0.727922  1
  B  B8  1  0.163394  0.167305  0.573207  1
  B  B9  1  0.335623  0.323830  0.912781  1
  B  B10  1  0.664377  0.676170  0.087219  1
  B  B11  1  0.836606  0.832695  0.426793  1
  O  O12  1  0.101661  0.771731  0.400857  1
  O  O13  1  0.209710  0.487710  0.786488  1
  O  O14  1  0.198289  0.168459  0.029338  1
  O  O15  1  0.282596  0.276123  0.416645  1
  O  O16  1  0.291398  0.006624  0.687959  1
  O  O17  1  0.387857  0.677563  0.090383  1
  O  O18  1  0.612143  0.322437  0.909617  1
  O  O19  1  0.708602  0.993376  0.312041  1
  O  O20  1  0.717404  0.723877  0.583355  1
  O  O21  1  0.801711  0.831541  0.970662  1
  O  O22  1  0.790290  0.512290  0.213512  1
  O  O23  1  0.898339  0.228269  0.599143  1
