# generated using pymatgen
data_Li3V3P8O29
_symmetry_space_group_name_H-M   'P 1'
_cell_length_a   9.76674037
_cell_length_b   9.71326881
_cell_length_c   14.30557872
_cell_angle_alpha   90.59480371
_cell_angle_beta   90.79667120
_cell_angle_gamma   60.37689023
_symmetry_Int_Tables_number   1
_chemical_formula_structural   Li3V3P8O29
_chemical_formula_sum   'Li6 V6 P16 O58'
_cell_volume   1179.62089846
_cell_formula_units_Z   2
loop_
 _symmetry_equiv_pos_site_id
 _symmetry_equiv_pos_as_xyz
  1  'x, y, z'
loop_
 _atom_site_type_symbol
 _atom_site_label
 _atom_site_symmetry_multiplicity
 _atom_site_fract_x
 _atom_site_fract_y
 _atom_site_fract_z
 _atom_site_occupancy
  Li  Li0  1  0.917357  0.301133  0.554643  1
  Li  Li1  1  0.329357  0.905069  0.061113  1
  Li  Li2  1  0.315552  0.772590  0.557532  1
  Li  Li3  1  0.672499  0.093740  0.943800  1
  Li  Li4  1  0.079951  0.694641  0.438179  1
  Li  Li5  1  0.001932  0.997914  0.008334  1
  V  V6  1  0.569866  0.434167  0.247640  1
  V  V7  1  0.434364  0.559582  0.755783  1
  V  V8  1  0.568029  0.998002  0.742585  1
  V  V9  1  0.434230  0.002327  0.256809  1
  V  V10  1  0.993917  0.566431  0.239143  1
  V  V11  1  0.003035  0.435734  0.758624  1
  P  P12  1  0.916154  0.785809  0.838158  1
  P  P13  1  0.777678  0.912478  0.339487  1
  P  P14  1  0.913036  0.318210  0.340376  1
  P  P15  1  0.657644  0.671721  0.131082  1
  P  P16  1  0.667566  0.658286  0.633588  1
  P  P17  1  0.778788  0.304010  0.840501  1
  P  P18  1  0.684243  0.229988  0.656499  1
  P  P19  1  0.318826  0.913189  0.843443  1
  P  P20  1  0.685209  0.085666  0.158570  1
  P  P21  1  0.320505  0.768317  0.343191  1
  P  P22  1  0.222184  0.694597  0.161299  1
  P  P23  1  0.328773  0.344449  0.365422  1
  P  P24  1  0.339381  0.327015  0.868704  1
  P  P25  1  0.089638  0.679706  0.657409  1
  P  P26  1  0.222910  0.088519  0.664205  1
  P  P27  1  0.085887  0.213537  0.160451  1
  O  O28  1  0.017468  0.741714  0.564707  1
  O  O29  1  0.919581  0.740117  0.332920  1
  O  O30  1  0.763181  0.019036  0.067428  1
  O  O31  1  0.740391  0.919816  0.832347  1
  O  O32  1  0.920849  0.621039  0.829952  1
  O  O33  1  0.808286  0.675176  0.172545  1
  O  O34  1  0.904637  0.477729  0.315111  1
  O  O35  1  0.007682  0.185787  0.078886  1
  O  O36  1  0.913101  0.345637  0.834745  1
  O  O37  1  0.660812  0.814193  0.677095  1
  O  O38  1  0.621336  0.905041  0.321560  1
  O  O39  1  0.819415  0.517186  0.677711  1
  O  O40  1  0.651982  0.673668  0.027410  1
  O  O41  1  0.664083  0.661356  0.529992  1
  O  O42  1  0.667582  0.520161  0.176234  1
  O  O43  1  0.473576  0.914468  0.824842  1
  O  O44  1  0.507859  0.817461  0.173383  1
  O  O45  1  0.744028  0.342342  0.328935  1
  O  O46  1  0.796800  0.206075  0.745993  1
  O  O47  1  0.763553  0.237976  0.571507  1
  O  O48  1  0.792964  0.202982  0.921447  1
  O  O49  1  0.618235  0.461464  0.830763  1
  O  O50  1  0.521062  0.657481  0.675772  1
  O  O51  1  0.652177  0.258959  0.169959  1
  O  O52  1  0.479874  0.619589  0.323580  1
  O  O53  1  0.342560  0.915532  0.335557  1
  O  O54  1  0.798757  0.991304  0.244547  1
  O  O55  1  0.774990  0.998145  0.425345  1
  O  O56  1  0.230159  0.990576  0.582391  1
  O  O57  1  0.655144  0.086431  0.664454  1
  O  O58  1  0.524126  0.380307  0.678323  1
  O  O59  1  0.349132  0.741098  0.827564  1
  O  O60  1  0.470150  0.349768  0.318071  1
  O  O61  1  0.383251  0.542062  0.167070  1
  O  O62  1  0.199318  0.806692  0.084311  1
  O  O63  1  0.247041  0.759894  0.432673  1
  O  O64  1  0.200814  0.786927  0.260158  1
  O  O65  1  0.258200  0.658775  0.666040  1
  O  O66  1  0.490286  0.182840  0.827398  1
  O  O67  1  0.529480  0.084230  0.174556  1
  O  O68  1  0.330637  0.480110  0.823178  1
  O  O69  1  0.342672  0.330213  0.972203  1
  O  O70  1  0.330516  0.347284  0.468885  1
  O  O71  1  0.176590  0.485639  0.321895  1
  O  O72  1  0.377946  0.097337  0.677938  1
  O  O73  1  0.338521  0.187253  0.322886  1
  O  O74  1  0.087367  0.652772  0.163762  1
  O  O75  1  0.990297  0.799839  0.740408  1
  O  O76  1  0.995937  0.809083  0.920319  1
  O  O77  1  0.096416  0.521055  0.683483  1
  O  O78  1  0.189453  0.325192  0.825828  1
  O  O79  1  0.077725  0.379201  0.167176  1
  O  O80  1  0.262320  0.081332  0.166344  1
  O  O81  1  0.245022  0.975238  0.935642  1
  O  O82  1  0.200447  0.014393  0.760132  1
  O  O83  1  0.079425  0.258455  0.663568  1
  O  O84  1  0.987101  0.255562  0.432436  1
  O  O85  1  0.012769  0.197515  0.257965  1
