# generated using pymatgen
data_CdSO3
_symmetry_space_group_name_H-M   'P 1'
_cell_length_a   4.57347887
_cell_length_b   7.28329332
_cell_length_c   9.02571483
_cell_angle_alpha   90.00000000
_cell_angle_beta   90.00000000
_cell_angle_gamma   91.07014539
_symmetry_Int_Tables_number   1
_chemical_formula_structural   CdSO3
_chemical_formula_sum   'Cd4 S4 O12'
_cell_volume   300.59401457
_cell_formula_units_Z   4
loop_
 _symmetry_equiv_pos_site_id
 _symmetry_equiv_pos_as_xyz
  1  'x, y, z'
loop_
 _atom_site_type_symbol
 _atom_site_label
 _atom_site_symmetry_multiplicity
 _atom_site_fract_x
 _atom_site_fract_y
 _atom_site_fract_z
 _atom_site_occupancy
  O  O0  1  0.265235  0.255043  0.902239  1
  O  O1  1  0.734765  0.244957  0.402239  1
  O  O2  1  0.734765  0.744957  0.097761  1
  O  O3  1  0.265235  0.755043  0.597761  1
  O  O4  1  0.069839  0.183981  0.609857  1
  O  O5  1  0.930161  0.316019  0.109857  1
  O  O6  1  0.930161  0.816019  0.390143  1
  O  O7  1  0.069839  0.683981  0.890143  1
  O  O8  1  0.693507  0.906360  0.861119  1
  O  O9  1  0.306493  0.593640  0.361119  1
  O  O10  1  0.306493  0.093640  0.138881  1
  O  O11  1  0.693507  0.406360  0.638881  1
  S  S12  1  0.741507  0.212305  0.571954  1
  S  S13  1  0.258493  0.287695  0.071954  1
  S  S14  1  0.258493  0.787695  0.428046  1
  S  S15  1  0.741507  0.712305  0.928046  1
  Cd  Cd16  1  0.214919  0.473117  0.710632  1
  Cd  Cd17  1  0.785081  0.026883  0.210632  1
  Cd  Cd18  1  0.785081  0.526883  0.289368  1
  Cd  Cd19  1  0.214919  0.973117  0.789368  1
