# generated using pymatgen
data_AcAg3
_symmetry_space_group_name_H-M   'P 1'
_cell_length_a   6.98183964
_cell_length_b   6.98190566
_cell_length_c   4.86305275
_cell_angle_alpha   90.00002578
_cell_angle_beta   89.99997852
_cell_angle_gamma   120.26280302
_symmetry_Int_Tables_number   1
_chemical_formula_structural   AcAg3
_chemical_formula_sum   'Ac2 Ag6'
_cell_volume   204.75158269
_cell_formula_units_Z   2
loop_
 _symmetry_equiv_pos_site_id
 _symmetry_equiv_pos_as_xyz
  1  'x, y, z'
loop_
 _atom_site_type_symbol
 _atom_site_label
 _atom_site_symmetry_multiplicity
 _atom_site_fract_x
 _atom_site_fract_y
 _atom_site_fract_z
 _atom_site_occupancy
  Ac  Ac0  1  0.332860  0.667137  0.749999  1
  Ac  Ac1  1  0.667140  0.332862  0.249999  1
  Ag  Ag2  1  0.141214  0.281821  0.250000  1
  Ag  Ag3  1  0.718178  0.858783  0.250000  1
  Ag  Ag4  1  0.140701  0.859303  0.250000  1
  Ag  Ag5  1  0.858785  0.718179  0.750001  1
  Ag  Ag6  1  0.281822  0.141218  0.750001  1
  Ag  Ag7  1  0.859300  0.140697  0.750001  1
