# generated using pymatgen
data_BiTeO4
_symmetry_space_group_name_H-M   'P 1'
_cell_length_a   5.65564230
_cell_length_b   7.06812750
_cell_length_c   10.06474017
_cell_angle_alpha   107.17539656
_cell_angle_beta   106.31769720
_cell_angle_gamma   66.41677866
_symmetry_Int_Tables_number   1
_chemical_formula_structural   BiTeO4
_chemical_formula_sum   'Bi4 Te4 O16'
_cell_volume   346.14505797
_cell_formula_units_Z   4
loop_
 _symmetry_equiv_pos_site_id
 _symmetry_equiv_pos_as_xyz
  1  'x, y, z'
loop_
 _atom_site_type_symbol
 _atom_site_label
 _atom_site_symmetry_multiplicity
 _atom_site_fract_x
 _atom_site_fract_y
 _atom_site_fract_z
 _atom_site_occupancy
  Bi  Bi0  1  0.229578  0.605888  0.154449  1
  Bi  Bi1  1  0.040579  0.742961  0.742513  1
  Bi  Bi2  1  0.958972  0.242961  0.242513  1
  Bi  Bi3  1  0.318984  0.105888  0.654449  1
  Te  Te4  1  0.649232  0.928390  0.384437  1
  Te  Te5  1  0.491601  0.505743  0.503286  1
  Te  Te6  1  0.806813  0.428390  0.884437  1
  Te  Te7  1  0.505942  0.005743  0.003286  1
  O  O8  1  0.855575  0.919598  0.119008  1
  O  O9  1  0.717950  0.959291  0.591511  1
  O  O10  1  0.645544  0.989955  0.841793  1
  O  O11  1  0.271855  0.789097  0.582255  1
  O  O12  1  0.638453  0.587802  0.382708  1
  O  O13  1  0.914270  0.459291  0.091511  1
  O  O14  1  0.509523  0.704090  0.919029  1
  O  O15  1  0.206293  0.489955  0.341793  1
  O  O16  1  0.792965  0.504783  0.656933  1
  O  O17  1  0.521302  0.289097  0.082255  1
  O  O18  1  0.080279  0.534841  0.903680  1
  O  O19  1  0.343835  0.419598  0.619008  1
  O  O20  1  0.705416  0.204090  0.419029  1
  O  O21  1  0.359185  0.004783  0.156933  1
  O  O22  1  0.288560  0.034841  0.403680  1
  O  O23  1  0.156453  0.087802  0.882708  1
