# generated using pymatgen
data_Fe10O9F11
_symmetry_space_group_name_H-M   'P 1'
_cell_length_a   4.74689646
_cell_length_b   4.76005019
_cell_length_c   15.60544657
_cell_angle_alpha   89.77075088
_cell_angle_beta   90.14968160
_cell_angle_gamma   91.64365137
_symmetry_Int_Tables_number   1
_chemical_formula_structural   Fe10O9F11
_chemical_formula_sum   'Fe10 O9 F11'
_cell_volume   352.46332445
_cell_formula_units_Z   1
loop_
 _symmetry_equiv_pos_site_id
 _symmetry_equiv_pos_as_xyz
  1  'x, y, z'
loop_
 _atom_site_type_symbol
 _atom_site_label
 _atom_site_symmetry_multiplicity
 _atom_site_fract_x
 _atom_site_fract_y
 _atom_site_fract_z
 _atom_site_occupancy
  Fe  Fe0  1  0.004037  0.985406  0.993622  1
  Fe  Fe1  1  0.040234  0.022424  0.207013  1
  Fe  Fe2  1  0.989764  0.942380  0.402273  1
  Fe  Fe3  1  0.051560  0.002177  0.598325  1
  Fe  Fe4  1  0.022637  0.973786  0.796107  1
  Fe  Fe5  1  0.497072  0.482119  0.096393  1
  Fe  Fe6  1  0.480769  0.514717  0.498710  1
  Fe  Fe7  1  0.477164  0.525864  0.299299  1
  Fe  Fe8  1  0.479234  0.502500  0.695831  1
  Fe  Fe9  1  0.474927  0.522539  0.912202  1
  O  O10  1  0.187095  0.807862  0.299231  1
  O  O11  1  0.192691  0.800735  0.497946  1
  O  O12  1  0.192849  0.817571  0.700731  1
  O  O13  1  0.186886  0.805817  0.899089  1
  O  O14  1  0.294897  0.296457  0.003494  1
  O  O15  1  0.320068  0.319024  0.199489  1
  O  O16  1  0.315934  0.308922  0.592095  1
  O  O17  1  0.695426  0.697206  0.005438  1
  O  O18  1  0.678129  0.676584  0.397194  1
  F  F19  1  0.196615  0.810572  0.103740  1
  F  F20  1  0.286580  0.293287  0.395884  1
  F  F21  1  0.299508  0.307968  0.808656  1
  F  F22  1  0.706865  0.710203  0.198587  1
  F  F23  1  0.710244  0.713733  0.593189  1
  F  F24  1  0.688007  0.693559  0.805646  1
  F  F25  1  0.814889  0.189559  0.104856  1
  F  F26  1  0.804699  0.190371  0.495476  1
  F  F27  1  0.800630  0.195973  0.298685  1
  F  F28  1  0.795272  0.196917  0.898427  1
  F  F29  1  0.815319  0.193769  0.702371  1
