# generated using pymatgen
data_Pu2S3
_symmetry_space_group_name_H-M   'P 1'
_cell_length_a   6.98228282
_cell_length_b   6.98228330
_cell_length_c   7.31679472
_cell_angle_alpha   118.49883088
_cell_angle_beta   61.50116985
_cell_angle_gamma   119.99999774
_symmetry_Int_Tables_number   1
_chemical_formula_structural   Pu2S3
_chemical_formula_sum   'Pu4 S6'
_cell_volume   257.80481494
_cell_formula_units_Z   2
loop_
 _symmetry_equiv_pos_site_id
 _symmetry_equiv_pos_as_xyz
  1  'x, y, z'
loop_
 _atom_site_type_symbol
 _atom_site_label
 _atom_site_symmetry_multiplicity
 _atom_site_fract_x
 _atom_site_fract_y
 _atom_site_fract_z
 _atom_site_occupancy
  Pu  Pu0  1  0.647704  0.352297  0.056890  1
  Pu  Pu1  1  0.852296  0.147703  0.443109  1
  Pu  Pu2  1  0.147703  0.852296  0.556890  1
  Pu  Pu3  1  0.352298  0.647704  0.943109  1
  S  S4  1  0.956168  0.456168  0.250000  1
  S  S5  1  0.543831  0.749999  0.250000  1
  S  S6  1  0.249999  0.043831  0.250000  1
  S  S7  1  0.749999  0.956169  0.750001  1
  S  S8  1  0.456168  0.250000  0.750001  1
  S  S9  1  0.043832  0.543832  0.750001  1
