# generated using pymatgen
data_Er8Ga3Co
_symmetry_space_group_name_H-M   'P 1'
_cell_length_a   9.93841186
_cell_length_b   9.93848499
_cell_length_c   6.84422641
_cell_angle_alpha   90.00037175
_cell_angle_beta   90.00131329
_cell_angle_gamma   119.99974577
_symmetry_Int_Tables_number   1
_chemical_formula_structural   Er8Ga3Co
_chemical_formula_sum   'Er16 Ga6 Co2'
_cell_volume   585.45468876
_cell_formula_units_Z   2
loop_
 _symmetry_equiv_pos_site_id
 _symmetry_equiv_pos_as_xyz
  1  'x, y, z'
loop_
 _atom_site_type_symbol
 _atom_site_label
 _atom_site_symmetry_multiplicity
 _atom_site_fract_x
 _atom_site_fract_y
 _atom_site_fract_z
 _atom_site_occupancy
  Er  Er0  1  0.000003  0.999984  0.270108  1
  Er  Er1  1  0.999988  0.000006  0.770082  1
  Er  Er2  1  0.173077  0.826924  0.991930  1
  Er  Er3  1  0.826913  0.173084  0.491934  1
  Er  Er4  1  0.173058  0.346126  0.991947  1
  Er  Er5  1  0.653879  0.826941  0.991961  1
  Er  Er6  1  0.346121  0.173060  0.491950  1
  Er  Er7  1  0.826938  0.653878  0.491959  1
  Er  Er8  1  0.333350  0.666649  0.671803  1
  Er  Er9  1  0.666659  0.333346  0.171793  1
  Er  Er10  1  0.464618  0.535393  0.292586  1
  Er  Er11  1  0.535401  0.464600  0.792567  1
  Er  Er12  1  0.464615  0.929231  0.292559  1
  Er  Er13  1  0.070765  0.535381  0.292560  1
  Er  Er14  1  0.929207  0.464603  0.792545  1
  Er  Er15  1  0.535393  0.070790  0.792551  1
  Ga  Ga16  1  0.163577  0.836422  0.539421  1
  Ga  Ga17  1  0.836432  0.163580  0.039418  1
  Ga  Ga18  1  0.163532  0.327099  0.539416  1
  Ga  Ga19  1  0.672910  0.836476  0.539408  1
  Ga  Ga20  1  0.327090  0.163519  0.039417  1
  Ga  Ga21  1  0.836475  0.672912  0.039415  1
  Co  Co22  1  0.333335  0.666668  0.059337  1
  Co  Co23  1  0.666665  0.333330  0.559335  1
