# generated using pymatgen
data_LiMnP2O7
_symmetry_space_group_name_H-M   'P 1'
_cell_length_a   9.75146665
_cell_length_b   9.75416605
_cell_length_c   11.17259597
_cell_angle_alpha   89.82937322
_cell_angle_beta   101.77541051
_cell_angle_gamma   89.77451633
_symmetry_Int_Tables_number   1
_chemical_formula_structural   LiMnP2O7
_chemical_formula_sum   'Li8 Mn8 P16 O56'
_cell_volume   1040.32810639
_cell_formula_units_Z   8
loop_
 _symmetry_equiv_pos_site_id
 _symmetry_equiv_pos_as_xyz
  1  'x, y, z'
loop_
 _atom_site_type_symbol
 _atom_site_label
 _atom_site_symmetry_multiplicity
 _atom_site_fract_x
 _atom_site_fract_y
 _atom_site_fract_z
 _atom_site_occupancy
  Li  Li0  1  0.406431  0.608521  0.973835  1
  Li  Li1  1  0.338438  0.914685  0.459933  1
  Li  Li2  1  0.388889  0.222036  0.550502  1
  Li  Li3  1  0.585838  0.395145  0.026494  1
  Li  Li4  1  0.648027  0.093912  0.046435  1
  Li  Li5  1  0.915441  0.902136  0.974529  1
  Li  Li6  1  0.839403  0.580149  0.465260  1
  Li  Li7  1  0.890886  0.283905  0.549074  1
  Mn  Mn8  1  0.202086  0.922553  0.673752  1
  Mn  Mn9  1  0.254958  0.209336  0.830158  1
  Mn  Mn10  1  0.221181  0.723731  0.166828  1
  Mn  Mn11  1  0.304791  0.429152  0.330224  1
  Mn  Mn12  1  0.703582  0.573212  0.678186  1
  Mn  Mn13  1  0.774336  0.279002  0.836234  1
  Mn  Mn14  1  0.729622  0.784607  0.169755  1
  Mn  Mn15  1  0.806908  0.071125  0.334085  1
  P  P16  1  0.026822  0.445872  0.753279  1
  P  P17  1  0.114194  0.711994  0.883586  1
  P  P18  1  0.064082  0.929856  0.243235  1
  P  P19  1  0.131049  0.152634  0.425140  1
  P  P20  1  0.380405  0.640437  0.572499  1
  P  P21  1  0.436814  0.424773  0.760044  1
  P  P22  1  0.523986  0.055226  0.756466  1
  P  P23  1  0.376922  0.210357  0.115368  1
  P  P24  1  0.616784  0.791427  0.886768  1
  P  P25  1  0.467661  0.939777  0.241540  1
  P  P26  1  0.560858  0.568292  0.241557  1
  P  P27  1  0.631079  0.345020  0.425368  1
  P  P28  1  0.878726  0.856114  0.573253  1
  P  P29  1  0.930711  0.075193  0.757891  1
  P  P30  1  0.887649  0.287720  0.114584  1
  P  P31  1  0.967859  0.560426  0.241116  1
  O  O32  1  0.020136  0.419330  0.621275  1
  O  O33  1  0.036057  0.851661  0.568941  1
  O  O34  1  0.079588  0.087427  0.732988  1
  O  O35  1  0.113341  0.344770  0.845996  1
  O  O36  1  0.099916  0.591240  0.783586  1
  O  O37  1  0.186854  0.825914  0.822783  1
  O  O38  1  0.221704  0.658437  0.998599  1
  O  O39  1  0.022129  0.258451  0.079064  1
  O  O40  1  0.121734  0.075911  0.295324  1
  O  O41  1  0.066247  0.916417  0.110121  1
  O  O42  1  0.116136  0.558503  0.206589  1
  O  O43  1  0.203578  0.287533  0.410544  1
  O  O44  1  0.171272  0.822099  0.310857  1
  O  O45  1  0.226031  0.062262  0.523381  1
  O  O46  1  0.295440  0.559410  0.465772  1
  O  O47  1  0.338770  0.306777  0.701928  1
  O  O48  1  0.324185  0.783896  0.585230  1
  O  O49  1  0.369468  0.043781  0.786084  1
  O  O50  1  0.367893  0.564113  0.697860  1
  O  O51  1  0.433039  0.435849  0.893538  1
  O  O52  1  0.479796  0.765046  0.920823  1
  O  O53  1  0.273318  0.159692  0.001057  1
  O  O54  1  0.317545  0.329735  0.179896  1
  O  O55  1  0.394554  0.087895  0.214944  1
  O  O56  1  0.413579  0.582406  0.272821  1
  O  O57  1  0.378498  0.839236  0.151490  1
  O  O58  1  0.521372  0.090068  0.626694  1
  O  O59  1  0.482028  0.333264  0.444093  1
  O  O60  1  0.539661  0.643787  0.570828  1
  O  O61  1  0.479776  0.913934  0.373765  1
  O  O62  1  0.611854  0.148381  0.855932  1
  O  O63  1  0.584441  0.409360  0.730999  1
  O  O64  1  0.594433  0.906739  0.779919  1
  O  O65  1  0.686420  0.673969  0.830834  1
  O  O66  1  0.722579  0.858920  0.998750  1
  O  O67  1  0.521024  0.233561  0.088368  1
  O  O68  1  0.560185  0.564827  0.106968  1
  O  O69  1  0.624654  0.424317  0.296653  1
  O  O70  1  0.615345  0.949387  0.200686  1
  O  O71  1  0.699878  0.207794  0.408526  1
  O  O72  1  0.665185  0.680525  0.301516  1
  O  O73  1  0.728283  0.431837  0.522391  1
  O  O74  1  0.793056  0.936732  0.465436  1
  O  O75  1  0.835546  0.194937  0.694068  1
  O  O76  1  0.822185  0.713207  0.588421  1
  O  O77  1  0.873200  0.456689  0.785261  1
  O  O78  1  0.912159  0.076076  0.888533  1
  O  O79  1  0.865947  0.935096  0.697496  1
  O  O80  1  0.974646  0.742613  0.910591  1
  O  O81  1  0.769314  0.337256  0.002596  1
  O  O82  1  0.815353  0.169924  0.176097  1
  O  O83  1  0.899823  0.409737  0.213365  1
  O  O84  1  0.873862  0.658524  0.148358  1
  O  O85  1  0.913306  0.918880  0.271342  1
  O  O86  1  0.982245  0.167546  0.444687  1
  O  O87  1  0.971488  0.586462  0.372077  1
