# generated using pymatgen
data_Mn4O7F
_symmetry_space_group_name_H-M   'P 1'
_cell_length_a   4.46117932
_cell_length_b   7.39932220
_cell_length_c   7.39932220
_cell_angle_alpha   95.33595091
_cell_angle_beta   90.10982392
_cell_angle_gamma   90.10982392
_symmetry_Int_Tables_number   1
_chemical_formula_structural   Mn4O7F
_chemical_formula_sum   'Mn8 O14 F2'
_cell_volume   243.19000054
_cell_formula_units_Z   2
loop_
 _symmetry_equiv_pos_site_id
 _symmetry_equiv_pos_as_xyz
  1  'x, y, z'
loop_
 _atom_site_type_symbol
 _atom_site_label
 _atom_site_symmetry_multiplicity
 _atom_site_fract_x
 _atom_site_fract_y
 _atom_site_fract_z
 _atom_site_occupancy
  Mn  Mn0  1  0.523058  0.687042  0.050452  1
  Mn  Mn1  1  0.500000  0.300443  0.949557  1
  Mn  Mn2  1  0.476942  0.199548  0.562958  1
  Mn  Mn3  1  0.500000  0.804079  0.445921  1
  Mn  Mn4  1  0.985746  0.949424  0.789557  1
  Mn  Mn5  1  0.000000  0.552600  0.697400  1
  Mn  Mn6  1  0.014254  0.460443  0.300576  1
  Mn  Mn7  1  0.000000  0.050952  0.199048  1
  O  O8  1  0.768587  0.092002  0.980548  1
  O  O9  1  0.775282  0.730880  0.846021  1
  O  O10  1  0.768349  0.597187  0.482395  1
  O  O11  1  0.728179  0.343545  0.735071  1
  O  O12  1  0.724468  0.987458  0.592389  1
  O  O13  1  0.740692  0.479582  0.094543  1
  O  O14  1  0.734723  0.842153  0.232691  1
  O  O15  1  0.259308  0.155457  0.770418  1
  O  O16  1  0.275532  0.657611  0.262542  1
  O  O17  1  0.271821  0.514929  0.906455  1
  O  O18  1  0.265277  0.017309  0.407847  1
  O  O19  1  0.224718  0.403979  0.519120  1
  O  O20  1  0.231413  0.269452  0.157998  1
  O  O21  1  0.231651  0.767605  0.652813  1
  F  F22  1  0.740172  0.244001  0.357685  1
  F  F23  1  0.259828  0.892315  0.005999  1
