# generated using pymatgen
data_Cr4OF11
_symmetry_space_group_name_H-M   'P 1'
_cell_length_a   5.07503610
_cell_length_b   5.37578898
_cell_length_c   16.99463784
_cell_angle_alpha   91.72441538
_cell_angle_beta   99.20243158
_cell_angle_gamma   61.38705822
_symmetry_Int_Tables_number   1
_chemical_formula_structural   Cr4OF11
_chemical_formula_sum   'Cr8 O2 F22'
_cell_volume   401.21209414
_cell_formula_units_Z   2
loop_
 _symmetry_equiv_pos_site_id
 _symmetry_equiv_pos_as_xyz
  1  'x, y, z'
loop_
 _atom_site_type_symbol
 _atom_site_label
 _atom_site_symmetry_multiplicity
 _atom_site_fract_x
 _atom_site_fract_y
 _atom_site_fract_z
 _atom_site_occupancy
  Cr  Cr0  1  0.774051  0.612928  0.128052  1
  Cr  Cr1  1  0.744063  0.128730  0.624732  1
  Cr  Cr2  1  0.498319  0.750969  0.749935  1
  Cr  Cr3  1  0.485334  0.256803  0.247246  1
  Cr  Cr4  1  0.265136  0.867991  0.377398  1
  Cr  Cr5  1  0.250723  0.374417  0.875222  1
  Cr  Cr6  1  0.977625  0.511189  0.495729  1
  Cr  Cr7  1  0.005150  0.997039  0.001097  1
  O  O8  1  0.684034  0.658739  0.407092  1
  O  O9  1  0.186847  0.406195  0.157512  1
  F  F10  1  0.816124  0.783679  0.034058  1
  F  F11  1  0.743854  0.936571  0.187982  1
  F  F12  1  0.751165  0.813417  0.562371  1
  F  F13  1  0.758553  0.313361  0.063040  1
  F  F14  1  0.684958  0.967350  0.717298  1
  F  F15  1  0.684705  0.466738  0.217983  1
  F  F16  1  0.812306  0.593598  0.843659  1
  F  F17  1  0.820003  0.089579  0.340092  1
  F  F18  1  0.813003  0.283870  0.531963  1
  F  F19  1  0.325818  0.836378  0.093391  1
  F  F20  1  0.744439  0.437055  0.687839  1
  F  F21  1  0.254775  0.563436  0.313142  1
  F  F22  1  0.688879  0.155515  0.907322  1
  F  F23  1  0.183638  0.908764  0.656336  1
  F  F24  1  0.182741  0.717079  0.468008  1
  F  F25  1  0.313319  0.533627  0.782517  1
  F  F26  1  0.307549  0.346397  0.589661  1
  F  F27  1  0.314669  0.033853  0.283445  1
  F  F28  1  0.246350  0.685985  0.937859  1
  F  F29  1  0.241364  0.188710  0.438185  1
  F  F30  1  0.253417  0.064050  0.812137  1
  F  F31  1  0.187089  0.215987  0.967698  1
