# generated using pymatgen
data_LiV2O3F
_symmetry_space_group_name_H-M   'P 1'
_cell_length_a   5.96929815
_cell_length_b   6.14769530
_cell_length_c   8.68551606
_cell_angle_alpha   89.97920196
_cell_angle_beta   89.99524751
_cell_angle_gamma   89.99266105
_symmetry_Int_Tables_number   1
_chemical_formula_structural   LiV2O3F
_chemical_formula_sum   'Li4 V8 O12 F4'
_cell_volume   318.73605966
_cell_formula_units_Z   4
loop_
 _symmetry_equiv_pos_site_id
 _symmetry_equiv_pos_as_xyz
  1  'x, y, z'
loop_
 _atom_site_type_symbol
 _atom_site_label
 _atom_site_symmetry_multiplicity
 _atom_site_fract_x
 _atom_site_fract_y
 _atom_site_fract_z
 _atom_site_occupancy
  Li  Li0  1  0.021833  0.999828  0.017684  1
  Li  Li1  1  0.521663  0.000005  0.232027  1
  Li  Li2  1  0.478421  0.500197  0.518518  1
  Li  Li3  1  0.978084  0.499562  0.731869  1
  V  V4  1  0.743501  0.500090  0.115351  1
  V  V5  1  0.242833  0.499997  0.134965  1
  V  V6  1  0.000935  0.250015  0.374780  1
  V  V7  1  0.999835  0.750198  0.375114  1
  V  V8  1  0.756150  0.999928  0.614970  1
  V  V9  1  0.256381  0.000009  0.635216  1
  V  V10  1  0.499762  0.249910  0.874874  1
  V  V11  1  0.500268  0.750228  0.874810  1
  O  O12  1  0.491762  0.720542  0.105983  1
  O  O13  1  0.491908  0.279483  0.106009  1
  O  O14  1  0.991958  0.720274  0.144335  1
  O  O15  1  0.991801  0.279472  0.143987  1
  O  O16  1  0.216553  0.500213  0.371802  1
  O  O17  1  0.784469  0.000278  0.378436  1
  O  O18  1  0.007940  0.220594  0.605905  1
  O  O19  1  0.008322  0.779531  0.606156  1
  O  O20  1  0.507681  0.220283  0.643844  1
  O  O21  1  0.507611  0.779095  0.643763  1
  O  O22  1  0.284366  0.000049  0.871908  1
  O  O23  1  0.715506  0.500017  0.878283  1
  F  F24  1  0.753490  0.499906  0.372182  1
  F  F25  1  0.247268  0.999728  0.377704  1
  F  F26  1  0.746999  0.000333  0.871373  1
  F  F27  1  0.252702  0.500233  0.878153  1
