# generated using pymatgen
data_La3NiBr3
_symmetry_space_group_name_H-M   'P 1'
_cell_length_a   10.41581176
_cell_length_b   10.41581176
_cell_length_c   10.41581176
_cell_angle_alpha   108.12128053
_cell_angle_beta   108.12128053
_cell_angle_gamma   112.20620854
_symmetry_Int_Tables_number   1
_chemical_formula_structural   La3NiBr3
_chemical_formula_sum   'La12 Ni4 Br12'
_cell_volume   868.38192966
_cell_formula_units_Z   4
loop_
 _symmetry_equiv_pos_site_id
 _symmetry_equiv_pos_as_xyz
  1  'x, y, z'
loop_
 _atom_site_type_symbol
 _atom_site_label
 _atom_site_symmetry_multiplicity
 _atom_site_fract_x
 _atom_site_fract_y
 _atom_site_fract_z
 _atom_site_occupancy
  La  La0  1  0.612428  0.387571  0.000000  1
  La  La1  1  0.387571  0.612428  0.000000  1
  La  La2  1  0.137571  0.637571  0.275143  1
  La  La3  1  0.362429  0.862429  0.724858  1
  La  La4  1  0.402222  0.407628  0.262995  1
  La  La5  1  0.144633  0.139227  0.737005  1
  La  La6  1  0.347778  0.110773  0.505405  1
  La  La7  1  0.605366  0.842372  0.494594  1
  La  La8  1  0.592373  0.597779  0.737005  1
  La  La9  1  0.860773  0.855366  0.262995  1
  La  La10  1  0.889227  0.652222  0.494594  1
  La  La11  1  0.157627  0.394633  0.505405  1
  Ni  Ni12  1  0.626962  0.626962  0.253923  1
  Ni  Ni13  1  0.373038  0.373038  0.746076  1
  Ni  Ni14  1  0.123038  0.876963  0.500001  1
  Ni  Ni15  1  0.376962  0.623038  0.500000  1
  Br  Br16  1  0.633960  0.366041  0.500001  1
  Br  Br17  1  0.866040  0.133960  0.500000  1
  Br  Br18  1  0.116040  0.116040  0.232080  1
  Br  Br19  1  0.883960  0.883960  0.767921  1
  Br  Br20  1  0.636661  0.891565  0.000953  1
  Br  Br21  1  0.890610  0.635707  -0.000954  1
  Br  Br22  1  0.113339  0.614292  0.754904  1
  Br  Br23  1  0.859391  0.358436  0.245098  1
  Br  Br24  1  0.108435  0.363339  -0.000954  1
  Br  Br25  1  0.364293  0.109390  0.000953  1
  Br  Br26  1  0.385708  0.886661  0.245098  1
  Br  Br27  1  0.641566  0.140611  0.754904  1
