# generated using pymatgen
data_CsAg2AsS3
_symmetry_space_group_name_H-M   'P 1'
_cell_length_a   10.24471000
_cell_length_b   8.52191783
_cell_length_c   9.58637081
_cell_angle_alpha   90.00000000
_cell_angle_beta   108.25479222
_cell_angle_gamma   90.00000000
_symmetry_Int_Tables_number   1
_chemical_formula_structural   CsAg2AsS3
_chemical_formula_sum   'Cs4 Ag8 As4 S12'
_cell_volume   794.81360813
_cell_formula_units_Z   4
loop_
 _symmetry_equiv_pos_site_id
 _symmetry_equiv_pos_as_xyz
  1  'x, y, z'
loop_
 _atom_site_type_symbol
 _atom_site_label
 _atom_site_symmetry_multiplicity
 _atom_site_fract_x
 _atom_site_fract_y
 _atom_site_fract_z
 _atom_site_occupancy
  Cs  Cs0  1  0.084008  0.065469  0.753109  1
  Cs  Cs1  1  0.915992  0.565469  0.746891  1
  Cs  Cs2  1  0.915992  0.934530  0.246891  1
  Cs  Cs3  1  0.084009  0.434531  0.253109  1
  Ag  Ag4  1  0.444493  0.240148  0.066382  1
  Ag  Ag5  1  0.555506  0.740148  0.433619  1
  Ag  Ag6  1  0.555506  0.759852  0.933619  1
  Ag  Ag7  1  0.444494  0.259852  0.566382  1
  Ag  Ag8  1  0.673436  0.025658  0.783237  1
  Ag  Ag9  1  0.326565  0.525660  0.716764  1
  Ag  Ag10  1  0.326564  0.974341  0.216764  1
  Ag  Ag11  1  0.673435  0.474341  0.283237  1
  As  As12  1  0.348405  0.861835  0.555911  1
  As  As13  1  0.651595  0.361833  0.944088  1
  As  As14  1  0.651594  0.138166  0.444088  1
  As  As15  1  0.348406  0.638166  0.055911  1
  S  S16  1  0.432419  0.978917  0.786690  1
  S  S17  1  0.567581  0.478918  0.713310  1
  S  S18  1  0.567580  0.021082  0.213310  1
  S  S19  1  0.432420  0.521082  0.286690  1
  S  S20  1  0.836727  0.223817  0.938214  1
  S  S21  1  0.163274  0.723816  0.561785  1
  S  S22  1  0.163273  0.776183  0.061785  1
  S  S23  1  0.836727  0.276184  0.438214  1
  S  S24  1  0.253505  0.088716  0.431216  1
  S  S25  1  0.746494  0.588715  0.068783  1
  S  S26  1  0.746494  0.911284  0.568783  1
  S  S27  1  0.253505  0.411285  0.931216  1
