# generated using pymatgen
data_Pr2Ni12As7
_symmetry_space_group_name_H-M   'P 1'
_cell_length_a   9.40173717
_cell_length_b   9.40212874
_cell_length_c   3.89574310
_cell_angle_alpha   90.00000000
_cell_angle_beta   90.00000000
_cell_angle_gamma   120.01232444
_symmetry_Int_Tables_number   1
_chemical_formula_structural   Pr2Ni12As7
_chemical_formula_sum   'Pr2 Ni12 As7'
_cell_volume   298.19564291
_cell_formula_units_Z   1
loop_
 _symmetry_equiv_pos_site_id
 _symmetry_equiv_pos_as_xyz
  1  'x, y, z'
loop_
 _atom_site_type_symbol
 _atom_site_label
 _atom_site_symmetry_multiplicity
 _atom_site_fract_x
 _atom_site_fract_y
 _atom_site_fract_z
 _atom_site_occupancy
  Pr  Pr0  1  0.333283  0.666679  0.000000  1
  Pr  Pr1  1  0.666635  0.333281  0.500001  1
  Ni  Ni2  1  0.373813  0.421692  0.500001  1
  Ni  Ni3  1  0.578247  0.952064  0.500001  1
  Ni  Ni4  1  0.047829  0.626130  0.500001  1
  Ni  Ni5  1  0.440555  0.054967  0.000000  1
  Ni  Ni6  1  0.945120  0.385582  0.000000  1
  Ni  Ni7  1  0.614447  0.559489  0.000000  1
  Ni  Ni8  1  0.206591  0.096685  0.500001  1
  Ni  Ni9  1  0.903288  0.109930  0.500001  1
  Ni  Ni10  1  0.890074  0.793381  0.500001  1
  Ni  Ni11  1  0.145793  0.278101  0.000000  1
  Ni  Ni12  1  0.721923  0.867695  0.000000  1
  Ni  Ni13  1  0.132334  0.854283  0.000000  1
  As  As14  1  0.999999  0.000008  0.000000  1
  As  As15  1  0.101351  0.401777  0.500001  1
  As  As16  1  0.598238  0.699546  0.500001  1
  As  As17  1  0.300447  0.898730  0.500001  1
  As  As18  1  0.396182  0.283321  0.000000  1
  As  As19  1  0.716687  0.112838  0.000000  1
  As  As20  1  0.887159  0.603821  0.000000  1
