# generated using pymatgen
data_CaSnS3
_symmetry_space_group_name_H-M   'P 1'
_cell_length_a   7.03382351
_cell_length_b   8.88454579
_cell_length_c   24.58294023
_cell_angle_alpha   82.63865514
_cell_angle_beta   90.00000000
_cell_angle_gamma   90.00000000
_symmetry_Int_Tables_number   1
_chemical_formula_structural   CaSnS3
_chemical_formula_sum   'Ca12 Sn12 S36'
_cell_volume   1523.58314802
_cell_formula_units_Z   12
loop_
 _symmetry_equiv_pos_site_id
 _symmetry_equiv_pos_as_xyz
  1  'x, y, z'
loop_
 _atom_site_type_symbol
 _atom_site_label
 _atom_site_symmetry_multiplicity
 _atom_site_fract_x
 _atom_site_fract_y
 _atom_site_fract_z
 _atom_site_occupancy
  Ca  Ca0  1  0.240927  0.510770  0.547632  1
  Ca  Ca1  1  0.740927  0.989230  0.952368  1
  Ca  Ca2  1  0.759073  0.489230  0.452368  1
  Ca  Ca3  1  0.259073  0.010770  0.047632  1
  Ca  Ca4  1  0.848344  0.677051  0.674215  1
  Ca  Ca5  1  0.348344  0.822949  0.825785  1
  Ca  Ca6  1  0.151656  0.322949  0.325785  1
  Ca  Ca7  1  0.651656  0.177051  0.174215  1
  Ca  Ca8  1  0.328226  0.426843  0.712939  1
  Ca  Ca9  1  0.828226  0.073157  0.787061  1
  Ca  Ca10  1  0.671774  0.573157  0.287061  1
  Ca  Ca11  1  0.171774  0.926843  0.212939  1
  Sn  Sn12  1  0.781649  0.219912  0.600425  1
  Sn  Sn13  1  0.281649  0.280088  0.899575  1
  Sn  Sn14  1  0.218351  0.780088  0.399575  1
  Sn  Sn15  1  0.718351  0.719912  0.100425  1
  Sn  Sn16  1  0.724053  0.933573  0.485026  1
  Sn  Sn17  1  0.224053  0.566427  0.014974  1
  Sn  Sn18  1  0.275947  0.066427  0.514974  1
  Sn  Sn19  1  0.775947  0.433573  0.985026  1
  Sn  Sn20  1  0.380007  0.975283  0.650762  1
  Sn  Sn21  1  0.880007  0.524717  0.849238  1
  Sn  Sn22  1  0.619993  0.024717  0.349238  1
  Sn  Sn23  1  0.119993  0.475283  0.150762  1
  S  S24  1  0.750365  0.939253  0.596238  1
  S  S25  1  0.250365  0.560747  0.903762  1
  S  S26  1  0.249635  0.060747  0.403762  1
  S  S27  1  0.749635  0.439253  0.096238  1
  S  S28  1  0.473949  0.705352  0.468929  1
  S  S29  1  0.973949  0.794648  0.031071  1
  S  S30  1  0.526051  0.294648  0.531071  1
  S  S31  1  0.026051  0.205352  0.968929  1
  S  S32  1  0.988926  0.734468  0.488612  1
  S  S33  1  0.488926  0.765532  0.011388  1
  S  S34  1  0.011074  0.265532  0.511388  1
  S  S35  1  0.511074  0.234468  0.988612  1
  S  S36  1  0.531280  0.563604  0.622050  1
  S  S37  1  0.031280  0.936396  0.877950  1
  S  S38  1  0.468720  0.436396  0.377950  1
  S  S39  1  0.968720  0.063604  0.122050  1
  S  S40  1  0.998728  0.401359  0.638428  1
  S  S41  1  0.498728  0.098641  0.861572  1
  S  S42  1  0.001272  0.598641  0.361572  1
  S  S43  1  0.501272  0.901359  0.138428  1
  S  S44  1  0.598212  0.186985  0.694503  1
  S  S45  1  0.098212  0.313015  0.805497  1
  S  S46  1  0.401788  0.813015  0.305497  1
  S  S47  1  0.901788  0.686985  0.194503  1
  S  S48  1  0.086034  0.891849  0.730051  1
  S  S49  1  0.586034  0.608151  0.769949  1
  S  S50  1  0.913966  0.108151  0.269949  1
  S  S51  1  0.413966  0.391849  0.230051  1
  S  S52  1  0.595379  0.842046  0.735595  1
  S  S53  1  0.095379  0.657954  0.764405  1
  S  S54  1  0.404621  0.157954  0.264405  1
  S  S55  1  0.904621  0.342046  0.235595  1
  S  S56  1  0.289835  0.691808  0.632967  1
  S  S57  1  0.789835  0.808192  0.867033  1
  S  S58  1  0.710165  0.308192  0.367033  1
  S  S59  1  0.210165  0.191808  0.132967  1
