# generated using pymatgen
data_Lu2Ge2O7
_symmetry_space_group_name_H-M   'P 1'
_cell_length_a   6.76063948
_cell_length_b   6.76063948
_cell_length_c   12.29553165
_cell_angle_alpha   90.00000000
_cell_angle_beta   90.00000000
_cell_angle_gamma   90.00000000
_symmetry_Int_Tables_number   1
_chemical_formula_structural   Lu2Ge2O7
_chemical_formula_sum   'Lu8 Ge8 O28'
_cell_volume   561.98259649
_cell_formula_units_Z   4
loop_
 _symmetry_equiv_pos_site_id
 _symmetry_equiv_pos_as_xyz
  1  'x, y, z'
loop_
 _atom_site_type_symbol
 _atom_site_label
 _atom_site_symmetry_multiplicity
 _atom_site_fract_x
 _atom_site_fract_y
 _atom_site_fract_z
 _atom_site_occupancy
  O  O0  1  0.303935  0.696065  0.750000  1
  O  O1  1  0.803935  0.803935  0.000000  1
  O  O2  1  0.196065  0.196065  0.500000  1
  O  O3  1  0.696065  0.303935  0.250000  1
  O  O4  1  0.462633  0.580610  0.379333  1
  O  O5  1  0.537367  0.419390  0.879333  1
  O  O6  1  0.580610  0.462633  0.620667  1
  O  O7  1  0.080610  0.037367  0.129333  1
  O  O8  1  0.919390  0.962633  0.629333  1
  O  O9  1  0.037367  0.080610  0.870667  1
  O  O10  1  0.962633  0.919390  0.370667  1
  O  O11  1  0.419390  0.537367  0.120667  1
  O  O12  1  0.337876  0.933288  0.320156  1
  O  O13  1  0.662124  0.066712  0.820156  1
  O  O14  1  0.933288  0.337876  0.679844  1
  O  O15  1  0.433288  0.162124  0.070156  1
  O  O16  1  0.823527  0.357556  0.043538  1
  O  O17  1  0.142444  0.323527  0.293538  1
  O  O18  1  0.857556  0.676473  0.793538  1
  O  O19  1  0.323527  0.142444  0.706462  1
  O  O20  1  0.676473  0.857556  0.206462  1
  O  O21  1  0.176473  0.642444  0.543538  1
  O  O22  1  0.357556  0.823527  0.956462  1
  O  O23  1  0.642444  0.176473  0.456462  1
  O  O24  1  0.066712  0.662124  0.179844  1
  O  O25  1  0.837876  0.566712  0.429844  1
  O  O26  1  0.162124  0.433288  0.929844  1
  O  O27  1  0.566712  0.837876  0.570156  1
  Ge  Ge28  1  0.648568  0.399351  0.382818  1
  Ge  Ge29  1  0.351432  0.600649  0.882818  1
  Ge  Ge30  1  0.399351  0.648568  0.617182  1
  Ge  Ge31  1  0.899351  0.851432  0.132818  1
  Ge  Ge32  1  0.100649  0.148568  0.632818  1
  Ge  Ge33  1  0.851432  0.899351  0.867182  1
  Ge  Ge34  1  0.148568  0.100649  0.367182  1
  Ge  Ge35  1  0.600649  0.351432  0.117182  1
  Lu  Lu36  1  0.643384  0.872812  0.385359  1
  Lu  Lu37  1  0.356616  0.127188  0.885359  1
  Lu  Lu38  1  0.872812  0.643384  0.614641  1
  Lu  Lu39  1  0.372812  0.856616  0.135359  1
  Lu  Lu40  1  0.627188  0.143384  0.635359  1
  Lu  Lu41  1  0.856616  0.372812  0.864641  1
  Lu  Lu42  1  0.143384  0.627188  0.364641  1
  Lu  Lu43  1  0.127188  0.356616  0.114641  1
