# generated using pymatgen
data_MgH8(ClO6)2
_symmetry_space_group_name_H-M   'P 1'
_cell_length_a   6.00131716
_cell_length_b   6.91700805
_cell_length_c   6.91700805
_cell_angle_alpha   69.71206565
_cell_angle_beta   108.05257113
_cell_angle_gamma   108.05257113
_symmetry_Int_Tables_number   1
_chemical_formula_structural   MgH8(ClO6)2
_chemical_formula_sum   'Mg1 H8 Cl2 O12'
_cell_volume   249.37717549
_cell_formula_units_Z   1
loop_
 _symmetry_equiv_pos_site_id
 _symmetry_equiv_pos_as_xyz
  1  'x, y, z'
loop_
 _atom_site_type_symbol
 _atom_site_label
 _atom_site_symmetry_multiplicity
 _atom_site_fract_x
 _atom_site_fract_y
 _atom_site_fract_z
 _atom_site_occupancy
  Mg  Mg0  1  0.000000  0.000000  0.000000  1
  H  H1  1  0.736703  0.241337  0.042430  1
  H  H2  1  0.736703  0.042430  0.241337  1
  H  H3  1  0.865273  0.619482  0.281884  1
  H  H4  1  0.134726  0.718116  0.380517  1
  H  H5  1  0.865273  0.281884  0.619482  1
  H  H6  1  0.134726  0.380517  0.718116  1
  H  H7  1  0.263297  0.957570  0.758664  1
  H  H8  1  0.263297  0.758664  0.957570  1
  Cl  Cl9  1  0.397252  0.301923  0.301923  1
  Cl  Cl10  1  0.602749  0.698077  0.698077  1
  O  O11  1  0.803837  0.116186  0.116186  1
  O  O12  1  0.341240  0.163123  0.163123  1
  O  O13  1  0.300690  0.487914  0.186654  1
  O  O14  1  0.000001  0.742731  0.257270  1
  O  O15  1  0.661902  0.363903  0.363903  1
  O  O16  1  0.300690  0.186654  0.487914  1
  O  O17  1  0.699309  0.813346  0.512086  1
  O  O18  1  0.338099  0.636097  0.636097  1
  O  O19  1  0.000001  0.257270  0.742731  1
  O  O20  1  0.699309  0.512086  0.813346  1
  O  O21  1  0.658761  0.836878  0.836878  1
  O  O22  1  0.196162  0.883814  0.883814  1
