# generated using pymatgen
data_AsS2NF6
_symmetry_space_group_name_H-M   'P 1'
_cell_length_a   5.45920714
_cell_length_b   5.86867996
_cell_length_c   5.86867997
_cell_angle_alpha   70.19729026
_cell_angle_beta   88.00347225
_cell_angle_gamma   88.00347229
_symmetry_Int_Tables_number   1
_chemical_formula_structural   AsS2NF6
_chemical_formula_sum   'As1 S2 N1 F6'
_cell_volume   176.74353278
_cell_formula_units_Z   1
loop_
 _symmetry_equiv_pos_site_id
 _symmetry_equiv_pos_as_xyz
  1  'x, y, z'
loop_
 _atom_site_type_symbol
 _atom_site_label
 _atom_site_symmetry_multiplicity
 _atom_site_fract_x
 _atom_site_fract_y
 _atom_site_fract_z
 _atom_site_occupancy
  N  N0  1  0.500000  0.500000  0.500000  1
  F  F1  1  0.141693  0.079098  0.706592  1
  F  F2  1  0.858307  0.920902  0.293408  1
  F  F3  1  0.141693  0.706592  0.079098  1
  F  F4  1  0.255982  0.107322  0.107322  1
  F  F5  1  0.744018  0.892678  0.892678  1
  F  F6  1  0.858307  0.293408  0.920902  1
  S  S7  1  0.375250  0.641514  0.641514  1
  S  S8  1  0.624750  0.358486  0.358486  1
  As  As9  1  0.000000  0.000000  0.000000  1
