# generated using pymatgen
data_NaSc(GeO3)2
_symmetry_space_group_name_H-M   'P 1'
_cell_length_a   5.66480917
_cell_length_b   6.94901421
_cell_length_c   6.94901420
_cell_angle_alpha   83.47498065
_cell_angle_beta   76.91081336
_cell_angle_gamma   76.91081327
_symmetry_Int_Tables_number   1
_chemical_formula_structural   NaSc(GeO3)2
_chemical_formula_sum   'Na2 Sc2 Ge4 O12'
_cell_volume   258.95623663
_cell_formula_units_Z   2
loop_
 _symmetry_equiv_pos_site_id
 _symmetry_equiv_pos_as_xyz
  1  'x, y, z'
loop_
 _atom_site_type_symbol
 _atom_site_label
 _atom_site_symmetry_multiplicity
 _atom_site_fract_x
 _atom_site_fract_y
 _atom_site_fract_z
 _atom_site_occupancy
  O  O0  1  0.023792  0.645579  0.635397  1
  O  O1  1  0.476208  0.364603  0.354421  1
  O  O2  1  0.976208  0.354421  0.364603  1
  O  O3  1  0.523792  0.635397  0.645579  1
  O  O4  1  0.305032  0.902392  0.378221  1
  O  O5  1  0.194968  0.621779  0.097608  1
  O  O6  1  0.694968  0.097608  0.621779  1
  O  O7  1  0.805032  0.378221  0.902392  1
  O  O8  1  0.636449  0.809785  0.970985  1
  O  O9  1  0.863551  0.029015  0.190215  1
  O  O10  1  0.363551  0.190215  0.029015  1
  O  O11  1  0.136449  0.970985  0.809785  1
  Na  Na12  1  0.750000  0.698048  0.301952  1
  Na  Na13  1  0.250000  0.301952  0.698048  1
  Sc  Sc14  1  0.750000  0.100403  0.899597  1
  Sc  Sc15  1  0.250000  0.899597  0.100403  1
  Ge  Ge16  1  0.737943  0.620637  0.803047  1
  Ge  Ge17  1  0.762057  0.196953  0.379363  1
  Ge  Ge18  1  0.262057  0.379363  0.196953  1
  Ge  Ge19  1  0.237943  0.803047  0.620637  1
