# generated using pymatgen
data_Tb3SbO7
_symmetry_space_group_name_H-M   'P 1'
_cell_length_a   6.46314896
_cell_length_b   6.50750792
_cell_length_c   7.61340423
_cell_angle_alpha   73.18725356
_cell_angle_beta   89.79401898
_cell_angle_gamma   81.88807399
_symmetry_Int_Tables_number   1
_chemical_formula_structural   Tb3SbO7
_chemical_formula_sum   'Tb6 Sb2 O14'
_cell_volume   303.22358302
_cell_formula_units_Z   2
loop_
 _symmetry_equiv_pos_site_id
 _symmetry_equiv_pos_as_xyz
  1  'x, y, z'
loop_
 _atom_site_type_symbol
 _atom_site_label
 _atom_site_symmetry_multiplicity
 _atom_site_fract_x
 _atom_site_fract_y
 _atom_site_fract_z
 _atom_site_occupancy
  Tb  Tb0  1  0.264708  0.464804  0.882604  1
  Tb  Tb1  1  0.262259  0.474847  0.385340  1
  Tb  Tb2  1  0.459390  0.995769  0.251683  1
  Tb  Tb3  1  0.540610  0.004231  0.748317  1
  Tb  Tb4  1  0.737741  0.525153  0.614660  1
  Tb  Tb5  1  0.735292  0.535196  0.117396  1
  Sb  Sb6  1  0.000000  0.000000  0.000000  1
  Sb  Sb7  1  0.000000  0.000000  0.500000  1
  O  O8  1  0.289688  0.061359  0.516598  1
  O  O9  1  0.075435  0.680032  0.043220  1
  O  O10  1  0.290837  0.068089  0.953110  1
  O  O11  1  0.068729  0.668655  0.612714  1
  O  O12  1  0.100375  0.927986  0.268510  1
  O  O13  1  0.440872  0.354268  0.166199  1
  O  O14  1  0.451634  0.361556  0.655393  1
  O  O15  1  0.548366  0.638444  0.344607  1
  O  O16  1  0.559128  0.645732  0.833801  1
  O  O17  1  0.899625  0.072014  0.731490  1
  O  O18  1  0.931271  0.331345  0.387286  1
  O  O19  1  0.709163  0.931911  0.046889  1
  O  O20  1  0.924565  0.319968  0.956780  1
  O  O21  1  0.710312  0.938641  0.483403  1
