# generated using pymatgen
data_LiFeP2O7
_symmetry_space_group_name_H-M   'P 1'
_cell_length_a   9.67242268
_cell_length_b   9.75606266
_cell_length_c   11.11461847
_cell_angle_alpha   89.92339499
_cell_angle_beta   101.31542663
_cell_angle_gamma   90.12465980
_symmetry_Int_Tables_number   1
_chemical_formula_structural   LiFeP2O7
_chemical_formula_sum   'Li8 Fe8 P16 O56'
_cell_volume   1028.43818057
_cell_formula_units_Z   8
loop_
 _symmetry_equiv_pos_site_id
 _symmetry_equiv_pos_as_xyz
  1  'x, y, z'
loop_
 _atom_site_type_symbol
 _atom_site_label
 _atom_site_symmetry_multiplicity
 _atom_site_fract_x
 _atom_site_fract_y
 _atom_site_fract_z
 _atom_site_occupancy
  Li  Li0  1  0.414762  0.598856  0.977717  1
  Li  Li1  1  0.334730  0.914287  0.462718  1
  Li  Li2  1  0.385418  0.217092  0.548569  1
  Li  Li3  1  0.849836  0.587838  0.953726  1
  Li  Li4  1  0.649117  0.110362  0.044973  1
  Li  Li5  1  0.919568  0.900220  0.973865  1
  Li  Li6  1  0.841265  0.580365  0.469291  1
  Li  Li7  1  0.884076  0.282575  0.546375  1
  Fe  Fe8  1  0.204518  0.915982  0.677410  1
  Fe  Fe9  1  0.246545  0.208189  0.832034  1
  Fe  Fe10  1  0.245095  0.720119  0.173188  1
  Fe  Fe11  1  0.292373  0.427474  0.327079  1
  Fe  Fe12  1  0.702091  0.583123  0.673447  1
  Fe  Fe13  1  0.748711  0.288612  0.829220  1
  Fe  Fe14  1  0.743994  0.778995  0.174256  1
  Fe  Fe15  1  0.793457  0.072117  0.330545  1
  P  P16  1  0.020544  0.449359  0.749050  1
  P  P17  1  0.115386  0.708007  0.884836  1
  P  P18  1  0.065630  0.917132  0.239707  1
  P  P19  1  0.122541  0.146335  0.417533  1
  P  P20  1  0.375265  0.640765  0.574875  1
  P  P21  1  0.433745  0.421198  0.765260  1
  P  P22  1  0.521546  0.050766  0.751249  1
  P  P23  1  0.385664  0.213648  0.117671  1
  P  P24  1  0.611005  0.790188  0.883649  1
  P  P25  1  0.475468  0.948051  0.247800  1
  P  P26  1  0.565822  0.582546  0.240170  1
  P  P27  1  0.621982  0.354063  0.419319  1
  P  P28  1  0.876661  0.859036  0.574548  1
  P  P29  1  0.932025  0.078758  0.763218  1
  P  P30  1  0.895900  0.284191  0.116783  1
  P  P31  1  0.974600  0.551726  0.243521  1
  O  O32  1  0.009079  0.426121  0.614669  1
  O  O33  1  0.033877  0.851542  0.571712  1
  O  O34  1  0.086614  0.084826  0.738415  1
  O  O35  1  0.106095  0.589462  0.783007  1
  O  O36  1  0.101232  0.342940  0.836946  1
  O  O37  1  0.175734  0.829123  0.824964  1
  O  O38  1  0.220504  0.658594  0.001279  1
  O  O39  1  0.038555  0.257096  0.096772  1
  O  O40  1  0.116104  0.066218  0.289900  1
  O  O41  1  0.077792  0.900402  0.107168  1
  O  O42  1  0.129579  0.543216  0.219762  1
  O  O43  1  0.188650  0.285460  0.402172  1
  O  O44  1  0.173123  0.815194  0.312497  1
  O  O45  1  0.219270  0.063350  0.518353  1
  O  O46  1  0.292297  0.564393  0.465894  1
  O  O47  1  0.344474  0.298732  0.703912  1
  O  O48  1  0.318957  0.785057  0.595613  1
  O  O49  1  0.367642  0.033199  0.777157  1
  O  O50  1  0.366116  0.557359  0.698133  1
  O  O51  1  0.423205  0.429665  0.896950  1
  O  O52  1  0.468627  0.757818  0.904300  1
  O  O53  1  0.281820  0.167339  0.999467  1
  O  O54  1  0.326060  0.331013  0.183644  1
  O  O55  1  0.390881  0.087993  0.215290  1
  O  O56  1  0.410812  0.590394  0.260585  1
  O  O57  1  0.397775  0.841691  0.155978  1
  O  O58  1  0.469594  0.341504  0.436696  1
  O  O59  1  0.524584  0.087629  0.621357  1
  O  O60  1  0.478295  0.920062  0.379667  1
  O  O61  1  0.533526  0.650780  0.573077  1
  O  O62  1  0.605856  0.148198  0.850795  1
  O  O63  1  0.589341  0.413718  0.739318  1
  O  O64  1  0.601688  0.906330  0.779147  1
  O  O65  1  0.689028  0.671567  0.831405  1
  O  O66  1  0.715615  0.848315  0.000530  1
  O  O67  1  0.530514  0.233930  0.094742  1
  O  O68  1  0.581630  0.597396  0.107916  1
  O  O69  1  0.620500  0.435139  0.292489  1
  O  O70  1  0.629411  0.964034  0.216709  1
  O  O71  1  0.691492  0.216826  0.403234  1
  O  O72  1  0.670707  0.688769  0.311473  1
  O  O73  1  0.717269  0.437476  0.521425  1
  O  O74  1  0.792238  0.935011  0.465481  1
  O  O75  1  0.842931  0.201528  0.700956  1
  O  O76  1  0.819780  0.714592  0.596147  1
  O  O77  1  0.868920  0.469946  0.784904  1
  O  O78  1  0.915065  0.072174  0.894091  1
  O  O79  1  0.863944  0.941898  0.697517  1
  O  O80  1  0.970039  0.729792  0.909852  1
  O  O81  1  0.792406  0.340565  0.997729  1
  O  O82  1  0.816355  0.167398  0.172268  1
  O  O83  1  0.889046  0.646841  0.141650  1
  O  O84  1  0.898690  0.405506  0.218629  1
  O  O85  1  0.909347  0.906062  0.259646  1
  O  O86  1  0.969350  0.157842  0.434927  1
  O  O87  1  0.966946  0.591857  0.370748  1
