# generated using pymatgen
data_Ge7H8N2O15
_symmetry_space_group_name_H-M   'P 1'
_cell_length_a   7.36824482
_cell_length_b   7.56625027
_cell_length_c   15.42241580
_cell_angle_alpha   77.96549726
_cell_angle_beta   90.00000000
_cell_angle_gamma   60.86197126
_symmetry_Int_Tables_number   1
_chemical_formula_structural   Ge7H8N2O15
_chemical_formula_sum   'Ge14 H16 N4 O30'
_cell_volume   729.28076766
_cell_formula_units_Z   2
loop_
 _symmetry_equiv_pos_site_id
 _symmetry_equiv_pos_as_xyz
  1  'x, y, z'
loop_
 _atom_site_type_symbol
 _atom_site_label
 _atom_site_symmetry_multiplicity
 _atom_site_fract_x
 _atom_site_fract_y
 _atom_site_fract_z
 _atom_site_occupancy
  Ge  Ge0  1  0.437940  0.912158  0.852853  1
  Ge  Ge1  1  0.649902  0.912158  0.352853  1
  Ge  Ge2  1  0.634263  0.632002  0.624062  1
  Ge  Ge3  1  0.783232  0.482222  0.836613  1
  Ge  Ge4  1  0.265453  0.517778  0.663387  1
  Ge  Ge5  1  0.266265  0.367998  0.875938  1
  Ge  Ge6  1  0.000000  0.500000  0.500000  1
  Ge  Ge7  1  0.733735  0.632002  0.124062  1
  Ge  Ge8  1  0.734547  0.482222  0.336613  1
  Ge  Ge9  1  0.216768  0.517778  0.163387  1
  Ge  Ge10  1  0.365737  0.367998  0.375938  1
  Ge  Ge11  1  0.500000  0.500000  0.000000  1
  Ge  Ge12  1  0.350098  0.087842  0.647147  1
  Ge  Ge13  1  0.562060  0.087842  0.147147  1
  H  H14  1  0.070619  0.876312  0.911062  1
  H  H15  1  0.848198  0.875883  0.875090  1
  H  H16  1  0.939845  0.798489  0.982932  1
  H  H17  1  0.875635  0.946038  0.569295  1
  H  H18  1  0.053068  0.876312  0.411062  1
  H  H19  1  0.275919  0.875883  0.375090  1
  H  H20  1  0.261665  0.798489  0.482932  1
  H  H21  1  0.178326  0.946038  0.069295  1
  H  H22  1  0.821674  0.053962  0.930705  1
  H  H23  1  0.738335  0.201511  0.517068  1
  H  H24  1  0.724081  0.124117  0.624910  1
  H  H25  1  0.946932  0.123688  0.588938  1
  H  H26  1  0.124365  0.053962  0.430705  1
  H  H27  1  0.060155  0.201511  0.017068  1
  H  H28  1  0.151802  0.124117  0.124910  1
  H  H29  1  0.929381  0.123688  0.088938  1
  N  N30  1  0.919809  0.904007  0.923808  1
  N  N31  1  0.176184  0.904007  0.423808  1
  N  N32  1  0.823816  0.095993  0.576192  1
  N  N33  1  0.080191  0.095993  0.076192  1
  O  O34  1  0.339992  0.790096  0.931272  1
  O  O35  1  0.582149  0.890089  0.617528  1
  O  O36  1  0.702702  0.748497  0.832615  1
  O  O37  1  0.869913  0.790096  0.431272  1
  O  O38  1  0.367924  0.679549  0.614334  1
  O  O39  1  0.273644  0.463932  0.968371  1
  O  O40  1  0.214995  0.552077  0.773257  1
  O  O41  1  0.527762  0.890089  0.117528  1
  O  O42  1  0.027749  0.603529  0.600269  1
  O  O43  1  0.548802  0.748497  0.332615  1
  O  O44  1  0.631278  0.396471  0.899731  1
  O  O45  1  0.767071  0.447923  0.726743  1
  O  O46  1  0.737576  0.536068  0.531629  1
  O  O47  1  0.047473  0.320451  0.885666  1
  O  O48  1  0.952527  0.679549  0.114334  1
  O  O49  1  0.262424  0.463932  0.468371  1
  O  O50  1  0.232929  0.552077  0.273257  1
  O  O51  1  0.368722  0.603529  0.100269  1
  O  O52  1  0.451198  0.251503  0.667385  1
  O  O53  1  0.972251  0.396471  0.399731  1
  O  O54  1  0.472238  0.109911  0.882472  1
  O  O55  1  0.785005  0.447923  0.226743  1
  O  O56  1  0.726356  0.536068  0.031629  1
  O  O57  1  0.632076  0.320451  0.385666  1
  O  O58  1  0.130087  0.209904  0.568728  1
  O  O59  1  0.276223  0.000000  0.750000  1
  O  O60  1  0.297298  0.251503  0.167385  1
  O  O61  1  0.417851  0.109911  0.382472  1
  O  O62  1  0.660008  0.209904  0.068728  1
  O  O63  1  0.723777  0.000000  0.250000  1
