# generated using pymatgen
data_LiVP2HO8
_symmetry_space_group_name_H-M   'P 1'
_cell_length_a   9.73010837
_cell_length_b   7.98595635
_cell_length_c   7.74047582
_cell_angle_alpha   90.00000000
_cell_angle_beta   68.24603074
_cell_angle_gamma   90.00000000
_symmetry_Int_Tables_number   1
_chemical_formula_structural   LiVP2HO8
_chemical_formula_sum   'Li4 V4 P8 H4 O32'
_cell_volume   558.63344915
_cell_formula_units_Z   4
loop_
 _symmetry_equiv_pos_site_id
 _symmetry_equiv_pos_as_xyz
  1  'x, y, z'
loop_
 _atom_site_type_symbol
 _atom_site_label
 _atom_site_symmetry_multiplicity
 _atom_site_fract_x
 _atom_site_fract_y
 _atom_site_fract_z
 _atom_site_occupancy
  Li  Li0  1  0.227427  0.370186  0.648771  1
  Li  Li1  1  0.272573  0.870186  0.851229  1
  Li  Li2  1  0.721901  0.131659  0.147867  1
  Li  Li3  1  0.778099  0.631659  0.352133  1
  V  V4  1  0.246939  0.495833  0.013440  1
  V  V5  1  0.253061  0.995833  0.486560  1
  V  V6  1  0.751210  0.504936  0.992643  1
  V  V7  1  0.748790  0.004936  0.507357  1
  P  P8  1  0.066133  0.846391  0.231322  1
  P  P9  1  0.067935  0.653092  0.736573  1
  P  P10  1  0.433867  0.346391  0.268678  1
  P  P11  1  0.568954  0.850093  0.231729  1
  P  P12  1  0.432065  0.153092  0.763427  1
  P  P13  1  0.565487  0.657736  0.737556  1
  P  P14  1  0.931046  0.350093  0.268271  1
  P  P15  1  0.934513  0.157736  0.762444  1
  H  H16  1  0.008616  0.507652  0.508152  1
  H  H17  1  0.508568  0.506351  0.509769  1
  H  H18  1  0.491384  0.007652  0.991848  1
  H  H19  1  0.991432  0.006351  0.990231  1
  O  O20  1  0.091747  0.941849  0.051272  1
  O  O21  1  0.095777  0.330120  0.138877  1
  O  O22  1  0.139598  0.672911  0.183798  1
  O  O23  1  0.140398  0.943720  0.351130  1
  O  O24  1  0.094928  0.548060  0.558762  1
  O  O25  1  0.100837  0.174370  0.644297  1
  O  O26  1  0.145459  0.824192  0.688091  1
  O  O27  1  0.146869  0.549703  0.846006  1
  O  O28  1  0.359602  0.443720  0.148870  1
  O  O29  1  0.360402  0.172911  0.316202  1
  O  O30  1  0.404223  0.830120  0.361124  1
  O  O31  1  0.408253  0.441849  0.448728  1
  O  O32  1  0.353131  0.049703  0.653994  1
  O  O33  1  0.354541  0.324192  0.811909  1
  O  O34  1  0.593101  0.954622  0.058792  1
  O  O35  1  0.599696  0.328637  0.143687  1
  O  O36  1  0.399163  0.674370  0.855703  1
  O  O37  1  0.405072  0.048060  0.941238  1
  O  O38  1  0.645649  0.677246  0.189342  1
  O  O39  1  0.647119  0.951192  0.346798  1
  O  O40  1  0.594222  0.560068  0.553739  1
  O  O41  1  0.596925  0.171195  0.640266  1
  O  O42  1  0.641669  0.827890  0.682938  1
  O  O43  1  0.638706  0.558145  0.854430  1
  O  O44  1  0.852881  0.451192  0.153202  1
  O  O45  1  0.854351  0.177246  0.310658  1
  O  O46  1  0.900304  0.828637  0.356313  1
  O  O47  1  0.906899  0.454622  0.441208  1
  O  O48  1  0.861294  0.058145  0.645570  1
  O  O49  1  0.858331  0.327890  0.817062  1
  O  O50  1  0.903075  0.671195  0.859734  1
  O  O51  1  0.905778  0.060068  0.946261  1
