# generated using pymatgen
data_PuP3
_symmetry_space_group_name_H-M   'P 1'
_cell_length_a   5.57965034
_cell_length_b   5.57964977
_cell_length_c   5.36085688
_cell_angle_alpha   90.00000000
_cell_angle_beta   90.00000000
_cell_angle_gamma   119.99999731
_symmetry_Int_Tables_number   1
_chemical_formula_structural   PuP3
_chemical_formula_sum   'Pu2 P6'
_cell_volume   144.53691473
_cell_formula_units_Z   2
loop_
 _symmetry_equiv_pos_site_id
 _symmetry_equiv_pos_as_xyz
  1  'x, y, z'
loop_
 _atom_site_type_symbol
 _atom_site_label
 _atom_site_symmetry_multiplicity
 _atom_site_fract_x
 _atom_site_fract_y
 _atom_site_fract_z
 _atom_site_occupancy
  Pu  Pu0  1  0.333334  0.666667  0.749999  1
  Pu  Pu1  1  0.666666  0.333333  0.250000  1
  P  P2  1  0.195673  0.391345  0.250000  1
  P  P3  1  0.608655  0.804326  0.250000  1
  P  P4  1  0.195672  0.804326  0.250000  1
  P  P5  1  0.804326  0.608655  0.749999  1
  P  P6  1  0.391347  0.195674  0.749999  1
  P  P7  1  0.804327  0.195674  0.749999  1
