# generated using pymatgen
data_PuBi3
_symmetry_space_group_name_H-M   'P 1'
_cell_length_a   6.38524197
_cell_length_b   6.38524197
_cell_length_c   6.38524197
_cell_angle_alpha   137.63429748
_cell_angle_beta   137.63429748
_cell_angle_gamma   61.46355301
_symmetry_Int_Tables_number   1
_chemical_formula_structural   PuBi3
_chemical_formula_sum   'Pu1 Bi3'
_cell_volume   116.87405938
_cell_formula_units_Z   1
loop_
 _symmetry_equiv_pos_site_id
 _symmetry_equiv_pos_as_xyz
  1  'x, y, z'
loop_
 _atom_site_type_symbol
 _atom_site_label
 _atom_site_symmetry_multiplicity
 _atom_site_fract_x
 _atom_site_fract_y
 _atom_site_fract_z
 _atom_site_occupancy
  Pu  Pu0  1  0.000000  0.000000  0.000000  1
  Bi  Bi1  1  0.749999  0.249999  0.499999  1
  Bi  Bi2  1  0.249999  0.749999  0.499999  1
  Bi  Bi3  1  0.500000  0.500000  0.000000  1
