# generated using pymatgen
data_Li3V2P4(HO8)2
_symmetry_space_group_name_H-M   'P 1'
_cell_length_a   9.43296665
_cell_length_b   9.43360937
_cell_length_c   7.87551407
_cell_angle_alpha   79.00815359
_cell_angle_beta   78.82942214
_cell_angle_gamma   117.80308879
_symmetry_Int_Tables_number   1
_chemical_formula_structural   Li3V2P4(HO8)2
_chemical_formula_sum   'Li6 V4 P8 H4 O32'
_cell_volume   575.39397913
_cell_formula_units_Z   2
loop_
 _symmetry_equiv_pos_site_id
 _symmetry_equiv_pos_as_xyz
  1  'x, y, z'
loop_
 _atom_site_type_symbol
 _atom_site_label
 _atom_site_symmetry_multiplicity
 _atom_site_fract_x
 _atom_site_fract_y
 _atom_site_fract_z
 _atom_site_occupancy
  Li  Li0  1  0.462799  0.093803  0.353243  1
  Li  Li1  1  0.046273  0.413196  0.653748  1
  Li  Li2  1  0.336620  0.207849  0.852057  1
  Li  Li3  1  0.656629  0.791624  0.155552  1
  Li  Li4  1  0.956515  0.593112  0.345413  1
  Li  Li5  1  0.838433  0.702673  0.844058  1
  V  V6  1  0.252029  0.254426  0.488199  1
  V  V7  1  0.500703  -0.000134  0.997355  1
  V  V8  1  0.999185  0.493568  0.003814  1
  V  V9  1  0.745958  0.751945  0.500672  1
  P  P10  1  0.259251  0.606728  0.269318  1
  P  P11  1  0.757442  0.108880  0.265428  1
  P  P12  1  0.645053  0.495088  0.229695  1
  P  P13  1  0.143527  0.992263  0.233041  1
  P  P14  1  0.356600  0.508600  0.760220  1
  P  P15  1  0.856376  0.013959  0.764379  1
  P  P16  1  0.740437  0.392770  0.733550  1
  P  P17  1  0.239703  0.894454  0.739725  1
  H  H18  1  0.746796  0.252808  0.497166  1
  H  H19  1  0.258134  0.764855  0.516907  1
  H  H20  1  0.481355  0.490154  0.982352  1
  H  H21  1  0.988433  0.999003  0.993072  1
  O  O22  1  0.123180  0.061598  0.054686  1
  O  O23  1  0.165245  0.113007  0.354726  1
  O  O24  1  0.014206  0.189897  0.645024  1
  O  O25  1  0.239545  0.060273  0.687514  1
  O  O26  1  0.625556  0.081763  0.153747  1
  O  O27  1  0.132834  0.582442  0.164430  1
  O  O28  1  0.278578  0.450525  0.318703  1
  O  O29  1  0.486039  0.314964  0.349893  1
  O  O30  1  0.680282  0.137541  0.436897  1
  O  O31  1  0.186112  0.629717  0.447647  1
  O  O32  1  0.330694  0.376744  0.652399  1
  O  O33  1  0.194567  0.512855  0.808003  1
  O  O34  1  0.697957  0.026315  0.821320  1
  O  O35  1  0.624384  0.567737  0.050891  1
  O  O36  1  0.930468  0.259974  0.140571  1
  O  O37  1  0.436847  0.764711  0.145108  1
  O  O38  1  0.561116  0.235234  0.851329  1
  O  O39  1  0.063508  0.737426  0.851615  1
  O  O40  1  0.378637  0.425563  0.937145  1
  O  O41  1  0.807043  0.487266  0.190834  1
  O  O42  1  0.309500  0.988345  0.190959  1
  O  O43  1  0.660912  0.617962  0.339682  1
  O  O44  1  0.813192  0.370777  0.552028  1
  O  O45  1  0.315021  0.875907  0.556588  1
  O  O46  1  0.511518  0.681345  0.644103  1
  O  O47  1  0.736799  0.556422  0.687898  1
  O  O48  1  0.866194  0.410492  0.838523  1
  O  O49  1  0.359826  0.914385  0.857850  1
  O  O50  1  0.760144  0.945109  0.309423  1
  O  O51  1  0.988085  0.816317  0.353670  1
  O  O52  1  0.833594  0.884091  0.665161  1
  O  O53  1  0.879503  0.938660  0.946532  1
