# generated using pymatgen
data_Lu2Mn12P7
_symmetry_space_group_name_H-M   'P 1'
_cell_length_a   9.22601733
_cell_length_b   9.22617480
_cell_length_c   3.57804534
_cell_angle_alpha   90.00000000
_cell_angle_beta   90.00000000
_cell_angle_gamma   119.99777112
_symmetry_Int_Tables_number   1
_chemical_formula_structural   Lu2Mn12P7
_chemical_formula_sum   'Lu2 Mn12 P7'
_cell_volume   263.76803843
_cell_formula_units_Z   1
loop_
 _symmetry_equiv_pos_site_id
 _symmetry_equiv_pos_as_xyz
  1  'x, y, z'
loop_
 _atom_site_type_symbol
 _atom_site_label
 _atom_site_symmetry_multiplicity
 _atom_site_fract_x
 _atom_site_fract_y
 _atom_site_fract_z
 _atom_site_occupancy
  Lu  Lu0  1  0.333286  0.666702  0.000000  1
  Lu  Lu1  1  0.666768  0.333340  0.500000  1
  Mn  Mn2  1  0.427805  0.048286  0.000000  1
  Mn  Mn3  1  0.951674  0.379450  0.000000  1
  Mn  Mn4  1  0.620562  0.572169  0.000000  1
  Mn  Mn5  1  0.157489  0.277045  0.000000  1
  Mn  Mn6  1  0.722930  0.880485  0.000000  1
  Mn  Mn7  1  0.119562  0.842440  0.000000  1
  Mn  Mn8  1  0.391869  0.436390  0.500000  1
  Mn  Mn9  1  0.563521  0.955504  0.500000  1
  Mn  Mn10  1  0.044524  0.608148  0.500000  1
  Mn  Mn11  1  0.221643  0.099087  0.500000  1
  Mn  Mn12  1  0.900883  0.122547  0.500000  1
  Mn  Mn13  1  0.877499  0.778398  0.500000  1
  P  P14  1  0.128044  0.410810  0.500000  1
  P  P15  1  0.589238  0.717348  0.500000  1
  P  P16  1  0.282623  0.871918  0.500000  1
  P  P17  1  0.411207  0.287549  0.000000  1
  P  P18  1  0.712413  0.123602  0.000000  1
  P  P19  1  0.876459  0.588816  0.000000  1
  P  P20  1  0.000002  0.999966  0.000000  1
