# generated using pymatgen
data_PaTe3
_symmetry_space_group_name_H-M   'P 1'
_cell_length_a   6.70213188
_cell_length_b   6.70213157
_cell_length_c   5.66066021
_cell_angle_alpha   90.00000000
_cell_angle_beta   90.00000000
_cell_angle_gamma   120.00000153
_symmetry_Int_Tables_number   1
_chemical_formula_structural   PaTe3
_chemical_formula_sum   'Pa2 Te6'
_cell_volume   220.20320213
_cell_formula_units_Z   2
loop_
 _symmetry_equiv_pos_site_id
 _symmetry_equiv_pos_as_xyz
  1  'x, y, z'
loop_
 _atom_site_type_symbol
 _atom_site_label
 _atom_site_symmetry_multiplicity
 _atom_site_fract_x
 _atom_site_fract_y
 _atom_site_fract_z
 _atom_site_occupancy
  Pa  Pa0  1  0.666667  0.333332  0.249998  1
  Pa  Pa1  1  0.333333  0.666666  0.750001  1
  Te  Te2  1  0.824442  0.175558  0.750001  1
  Te  Te3  1  0.351118  0.175558  0.750001  1
  Te  Te4  1  0.824442  0.648884  0.750001  1
  Te  Te5  1  0.175558  0.824442  0.249998  1
  Te  Te6  1  0.648884  0.824442  0.249998  1
  Te  Te7  1  0.175559  0.351118  0.249998  1
