# generated using pymatgen
data_NaV4O10
_symmetry_space_group_name_H-M   'P 1'
_cell_length_a   3.67991694
_cell_length_b   6.15819067
_cell_length_c   18.76153773
_cell_angle_alpha   90.00000000
_cell_angle_beta   90.00000000
_cell_angle_gamma   107.38448089
_symmetry_Int_Tables_number   1
_chemical_formula_structural   NaV4O10
_chemical_formula_sum   'Na2 V8 O20'
_cell_volume   405.74594835
_cell_formula_units_Z   2
loop_
 _symmetry_equiv_pos_site_id
 _symmetry_equiv_pos_as_xyz
  1  'x, y, z'
loop_
 _atom_site_type_symbol
 _atom_site_label
 _atom_site_symmetry_multiplicity
 _atom_site_fract_x
 _atom_site_fract_y
 _atom_site_fract_z
 _atom_site_occupancy
  Na  Na0  1  0.079907  0.159815  0.250000  1
  Na  Na1  1  0.920093  0.840185  0.750000  1
  V  V2  1  0.436584  0.873169  0.081499  1
  V  V3  1  0.270522  0.541043  0.583004  1
  V  V4  1  0.270522  0.541043  0.916996  1
  V  V5  1  0.436584  0.873169  0.418501  1
  V  V6  1  0.729478  0.458957  0.416996  1
  V  V7  1  0.729478  0.458957  0.083004  1
  V  V8  1  0.563416  0.126831  0.581499  1
  V  V9  1  0.563416  0.126831  0.918501  1
  O  O10  1  0.260294  0.520589  0.060582  1
  O  O11  1  0.101186  0.202372  0.567688  1
  O  O12  1  0.458996  0.917991  0.167885  1
  O  O13  1  0.260294  0.520589  0.439418  1
  O  O14  1  0.295690  0.591380  0.831188  1
  O  O15  1  0.295690  0.591380  0.668812  1
  O  O16  1  0.420058  0.840115  0.547965  1
  O  O17  1  0.101186  0.202372  0.932312  1
  O  O18  1  0.458996  0.917991  0.332115  1
  O  O19  1  0.420058  0.840115  0.952035  1
  O  O20  1  0.704310  0.408620  0.168812  1
  O  O21  1  0.579942  0.159885  0.452035  1
  O  O22  1  0.704310  0.408620  0.331188  1
  O  O23  1  0.898814  0.797628  0.432312  1
  O  O24  1  0.541004  0.082009  0.832115  1
  O  O25  1  0.579942  0.159885  0.047965  1
  O  O26  1  0.541004  0.082009  0.667885  1
  O  O27  1  0.898814  0.797628  0.067688  1
  O  O28  1  0.739706  0.479411  0.560582  1
  O  O29  1  0.739706  0.479411  0.939418  1
