# generated using pymatgen
data_Li2MnSiO4
_symmetry_space_group_name_H-M   'P 1'
_cell_length_a   6.50751207
_cell_length_b   11.02492138
_cell_length_c   5.09114328
_cell_angle_alpha   90.00000000
_cell_angle_beta   90.00000000
_cell_angle_gamma   91.22727983
_symmetry_Int_Tables_number   1
_chemical_formula_structural   Li2MnSiO4
_chemical_formula_sum   'Li8 Mn4 Si4 O16'
_cell_volume   365.17931004
_cell_formula_units_Z   4
loop_
 _symmetry_equiv_pos_site_id
 _symmetry_equiv_pos_as_xyz
  1  'x, y, z'
loop_
 _atom_site_type_symbol
 _atom_site_label
 _atom_site_symmetry_multiplicity
 _atom_site_fract_x
 _atom_site_fract_y
 _atom_site_fract_z
 _atom_site_occupancy
  Li  Li0  1  0.999469  0.586933  0.313437  1
  Li  Li1  1  0.999469  0.086933  0.186563  1
  Li  Li2  1  0.219882  0.671669  0.812852  1
  Li  Li3  1  0.219882  0.171669  0.687148  1
  Li  Li4  1  0.780118  0.828331  0.312852  1
  Li  Li5  1  0.780118  0.328331  0.187148  1
  Li  Li6  1  0.000531  0.913067  0.813437  1
  Li  Li7  1  0.000531  0.413067  0.686563  1
  Mn  Mn8  1  0.508521  0.902122  0.796101  1
  Mn  Mn9  1  0.508521  0.402122  0.703899  1
  Mn  Mn10  1  0.491479  0.597878  0.296101  1
  Mn  Mn11  1  0.491479  0.097878  0.203899  1
  Si  Si12  1  0.237321  0.838190  0.314665  1
  Si  Si13  1  0.237321  0.338190  0.185335  1
  Si  Si14  1  0.762679  0.661810  0.814665  1
  Si  Si15  1  0.762679  0.161810  0.685335  1
  O  O16  1  0.038731  0.909641  0.205707  1
  O  O17  1  0.038731  0.409641  0.294293  1
  O  O18  1  0.241822  0.835453  0.640020  1
  O  O19  1  0.241822  0.335453  0.859980  1
  O  O20  1  0.240431  0.696532  0.203327  1
  O  O21  1  0.240431  0.196532  0.296673  1
  O  O22  1  0.460633  0.906507  0.217397  1
  O  O23  1  0.460633  0.406507  0.282603  1
  O  O24  1  0.539367  0.593493  0.717397  1
  O  O25  1  0.539367  0.093493  0.782603  1
  O  O26  1  0.759569  0.803468  0.703327  1
  O  O27  1  0.759569  0.303468  0.796673  1
  O  O28  1  0.758178  0.664547  0.140020  1
  O  O29  1  0.758178  0.164547  0.359980  1
  O  O30  1  0.961269  0.590359  0.705707  1
  O  O31  1  0.961269  0.090359  0.794293  1
