# generated using pymatgen
data_Sm2Au5F21
_symmetry_space_group_name_H-M   'P 1'
_cell_length_a   8.38386879
_cell_length_b   8.38386879
_cell_length_c   26.22385085
_cell_angle_alpha   90.00000000
_cell_angle_beta   90.00000000
_cell_angle_gamma   90.00000000
_symmetry_Int_Tables_number   1
_chemical_formula_structural   Sm2Au5F21
_chemical_formula_sum   'Sm8 Au20 F84'
_cell_volume   1843.25496276
_cell_formula_units_Z   4
loop_
 _symmetry_equiv_pos_site_id
 _symmetry_equiv_pos_as_xyz
  1  'x, y, z'
loop_
 _atom_site_type_symbol
 _atom_site_label
 _atom_site_symmetry_multiplicity
 _atom_site_fract_x
 _atom_site_fract_y
 _atom_site_fract_z
 _atom_site_occupancy
  F  F0  1  0.597027  0.306635  0.880176  1
  F  F1  1  0.402973  0.693365  0.380176  1
  F  F2  1  0.306635  0.597027  0.119824  1
  F  F3  1  0.806635  0.902973  0.630176  1
  F  F4  1  0.193365  0.097027  0.130176  1
  F  F5  1  0.902973  0.806635  0.369824  1
  F  F6  1  0.097027  0.193365  0.869824  1
  F  F7  1  0.693365  0.402973  0.619824  1
  F  F8  1  0.720904  0.093755  0.053833  1
  F  F9  1  0.279096  0.906245  0.553833  1
  F  F10  1  0.093755  0.720904  0.946167  1
  F  F11  1  0.593755  0.779096  0.803833  1
  F  F12  1  0.406245  0.220904  0.303833  1
  F  F13  1  0.779096  0.593755  0.196166  1
  F  F14  1  0.220904  0.406245  0.696167  1
  F  F15  1  0.906245  0.279096  0.446167  1
  F  F16  1  0.975365  0.862959  0.140947  1
  F  F17  1  0.024635  0.137041  0.640947  1
  F  F18  1  0.862959  0.975365  0.859053  1
  F  F19  1  0.362959  0.524635  0.890947  1
  F  F20  1  0.637041  0.475365  0.390947  1
  F  F21  1  0.524635  0.362959  0.109053  1
  F  F22  1  0.475365  0.637041  0.609053  1
  F  F23  1  0.137041  0.024635  0.359053  1
  F  F24  1  0.313857  0.959406  0.042612  1
  F  F25  1  0.686143  0.040594  0.542612  1
  F  F26  1  0.959406  0.313857  0.957388  1
  F  F27  1  0.540594  0.813857  0.292612  1
  F  F28  1  0.459406  0.186143  0.792612  1
  F  F29  1  0.294853  0.939186  0.248413  1
  F  F30  1  0.705147  0.060814  0.748413  1
  F  F31  1  0.939186  0.294853  0.751587  1
  F  F32  1  0.060814  0.705147  0.251587  1
  F  F33  1  0.560814  0.794853  0.498413  1
  F  F34  1  0.205147  0.439186  0.001587  1
  F  F35  1  0.794853  0.560814  0.501587  1
  F  F36  1  0.200303  0.412919  0.589243  1
  F  F37  1  0.087081  0.700303  0.839243  1
  F  F38  1  0.912919  0.299697  0.339243  1
  F  F39  1  0.700303  0.087081  0.160757  1
  F  F40  1  0.299697  0.912919  0.660757  1
  F  F41  1  0.799697  0.587081  0.089243  1
  F  F42  1  0.412919  0.200303  0.410757  1
  F  F43  1  0.587081  0.799697  0.910757  1
  F  F44  1  0.451616  0.169736  0.689785  1
  F  F45  1  0.330264  0.951616  0.939785  1
  F  F46  1  0.669736  0.048384  0.439785  1
  F  F47  1  0.951616  0.330264  0.060215  1
  F  F48  1  0.048384  0.669736  0.560215  1
  F  F49  1  0.548384  0.830264  0.189785  1
  F  F50  1  0.169736  0.451616  0.310215  1
  F  F51  1  0.830264  0.548384  0.810215  1
  F  F52  1  0.325842  0.564400  0.500568  1
  F  F53  1  0.935600  0.825842  0.750568  1
  F  F54  1  0.064400  0.174158  0.250567  1
  F  F55  1  0.825842  0.935600  0.249433  1
  F  F56  1  0.174158  0.064400  0.749432  1
  F  F57  1  0.674158  0.435600  0.000567  1
  F  F58  1  0.564400  0.325842  0.499433  1
  F  F59  1  0.435600  0.674158  0.999432  1
  F  F60  1  0.173743  0.433243  0.415204  1
  F  F61  1  0.066757  0.673743  0.665204  1
  F  F62  1  0.933243  0.326257  0.165204  1
  F  F63  1  0.673743  0.066757  0.334796  1
  F  F64  1  0.326257  0.933243  0.834796  1
  F  F65  1  0.826257  0.566757  0.915204  1
  F  F66  1  0.433243  0.173743  0.584796  1
  F  F67  1  0.566757  0.826257  0.084796  1
  F  F68  1  0.221604  0.221604  0.500000  1
  F  F69  1  0.278396  0.721604  0.750000  1
  F  F70  1  0.721604  0.278396  0.250000  1
  F  F71  1  0.778396  0.778396  0.000000  1
  F  F72  1  0.912098  0.286945  0.551835  1
  F  F73  1  0.213055  0.412098  0.801835  1
  F  F74  1  0.786945  0.587902  0.301835  1
  F  F75  1  0.412098  0.213055  0.198165  1
  F  F76  1  0.587902  0.786945  0.698165  1
  F  F77  1  0.087902  0.713055  0.051835  1
  F  F78  1  0.286945  0.912098  0.448165  1
  F  F79  1  0.713055  0.087902  0.948165  1
  F  F80  1  0.040594  0.686143  0.457388  1
  F  F81  1  0.813857  0.540594  0.707388  1
  F  F82  1  0.186143  0.459406  0.207388  1
  F  F83  1  0.439186  0.205147  0.998413  1
  Sm  Sm84  1  0.555805  0.929511  0.998396  1
  Sm  Sm85  1  0.444195  0.070489  0.498396  1
  Sm  Sm86  1  0.929511  0.555805  0.001604  1
  Sm  Sm87  1  0.429511  0.944195  0.748396  1
  Sm  Sm88  1  0.570489  0.055805  0.248396  1
  Sm  Sm89  1  0.944195  0.429511  0.251604  1
  Sm  Sm90  1  0.055805  0.570489  0.751604  1
  Sm  Sm91  1  0.070489  0.444195  0.501604  1
  Au  Au92  1  0.406267  0.355748  0.842013  1
  Au  Au93  1  0.593733  0.644252  0.342013  1
  Au  Au94  1  0.355748  0.406267  0.157987  1
  Au  Au95  1  0.855748  0.093733  0.592013  1
  Au  Au96  1  0.144252  0.906267  0.092013  1
  Au  Au97  1  0.093733  0.855748  0.407987  1
  Au  Au98  1  0.906267  0.144252  0.907987  1
  Au  Au99  1  0.644252  0.593733  0.657987  1
  Au  Au100  1  0.211409  0.822352  0.889488  1
  Au  Au101  1  0.788591  0.177648  0.389488  1
  Au  Au102  1  0.822352  0.211409  0.110512  1
  Au  Au103  1  0.322352  0.288591  0.639488  1
  Au  Au104  1  0.677648  0.711409  0.139488  1
  Au  Au105  1  0.288591  0.322352  0.360512  1
  Au  Au106  1  0.711409  0.677648  0.860512  1
  Au  Au107  1  0.177648  0.788591  0.610512  1
  Au  Au108  1  0.560995  0.560995  0.500000  1
  Au  Au109  1  0.939005  0.060995  0.750000  1
  Au  Au110  1  0.060995  0.939005  0.250000  1
  Au  Au111  1  0.439005  0.439005  0.000000  1
