# generated using pymatgen
data_Na14Co2O9
_symmetry_space_group_name_H-M   'P 1'
_cell_length_a   6.65965691
_cell_length_b   6.65955009
_cell_length_c   9.38198226
_cell_angle_alpha   89.99453087
_cell_angle_beta   89.99843345
_cell_angle_gamma   119.99576801
_symmetry_Int_Tables_number   1
_chemical_formula_structural   Na14Co2O9
_chemical_formula_sum   'Na14 Co2 O9'
_cell_volume   360.36325393
_cell_formula_units_Z   1
loop_
 _symmetry_equiv_pos_site_id
 _symmetry_equiv_pos_as_xyz
  1  'x, y, z'
loop_
 _atom_site_type_symbol
 _atom_site_label
 _atom_site_symmetry_multiplicity
 _atom_site_fract_x
 _atom_site_fract_y
 _atom_site_fract_z
 _atom_site_occupancy
  Na  Na0  1  0.036429  0.675664  0.907735  1
  Na  Na1  1  0.312320  0.934881  0.593175  1
  Na  Na2  1  0.065104  0.377448  0.593182  1
  Na  Na3  1  0.999988  0.999994  0.250953  1
  Na  Na4  1  -0.000000  0.999996  0.749047  1
  Na  Na5  1  0.324339  0.360788  0.907734  1
  Na  Na6  1  0.639222  0.963581  0.907729  1
  Na  Na7  1  0.377433  0.312374  0.406785  1
  Na  Na8  1  0.622557  0.687654  0.593189  1
  Na  Na9  1  0.360757  0.036385  0.092290  1
  Na  Na10  1  0.675589  0.639225  0.092296  1
  Na  Na11  1  0.934929  0.622560  0.406789  1
  Na  Na12  1  0.687630  0.065073  0.406785  1
  Na  Na13  1  0.963603  0.324385  0.092292  1
  Co  Co14  1  0.333328  0.666670  0.261878  1
  Co  Co15  1  0.666649  0.333322  0.738127  1
  O  O16  1  0.304452  0.941400  0.336227  1
  O  O17  1  0.058607  0.363058  0.336226  1
  O  O18  1  0.333315  0.666669  0.044617  1
  O  O19  1  0.999991  0.000003  -0.000001  1
  O  O20  1  0.363044  0.304452  0.663768  1
  O  O21  1  0.636927  0.695541  0.336234  1
  O  O22  1  0.666663  0.333346  0.955400  1
  O  O23  1  0.941400  0.636945  0.663778  1
  O  O24  1  0.695525  0.058586  0.663764  1
