# generated using pymatgen
data_Rb2U5(PO7)4
_symmetry_space_group_name_H-M   'P 1'
_cell_length_a   10.57785156
_cell_length_b   9.51572844
_cell_length_c   10.32122069
_cell_angle_alpha   64.29902499
_cell_angle_beta   55.29959409
_cell_angle_gamma   61.54705069
_symmetry_Int_Tables_number   1
_chemical_formula_structural   Rb2U5(PO7)4
_chemical_formula_sum   'Rb2 U5 P4 O28'
_cell_volume   731.73605168
_cell_formula_units_Z   1
loop_
 _symmetry_equiv_pos_site_id
 _symmetry_equiv_pos_as_xyz
  1  'x, y, z'
loop_
 _atom_site_type_symbol
 _atom_site_label
 _atom_site_symmetry_multiplicity
 _atom_site_fract_x
 _atom_site_fract_y
 _atom_site_fract_z
 _atom_site_occupancy
  Rb  Rb0  1  0.651077  0.916072  0.348923  1
  Rb  Rb1  1  0.213658  0.357302  0.786342  1
  U  U2  1  0.731589  0.571336  0.735223  1
  U  U3  1  0.264777  0.038148  0.268411  1
  U  U4  1  0.123599  0.673923  0.329037  1
  U  U5  1  0.670963  0.126559  0.876401  1
  U  U6  1  0.710863  0.379760  0.289137  1
  P  P7  1  0.948201  0.335769  0.486959  1
  P  P8  1  0.513041  0.770929  0.051799  1
  P  P9  1  0.853009  0.963085  0.521248  1
  P  P10  1  0.478752  0.337343  0.146991  1
  O  O11  1  0.881517  0.502397  0.800633  1
  O  O12  1  0.199367  0.184546  0.118483  1
  O  O13  1  0.593947  0.640388  0.654055  1
  O  O14  1  0.345945  0.888389  0.406053  1
  O  O15  1  0.115698  0.205020  0.445243  1
  O  O16  1  0.554757  0.765962  0.884302  1
  O  O17  1  0.037704  0.940817  0.401499  1
  O  O18  1  0.598501  0.380020  0.962296  1
  O  O19  1  0.841389  0.794006  0.543990  1
  O  O20  1  0.456010  0.179386  0.158611  1
  O  O21  1  0.955133  0.506286  0.462463  1
  O  O22  1  0.537537  0.923883  0.044867  1
  O  O23  1  0.832642  0.298630  0.672821  1
  O  O24  1  0.327179  0.804093  0.167358  1
  O  O25  1  0.039709  0.785687  0.188361  1
  O  O26  1  0.811639  0.013756  0.960291  1
  O  O27  1  0.193153  0.566375  0.480850  1
  O  O28  1  0.519150  0.240378  0.806847  1
  O  O29  1  0.814402  0.981894  0.682110  1
  O  O30  1  0.317890  0.478406  0.185598  1
  O  O31  1  0.534859  0.453660  0.465141  1
  O  O32  1  0.886918  0.303720  0.113082  1
  O  O33  1  0.876389  0.344707  0.389147  1
  O  O34  1  0.610853  0.610243  0.123611  1
  O  O35  1  0.744550  0.103721  0.446589  1
  O  O36  1  0.553411  0.294860  0.255450  1
  O  O37  1  0.803252  0.596760  0.196748  1
  O  O38  1  0.349471  0.057682  0.650529  1
