# generated using pymatgen
data_V4(OF3)3
_symmetry_space_group_name_H-M   'P 1'
_cell_length_a   5.26727703
_cell_length_b   5.37148401
_cell_length_c   17.35462387
_cell_angle_alpha   92.33590881
_cell_angle_beta   98.70234711
_cell_angle_gamma   61.07598511
_symmetry_Int_Tables_number   1
_chemical_formula_structural   V4(OF3)3
_chemical_formula_sum   'V8 O6 F18'
_cell_volume   424.52164898
_cell_formula_units_Z   2
loop_
 _symmetry_equiv_pos_site_id
 _symmetry_equiv_pos_as_xyz
  1  'x, y, z'
loop_
 _atom_site_type_symbol
 _atom_site_label
 _atom_site_symmetry_multiplicity
 _atom_site_fract_x
 _atom_site_fract_y
 _atom_site_fract_z
 _atom_site_occupancy
  V  V0  1  0.748921  0.631179  0.125271  1
  V  V1  1  0.750108  0.119764  0.624767  1
  V  V2  1  0.498406  0.231622  0.246440  1
  V  V3  1  0.497474  0.718860  0.747073  1
  V  V4  1  0.267698  0.849765  0.369838  1
  V  V5  1  0.266065  0.392194  0.872554  1
  V  V6  1  0.002406  0.030858  0.003827  1
  V  V7  1  0.001585  0.517383  0.503379  1
  O  O8  1  0.959929  0.306204  0.060225  1
  O  O9  1  0.962422  0.790785  0.560037  1
  O  O10  1  0.541949  0.951198  0.190919  1
  O  O11  1  0.446118  0.576093  0.312979  1
  O  O12  1  0.536892  0.448542  0.689280  1
  O  O13  1  0.408155  0.575357  0.835624  1
  F  F14  1  0.931246  0.833582  0.085623  1
  F  F15  1  0.920440  0.060946  0.290355  1
  F  F16  1  0.931485  0.320827  0.585109  1
  F  F17  1  0.919563  0.537793  0.790477  1
  F  F18  1  0.419934  0.793366  0.034886  1
  F  F19  1  0.567526  0.425353  0.164152  1
  F  F20  1  0.571752  0.919076  0.665563  1
  F  F21  1  0.573993  0.699633  0.462029  1
  F  F22  1  0.428355  0.090087  0.339765  1
  F  F23  1  0.428779  0.281549  0.536849  1
  F  F24  1  0.577081  0.204597  0.961418  1
  F  F25  1  0.063762  0.670878  0.411077  1
  F  F26  1  0.079038  0.461032  0.214620  1
  F  F27  1  0.072501  0.963939  0.712611  1
  F  F28  1  0.464543  0.051330  0.812771  1
  F  F29  1  0.032937  0.693203  0.940176  1
  F  F30  1  0.046969  0.183363  0.437644  1
  F  F31  1  0.081968  0.169644  0.912660  1
