# generated using pymatgen
data_LiMgB3(H9N)2
_symmetry_space_group_name_H-M   'P 1'
_cell_length_a   7.69753312
_cell_length_b   7.69736465
_cell_length_c   7.84838437
_cell_angle_alpha   89.99999579
_cell_angle_beta   89.99994516
_cell_angle_gamma   119.99944909
_symmetry_Int_Tables_number   1
_chemical_formula_structural   LiMgB3(H9N)2
_chemical_formula_sum   'Li2 Mg2 B6 H36 N4'
_cell_volume   402.72346421
_cell_formula_units_Z   2
loop_
 _symmetry_equiv_pos_site_id
 _symmetry_equiv_pos_as_xyz
  1  'x, y, z'
loop_
 _atom_site_type_symbol
 _atom_site_label
 _atom_site_symmetry_multiplicity
 _atom_site_fract_x
 _atom_site_fract_y
 _atom_site_fract_z
 _atom_site_occupancy
  Li  Li0  1  0.999996  0.000003  0.208106  1
  Li  Li1  1  0.000004  0.999996  0.708106  1
  Mg  Mg2  1  0.666665  0.333321  0.477446  1
  Mg  Mg3  1  0.333322  0.666666  0.977440  1
  B  B4  1  0.950559  0.255087  0.471147  1
  B  B5  1  0.744910  0.695466  0.471155  1
  B  B6  1  0.304534  0.049444  0.471157  1
  B  B7  1  0.049441  0.744913  0.971147  1
  B  B8  1  0.255090  0.304534  0.971156  1
  B  B9  1  0.695467  0.950558  0.971157  1
  H  H10  1  0.954495  0.753793  0.092681  1
  H  H11  1  0.799299  0.045518  0.092683  1
  H  H12  1  0.246208  0.200700  0.092685  1
  H  H13  1  0.695346  0.226461  0.156904  1
  H  H14  1  0.773549  0.468903  0.156918  1
  H  H15  1  0.531113  0.304663  0.156920  1
  H  H16  1  0.318190  0.782170  0.297558  1
  H  H17  1  0.217704  0.535956  0.297615  1
  H  H18  1  0.463949  0.681801  0.297592  1
  H  H19  1  0.016445  0.234167  0.335391  1
  H  H20  1  0.217730  0.983567  0.335395  1
  H  H21  1  0.765828  0.782270  0.335395  1
  H  H22  1  0.974221  0.426135  0.471776  1
  H  H23  1  0.451916  0.025779  0.471783  1
  H  H24  1  0.573862  0.548076  0.471788  1
  H  H25  1  0.773078  0.126318  0.485144  1
  H  H26  1  0.873672  0.646753  0.485152  1
  H  H27  1  0.353254  0.226925  0.485162  1
  H  H28  1  0.045506  0.246208  0.592681  1
  H  H29  1  0.200701  0.954484  0.592683  1
  H  H30  1  0.753793  0.799300  0.592686  1
  H  H31  1  0.304656  0.773539  0.656905  1
  H  H32  1  0.226447  0.531092  0.656916  1
  H  H33  1  0.468884  0.695335  0.656920  1
  H  H34  1  0.681811  0.217828  0.797558  1
  H  H35  1  0.782296  0.464043  0.797614  1
  H  H36  1  0.536053  0.318200  0.797593  1
  H  H37  1  0.983556  0.765833  0.835391  1
  H  H38  1  0.782271  0.016434  0.835395  1
  H  H39  1  0.234172  0.217731  0.835395  1
  H  H40  1  0.025780  0.573865  0.971776  1
  H  H41  1  0.548084  0.974221  0.971782  1
  H  H42  1  0.426138  0.451925  0.971787  1
  H  H43  1  0.226923  0.873682  0.985143  1
  H  H44  1  0.126327  0.353247  0.985154  1
  H  H45  1  0.646747  0.773076  0.985162  1
  N  N46  1  0.666669  0.333341  0.206520  1
  N  N47  1  0.333382  0.666824  0.248128  1
  N  N48  1  0.333340  0.666665  0.706520  1
  N  N49  1  0.666619  0.333180  0.748129  1
