# generated using pymatgen
data_NaLi3Ti2Fe2(PO4)6
_symmetry_space_group_name_H-M   'P 1'
_cell_length_a   8.47470185
_cell_length_b   8.96034268
_cell_length_c   8.47470159
_cell_angle_alpha   118.22273966
_cell_angle_beta   60.00000292
_cell_angle_gamma   118.22273878
_symmetry_Int_Tables_number   1
_chemical_formula_structural   NaLi3Ti2Fe2(PO4)6
_chemical_formula_sum   'Na1 Li3 Ti2 Fe2 P6 O24'
_cell_volume   466.89263614
_cell_formula_units_Z   1
loop_
 _symmetry_equiv_pos_site_id
 _symmetry_equiv_pos_as_xyz
  1  'x, y, z'
loop_
 _atom_site_type_symbol
 _atom_site_label
 _atom_site_symmetry_multiplicity
 _atom_site_fract_x
 _atom_site_fract_y
 _atom_site_fract_z
 _atom_site_occupancy
  Na  Na0  1  0.504494  0.513479  0.504494  1
  Li  Li1  1  0.325389  0.141476  0.077576  1
  Li  Li2  1  0.077576  0.141476  0.738509  1
  Li  Li3  1  0.738509  0.141476  0.325389  1
  Ti  Ti4  1  0.146740  0.440220  0.146740  1
  Ti  Ti5  1  0.857365  0.572093  0.857365  1
  Fe  Fe6  1  0.646062  0.938188  0.646062  1
  Fe  Fe7  1  0.347538  0.042614  0.347538  1
  P  P8  1  0.032042  0.247397  0.464112  1
  P  P9  1  0.539939  0.747493  0.250329  1
  P  P10  1  0.250329  0.747493  0.957225  1
  P  P11  1  0.751243  0.247397  0.032042  1
  P  P12  1  0.464112  0.247397  0.751243  1
  P  P13  1  0.957225  0.747493  0.539939  1
  O  O14  1  0.247220  0.914442  0.136912  1
  O  O15  1  0.136912  0.914442  0.530310  1
  O  O16  1  0.999017  0.422280  0.618249  1
  O  O17  1  0.122457  0.266700  0.259512  1
  O  O18  1  0.099223  0.722208  0.889810  1
  O  O19  1  0.530310  0.914442  0.247220  1
  O  O20  1  0.377105  0.578339  0.194874  1
  O  O21  1  0.176953  0.210260  0.492003  1
  O  O22  1  0.520009  0.767683  0.449073  1
  O  O23  1  0.194874  0.578339  0.006361  1
  O  O24  1  0.733176  0.722208  0.099223  1
  O  O25  1  0.449073  0.767683  0.798601  1
  O  O26  1  0.541304  0.210260  0.176953  1
  O  O27  1  0.259512  0.266700  0.884730  1
  O  O28  1  0.805014  0.422280  0.999017  1
  O  O29  1  0.492003  0.210260  0.541304  1
  O  O30  1  0.798601  0.767683  0.520009  1
  O  O31  1  0.618249  0.422280  0.805014  1
  O  O32  1  0.471941  0.096125  0.786642  1
  O  O33  1  0.884730  0.266700  0.122457  1
  O  O34  1  0.889810  0.722208  0.733176  1
  O  O35  1  0.006361  0.578339  0.377105  1
  O  O36  1  0.837543  0.096125  0.471941  1
  O  O37  1  0.786642  0.096125  0.837543  1
