# generated using pymatgen
data_Sm3Y5O12
_symmetry_space_group_name_H-M   'P 1'
_cell_length_a   9.37116456
_cell_length_b   9.37116456
_cell_length_c   9.37116456
_cell_angle_alpha   109.49091808
_cell_angle_beta   109.43742144
_cell_angle_gamma   109.48532771
_symmetry_Int_Tables_number   1
_chemical_formula_structural   Sm3Y5O12
_chemical_formula_sum   'Sm6 Y10 O24'
_cell_volume   633.51760417
_cell_formula_units_Z   2
loop_
 _symmetry_equiv_pos_site_id
 _symmetry_equiv_pos_as_xyz
  1  'x, y, z'
loop_
 _atom_site_type_symbol
 _atom_site_label
 _atom_site_symmetry_multiplicity
 _atom_site_fract_x
 _atom_site_fract_y
 _atom_site_fract_z
 _atom_site_occupancy
  Sm  Sm0  1  0.501516  0.000704  0.002809  1
  Sm  Sm1  1  0.002105  0.499296  0.000812  1
  Sm  Sm2  1  0.998484  0.001293  0.499188  1
  Sm  Sm3  1  0.497895  0.498707  0.497191  1
  Sm  Sm4  1  0.469168  0.250000  0.719168  1
  Sm  Sm5  1  0.030832  0.750000  0.780832  1
  Y  Y6  1  0.968446  0.250000  0.218446  1
  Y  Y7  1  0.781533  0.031533  0.750000  1
  Y  Y8  1  0.718467  0.468467  0.250000  1
  Y  Y9  1  0.750000  0.782585  0.032585  1
  Y  Y10  1  0.750000  0.280087  0.530087  1
  Y  Y11  1  0.531554  0.750000  0.281554  1
  Y  Y12  1  0.250000  0.717415  0.467415  1
  Y  Y13  1  0.250000  0.219913  0.969913  1
  Y  Y14  1  0.217496  0.967496  0.250000  1
  Y  Y15  1  0.282504  0.532504  0.750000  1
  O  O16  1  0.754915  0.029012  0.486128  1
  O  O17  1  0.745085  0.231213  0.274097  1
  O  O18  1  0.270158  0.015144  0.045062  1
  O  O19  1  0.969830  0.511749  0.243241  1
  O  O20  1  0.470082  0.225098  0.454938  1
  O  O21  1  0.768508  0.726589  0.256759  1
  O  O22  1  0.457116  0.470988  0.225903  1
  O  O23  1  0.042884  0.268787  0.013872  1
  O  O24  1  0.768820  0.537938  0.525556  1
  O  O25  1  0.731180  0.256735  0.769119  1
  O  O26  1  0.012168  0.042785  0.268640  1
  O  O27  1  0.487832  0.756472  0.030617  1
  O  O28  1  0.512384  0.243265  0.974444  1
  O  O29  1  0.225855  0.457215  0.469383  1
  O  O30  1  0.987616  0.962062  0.730881  1
  O  O31  1  0.274145  0.743528  0.231360  1
  O  O32  1  0.957394  0.729932  0.991703  1
  O  O33  1  0.542606  0.534309  0.772536  1
  O  O34  1  0.229842  0.274902  0.744985  1
  O  O35  1  0.530170  0.773411  0.541919  1
  O  O36  1  0.029918  0.484856  0.755015  1
  O  O37  1  0.731492  0.988251  0.958081  1
  O  O38  1  0.261772  0.770068  0.727464  1
  O  O39  1  0.238228  0.965691  0.508297  1
