# generated using pymatgen
data_Cr2S3
_symmetry_space_group_name_H-M   'P 1'
_cell_length_a   5.90950369
_cell_length_b   5.90950361
_cell_length_c   6.51849276
_cell_angle_alpha   63.04519320
_cell_angle_beta   116.95481053
_cell_angle_gamma   120.00000279
_symmetry_Int_Tables_number   1
_chemical_formula_structural   Cr2S3
_chemical_formula_sum   'Cr4 S6'
_cell_volume   167.98102933
_cell_formula_units_Z   2
loop_
 _symmetry_equiv_pos_site_id
 _symmetry_equiv_pos_as_xyz
  1  'x, y, z'
loop_
 _atom_site_type_symbol
 _atom_site_label
 _atom_site_symmetry_multiplicity
 _atom_site_fract_x
 _atom_site_fract_y
 _atom_site_fract_z
 _atom_site_occupancy
  Cr  Cr0  1  0.326407  0.673593  0.979222  1
  Cr  Cr1  1  0.504281  0.495719  0.512843  1
  Cr  Cr2  1  0.000409  0.999591  0.001227  1
  Cr  Cr3  1  0.669904  0.330096  0.009711  1
  S  S4  1  0.090399  0.588504  0.243705  1
  S  S5  1  0.593643  0.747885  0.755294  1
  S  S6  1  0.411496  0.258190  0.243705  1
  S  S7  1  0.909537  0.406357  0.755294  1
  S  S8  1  0.252115  0.090463  0.755294  1
  S  S9  1  0.741810  0.909601  0.243705  1
