# generated using pymatgen
data_V3FeSn2(PO4)6
_symmetry_space_group_name_H-M   'P 1'
_cell_length_a   9.00172032
_cell_length_b   8.61359465
_cell_length_c   8.61359478
_cell_angle_alpha   59.99999821
_cell_angle_beta   61.41633220
_cell_angle_gamma   61.41632743
_symmetry_Int_Tables_number   1
_chemical_formula_structural   V3FeSn2(PO4)6
_chemical_formula_sum   'V3 Fe1 Sn2 P6 O24'
_cell_volume   482.11679312
_cell_formula_units_Z   1
loop_
 _symmetry_equiv_pos_site_id
 _symmetry_equiv_pos_as_xyz
  1  'x, y, z'
loop_
 _atom_site_type_symbol
 _atom_site_label
 _atom_site_symmetry_multiplicity
 _atom_site_fract_x
 _atom_site_fract_y
 _atom_site_fract_z
 _atom_site_occupancy
  V  V0  1  0.055904  0.648032  0.648032  1
  V  V1  1  0.441244  0.852919  0.852919  1
  V  V2  1  0.945242  0.351586  0.351586  1
  Fe  Fe3  1  0.551325  0.149558  0.149558  1
  Sn  Sn4  1  0.987533  0.004156  0.004156  1
  Sn  Sn5  1  0.499429  0.500190  0.500190  1
  P  P6  1  0.250393  0.249976  0.537412  1
  P  P7  1  0.250393  0.962219  0.249976  1
  P  P8  1  0.250393  0.537412  0.962219  1
  P  P9  1  0.751229  0.463601  0.036316  1
  P  P10  1  0.751229  0.036316  0.748855  1
  P  P11  1  0.751229  0.748855  0.463601  1
  O  O12  1  0.078992  0.129453  0.281869  1
  O  O13  1  0.078992  0.509686  0.129453  1
  O  O14  1  0.078992  0.281869  0.509686  1
  O  O15  1  0.266263  0.076715  0.721344  1
  O  O16  1  0.419810  0.222282  0.372240  1
  O  O17  1  0.229689  0.425571  0.565862  1
  O  O18  1  0.266263  0.935677  0.076715  1
  O  O19  1  0.229689  0.778879  0.425571  1
  O  O20  1  0.580238  0.628913  0.008449  1
  O  O21  1  0.229689  0.565862  0.778879  1
  O  O22  1  0.740464  0.279829  0.057314  1
  O  O23  1  0.580238  0.008449  0.782399  1
  O  O24  1  0.419810  0.985669  0.222282  1
  O  O25  1  0.266263  0.721344  0.935677  1
  O  O26  1  0.767005  0.437989  0.220568  1
  O  O27  1  0.419810  0.372240  0.985669  1
  O  O28  1  0.767005  0.220568  0.574436  1
  O  O29  1  0.740464  0.057314  0.922391  1
  O  O30  1  0.767005  0.574436  0.437989  1
  O  O31  1  0.580238  0.782399  0.628913  1
  O  O32  1  0.740464  0.922391  0.279829  1
  O  O33  1  0.922358  0.710296  0.495810  1
  O  O34  1  0.922358  0.495810  0.871534  1
  O  O35  1  0.922358  0.871534  0.710296  1
