# generated using pymatgen
data_Rb4Sb2O5
_symmetry_space_group_name_H-M   'P 1'
_cell_length_a   8.26771430
_cell_length_b   19.47827856
_cell_length_c   6.73157101
_cell_angle_alpha   90.00000000
_cell_angle_beta   90.00000000
_cell_angle_gamma   90.00000000
_symmetry_Int_Tables_number   1
_chemical_formula_structural   Rb4Sb2O5
_chemical_formula_sum   'Rb16 Sb8 O20'
_cell_volume   1084.05786471
_cell_formula_units_Z   4
loop_
 _symmetry_equiv_pos_site_id
 _symmetry_equiv_pos_as_xyz
  1  'x, y, z'
loop_
 _atom_site_type_symbol
 _atom_site_label
 _atom_site_symmetry_multiplicity
 _atom_site_fract_x
 _atom_site_fract_y
 _atom_site_fract_z
 _atom_site_occupancy
  Rb  Rb0  1  0.999905  0.092216  0.250000  1
  Rb  Rb1  1  0.999990  0.761732  0.250000  1
  Rb  Rb2  1  0.000004  0.237647  0.750000  1
  Rb  Rb3  1  0.000089  0.906995  0.750000  1
  Rb  Rb4  1  0.250010  0.261732  0.250000  1
  Rb  Rb5  1  0.250095  0.592216  0.250000  1
  Rb  Rb6  1  0.249911  0.406995  0.750000  1
  Rb  Rb7  1  0.249996  0.737647  0.750000  1
  Rb  Rb8  1  0.499905  0.907784  0.750000  1
  Rb  Rb9  1  0.500089  0.093005  0.250000  1
  Rb  Rb10  1  0.499990  0.238268  0.750000  1
  Rb  Rb11  1  0.500004  0.762353  0.250000  1
  Rb  Rb12  1  0.749911  0.593005  0.250000  1
  Rb  Rb13  1  0.750010  0.738268  0.750000  1
  Rb  Rb14  1  0.749996  0.262353  0.250000  1
  Rb  Rb15  1  0.750095  0.407784  0.750000  1
  Sb  Sb16  1  0.990633  0.414934  0.250000  1
  Sb  Sb17  1  0.009375  0.585060  0.750000  1
  Sb  Sb18  1  0.240625  0.085060  0.750000  1
  Sb  Sb19  1  0.259367  0.914934  0.250000  1
  Sb  Sb20  1  0.490633  0.585066  0.750000  1
  Sb  Sb21  1  0.509375  0.414940  0.250000  1
  Sb  Sb22  1  0.740625  0.914940  0.250000  1
  Sb  Sb23  1  0.759367  0.085066  0.750000  1
  O  O24  1  0.000186  0.649770  0.529629  1
  O  O25  1  -0.000164  0.350239  0.029631  1
  O  O26  1  0.000039  0.057881  0.750000  1
  O  O27  1  -0.000164  0.350239  0.470369  1
  O  O28  1  0.000186  0.649770  0.970371  1
  O  O29  1  0.249814  0.149770  0.529629  1
  O  O30  1  0.249961  0.557881  0.750000  1
  O  O31  1  0.250164  0.850239  0.470369  1
  O  O32  1  0.250164  0.850239  0.029631  1
  O  O33  1  0.249814  0.149770  0.970371  1
  O  O34  1  0.500186  0.350230  0.029629  1
  O  O35  1  0.500186  0.350230  0.470371  1
  O  O36  1  0.499836  0.649761  0.970369  1
  O  O37  1  0.499836  0.649761  0.529631  1
  O  O38  1  0.500039  0.942119  0.250000  1
  O  O39  1  0.749814  0.850230  0.029629  1
  O  O40  1  0.749814  0.850230  0.470371  1
  O  O41  1  0.750164  0.149761  0.529631  1
  O  O42  1  0.750164  0.149761  0.970369  1
  O  O43  1  0.749961  0.442119  0.250000  1
