# generated using pymatgen
data_Fe3OF5
_symmetry_space_group_name_H-M   'P 1'
_cell_length_a   7.62469538
_cell_length_b   5.83141286
_cell_length_c   5.77716219
_cell_angle_alpha   71.67102872
_cell_angle_beta   71.33867473
_cell_angle_gamma   72.48887275
_symmetry_Int_Tables_number   1
_chemical_formula_structural   Fe3OF5
_chemical_formula_sum   'Fe6 O2 F10'
_cell_volume   225.21693578
_cell_formula_units_Z   2
loop_
 _symmetry_equiv_pos_site_id
 _symmetry_equiv_pos_as_xyz
  1  'x, y, z'
loop_
 _atom_site_type_symbol
 _atom_site_label
 _atom_site_symmetry_multiplicity
 _atom_site_fract_x
 _atom_site_fract_y
 _atom_site_fract_z
 _atom_site_occupancy
  Fe  Fe0  1  0.833334  0.666672  0.666667  1
  Fe  Fe1  1  0.667049  0.358527  0.307328  1
  Fe  Fe2  1  0.333334  0.666663  0.666667  1
  Fe  Fe3  1  0.153978  0.356560  0.337228  1
  Fe  Fe4  1  0.512686  0.976776  0.996106  1
  Fe  Fe5  1  0.999618  0.974812  0.026006  1
  O  O6  1  0.655236  0.657507  0.023057  1
  O  O7  1  0.011430  0.675823  0.310276  1
  F  F8  1  0.653156  0.057960  0.626647  1
  F  F9  1  0.333621  0.353552  0.980724  1
  F  F10  1  0.307541  0.911034  0.892497  1
  F  F11  1  0.974614  0.228582  0.244704  1
  F  F12  1  0.626298  0.568112  0.571818  1
  F  F13  1  0.040369  0.765219  0.761517  1
  F  F14  1  0.359127  0.422299  0.440834  1
  F  F15  1  0.692051  0.104750  0.088628  1
  F  F16  1  0.333045  0.979783  0.352608  1
  F  F17  1  0.013511  0.275372  0.706688  1
