# generated using pymatgen
data_LiCoPO4
_symmetry_space_group_name_H-M   'P 1'
_cell_length_a   8.49532952
_cell_length_b   7.52190290
_cell_length_c   14.63559849
_cell_angle_alpha   90.00000000
_cell_angle_beta   90.31332936
_cell_angle_gamma   90.00000000
_symmetry_Int_Tables_number   1
_chemical_formula_structural   LiCoPO4
_chemical_formula_sum   'Li12 Co12 P12 O48'
_cell_volume   935.21603504
_cell_formula_units_Z   12
loop_
 _symmetry_equiv_pos_site_id
 _symmetry_equiv_pos_as_xyz
  1  'x, y, z'
loop_
 _atom_site_type_symbol
 _atom_site_label
 _atom_site_symmetry_multiplicity
 _atom_site_fract_x
 _atom_site_fract_y
 _atom_site_fract_z
 _atom_site_occupancy
  Li  Li0  1  0.068732  0.664297  0.405367  1
  Li  Li1  1  0.074777  0.825577  0.759960  1
  Li  Li2  1  0.096761  0.664502  0.083819  1
  Li  Li3  1  0.403239  0.164502  0.416181  1
  Li  Li4  1  0.425223  0.325577  0.740040  1
  Li  Li5  1  0.431268  0.164297  0.094633  1
  Li  Li6  1  0.568732  0.835703  0.905367  1
  Li  Li7  1  0.574777  0.674423  0.259960  1
  Li  Li8  1  0.596761  0.835498  0.583819  1
  Li  Li9  1  0.903239  0.335498  0.916181  1
  Li  Li10  1  0.925223  0.174423  0.240040  1
  Li  Li11  1  0.931268  0.335703  0.594633  1
  Co  Co12  1  0.242943  0.951897  0.925981  1
  Co  Co13  1  0.240084  0.040598  0.585702  1
  Co  Co14  1  0.254813  0.407857  0.251874  1
  Co  Co15  1  0.245187  0.907857  0.248126  1
  Co  Co16  1  0.259916  0.540598  0.914298  1
  Co  Co17  1  0.257057  0.451897  0.574019  1
  Co  Co18  1  0.742943  0.548103  0.425981  1
  Co  Co19  1  0.740084  0.459402  0.085702  1
  Co  Co20  1  0.754813  0.092143  0.751874  1
  Co  Co21  1  0.745187  0.592143  0.748126  1
  Co  Co22  1  0.759916  0.959402  0.414298  1
  Co  Co23  1  0.757057  0.048103  0.074019  1
  P  P24  1  0.050955  0.261352  0.412385  1
  P  P25  1  0.095891  0.225580  0.771409  1
  P  P26  1  0.108607  0.261732  0.069671  1
  P  P27  1  0.391393  0.761732  0.430329  1
  P  P28  1  0.404109  0.725580  0.728591  1
  P  P29  1  0.449045  0.761352  0.087615  1
  P  P30  1  0.550955  0.238648  0.912385  1
  P  P31  1  0.595891  0.274420  0.271409  1
  P  P32  1  0.608607  0.238268  0.569671  1
  P  P33  1  0.891393  0.738268  0.930329  1
  P  P34  1  0.904109  0.774420  0.228591  1
  P  P35  1  0.949045  0.738648  0.587615  1
  O  O36  1  0.963755  0.438636  0.395814  1
  O  O37  1  0.048784  0.892726  0.626417  1
  O  O38  1  0.065226  0.766074  0.961675  1
  O  O39  1  0.101189  0.381525  0.839726  1
  O  O40  1  0.095681  0.237418  0.515715  1
  O  O41  1  0.064968  0.764714  0.282586  1
  O  O42  1  0.107805  0.271011  0.176837  1
  O  O43  1  0.097512  0.048244  0.825048  1
  O  O44  1  0.174178  0.441415  0.034472  1
  O  O45  1  0.226973  0.230805  0.697232  1
  O  O46  1  0.219767  0.110906  0.038930  1
  O  O47  1  0.211882  0.265970  0.360064  1
  O  O48  1  0.273027  0.730805  0.802768  1
  O  O49  1  0.288118  0.765970  0.139936  1
  O  O50  1  0.280233  0.610906  0.461070  1
  O  O51  1  0.325822  0.941415  0.465528  1
  O  O52  1  0.402488  0.548244  0.674952  1
  O  O53  1  0.392195  0.771011  0.323163  1
  O  O54  1  0.404319  0.737418  0.984285  1
  O  O55  1  0.398811  0.881525  0.660274  1
  O  O56  1  0.435032  0.264714  0.217414  1
  O  O57  1  0.434774  0.266074  0.538325  1
  O  O58  1  0.451216  0.392726  0.873583  1
  O  O59  1  0.536245  0.938636  0.104186  1
  O  O60  1  0.463755  0.061364  0.895814  1
  O  O61  1  0.548784  0.607274  0.126417  1
  O  O62  1  0.565226  0.733926  0.461675  1
  O  O63  1  0.564968  0.735286  0.782586  1
  O  O64  1  0.601189  0.118475  0.339726  1
  O  O65  1  0.595681  0.262582  0.015715  1
  O  O66  1  0.607805  0.228989  0.676837  1
  O  O67  1  0.597512  0.451756  0.325048  1
  O  O68  1  0.674178  0.058585  0.534472  1
  O  O69  1  0.719767  0.389094  0.538930  1
  O  O70  1  0.711882  0.234030  0.860064  1
  O  O71  1  0.726973  0.269195  0.197232  1
  O  O72  1  0.788118  0.734030  0.639936  1
  O  O73  1  0.780233  0.889094  0.961070  1
  O  O74  1  0.773027  0.769195  0.302768  1
  O  O75  1  0.825822  0.558585  0.965528  1
  O  O76  1  0.902488  0.951756  0.174952  1
  O  O77  1  0.892195  0.728989  0.823163  1
  O  O78  1  0.935032  0.235286  0.717414  1
  O  O79  1  0.904319  0.762582  0.484285  1
  O  O80  1  0.898811  0.618475  0.160274  1
  O  O81  1  0.934774  0.233926  0.038325  1
  O  O82  1  0.951216  0.107274  0.373583  1
  O  O83  1  0.036245  0.561364  0.604186  1
