# generated using pymatgen
data_Li2VO2F
_symmetry_space_group_name_H-M   'P 1'
_cell_length_a   5.17433517
_cell_length_b   5.17433517
_cell_length_c   9.49577188
_cell_angle_alpha   79.84598869
_cell_angle_beta   100.15401131
_cell_angle_gamma   70.13242879
_symmetry_Int_Tables_number   1
_chemical_formula_structural   Li2VO2F
_chemical_formula_sum   'Li8 V4 O8 F4'
_cell_volume   227.57005076
_cell_formula_units_Z   4
loop_
 _symmetry_equiv_pos_site_id
 _symmetry_equiv_pos_as_xyz
  1  'x, y, z'
loop_
 _atom_site_type_symbol
 _atom_site_label
 _atom_site_symmetry_multiplicity
 _atom_site_fract_x
 _atom_site_fract_y
 _atom_site_fract_z
 _atom_site_occupancy
  Li  Li0  1  0.104149  0.641540  0.721401  1
  Li  Li1  1  0.358460  0.895851  0.221401  1
  Li  Li2  1  0.062049  0.210798  0.609124  1
  Li  Li3  1  0.205939  0.047274  0.910684  1
  Li  Li4  1  0.789202  0.937951  0.109124  1
  Li  Li5  1  0.952726  0.794061  0.410684  1
  Li  Li6  1  0.632002  0.131971  0.738842  1
  Li  Li7  1  0.868029  0.367998  0.238842  1
  V  V8  1  0.713248  0.536517  0.918963  1
  V  V9  1  0.540696  0.707399  0.598580  1
  V  V10  1  0.463483  0.286752  0.418963  1
  V  V11  1  0.292601  0.459304  0.098580  1
  O  O12  1  0.388147  0.851808  0.753187  1
  O  O13  1  0.761084  0.953520  0.571910  1
  O  O14  1  0.313594  0.463696  0.573396  1
  O  O15  1  0.148192  0.611853  0.253187  1
  O  O16  1  0.868958  0.389895  0.755875  1
  O  O17  1  0.046480  0.238916  0.071910  1
  O  O18  1  0.536304  0.686406  0.073396  1
  O  O19  1  0.610105  0.131042  0.255875  1
  F  F20  1  0.469348  0.284517  0.926308  1
  F  F21  1  0.953696  0.793973  0.921729  1
  F  F22  1  0.715483  0.530652  0.426308  1
  F  F23  1  0.206027  0.046304  0.421729  1
