# generated using pymatgen
data_B4C
_symmetry_space_group_name_H-M   'P 1'
_cell_length_a   6.76888191
_cell_length_b   6.76888155
_cell_length_c   6.76888184
_cell_angle_alpha   60.50119493
_cell_angle_beta   60.50119837
_cell_angle_gamma   60.50119180
_symmetry_Int_Tables_number   1
_chemical_formula_structural   B4C
_chemical_formula_sum   'B12 C3'
_cell_volume   221.78252873
_cell_formula_units_Z   3
loop_
 _symmetry_equiv_pos_site_id
 _symmetry_equiv_pos_as_xyz
  1  'x, y, z'
loop_
 _atom_site_type_symbol
 _atom_site_label
 _atom_site_symmetry_multiplicity
 _atom_site_fract_x
 _atom_site_fract_y
 _atom_site_fract_z
 _atom_site_occupancy
  B  B0  1  0.500090  0.871795  0.500090  1
  B  B1  1  0.500090  0.500090  0.871795  1
  B  B2  1  0.871795  0.500090  0.500090  1
  B  B3  1  0.128205  0.499910  0.499910  1
  B  B4  1  0.499910  0.128205  0.499910  1
  B  B5  1  0.499910  0.499910  0.128205  1
  B  B6  1  0.346398  0.103968  0.346398  1
  B  B7  1  0.346398  0.346398  0.103968  1
  B  B8  1  0.103968  0.346398  0.346398  1
  B  B9  1  0.896032  0.653602  0.653602  1
  B  B10  1  0.653602  0.896032  0.653602  1
  B  B11  1  0.653602  0.653602  0.896032  1
  C  C12  1  0.416748  0.416748  0.416748  1
  C  C13  1  0.583252  0.583252  0.583252  1
  C  C14  1  0.500000  0.500000  0.500000  1
