# generated using pymatgen
data_CsCr5Te8
_symmetry_space_group_name_H-M   'P 1'
_cell_length_a   10.47314711
_cell_length_b   10.47315416
_cell_length_c   9.68912155
_cell_angle_alpha   76.20250771
_cell_angle_beta   103.79744601
_cell_angle_gamma   157.74172823
_symmetry_Int_Tables_number   1
_chemical_formula_structural   CsCr5Te8
_chemical_formula_sum   'Cs1 Cr5 Te8'
_cell_volume   390.48586619
_cell_formula_units_Z   1
loop_
 _symmetry_equiv_pos_site_id
 _symmetry_equiv_pos_as_xyz
  1  'x, y, z'
loop_
 _atom_site_type_symbol
 _atom_site_label
 _atom_site_symmetry_multiplicity
 _atom_site_fract_x
 _atom_site_fract_y
 _atom_site_fract_z
 _atom_site_occupancy
  Cs  Cs0  1  0.500007  0.499997  0.500007  1
  Cr  Cr1  1  0.340275  0.659743  0.011585  1
  Cr  Cr2  1  0.659755  0.340278  0.988410  1
  Cr  Cr3  1  0.296154  0.703861  0.669135  1
  Cr  Cr4  1  0.703824  0.296123  0.330884  1
  Cr  Cr5  1  0.999984  0.000019  0.999969  1
  Te  Te6  1  0.239389  0.760623  0.158140  1
  Te  Te7  1  0.760631  0.239380  0.841877  1
  Te  Te8  1  0.572583  0.427408  0.159508  1
  Te  Te9  1  0.427398  0.572585  0.840468  1
  Te  Te10  1  0.090568  0.909433  0.835034  1
  Te  Te11  1  0.909440  0.090568  0.164973  1
  Te  Te12  1  0.171948  0.828053  0.491748  1
  Te  Te13  1  0.828063  0.171948  0.508264  1
