# generated using pymatgen
data_CuH6BrN2
_symmetry_space_group_name_H-M   'P 1'
_cell_length_a   5.80565707
_cell_length_b   6.67585471
_cell_length_c   7.24993843
_cell_angle_alpha   62.58658238
_cell_angle_beta   101.06034624
_cell_angle_gamma   114.62516447
_symmetry_Int_Tables_number   1
_chemical_formula_structural   CuH6BrN2
_chemical_formula_sum   'Cu2 H12 Br2 N4'
_cell_volume   226.75235289
_cell_formula_units_Z   2
loop_
 _symmetry_equiv_pos_site_id
 _symmetry_equiv_pos_as_xyz
  1  'x, y, z'
loop_
 _atom_site_type_symbol
 _atom_site_label
 _atom_site_symmetry_multiplicity
 _atom_site_fract_x
 _atom_site_fract_y
 _atom_site_fract_z
 _atom_site_occupancy
  Cu  Cu0  1  0.999987  0.000000  -0.000007  1
  Cu  Cu1  1  0.499986  -0.000007  0.000007  1
  H  H2  1  0.787070  0.180042  0.231142  1
  H  H3  1  0.712934  0.588817  0.231142  1
  H  H4  1  0.491702  0.145089  0.256647  1
  H  H5  1  0.008302  0.598266  0.256647  1
  H  H6  1  0.912459  0.711678  0.377306  1
  H  H7  1  0.587545  0.911017  0.377305  1
  H  H8  1  0.412458  0.088985  0.622694  1
  H  H9  1  0.087544  0.288324  0.622695  1
  H  H10  1  0.991701  0.401735  0.743354  1
  H  H11  1  0.508303  0.854913  0.743354  1
  H  H12  1  0.287071  0.411187  0.768856  1
  H  H13  1  0.212934  0.819960  0.768856  1
  Br  Br14  1  0.250000  0.363359  0.273280  1
  Br  Br15  1  0.750001  0.636640  0.726719  1
  N  N16  1  0.599854  0.063840  0.240995  1
  N  N17  1  0.900145  0.695162  0.240997  1
  N  N18  1  0.099854  0.304835  0.759006  1
  N  N19  1  0.400145  0.936159  0.759004  1
