# generated using pymatgen
data_LiMnPO4
_symmetry_space_group_name_H-M   'P 1'
_cell_length_a   11.19459484
_cell_length_b   6.32774971
_cell_length_c   5.22909804
_cell_angle_alpha   90.00000000
_cell_angle_beta   90.00000000
_cell_angle_gamma   90.00000000
_symmetry_Int_Tables_number   1
_chemical_formula_structural   LiMnPO4
_chemical_formula_sum   'Li4 Mn4 P4 O16'
_cell_volume   370.41149617
_cell_formula_units_Z   4
loop_
 _symmetry_equiv_pos_site_id
 _symmetry_equiv_pos_as_xyz
  1  'x, y, z'
loop_
 _atom_site_type_symbol
 _atom_site_label
 _atom_site_symmetry_multiplicity
 _atom_site_fract_x
 _atom_site_fract_y
 _atom_site_fract_z
 _atom_site_occupancy
  Li  Li0  1  0.167656  0.520289  0.250839  1
  Li  Li1  1  0.332344  0.020289  0.750839  1
  Li  Li2  1  0.667656  0.979711  0.250839  1
  Li  Li3  1  0.832344  0.479711  0.750839  1
  Mn  Mn4  1  0.080670  0.794233  0.746010  1
  Mn  Mn5  1  0.419330  0.294233  0.246010  1
  Mn  Mn6  1  0.580670  0.705767  0.746010  1
  Mn  Mn7  1  0.919330  0.205767  0.246010  1
  P  P8  1  0.179096  0.022414  0.249578  1
  P  P9  1  0.320904  0.522414  0.749578  1
  P  P10  1  0.679096  0.477586  0.249578  1
  P  P11  1  0.820904  0.977586  0.749578  1
  O  O12  1  0.100917  0.221169  0.185257  1
  O  O13  1  0.116767  0.821224  0.137731  1
  O  O14  1  0.193884  0.546593  0.632021  1
  O  O15  1  0.187446  0.000573  0.544414  1
  O  O16  1  0.312554  0.500573  0.044414  1
  O  O17  1  0.306116  0.046593  0.132021  1
  O  O18  1  0.383233  0.321224  0.637731  1
  O  O19  1  0.399083  0.721169  0.685257  1
  O  O20  1  0.600917  0.278831  0.185257  1
  O  O21  1  0.616767  0.678776  0.137731  1
  O  O22  1  0.693884  0.953407  0.632021  1
  O  O23  1  0.687446  0.499427  0.544414  1
  O  O24  1  0.812554  0.999427  0.044414  1
  O  O25  1  0.806116  0.453407  0.132021  1
  O  O26  1  0.883233  0.178776  0.637731  1
  O  O27  1  0.899083  0.778831  0.685257  1
