# generated using pymatgen
data_La3AlCrS7
_symmetry_space_group_name_H-M   'P 1'
_cell_length_a   10.21415140
_cell_length_b   10.21395326
_cell_length_c   6.05038244
_cell_angle_alpha   90.00000000
_cell_angle_beta   90.00000000
_cell_angle_gamma   120.00497603
_symmetry_Int_Tables_number   1
_chemical_formula_structural   La3AlCrS7
_chemical_formula_sum   'La6 Al2 Cr2 S14'
_cell_volume   546.62291912
_cell_formula_units_Z   2
loop_
 _symmetry_equiv_pos_site_id
 _symmetry_equiv_pos_as_xyz
  1  'x, y, z'
loop_
 _atom_site_type_symbol
 _atom_site_label
 _atom_site_symmetry_multiplicity
 _atom_site_fract_x
 _atom_site_fract_y
 _atom_site_fract_z
 _atom_site_occupancy
  La  La0  1  0.141614  0.374107  0.245908  1
  La  La1  1  0.858386  0.625894  0.745907  1
  La  La2  1  0.625897  0.767475  0.245992  1
  La  La3  1  0.232483  0.858384  0.245939  1
  La  La4  1  0.767518  0.141617  0.745939  1
  La  La5  1  0.374104  0.232527  0.745992  1
  Al  Al6  1  0.333322  0.666684  0.665141  1
  Al  Al7  1  0.666679  0.333317  0.165143  1
  Cr  Cr8  1  -0.000002  0.999999  0.026764  1
  Cr  Cr9  1  0.000002  0.000001  0.526763  1
  S  S10  1  0.333331  0.666680  0.033278  1
  S  S11  1  0.666668  0.333319  0.533276  1
  S  S12  1  0.419627  0.519494  0.521630  1
  S  S13  1  0.580373  0.480505  0.021630  1
  S  S14  1  0.480500  0.900184  0.521557  1
  S  S15  1  0.099807  0.580305  0.521566  1
  S  S16  1  0.900195  0.419696  0.021565  1
  S  S17  1  0.519500  0.099817  0.021557  1
  S  S18  1  0.087707  0.229225  0.778749  1
  S  S19  1  0.912293  0.770775  0.278749  1
  S  S20  1  0.770755  0.858440  0.778740  1
  S  S21  1  0.141532  0.912310  0.778739  1
  S  S22  1  0.858468  0.087690  0.278738  1
  S  S23  1  0.229246  0.141561  0.278739  1
