# generated using pymatgen
data_Li3Mn4(BO3)4
_symmetry_space_group_name_H-M   'P 1'
_cell_length_a   7.90520212
_cell_length_b   9.19324478
_cell_length_c   8.29255709
_cell_angle_alpha   113.39685268
_cell_angle_beta   99.66791090
_cell_angle_gamma   65.76537557
_symmetry_Int_Tables_number   1
_chemical_formula_structural   Li3Mn4(BO3)4
_chemical_formula_sum   'Li6 Mn8 B8 O24'
_cell_volume   504.35183309
_cell_formula_units_Z   2
loop_
 _symmetry_equiv_pos_site_id
 _symmetry_equiv_pos_as_xyz
  1  'x, y, z'
loop_
 _atom_site_type_symbol
 _atom_site_label
 _atom_site_symmetry_multiplicity
 _atom_site_fract_x
 _atom_site_fract_y
 _atom_site_fract_z
 _atom_site_occupancy
  Li  Li0  1  0.116097  0.151973  0.798538  1
  Li  Li1  1  0.383903  0.848027  0.701462  1
  Li  Li2  1  0.611432  0.363676  0.956769  1
  Li  Li3  1  0.888568  0.636324  0.543231  1
  Li  Li4  1  0.610457  0.153778  0.297938  1
  Li  Li5  1  0.889543  0.846222  0.202062  1
  Mn  Mn6  1  0.077720  0.497777  0.828211  1
  Mn  Mn7  1  0.176759  0.016507  0.425922  1
  Mn  Mn8  1  0.673916  0.995139  0.919511  1
  Mn  Mn9  1  0.422280  0.502223  0.671789  1
  Mn  Mn10  1  0.566437  0.508540  0.326755  1
  Mn  Mn11  1  0.323241  0.983493  0.074078  1
  Mn  Mn12  1  0.826084  0.004861  0.580489  1
  Mn  Mn13  1  0.933563  0.491460  0.173245  1
  B  B14  1  0.080986  0.827463  0.808681  1
  B  B15  1  0.169536  0.676943  0.428797  1
  B  B16  1  0.675816  0.659414  0.923573  1
  B  B17  1  0.419014  0.172537  0.691319  1
  B  B18  1  0.585494  0.835926  0.327178  1
  B  B19  1  0.330464  0.323057  0.071203  1
  B  B20  1  0.824184  0.340586  0.576427  1
  B  B21  1  0.914506  0.164074  0.172822  1
  O  O22  1  0.152376  0.952659  0.849681  1
  O  O23  1  0.071088  0.831401  0.400997  1
  O  O24  1  0.185040  0.671391  0.827377  1
  O  O25  1  0.155616  0.344701  0.985625  1
  O  O26  1  0.096615  0.556023  0.388239  1
  O  O27  1  0.344384  0.655299  0.514375  1
  O  O28  1  0.094959  0.130861  0.239731  1
  O  O29  1  0.561025  0.815599  0.901199  1
  O  O30  1  0.314960  0.328609  0.672623  1
  O  O31  1  0.405041  0.869139  0.260269  1
  O  O32  1  0.616544  0.528567  0.875326  1
  O  O33  1  0.347624  0.047341  0.650319  1
  O  O34  1  0.663965  0.953566  0.356096  1
  O  O35  1  0.403385  0.443977  0.111761  1
  O  O36  1  0.597589  0.148287  0.762783  1
  O  O37  1  0.686834  0.683200  0.356903  1
  O  O38  1  0.428911  0.168599  0.099003  1
  O  O39  1  0.902411  0.851713  0.737217  1
  O  O40  1  0.649468  0.352064  0.493003  1
  O  O41  1  0.883456  0.471433  0.624674  1
  O  O42  1  0.850532  0.647936  0.006997  1
  O  O43  1  0.813166  0.316800  0.143097  1
  O  O44  1  0.938975  0.184401  0.598801  1
  O  O45  1  0.836035  0.046434  0.143904  1
