# generated using pymatgen
data_AcGe3
_symmetry_space_group_name_H-M   'P 1'
_cell_length_a   6.64455682
_cell_length_b   6.64451377
_cell_length_c   4.96804061
_cell_angle_alpha   89.99954321
_cell_angle_beta   90.00084817
_cell_angle_gamma   120.00379606
_symmetry_Int_Tables_number   1
_chemical_formula_structural   AcGe3
_chemical_formula_sum   'Ac2 Ge6'
_cell_volume   189.94522517
_cell_formula_units_Z   2
loop_
 _symmetry_equiv_pos_site_id
 _symmetry_equiv_pos_as_xyz
  1  'x, y, z'
loop_
 _atom_site_type_symbol
 _atom_site_label
 _atom_site_symmetry_multiplicity
 _atom_site_fract_x
 _atom_site_fract_y
 _atom_site_fract_z
 _atom_site_occupancy
  Ac  Ac0  1  0.333328  0.666677  0.750003  1
  Ac  Ac1  1  0.666672  0.333320  0.250001  1
  Ge  Ge2  1  0.136986  0.273999  0.250003  1
  Ge  Ge3  1  0.726002  0.863019  0.250003  1
  Ge  Ge4  1  0.137012  0.862997  0.249998  1
  Ge  Ge5  1  0.863013  0.726002  0.749999  1
  Ge  Ge6  1  0.273997  0.136983  0.749996  1
  Ge  Ge7  1  0.862991  0.137004  0.750002  1
