# generated using pymatgen
data_BaYbCdSb2
_symmetry_space_group_name_H-M   'P 1'
_cell_length_a   4.77738950
_cell_length_b   7.46459786
_cell_length_c   9.73928111
_cell_angle_alpha   90.00000000
_cell_angle_beta   75.80256896
_cell_angle_gamma   90.00000000
_symmetry_Int_Tables_number   1
_chemical_formula_structural   BaYbCdSb2
_chemical_formula_sum   'Ba2 Yb2 Cd2 Sb4'
_cell_volume   336.70706287
_cell_formula_units_Z   2
loop_
 _symmetry_equiv_pos_site_id
 _symmetry_equiv_pos_as_xyz
  1  'x, y, z'
loop_
 _atom_site_type_symbol
 _atom_site_label
 _atom_site_symmetry_multiplicity
 _atom_site_fract_x
 _atom_site_fract_y
 _atom_site_fract_z
 _atom_site_occupancy
  Yb  Yb0  1  0.480235  0.223501  0.039532  1
  Yb  Yb1  1  0.519765  0.723502  0.960468  1
  Ba  Ba2  1  0.302442  0.524675  0.395118  1
  Ba  Ba3  1  0.697558  0.024674  0.604882  1
  Cd  Cd4  1  0.906776  0.893639  0.186445  1
  Cd  Cd5  1  0.093224  0.393639  0.813554  1
  Sb  Sb6  1  0.941017  0.503300  0.117966  1
  Sb  Sb7  1  0.333963  0.010746  0.332076  1
  Sb  Sb8  1  0.666038  0.510746  0.667923  1
  Sb  Sb9  1  0.058984  0.003299  0.882033  1
