# generated using pymatgen
data_MoH18C5(NO)4
_symmetry_space_group_name_H-M   'P 1'
_cell_length_a   11.02646606
_cell_length_b   11.02646606
_cell_length_c   11.02646606
_cell_angle_alpha   90.00000000
_cell_angle_beta   90.00000000
_cell_angle_gamma   90.00000000
_symmetry_Int_Tables_number   1
_chemical_formula_structural   MoH18C5(NO)4
_chemical_formula_sum   'Mo4 H72 C20 N16 O16'
_cell_volume   1340.63031325
_cell_formula_units_Z   4
loop_
 _symmetry_equiv_pos_site_id
 _symmetry_equiv_pos_as_xyz
  1  'x, y, z'
loop_
 _atom_site_type_symbol
 _atom_site_label
 _atom_site_symmetry_multiplicity
 _atom_site_fract_x
 _atom_site_fract_y
 _atom_site_fract_z
 _atom_site_occupancy
  Mo  Mo0  1  0.498722  0.998722  0.501278  1
  Mo  Mo1  1  0.998722  0.501278  0.498722  1
  Mo  Mo2  1  0.501278  0.498722  0.998722  1
  Mo  Mo3  1  0.001278  0.001278  0.001278  1
  H  H4  1  0.335310  0.235103  0.497401  1
  H  H5  1  0.502599  0.835310  0.264897  1
  H  H6  1  0.735103  0.002599  0.664690  1
  H  H7  1  0.835310  0.264897  0.502599  1
  H  H8  1  0.002599  0.664690  0.735103  1
  H  H9  1  0.235103  0.497401  0.335310  1
  H  H10  1  0.664690  0.735103  0.002599  1
  H  H11  1  0.497401  0.335310  0.235103  1
  H  H12  1  0.264897  0.502599  0.835310  1
  H  H13  1  0.164690  0.764897  0.997401  1
  H  H14  1  0.997401  0.164690  0.764897  1
  H  H15  1  0.764897  0.997401  0.164690  1
  H  H16  1  0.230572  0.355535  0.497792  1
  H  H17  1  0.502208  0.730572  0.144465  1
  H  H18  1  0.855535  0.002208  0.769428  1
  H  H19  1  0.730572  0.144465  0.502208  1
  H  H20  1  0.002208  0.769428  0.855535  1
  H  H21  1  0.355535  0.497792  0.230572  1
  H  H22  1  0.769428  0.855535  0.002208  1
  H  H23  1  0.497792  0.230572  0.355535  1
  H  H24  1  0.144465  0.502208  0.730572  1
  H  H25  1  0.269428  0.644465  0.997792  1
  H  H26  1  0.997792  0.269428  0.644465  1
  H  H27  1  0.644465  0.997792  0.269428  1
  H  H28  1  0.753990  0.644836  0.632330  1
  H  H29  1  0.367670  0.253990  0.855164  1
  H  H30  1  0.144836  0.867670  0.246010  1
  H  H31  1  0.253990  0.855164  0.367670  1
  H  H32  1  0.867670  0.246010  0.144836  1
  H  H33  1  0.644836  0.632330  0.753990  1
  H  H34  1  0.246010  0.144836  0.867670  1
  H  H35  1  0.632330  0.753990  0.644836  1
  H  H36  1  0.855164  0.367670  0.253990  1
  H  H37  1  0.746010  0.355164  0.132330  1
  H  H38  1  0.132330  0.746010  0.355164  1
  H  H39  1  0.355164  0.132330  0.746010  1
  H  H40  1  0.394203  0.551752  0.544781  1
  H  H41  1  0.455219  0.894203  0.948248  1
  H  H42  1  0.051752  0.955219  0.605797  1
  H  H43  1  0.894203  0.948248  0.455219  1
  H  H44  1  0.955219  0.605797  0.051752  1
  H  H45  1  0.551752  0.544781  0.394203  1
  H  H46  1  0.605797  0.051752  0.955219  1
  H  H47  1  0.544781  0.394203  0.551752  1
  H  H48  1  0.948248  0.455219  0.894203  1
  H  H49  1  0.105797  0.448248  0.044781  1
  H  H50  1  0.044781  0.105797  0.448248  1
  H  H51  1  0.448248  0.044781  0.105797  1
  H  H52  1  0.437433  0.706696  0.570463  1
  H  H53  1  0.429537  0.937433  0.793304  1
  H  H54  1  0.206696  0.929537  0.562567  1
  H  H55  1  0.937433  0.793304  0.429537  1
  H  H56  1  0.929537  0.562567  0.206696  1
  H  H57  1  0.706696  0.570463  0.437433  1
  H  H58  1  0.562567  0.206696  0.929537  1
  H  H59  1  0.570463  0.437433  0.706696  1
  H  H60  1  0.793304  0.429537  0.937433  1
  H  H61  1  0.062567  0.293304  0.070463  1
  H  H62  1  0.070463  0.062567  0.293304  1
  H  H63  1  0.293304  0.070463  0.062567  1
  H  H64  1  0.429451  0.598761  0.696362  1
  H  H65  1  0.303638  0.929451  0.901239  1
  H  H66  1  0.098761  0.803638  0.570549  1
  H  H67  1  0.929451  0.901239  0.303638  1
  H  H68  1  0.803638  0.570549  0.098761  1
  H  H69  1  0.598761  0.696362  0.429451  1
  H  H70  1  0.570549  0.098761  0.803638  1
  H  H71  1  0.696362  0.429451  0.598761  1
  H  H72  1  0.901239  0.303638  0.929451  1
  H  H73  1  0.070549  0.401239  0.196362  1
  H  H74  1  0.196362  0.070549  0.401239  1
  H  H75  1  0.401239  0.196362  0.070549  1
  C  C76  1  0.362031  0.362031  0.362031  1
  C  C77  1  0.637969  0.862031  0.137969  1
  C  C78  1  0.862031  0.137969  0.637969  1
  C  C79  1  0.137969  0.637969  0.862031  1
  C  C80  1  0.659096  0.659096  0.659096  1
  C  C81  1  0.340904  0.159096  0.840904  1
  C  C82  1  0.159096  0.840904  0.340904  1
  C  C83  1  0.840904  0.340904  0.159096  1
  C  C84  1  0.449904  0.612606  0.600091  1
  C  C85  1  0.399909  0.949904  0.887394  1
  C  C86  1  0.112606  0.899909  0.550096  1
  C  C87  1  0.949904  0.887394  0.399909  1
  C  C88  1  0.899909  0.550096  0.112606  1
  C  C89  1  0.612606  0.600091  0.449904  1
  C  C90  1  0.550096  0.112606  0.899909  1
  C  C91  1  0.600091  0.449904  0.612606  1
  C  C92  1  0.887394  0.399909  0.949904  1
  C  C93  1  0.050096  0.387394  0.100091  1
  C  C94  1  0.100091  0.050096  0.387394  1
  C  C95  1  0.387394  0.100091  0.050096  1
  N  N96  1  0.308768  0.318338  0.462410  1
  N  N97  1  0.537590  0.808768  0.181662  1
  N  N98  1  0.818338  0.037590  0.691232  1
  N  N99  1  0.808768  0.181662  0.537590  1
  N  N100  1  0.037590  0.691232  0.818338  1
  N  N101  1  0.318338  0.462410  0.308768  1
  N  N102  1  0.691232  0.818338  0.037590  1
  N  N103  1  0.462410  0.308768  0.318338  1
  N  N104  1  0.181662  0.537590  0.808768  1
  N  N105  1  0.191232  0.681662  0.962410  1
  N  N106  1  0.962410  0.191232  0.681662  1
  N  N107  1  0.681662  0.962410  0.191232  1
  N  N108  1  0.580349  0.580349  0.580349  1
  N  N109  1  0.419651  0.080349  0.919651  1
  N  N110  1  0.080349  0.919651  0.419651  1
  N  N111  1  0.919651  0.419651  0.080349  1
  O  O112  1  0.593573  0.093573  0.406427  1
  O  O113  1  0.093573  0.406427  0.593573  1
  O  O114  1  0.406427  0.593573  0.093573  1
  O  O115  1  0.906427  0.906427  0.906427  1
  O  O116  1  0.366064  0.082869  0.544567  1
  O  O117  1  0.455433  0.866064  0.417131  1
  O  O118  1  0.582869  0.955433  0.633936  1
  O  O119  1  0.866064  0.417131  0.455433  1
  O  O120  1  0.955433  0.633936  0.582869  1
  O  O121  1  0.082869  0.544567  0.366064  1
  O  O122  1  0.633936  0.582869  0.955433  1
  O  O123  1  0.544567  0.366064  0.082869  1
  O  O124  1  0.417131  0.455433  0.866064  1
  O  O125  1  0.133936  0.917131  0.044567  1
  O  O126  1  0.044567  0.133936  0.917131  1
  O  O127  1  0.917131  0.044567  0.133936  1
