# generated using pymatgen
data_Li3MnFe2(BO3)3
_symmetry_space_group_name_H-M   'P 1'
_cell_length_a   8.25501867
_cell_length_b   14.31610295
_cell_length_c   3.15151286
_cell_angle_alpha   90.00000000
_cell_angle_beta   90.00000000
_cell_angle_gamma   90.08907622
_symmetry_Int_Tables_number   1
_chemical_formula_structural   Li3MnFe2(BO3)3
_chemical_formula_sum   'Li6 Mn2 Fe4 B6 O18'
_cell_volume   372.44438522
_cell_formula_units_Z   2
loop_
 _symmetry_equiv_pos_site_id
 _symmetry_equiv_pos_as_xyz
  1  'x, y, z'
loop_
 _atom_site_type_symbol
 _atom_site_label
 _atom_site_symmetry_multiplicity
 _atom_site_fract_x
 _atom_site_fract_y
 _atom_site_fract_z
 _atom_site_occupancy
  Li  Li0  1  0.293596  0.990555  0.500000  1
  Li  Li1  1  0.340285  0.358372  0.500000  1
  Li  Li2  1  0.365905  0.650538  0.500000  1
  Li  Li3  1  0.792978  0.492058  0.500000  1
  Li  Li4  1  0.841865  0.856406  0.500000  1
  Li  Li5  1  0.866807  0.151230  0.500000  1
  Mn  Mn6  1  0.191575  0.180009  0.000000  1
  Mn  Mn7  1  0.634640  0.005391  0.000000  1
  Fe  Fe8  1  0.135693  0.504539  0.000000  1
  Fe  Fe9  1  0.175033  0.816717  0.000000  1
  Fe  Fe10  1  0.675564  0.317042  0.000000  1
  Fe  Fe11  1  0.688601  0.679844  0.000000  1
  B  B12  1  0.000131  0.666308  0.500000  1
  B  B13  1  0.999805  0.998908  0.000000  1
  B  B14  1  0.998881  0.334512  0.500000  1
  B  B15  1  0.501887  0.167729  0.500000  1
  B  B16  1  0.499771  0.500259  0.000000  1
  B  B17  1  0.499008  0.831970  0.500000  1
  O  O18  1  0.010805  0.431381  0.500000  1
  O  O19  1  0.018632  0.763251  0.500000  1
  O  O20  1  0.136330  0.608691  0.500000  1
  O  O21  1  0.138511  0.280404  0.500000  1
  O  O22  1  0.153537  0.958642  0.000000  1
  O  O23  1  0.348876  0.125876  0.500000  1
  O  O24  1  0.347226  0.789461  0.500000  1
  O  O25  1  0.359971  0.445610  0.000000  1
  O  O26  1  0.487933  0.597225  0.000000  1
  O  O27  1  0.510439  0.928828  0.500000  1
  O  O28  1  0.517009  0.264568  0.500000  1
  O  O29  1  0.639244  0.111582  0.500000  1
  O  O30  1  0.639098  0.777922  0.500000  1
  O  O31  1  0.651490  0.457873  0.000000  1
  O  O32  1  0.845205  0.627097  0.500000  1
  O  O33  1  0.847249  0.291483  0.500000  1
  O  O34  1  0.863255  0.941855  0.000000  1
  O  O35  1  0.983168  0.095863  0.000000  1
