# generated using pymatgen
data_Ba(NdS2)2
_symmetry_space_group_name_H-M   'P 1'
_cell_length_a   11.95136750
_cell_length_b   4.24172209
_cell_length_c   14.96529532
_cell_angle_alpha   90.00000000
_cell_angle_beta   90.00000000
_cell_angle_gamma   90.00000000
_symmetry_Int_Tables_number   1
_chemical_formula_structural   Ba(NdS2)2
_chemical_formula_sum   'Ba4 Nd8 S16'
_cell_volume   758.65636074
_cell_formula_units_Z   4
loop_
 _symmetry_equiv_pos_site_id
 _symmetry_equiv_pos_as_xyz
  1  'x, y, z'
loop_
 _atom_site_type_symbol
 _atom_site_label
 _atom_site_symmetry_multiplicity
 _atom_site_fract_x
 _atom_site_fract_y
 _atom_site_fract_z
 _atom_site_occupancy
  Ba  Ba0  1  0.736323  0.250000  0.657604  1
  Ba  Ba1  1  0.763676  0.750001  0.157604  1
  Ba  Ba2  1  0.236323  0.250000  0.842396  1
  Ba  Ba3  1  0.263676  0.750001  0.342396  1
  Nd  Nd4  1  0.396196  0.250000  0.599645  1
  Nd  Nd5  1  0.103805  0.750001  0.099645  1
  Nd  Nd6  1  0.896194  0.250000  0.900355  1
  Nd  Nd7  1  0.603805  0.750001  0.400355  1
  Nd  Nd8  1  0.438541  0.250000  0.109421  1
  Nd  Nd9  1  0.061459  0.750001  0.609420  1
  Nd  Nd10  1  0.938541  0.250000  0.390579  1
  Nd  Nd11  1  0.561458  0.750001  0.890580  1
  S  S12  1  0.996193  0.250000  0.718139  1
  S  S13  1  0.503807  0.750001  0.218139  1
  S  S14  1  0.496194  0.250000  0.781861  1
  S  S15  1  0.003807  0.750001  0.281861  1
  S  S16  1  0.147060  0.250000  0.490698  1
  S  S17  1  0.352940  0.750001  0.990699  1
  S  S18  1  0.647059  0.250000  0.009302  1
  S  S19  1  0.852940  0.750001  0.509302  1
  S  S20  1  0.225887  0.250000  0.182905  1
  S  S21  1  0.274113  0.750001  0.682905  1
  S  S22  1  0.725888  0.250000  0.317095  1
  S  S23  1  0.774113  0.750001  0.817095  1
  S  S24  1  0.441049  0.250000  0.415705  1
  S  S25  1  0.058952  0.750001  0.915705  1
  S  S26  1  0.941047  0.250000  0.084295  1
  S  S27  1  0.558952  0.750001  0.584296  1
