# generated using pymatgen
data_Li3Fe9O5F11
_symmetry_space_group_name_H-M   'P 1'
_cell_length_a   6.14335601
_cell_length_b   10.33002796
_cell_length_c   6.22469312
_cell_angle_alpha   104.63700659
_cell_angle_beta   61.35659293
_cell_angle_gamma   105.65921094
_symmetry_Int_Tables_number   1
_chemical_formula_structural   Li3Fe9O5F11
_chemical_formula_sum   'Li3 Fe9 O5 F11'
_cell_volume   330.24189602
_cell_formula_units_Z   1
loop_
 _symmetry_equiv_pos_site_id
 _symmetry_equiv_pos_as_xyz
  1  'x, y, z'
loop_
 _atom_site_type_symbol
 _atom_site_label
 _atom_site_symmetry_multiplicity
 _atom_site_fract_x
 _atom_site_fract_y
 _atom_site_fract_z
 _atom_site_occupancy
  Li  Li0  1  0.198154  0.572790  0.174019  1
  Li  Li1  1  0.998635  0.005556  0.003672  1
  Li  Li2  1  0.816742  0.423259  0.817065  1
  Fe  Fe3  1  0.998765  0.003226  0.499872  1
  Fe  Fe4  1  0.251134  0.748041  0.727879  1
  Fe  Fe5  1  0.242196  0.249327  0.252181  1
  Fe  Fe6  1  0.734608  0.738657  0.260378  1
  Fe  Fe7  1  0.275929  0.254788  0.747352  1
  Fe  Fe8  1  0.493331  0.009201  0.991276  1
  Fe  Fe9  1  0.751470  0.255017  0.274176  1
  Fe  Fe10  1  0.767772  0.745745  0.729392  1
  Fe  Fe11  1  0.489790  0.009600  0.525467  1
  O  O12  1  0.114012  0.882288  0.650620  1
  O  O13  1  0.625981  0.873693  0.622825  1
  O  O14  1  0.374595  0.121161  0.370033  1
  O  O15  1  0.340249  0.125105  0.903047  1
  O  O16  1  0.864652  0.112075  0.360736  1
  F  F17  1  0.094286  0.868026  0.122594  1
  F  F18  1  0.125425  0.376422  0.112340  1
  F  F19  1  0.130987  0.354393  0.613198  1
  F  F20  1  0.384491  0.635124  0.364814  1
  F  F21  1  0.637894  0.878042  0.100251  1
  F  F22  1  0.387169  0.645506  0.867023  1
  F  F23  1  0.627065  0.359130  0.129544  1
  F  F24  1  0.888235  0.633847  0.378056  1
  F  F25  1  0.634548  0.371517  0.627726  1
  F  F26  1  0.877631  0.626633  0.889150  1
  F  F27  1  0.874255  0.121831  0.885313  1
