# generated using pymatgen
data_Li2VCrO4
_symmetry_space_group_name_H-M   'P 1'
_cell_length_a   5.16718320
_cell_length_b   6.01438859
_cell_length_c   7.88029953
_cell_angle_alpha   101.29690525
_cell_angle_beta   83.46022379
_cell_angle_gamma   73.36831673
_symmetry_Int_Tables_number   1
_chemical_formula_structural   Li2VCrO4
_chemical_formula_sum   'Li6 V3 Cr3 O12'
_cell_volume   226.31185107
_cell_formula_units_Z   3
loop_
 _symmetry_equiv_pos_site_id
 _symmetry_equiv_pos_as_xyz
  1  'x, y, z'
loop_
 _atom_site_type_symbol
 _atom_site_label
 _atom_site_symmetry_multiplicity
 _atom_site_fract_x
 _atom_site_fract_y
 _atom_site_fract_z
 _atom_site_occupancy
  Li  Li0  1  0.001432  0.001227  0.998494  1
  Li  Li1  1  0.998608  0.165556  0.668200  1
  Li  Li2  1  0.998440  0.338249  0.331281  1
  Li  Li3  1  0.998400  0.500155  0.000384  1
  Li  Li4  1  0.001625  0.666505  0.666320  1
  Li  Li5  1  0.001463  0.828446  0.335284  1
  V  V6  1  0.499888  0.083408  0.833475  1
  V  V7  1  0.500511  0.248421  0.500219  1
  V  V8  1  0.499542  0.918256  0.166429  1
  Cr  Cr9  1  0.501215  0.419978  0.166339  1
  Cr  Cr10  1  0.500142  0.583137  0.833403  1
  Cr  Cr11  1  0.498817  0.746638  0.500247  1
  O  O12  1  0.274693  0.033188  0.415580  1
  O  O13  1  0.274718  0.367879  0.749068  1
  O  O14  1  0.725338  0.133272  0.250713  1
  O  O15  1  0.272981  0.211213  0.079614  1
  O  O16  1  0.728443  0.305752  0.920116  1
  O  O17  1  0.273835  0.536807  0.412035  1
  O  O18  1  0.724112  0.462462  0.585046  1
  O  O19  1  0.271559  0.860902  0.746531  1
  O  O20  1  0.725217  0.798938  0.917772  1
  O  O21  1  0.275961  0.704234  0.081742  1
  O  O22  1  0.726361  0.629517  0.254764  1
  O  O23  1  0.726698  0.955858  0.586944  1
