# generated using pymatgen
data_LiFe(SO4)2
_symmetry_space_group_name_H-M   'P 1'
_cell_length_a   8.99068615
_cell_length_b   8.93003920
_cell_length_c   8.97607452
_cell_angle_alpha   55.99156805
_cell_angle_beta   55.96123455
_cell_angle_gamma   55.88161119
_symmetry_Int_Tables_number   1
_chemical_formula_structural   LiFe(SO4)2
_chemical_formula_sum   'Li3 Fe3 S6 O24'
_cell_volume   461.69917887
_cell_formula_units_Z   3
loop_
 _symmetry_equiv_pos_site_id
 _symmetry_equiv_pos_as_xyz
  1  'x, y, z'
loop_
 _atom_site_type_symbol
 _atom_site_label
 _atom_site_symmetry_multiplicity
 _atom_site_fract_x
 _atom_site_fract_y
 _atom_site_fract_z
 _atom_site_occupancy
  Li  Li0  1  0.356686  0.357291  0.351410  1
  Li  Li1  1  0.172806  0.431758  0.766013  1
  Li  Li2  1  0.764142  0.176179  0.431064  1
  Fe  Fe3  1  0.165729  0.138192  0.157249  1
  Fe  Fe4  1  0.643387  0.641700  0.644785  1
  Fe  Fe5  1  0.847384  0.850532  0.859230  1
  S  S6  1  0.041983  0.746475  0.461515  1
  S  S7  1  0.457635  0.042119  0.752530  1
  S  S8  1  0.752848  0.460602  0.041775  1
  S  S9  1  0.253147  0.541462  0.958748  1
  S  S10  1  0.541612  0.957620  0.256046  1
  S  S11  1  0.958940  0.250806  0.542456  1
  O  O12  1  0.107585  0.296058  0.510207  1
  O  O13  1  0.297863  0.507437  0.108090  1
  O  O14  1  0.004801  0.959447  0.339515  1
  O  O15  1  0.514530  0.105985  0.299400  1
  O  O16  1  0.023241  0.712504  0.656385  1
  O  O17  1  0.233420  0.625757  0.375492  1
  O  O18  1  0.369453  0.240281  0.633576  1
  O  O19  1  0.335218  0.008424  0.959628  1
  O  O20  1  0.640175  0.366335  0.238055  1
  O  O21  1  0.049860  0.675159  0.976644  1
  O  O22  1  0.275120  0.354742  0.965719  1
  O  O23  1  0.352265  0.972605  0.282871  1
  O  O24  1  0.653460  0.025430  0.712997  1
  O  O25  1  0.721025  0.653123  0.021856  1
  O  O26  1  0.964385  0.333976  0.003807  1
  O  O27  1  0.383079  0.622580  0.761113  1
  O  O28  1  0.671500  0.978005  0.051067  1
  O  O29  1  0.623652  0.758326  0.384113  1
  O  O30  1  0.760794  0.382340  0.622417  1
  O  O31  1  0.967987  0.272460  0.356125  1
  O  O32  1  0.485691  0.895063  0.701271  1
  O  O33  1  0.975110  0.047131  0.676234  1
  O  O34  1  0.700373  0.487728  0.895991  1
  O  O35  1  0.887618  0.704366  0.490906  1
