# generated using pymatgen
data_CoP3NO9
_symmetry_space_group_name_H-M   'P 1'
_cell_length_a   4.96064203
_cell_length_b   11.68620142
_cell_length_c   12.84735252
_cell_angle_alpha   90.00000000
_cell_angle_beta   90.00000000
_cell_angle_gamma   90.00000000
_symmetry_Int_Tables_number   1
_chemical_formula_structural   CoP3NO9
_chemical_formula_sum   'Co4 P12 N4 O36'
_cell_volume   744.77466864
_cell_formula_units_Z   4
loop_
 _symmetry_equiv_pos_site_id
 _symmetry_equiv_pos_as_xyz
  1  'x, y, z'
loop_
 _atom_site_type_symbol
 _atom_site_label
 _atom_site_symmetry_multiplicity
 _atom_site_fract_x
 _atom_site_fract_y
 _atom_site_fract_z
 _atom_site_occupancy
  Co  Co0  1  0.000000  0.500000  0.500000  1
  Co  Co1  1  0.000000  0.500000  0.000000  1
  Co  Co2  1  0.000000  0.000000  0.500000  1
  Co  Co3  1  0.000000  0.000000  0.000000  1
  P  P4  1  0.760102  0.250000  0.500000  1
  P  P5  1  0.239898  0.750000  0.000000  1
  P  P6  1  0.239898  0.750000  0.500000  1
  P  P7  1  0.760102  0.250000  0.000000  1
  P  P8  1  0.490860  0.077587  0.629902  1
  P  P9  1  0.509140  0.922413  0.129902  1
  P  P10  1  0.490860  0.422413  0.370098  1
  P  P11  1  0.509140  0.577587  0.870098  1
  P  P12  1  0.509140  0.922413  0.370098  1
  P  P13  1  0.490860  0.077587  0.870098  1
  P  P14  1  0.509140  0.577587  0.629902  1
  P  P15  1  0.490860  0.422413  0.129902  1
  N  N16  1  0.023271  0.263836  0.750000  1
  N  N17  1  0.976729  0.736164  0.250000  1
  N  N18  1  0.023271  0.236164  0.250000  1
  N  N19  1  0.976729  0.763836  0.750000  1
  O  O20  1  0.557399  0.204582  0.588331  1
  O  O21  1  0.442601  0.795418  0.088331  1
  O  O22  1  0.557399  0.295418  0.411669  1
  O  O23  1  0.442601  0.704582  0.911669  1
  O  O24  1  0.442601  0.795418  0.411669  1
  O  O25  1  0.557399  0.204582  0.911669  1
  O  O26  1  0.442601  0.704582  0.588331  1
  O  O27  1  0.557399  0.295418  0.088331  1
  O  O28  1  0.917126  0.348270  0.545766  1
  O  O29  1  0.082874  0.651730  0.045766  1
  O  O30  1  0.917126  0.151730  0.454234  1
  O  O31  1  0.082874  0.848270  0.954234  1
  O  O32  1  0.082874  0.651730  0.454234  1
  O  O33  1  0.917126  0.348270  0.954234  1
  O  O34  1  0.082874  0.848270  0.545766  1
  O  O35  1  0.917126  0.151730  0.045766  1
  O  O36  1  0.191559  0.056040  0.619899  1
  O  O37  1  0.808441  0.943960  0.119899  1
  O  O38  1  0.191559  0.443960  0.380101  1
  O  O39  1  0.808441  0.556040  0.880101  1
  O  O40  1  0.808441  0.943960  0.380101  1
  O  O41  1  0.191559  0.056040  0.880101  1
  O  O42  1  0.808441  0.556040  0.619899  1
  O  O43  1  0.191559  0.443960  0.119899  1
  O  O44  1  0.681717  0.989410  0.585196  1
  O  O45  1  0.318283  0.010590  0.085196  1
  O  O46  1  0.681717  0.510590  0.414804  1
  O  O47  1  0.318283  0.489410  0.914804  1
  O  O48  1  0.318283  0.010590  0.414804  1
  O  O49  1  0.681717  0.989410  0.914804  1
  O  O50  1  0.318283  0.489410  0.585196  1
  O  O51  1  0.681717  0.510590  0.085196  1
  O  O52  1  0.556595  0.093562  0.750000  1
  O  O53  1  0.443405  0.906438  0.250000  1
  O  O54  1  0.556595  0.406438  0.250000  1
  O  O55  1  0.443405  0.593562  0.750000  1
