# generated using pymatgen
data_Li3V3P8O29
_symmetry_space_group_name_H-M   'P 1'
_cell_length_a   9.75847437
_cell_length_b   9.70328692
_cell_length_c   14.35659452
_cell_angle_alpha   90.07410527
_cell_angle_beta   90.63454031
_cell_angle_gamma   60.26409482
_symmetry_Int_Tables_number   1
_chemical_formula_structural   Li3V3P8O29
_chemical_formula_sum   'Li6 V6 P16 O58'
_cell_volume   1180.32268190
_cell_formula_units_Z   2
loop_
 _symmetry_equiv_pos_site_id
 _symmetry_equiv_pos_as_xyz
  1  'x, y, z'
loop_
 _atom_site_type_symbol
 _atom_site_label
 _atom_site_symmetry_multiplicity
 _atom_site_fract_x
 _atom_site_fract_y
 _atom_site_fract_z
 _atom_site_occupancy
  Li  Li0  1  0.909921  0.320920  0.552416  1
  Li  Li1  1  0.331008  0.905209  0.063265  1
  Li  Li2  1  0.323781  0.767635  0.556184  1
  Li  Li3  1  0.674364  0.093698  0.944552  1
  Li  Li4  1  0.000267  0.999108  0.016044  1
  Li  Li5  1  0.969496  0.975825  0.493489  1
  V  V6  1  0.565576  0.436750  0.248868  1
  V  V7  1  0.436375  0.561142  0.753062  1
  V  V8  1  0.567101  0.995968  0.742417  1
  V  V9  1  0.436520  0.003687  0.255675  1
  V  V10  1  0.998614  0.563069  0.243768  1
  V  V11  1  0.000798  0.441267  0.755198  1
  P  P12  1  0.916969  0.785985  0.841800  1
  P  P13  1  0.786217  0.910650  0.335688  1
  P  P14  1  0.914799  0.308412  0.340771  1
  P  P15  1  0.660210  0.672062  0.132309  1
  P  P16  1  0.665957  0.661282  0.632935  1
  P  P17  1  0.780557  0.305576  0.840914  1
  P  P18  1  0.693148  0.224422  0.657951  1
  P  P19  1  0.318625  0.911369  0.844334  1
  P  P20  1  0.686682  0.089309  0.157037  1
  P  P21  1  0.312421  0.774736  0.344367  1
  P  P22  1  0.216805  0.698508  0.163350  1
  P  P23  1  0.331034  0.339707  0.365193  1
  P  P24  1  0.340011  0.326321  0.865455  1
  P  P25  1  0.083619  0.697193  0.658583  1
  P  P26  1  0.217376  0.087759  0.665230  1
  P  P27  1  0.084920  0.212824  0.160286  1
  O  O28  1  0.007801  0.791747  0.574054  1
  O  O29  1  0.916685  0.734614  0.327743  1
  O  O30  1  0.765560  0.023633  0.066554  1
  O  O31  1  0.740478  0.918730  0.832018  1
  O  O32  1  0.922147  0.621096  0.828636  1
  O  O33  1  0.810827  0.668382  0.175278  1
  O  O34  1  0.918229  0.464364  0.324328  1
  O  O35  1  0.009014  0.181628  0.079534  1
  O  O36  1  0.914082  0.348152  0.833138  1
  O  O37  1  0.667230  0.811934  0.676420  1
  O  O38  1  0.621734  0.919419  0.327316  1
  O  O39  1  0.814638  0.513561  0.675934  1
  O  O40  1  0.650863  0.674538  0.029300  1
  O  O41  1  0.660762  0.662279  0.529702  1
  O  O42  1  0.660878  0.524816  0.179147  1
  O  O43  1  0.474227  0.911134  0.823670  1
  O  O44  1  0.512938  0.820204  0.174776  1
  O  O45  1  0.741319  0.344266  0.327802  1
  O  O46  1  0.799666  0.201918  0.749421  1
  O  O47  1  0.789129  0.211139  0.575319  1
  O  O48  1  0.792741  0.207426  0.923270  1
  O  O49  1  0.619405  0.462563  0.828362  1
  O  O50  1  0.515349  0.668068  0.675558  1
  O  O51  1  0.649493  0.263597  0.168940  1
  O  O52  1  0.467514  0.617424  0.329726  1
  O  O53  1  0.348385  0.913260  0.329810  1
  O  O54  1  0.804222  0.991540  0.241157  1
  O  O55  1  0.804038  0.991867  0.417474  1
  O  O56  1  0.211937  0.990302  0.587070  1
  O  O57  1  0.652966  0.087984  0.665655  1
  O  O58  1  0.537619  0.383357  0.671383  1
  O  O59  1  0.347273  0.740127  0.826994  1
  O  O60  1  0.475429  0.341026  0.319558  1
  O  O61  1  0.378959  0.545627  0.170289  1
  O  O62  1  0.196628  0.810116  0.086113  1
  O  O63  1  0.232844  0.792084  0.434860  1
  O  O64  1  0.194111  0.792248  0.261092  1
  O  O65  1  0.260972  0.653298  0.665429  1
  O  O66  1  0.488703  0.180155  0.824110  1
  O  O67  1  0.532958  0.084170  0.173244  1
  O  O68  1  0.336699  0.476169  0.818966  1
  O  O69  1  0.343463  0.327444  0.968386  1
  O  O70  1  0.329732  0.339369  0.467831  1
  O  O71  1  0.183586  0.478943  0.315569  1
  O  O72  1  0.378769  0.086074  0.674108  1
  O  O73  1  0.335559  0.186034  0.321872  1
  O  O74  1  0.083845  0.654632  0.163622  1
  O  O75  1  0.001576  0.801806  0.750030  1
  O  O76  1  0.991019  0.806279  0.926868  1
  O  O77  1  0.075202  0.541732  0.673984  1
  O  O78  1  0.189259  0.330288  0.819790  1
  O  O79  1  0.071424  0.379384  0.167250  1
  O  O80  1  0.263626  0.083423  0.165826  1
  O  O81  1  0.249269  0.971562  0.937003  1
  O  O82  1  0.196493  0.018678  0.763577  1
  O  O83  1  0.080078  0.261847  0.662778  1
  O  O84  1  0.980369  0.229664  0.432028  1
  O  O85  1  0.011564  0.191636  0.256981  1
