# generated using pymatgen
data_PrCrSe3
_symmetry_space_group_name_H-M   'P 1'
_cell_length_a   8.17356248
_cell_length_b   3.98428167
_cell_length_c   13.79698206
_cell_angle_alpha   90.00000000
_cell_angle_beta   90.00000000
_cell_angle_gamma   90.00000000
_symmetry_Int_Tables_number   1
_chemical_formula_structural   PrCrSe3
_chemical_formula_sum   'Pr4 Cr4 Se12'
_cell_volume   449.30941576
_cell_formula_units_Z   4
loop_
 _symmetry_equiv_pos_site_id
 _symmetry_equiv_pos_as_xyz
  1  'x, y, z'
loop_
 _atom_site_type_symbol
 _atom_site_label
 _atom_site_symmetry_multiplicity
 _atom_site_fract_x
 _atom_site_fract_y
 _atom_site_fract_z
 _atom_site_occupancy
  Pr  Pr0  1  0.903459  0.750000  0.828912  1
  Pr  Pr1  1  0.596542  0.249999  0.328913  1
  Pr  Pr2  1  0.403459  0.750000  0.671087  1
  Pr  Pr3  1  0.096542  0.249999  0.171087  1
  Cr  Cr4  1  0.661109  0.750000  0.051540  1
  Cr  Cr5  1  0.838893  0.249999  0.551540  1
  Cr  Cr6  1  0.161109  0.750000  0.448460  1
  Cr  Cr7  1  0.338891  0.249999  0.948460  1
  Se  Se8  1  0.986317  0.249999  0.391837  1
  Se  Se9  1  0.013683  0.750000  0.608164  1
  Se  Se10  1  0.486317  0.249999  0.108163  1
  Se  Se11  1  0.810259  0.750000  0.211778  1
  Se  Se12  1  0.689741  0.249999  0.711778  1
  Se  Se13  1  0.310259  0.750000  0.288222  1
  Se  Se14  1  0.189741  0.249999  0.788223  1
  Se  Se15  1  0.657491  0.750000  0.496662  1
  Se  Se16  1  0.842509  0.249999  0.996663  1
  Se  Se17  1  0.157491  0.750000  0.003338  1
  Se  Se18  1  0.342509  0.249999  0.503338  1
  Se  Se19  1  0.513683  0.750000  0.891837  1
