# generated using pymatgen
data_Lu5Rh3
_symmetry_space_group_name_H-M   'P 1'
_cell_length_a   8.10280885
_cell_length_b   8.10280917
_cell_length_c   6.13348198
_cell_angle_alpha   90.00000000
_cell_angle_beta   90.00000000
_cell_angle_gamma   119.99473615
_symmetry_Int_Tables_number   1
_chemical_formula_structural   Lu5Rh3
_chemical_formula_sum   'Lu10 Rh6'
_cell_volume   348.76425147
_cell_formula_units_Z   2
loop_
 _symmetry_equiv_pos_site_id
 _symmetry_equiv_pos_as_xyz
  1  'x, y, z'
loop_
 _atom_site_type_symbol
 _atom_site_label
 _atom_site_symmetry_multiplicity
 _atom_site_fract_x
 _atom_site_fract_y
 _atom_site_fract_z
 _atom_site_occupancy
  Lu  Lu0  1  0.333326  0.666674  0.000000  1
  Lu  Lu1  1  0.666674  0.333326  0.499999  1
  Lu  Lu2  1  0.666674  0.333326  0.000000  1
  Lu  Lu3  1  0.333326  0.666674  0.499999  1
  Lu  Lu4  1  0.246892  0.000014  0.250000  1
  Lu  Lu5  1  0.753108  0.999986  0.750001  1
  Lu  Lu6  1  0.000014  0.246892  0.250000  1
  Lu  Lu7  1  0.753183  0.753183  0.250000  1
  Lu  Lu8  1  0.246817  0.246817  0.750001  1
  Lu  Lu9  1  0.999985  0.753108  0.750001  1
  Rh  Rh10  1  0.598811  0.000148  0.250000  1
  Rh  Rh11  1  0.401189  0.999853  0.750001  1
  Rh  Rh12  1  0.000148  0.598813  0.250000  1
  Rh  Rh13  1  0.401423  0.401422  0.250000  1
  Rh  Rh14  1  0.598578  0.598578  0.750001  1
  Rh  Rh15  1  0.999852  0.401188  0.750001  1
