# generated using pymatgen
data_Nd3(CuSn)4
_symmetry_space_group_name_H-M   'P 1'
_cell_length_a   4.58245550
_cell_length_b   7.02031647
_cell_length_c   8.63126608
_cell_angle_alpha   113.99641083
_cell_angle_beta   105.39409409
_cell_angle_gamma   90.00000000
_symmetry_Int_Tables_number   1
_chemical_formula_structural   Nd3(CuSn)4
_chemical_formula_sum   'Nd3 Cu4 Sn4'
_cell_volume   242.72651344
_cell_formula_units_Z   1
loop_
 _symmetry_equiv_pos_site_id
 _symmetry_equiv_pos_as_xyz
  1  'x, y, z'
loop_
 _atom_site_type_symbol
 _atom_site_label
 _atom_site_symmetry_multiplicity
 _atom_site_fract_x
 _atom_site_fract_y
 _atom_site_fract_z
 _atom_site_occupancy
  Nd  Nd0  1  0.000000  0.500000  0.000000  1
  Nd  Nd1  1  0.133009  0.133009  0.266017  1
  Nd  Nd2  1  0.866990  0.866990  0.733982  1
  Cu  Cu3  1  0.667959  0.484204  0.335921  1
  Cu  Cu4  1  0.667959  0.851716  0.335921  1
  Cu  Cu5  1  0.332040  0.148285  0.664080  1
  Cu  Cu6  1  0.332040  0.515796  0.664080  1
  Sn  Sn7  1  0.500000  0.200752  0.000000  1
  Sn  Sn8  1  0.500000  0.799249  0.000000  1
  Sn  Sn9  1  0.216166  0.716166  0.432334  1
  Sn  Sn10  1  0.783833  0.283833  0.567665  1
