# generated using pymatgen
data_Li2VF5
_symmetry_space_group_name_H-M   'P 1'
_cell_length_a   14.52497523
_cell_length_b   13.75571418
_cell_length_c   5.30800069
_cell_angle_alpha   90.00000000
_cell_angle_beta   90.00000000
_cell_angle_gamma   83.31356604
_symmetry_Int_Tables_number   1
_chemical_formula_structural   Li2VF5
_chemical_formula_sum   'Li24 V12 F60'
_cell_volume   1053.33243692
_cell_formula_units_Z   12
loop_
 _symmetry_equiv_pos_site_id
 _symmetry_equiv_pos_as_xyz
  1  'x, y, z'
loop_
 _atom_site_type_symbol
 _atom_site_label
 _atom_site_symmetry_multiplicity
 _atom_site_fract_x
 _atom_site_fract_y
 _atom_site_fract_z
 _atom_site_occupancy
  Li  Li0  1  0.023621  0.571159  0.694572  1
  Li  Li1  1  0.023621  0.071159  0.805428  1
  Li  Li2  1  0.073459  0.715436  0.299984  1
  Li  Li3  1  0.073459  0.215436  0.200016  1
  Li  Li4  1  0.235156  0.613069  0.794276  1
  Li  Li5  1  0.235156  0.113069  0.705724  1
  Li  Li6  1  0.287677  0.744931  0.212022  1
  Li  Li7  1  0.287677  0.244931  0.287978  1
  Li  Li8  1  0.379626  0.940254  0.735613  1
  Li  Li9  1  0.379626  0.440254  0.764387  1
  Li  Li10  1  0.422797  0.557173  0.298140  1
  Li  Li11  1  0.422797  0.057173  0.201860  1
  Li  Li12  1  0.577202  0.942827  0.798140  1
  Li  Li13  1  0.577202  0.442827  0.701860  1
  Li  Li14  1  0.620374  0.559746  0.235613  1
  Li  Li15  1  0.620374  0.059746  0.264387  1
  Li  Li16  1  0.712323  0.755069  0.712022  1
  Li  Li17  1  0.712323  0.255069  0.787978  1
  Li  Li18  1  0.764844  0.886931  0.294276  1
  Li  Li19  1  0.764844  0.386931  0.205724  1
  Li  Li20  1  0.926541  0.784564  0.799984  1
  Li  Li21  1  0.926541  0.284564  0.700016  1
  Li  Li22  1  0.976379  0.928841  0.194572  1
  Li  Li23  1  0.976379  0.428841  0.305428  1
  V  V24  1  0.131446  0.849387  0.715499  1
  V  V25  1  0.131446  0.349387  0.784501  1
  V  V26  1  0.208467  0.989042  0.253875  1
  V  V27  1  0.208467  0.489042  0.246125  1
  V  V28  1  0.455395  0.679561  0.754071  1
  V  V29  1  0.455395  0.179561  0.745929  1
  V  V30  1  0.544605  0.820439  0.254071  1
  V  V31  1  0.544605  0.320439  0.245929  1
  V  V32  1  0.791533  0.510958  0.753875  1
  V  V33  1  0.791533  0.010958  0.746125  1
  V  V34  1  0.868554  0.650613  0.215499  1
  V  V35  1  0.868554  0.150613  0.284501  1
  F  F36  1  0.034801  0.850647  0.466979  1
  F  F37  1  0.035453  0.827196  0.963304  1
  F  F38  1  0.034801  0.350647  0.033021  1
  F  F39  1  0.035453  0.327196  0.536696  1
  F  F40  1  0.142841  0.705400  0.663454  1
  F  F41  1  0.142841  0.205400  0.836546  1
  F  F42  1  0.084688  0.504463  0.390928  1
  F  F43  1  0.084688  0.004463  0.109072  1
  F  F44  1  0.132610  0.499878  0.886274  1
  F  F45  1  0.132610  -0.000122  0.613726  1
  F  F46  1  0.214393  0.855035  0.002945  1
  F  F47  1  0.214393  0.355035  0.497055  1
  F  F48  1  0.228164  0.853980  0.459702  1
  F  F49  1  0.228164  0.353980  0.040298  1
  F  F50  1  0.190263  0.634714  0.185598  1
  F  F51  1  0.190263  0.134714  0.314402  1
  F  F52  1  0.280786  0.516780  0.546040  1
  F  F53  1  0.329743  0.495723  0.081108  1
  F  F54  1  0.280786  0.016780  0.953960  1
  F  F55  1  0.329743  0.995723  0.418892  1
  F  F56  1  0.334414  0.681571  0.909804  1
  F  F57  1  0.381552  0.694836  0.440632  1
  F  F58  1  0.334414  0.181571  0.590196  1
  F  F59  1  0.381552  0.194836  0.059368  1
  F  F60  1  0.459828  0.537959  0.687503  1
  F  F61  1  0.437016  0.820194  0.023899  1
  F  F62  1  0.459828  0.037959  0.812497  1
  F  F63  1  0.437016  0.320194  0.476101  1
  F  F64  1  0.480206  0.857954  0.562533  1
  F  F65  1  0.480206  0.357954  0.937467  1
  F  F66  1  0.519794  0.642046  0.062533  1
  F  F67  1  0.519794  0.142046  0.437467  1
  F  F68  1  0.562984  0.679806  0.523899  1
  F  F69  1  0.540172  0.962041  0.187503  1
  F  F70  1  0.562984  0.179806  0.976101  1
  F  F71  1  0.540172  0.462041  0.312497  1
  F  F72  1  0.618448  0.805164  0.940632  1
  F  F73  1  0.665586  0.818429  0.409804  1
  F  F74  1  0.618448  0.305164  0.559368  1
  F  F75  1  0.665586  0.318429  0.090196  1
  F  F76  1  0.670257  0.004277  0.581108  1
  F  F77  1  0.719214  0.983220  0.046040  1
  F  F78  1  0.670257  0.504277  0.918892  1
  F  F79  1  0.719214  0.483220  0.453960  1
  F  F80  1  0.809737  0.865286  0.685598  1
  F  F81  1  0.809737  0.365286  0.814402  1
  F  F82  1  0.771836  0.646020  0.959702  1
  F  F83  1  0.771836  0.146020  0.540298  1
  F  F84  1  0.785607  0.644965  0.502945  1
  F  F85  1  0.785607  0.144965  0.997055  1
  F  F86  1  0.867389  0.000122  0.386274  1
  F  F87  1  0.867389  0.500122  0.113726  1
  F  F88  1  0.915312  0.995537  0.890928  1
  F  F89  1  0.915312  0.495537  0.609072  1
  F  F90  1  0.857159  0.794600  0.163454  1
  F  F91  1  0.857159  0.294600  0.336546  1
  F  F92  1  0.964547  0.672804  0.463304  1
  F  F93  1  0.965199  0.649353  0.966979  1
  F  F94  1  0.964547  0.172804  0.036696  1
  F  F95  1  0.965199  0.149353  0.533021  1
