# generated using pymatgen
data_CsB2H5O6
_symmetry_space_group_name_H-M   'P 1'
_cell_length_a   8.36241730
_cell_length_b   11.50020483
_cell_length_c   13.37209685
_cell_angle_alpha   90.00000000
_cell_angle_beta   91.33420996
_cell_angle_gamma   90.00000000
_symmetry_Int_Tables_number   1
_chemical_formula_structural   CsB2H5O6
_chemical_formula_sum   'Cs8 B16 H40 O48'
_cell_volume   1285.63937506
_cell_formula_units_Z   8
loop_
 _symmetry_equiv_pos_site_id
 _symmetry_equiv_pos_as_xyz
  1  'x, y, z'
loop_
 _atom_site_type_symbol
 _atom_site_label
 _atom_site_symmetry_multiplicity
 _atom_site_fract_x
 _atom_site_fract_y
 _atom_site_fract_z
 _atom_site_occupancy
  Cs  Cs0  1  0.266151  0.437015  0.978322  1
  Cs  Cs1  1  0.733849  0.937015  0.521678  1
  Cs  Cs2  1  0.733849  0.562985  0.021678  1
  Cs  Cs3  1  0.266151  0.062985  0.478322  1
  Cs  Cs4  1  0.457117  0.920888  0.859990  1
  Cs  Cs5  1  0.542883  0.420888  0.640010  1
  Cs  Cs6  1  0.542883  0.079112  0.140010  1
  Cs  Cs7  1  0.457117  0.579112  0.359990  1
  B  B8  1  0.871845  0.622192  0.576894  1
  B  B9  1  0.128155  0.122192  0.923106  1
  B  B10  1  0.128155  0.377808  0.423106  1
  B  B11  1  0.871845  0.877808  0.076894  1
  B  B12  1  0.103819  0.843254  0.695614  1
  B  B13  1  0.896181  0.343254  0.804386  1
  B  B14  1  0.896181  0.156746  0.304386  1
  B  B15  1  0.103819  0.656746  0.195614  1
  B  B16  1  0.106133  0.628457  0.697286  1
  B  B17  1  0.893867  0.128457  0.802714  1
  B  B18  1  0.893867  0.371543  0.302714  1
  B  B19  1  0.106133  0.871543  0.197286  1
  B  B20  1  0.859378  0.730096  0.736868  1
  B  B21  1  0.140622  0.230096  0.763132  1
  B  B22  1  0.140622  0.269904  0.263132  1
  B  B23  1  0.859378  0.769904  0.236868  1
  H  H24  1  0.168578  0.470772  0.745446  1
  H  H25  1  0.831422  0.970772  0.754554  1
  H  H26  1  0.831422  0.529228  0.254554  1
  H  H27  1  0.168578  0.029228  0.245446  1
  H  H28  1  0.862768  0.522522  0.455735  1
  H  H29  1  0.137232  0.022522  0.044265  1
  H  H30  1  0.137232  0.477478  0.544265  1
  H  H31  1  0.862768  0.977478  0.955735  1
  H  H32  1  0.776851  0.795757  0.866322  1
  H  H33  1  0.223149  0.295757  0.633678  1
  H  H34  1  0.223149  0.204243  0.133678  1
  H  H35  1  0.776851  0.704243  0.366322  1
  H  H36  1  0.118802  0.016655  0.705919  1
  H  H37  1  0.881198  0.516655  0.794081  1
  H  H38  1  0.881198  0.983345  0.294081  1
  H  H39  1  0.118802  0.483345  0.205919  1
  H  H40  1  0.608589  0.101325  0.699997  1
  H  H41  1  0.391411  0.601325  0.800003  1
  H  H42  1  0.391411  0.898675  0.300003  1
  H  H43  1  0.608589  0.398675  0.199997  1
  H  H44  1  0.432051  0.154749  0.676315  1
  H  H45  1  0.567949  0.654749  0.823685  1
  H  H46  1  0.567949  0.845251  0.323685  1
  H  H47  1  0.432051  0.345251  0.176315  1
  H  H48  1  0.565331  0.707616  0.608879  1
  H  H49  1  0.434669  0.207616  0.891121  1
  H  H50  1  0.434669  0.292384  0.391121  1
  H  H51  1  0.565331  0.792384  0.108879  1
  H  H52  1  0.375852  0.725448  0.618304  1
  H  H53  1  0.624148  0.225448  0.881696  1
  H  H54  1  0.624148  0.274552  0.381696  1
  H  H55  1  0.375852  0.774552  0.118304  1
  H  H56  1  0.847168  0.223358  0.517935  1
  H  H57  1  0.152832  0.723358  0.982065  1
  H  H58  1  0.152832  0.776642  0.482065  1
  H  H59  1  0.847168  0.276642  0.017935  1
  H  H60  1  0.949986  0.171326  0.609148  1
  H  H61  1  0.050014  0.671326  0.890852  1
  H  H62  1  0.050014  0.828674  0.390852  1
  H  H63  1  0.949986  0.328674  0.109148  1
  O  O64  1  0.798808  0.585584  0.487695  1
  O  O65  1  0.201192  0.085584  0.012305  1
  O  O66  1  0.201192  0.414416  0.512305  1
  O  O67  1  0.798808  0.914416  0.987695  1
  O  O68  1  0.026539  0.589729  0.599851  1
  O  O69  1  0.973461  0.089729  0.900149  1
  O  O70  1  0.973461  0.410271  0.400149  1
  O  O71  1  0.026539  0.910271  0.099851  1
  O  O72  1  0.780708  0.687429  0.641450  1
  O  O73  1  0.219292  0.187429  0.858550  1
  O  O74  1  0.219292  0.312571  0.358550  1
  O  O75  1  0.780708  0.812571  0.141450  1
  O  O76  1  0.186320  0.946789  0.691229  1
  O  O77  1  0.813680  0.446789  0.808771  1
  O  O78  1  0.813680  0.053211  0.308771  1
  O  O79  1  0.186320  0.553211  0.191229  1
  O  O80  1  0.188707  0.741703  0.682373  1
  O  O81  1  0.811293  0.241703  0.817627  1
  O  O82  1  0.811293  0.258297  0.317627  1
  O  O83  1  0.188707  0.758297  0.182373  1
  O  O84  1  0.734248  0.750332  0.809588  1
  O  O85  1  0.265752  0.250332  0.690412  1
  O  O86  1  0.265752  0.249668  0.190412  1
  O  O87  1  0.734248  0.749668  0.309588  1
  O  O88  1  0.942762  0.842952  0.717164  1
  O  O89  1  0.057238  0.342952  0.782836  1
  O  O90  1  0.057238  0.157048  0.282836  1
  O  O91  1  0.942762  0.657048  0.217164  1
  O  O92  1  0.978692  0.643659  0.771835  1
  O  O93  1  0.021308  0.143659  0.728165  1
  O  O94  1  0.021308  0.356341  0.228165  1
  O  O95  1  0.978692  0.856341  0.271835  1
  O  O96  1  0.225175  0.543463  0.728821  1
  O  O97  1  0.774825  0.043463  0.771179  1
  O  O98  1  0.774825  0.456537  0.271179  1
  O  O99  1  0.225175  0.956537  0.228821  1
  O  O100  1  0.521044  0.108809  0.649154  1
  O  O101  1  0.478956  0.608809  0.850846  1
  O  O102  1  0.478956  0.891191  0.350845  1
  O  O103  1  0.521044  0.391191  0.149154  1
  O  O104  1  0.463237  0.713426  0.570767  1
  O  O105  1  0.536763  0.213426  0.929233  1
  O  O106  1  0.536763  0.286574  0.429233  1
  O  O107  1  0.463237  0.786574  0.070767  1
  O  O108  1  0.931426  0.168266  0.534923  1
  O  O109  1  0.068574  0.668266  0.965077  1
  O  O110  1  0.068574  0.831734  0.465077  1
  O  O111  1  0.931426  0.331734  0.034923  1
