# generated using pymatgen
data_CuH6(NCl)2
_symmetry_space_group_name_H-M   'P 1'
_cell_length_a   6.01211970
_cell_length_b   6.49565544
_cell_length_c   6.49565544
_cell_angle_alpha   72.05466464
_cell_angle_beta   90.00000000
_cell_angle_gamma   90.00000000
_symmetry_Int_Tables_number   1
_chemical_formula_structural   CuH6(NCl)2
_chemical_formula_sum   'Cu2 H12 N4 Cl4'
_cell_volume   241.33166854
_cell_formula_units_Z   2
loop_
 _symmetry_equiv_pos_site_id
 _symmetry_equiv_pos_as_xyz
  1  'x, y, z'
loop_
 _atom_site_type_symbol
 _atom_site_label
 _atom_site_symmetry_multiplicity
 _atom_site_fract_x
 _atom_site_fract_y
 _atom_site_fract_z
 _atom_site_occupancy
  Cu  Cu0  1  0.750001  0.112257  0.112257  1
  Cu  Cu1  1  0.250000  0.887742  0.887742  1
  H  H2  1  0.113122  0.530755  0.153904  1
  H  H3  1  0.386878  0.530755  0.153904  1
  H  H4  1  0.250000  0.670998  0.287534  1
  H  H5  1  0.750001  0.712465  0.329002  1
  H  H6  1  0.613121  0.846096  0.469246  1
  H  H7  1  0.886879  0.846096  0.469246  1
  H  H8  1  0.113122  0.153904  0.530755  1
  H  H9  1  0.386878  0.153904  0.530755  1
  H  H10  1  0.250000  0.287534  0.670998  1
  H  H11  1  0.750001  0.329002  0.712465  1
  H  H12  1  0.613121  0.469246  0.846096  1
  H  H13  1  0.886879  0.469246  0.846096  1
  N  N14  1  0.250000  0.626604  0.148206  1
  N  N15  1  0.750001  0.851794  0.373397  1
  N  N16  1  0.250000  0.148206  0.626604  1
  N  N17  1  0.750001  0.373397  0.851794  1
  Cl  Cl18  1  0.250000  0.112224  0.112224  1
  Cl  Cl19  1  0.750001  0.339768  0.339768  1
  Cl  Cl20  1  0.250000  0.660233  0.660233  1
  Cl  Cl21  1  0.750001  0.887775  0.887775  1
