# generated using pymatgen
data_NbNiTe5
_symmetry_space_group_name_H-M   'P 1'
_cell_length_a   3.70803607
_cell_length_b   7.12449831
_cell_length_c   15.27028883
_cell_angle_alpha   90.00000000
_cell_angle_beta   90.00000000
_cell_angle_gamma   105.08379187
_symmetry_Int_Tables_number   1
_chemical_formula_structural   NbNiTe5
_chemical_formula_sum   'Nb2 Ni2 Te10'
_cell_volume   389.50997763
_cell_formula_units_Z   2
loop_
 _symmetry_equiv_pos_site_id
 _symmetry_equiv_pos_as_xyz
  1  'x, y, z'
loop_
 _atom_site_type_symbol
 _atom_site_label
 _atom_site_symmetry_multiplicity
 _atom_site_fract_x
 _atom_site_fract_y
 _atom_site_fract_z
 _atom_site_occupancy
  Ni  Ni0  1  0.000000  0.000000  0.500000  1
  Ni  Ni1  1  0.000000  0.000000  0.000000  1
  Nb  Nb2  1  0.509411  0.018822  0.250000  1
  Nb  Nb3  1  0.490589  0.981178  0.750000  1
  Te  Te4  1  0.600123  0.200245  0.423851  1
  Te  Te5  1  0.399877  0.799755  0.576149  1
  Te  Te6  1  0.399877  0.799755  0.923851  1
  Te  Te7  1  0.600123  0.200245  0.076149  1
  Te  Te8  1  0.167231  0.334463  0.250000  1
  Te  Te9  1  0.832769  0.665537  0.750000  1
  Te  Te10  1  0.099230  0.198459  0.645147  1
  Te  Te11  1  0.900770  0.801541  0.354853  1
  Te  Te12  1  0.900770  0.801541  0.145147  1
  Te  Te13  1  0.099230  0.198459  0.854853  1
