# generated using pymatgen
data_Li2CuF5
_symmetry_space_group_name_H-M   'P 1'
_cell_length_a   6.32236671
_cell_length_b   9.46967825
_cell_length_c   7.49298760
_cell_angle_alpha   90.00000000
_cell_angle_beta   106.55011871
_cell_angle_gamma   90.00000000
_symmetry_Int_Tables_number   1
_chemical_formula_structural   Li2CuF5
_chemical_formula_sum   'Li8 Cu4 F20'
_cell_volume   430.02546411
_cell_formula_units_Z   4
loop_
 _symmetry_equiv_pos_site_id
 _symmetry_equiv_pos_as_xyz
  1  'x, y, z'
loop_
 _atom_site_type_symbol
 _atom_site_label
 _atom_site_symmetry_multiplicity
 _atom_site_fract_x
 _atom_site_fract_y
 _atom_site_fract_z
 _atom_site_occupancy
  Li  Li0  1  0.104861  0.260223  0.539248  1
  Li  Li1  1  0.376669  0.677858  0.973879  1
  Li  Li2  1  0.104861  0.239777  0.039248  1
  Li  Li3  1  0.376669  0.822142  0.473879  1
  Li  Li4  1  0.623331  0.177858  0.526121  1
  Li  Li5  1  0.895139  0.760224  0.960752  1
  Li  Li6  1  0.623331  0.322142  0.026121  1
  Li  Li7  1  0.895139  0.739776  0.460752  1
  Cu  Cu8  1  0.342988  0.008810  0.777925  1
  Cu  Cu9  1  0.342988  0.491190  0.277925  1
  Cu  Cu10  1  0.657012  0.508810  0.722075  1
  Cu  Cu11  1  0.657012  0.991190  0.222075  1
  F  F12  1  0.141205  0.115397  0.846116  1
  F  F13  1  0.135211  0.847718  0.558366  1
  F  F14  1  0.342759  0.881646  0.957781  1
  F  F15  1  0.141205  0.384603  0.346116  1
  F  F16  1  0.135211  0.652282  0.058366  1
  F  F17  1  0.367977  0.149917  0.620333  1
  F  F18  1  0.441254  0.416742  0.788427  1
  F  F19  1  0.342759  0.618354  0.457781  1
  F  F20  1  0.558746  0.916742  0.711573  1
  F  F21  1  0.367977  0.350083  0.120333  1
  F  F22  1  0.632023  0.649917  0.879667  1
  F  F23  1  0.441254  0.083258  0.288427  1
  F  F24  1  0.657241  0.381646  0.542219  1
  F  F25  1  0.558746  0.583258  0.211573  1
  F  F26  1  0.632023  0.850083  0.379667  1
  F  F27  1  0.864789  0.347718  0.941634  1
  F  F28  1  0.858795  0.615397  0.653884  1
  F  F29  1  0.657241  0.118354  0.042219  1
  F  F30  1  0.864789  0.152282  0.441634  1
  F  F31  1  0.858795  0.884603  0.153884  1
