# generated using pymatgen
data_Eu2Al2O5
_symmetry_space_group_name_H-M   'P 1'
_cell_length_a   7.58310313
_cell_length_b   3.77668011
_cell_length_c   3.77629195
_cell_angle_alpha   89.99324701
_cell_angle_beta   89.99750624
_cell_angle_gamma   89.99718275
_symmetry_Int_Tables_number   1
_chemical_formula_structural   Eu2Al2O5
_chemical_formula_sum   'Eu2 Al2 O5'
_cell_volume   108.14905344
_cell_formula_units_Z   1
loop_
 _symmetry_equiv_pos_site_id
 _symmetry_equiv_pos_as_xyz
  1  'x, y, z'
loop_
 _atom_site_type_symbol
 _atom_site_label
 _atom_site_symmetry_multiplicity
 _atom_site_fract_x
 _atom_site_fract_y
 _atom_site_fract_z
 _atom_site_occupancy
  Eu  Eu0  1  0.999999  -0.000000  0.999994  1
  Eu  Eu1  1  0.499995  0.999989  0.999997  1
  Al  Al2  1  0.260035  0.500092  0.500079  1
  Al  Al3  1  0.739965  0.499907  0.499922  1
  O  O4  1  0.225772  0.499881  -0.000035  1
  O  O5  1  0.774230  0.500126  0.000038  1
  O  O6  1  0.499999  0.500002  0.500004  1
  O  O7  1  0.225928  -0.000047  0.499922  1
  O  O8  1  0.774075  0.000050  0.500078  1
