# generated using pymatgen
data_Fe4O3F5
_symmetry_space_group_name_H-M   'P 1'
_cell_length_a   4.80012484
_cell_length_b   10.07943418
_cell_length_c   6.18536504
_cell_angle_alpha   72.13045516
_cell_angle_beta   89.99834941
_cell_angle_gamma   86.09720593
_symmetry_Int_Tables_number   1
_chemical_formula_structural   Fe4O3F5
_chemical_formula_sum   'Fe8 O6 F10'
_cell_volume   284.09742016
_cell_formula_units_Z   2
loop_
 _symmetry_equiv_pos_site_id
 _symmetry_equiv_pos_as_xyz
  1  'x, y, z'
loop_
 _atom_site_type_symbol
 _atom_site_label
 _atom_site_symmetry_multiplicity
 _atom_site_fract_x
 _atom_site_fract_y
 _atom_site_fract_z
 _atom_site_occupancy
  Fe  Fe0  1  0.511221  0.244599  0.635507  1
  Fe  Fe1  1  0.510534  0.744337  0.864080  1
  Fe  Fe2  1  0.510550  0.744302  0.391636  1
  Fe  Fe3  1  0.511248  0.244585  0.119821  1
  Fe  Fe4  1  0.999454  0.999912  0.500044  1
  Fe  Fe5  1  0.008898  0.494661  0.752665  1
  Fe  Fe6  1  0.989606  0.005249  0.997394  1
  Fe  Fe7  1  0.975998  0.513528  0.243171  1
  O  O8  1  0.698293  0.152948  0.423458  1
  O  O9  1  0.674795  0.663742  0.168110  1
  O  O10  1  0.688657  0.152215  0.923810  1
  O  O11  1  0.708573  0.644717  0.677680  1
  O  O12  1  0.301585  0.848663  0.575712  1
  O  O13  1  0.300529  0.347843  0.826109  1
  F  F14  1  0.801613  0.398075  0.557866  1
  F  F15  1  0.801482  0.398074  0.044051  1
  F  F16  1  0.800087  0.899000  0.788224  1
  F  F17  1  0.800046  0.899007  0.312811  1
  F  F18  1  0.295915  0.852135  0.074091  1
  F  F19  1  0.300052  0.352993  0.323548  1
  F  F20  1  0.204383  0.598457  0.940949  1
  F  F21  1  0.201038  0.101297  0.212911  1
  F  F22  1  0.204344  0.598450  0.460524  1
  F  F23  1  0.201097  0.101211  0.685824  1
