# generated using pymatgen
data_Dy(Bi3O5)4
_symmetry_space_group_name_H-M   'P 1'
_cell_length_a   8.95875370
_cell_length_b   8.95875370
_cell_length_c   8.95875370
_cell_angle_alpha   109.47434450
_cell_angle_beta   109.49592094
_cell_angle_gamma   109.44340076
_symmetry_Int_Tables_number   1
_chemical_formula_structural   Dy(Bi3O5)4
_chemical_formula_sum   'Dy1 Bi12 O20'
_cell_volume   553.50405568
_cell_formula_units_Z   1
loop_
 _symmetry_equiv_pos_site_id
 _symmetry_equiv_pos_as_xyz
  1  'x, y, z'
loop_
 _atom_site_type_symbol
 _atom_site_label
 _atom_site_symmetry_multiplicity
 _atom_site_fract_x
 _atom_site_fract_y
 _atom_site_fract_z
 _atom_site_occupancy
  Dy  Dy0  1  0.000000  0.000000  0.000000  1
  Bi  Bi1  1  0.830584  0.323056  0.143146  1
  Bi  Bi2  1  0.492748  0.168939  0.311903  1
  Bi  Bi3  1  0.857036  0.180844  0.688097  1
  Bi  Bi4  1  0.312935  0.493509  0.168953  1
  Bi  Bi5  1  0.687065  0.856018  0.180576  1
  Bi  Bi6  1  0.820089  0.676944  0.507527  1
  Bi  Bi7  1  0.169416  0.312562  0.492473  1
  Bi  Bi8  1  0.675442  0.506491  0.819424  1
  Bi  Bi9  1  0.324558  0.143982  0.831047  1
  Bi  Bi10  1  0.507252  0.819156  0.676192  1
  Bi  Bi11  1  0.142964  0.831061  0.323808  1
  Bi  Bi12  1  0.179911  0.687438  0.856854  1
  O  O13  1  0.339105  0.000139  0.999758  1
  O  O14  1  0.733839  0.111407  0.358190  1
  O  O15  1  0.888190  0.622596  0.247453  1
  O  O16  1  0.624857  0.377404  0.265593  1
  O  O17  1  0.246019  0.244919  0.246883  1
  O  O18  1  0.753981  0.000866  0.998900  1
  O  O19  1  0.753216  0.375649  0.641810  1
  O  O20  1  0.000383  0.339347  0.000242  1
  O  O21  1  0.377953  0.265925  0.624457  1
  O  O22  1  0.622047  0.246505  0.887972  1
  O  O23  1  0.358532  0.734075  0.112028  1
  O  O24  1  0.641468  0.753495  0.375543  1
  O  O25  1  0.660895  0.660653  0.661034  1
  O  O26  1  0.266161  0.624351  0.377567  1
  O  O27  1  0.998035  0.999134  0.753117  1
  O  O28  1  0.001965  0.755081  0.001100  1
  O  O29  1  0.111810  0.359264  0.734407  1
  O  O30  1  0.375143  0.640736  0.752547  1
  O  O31  1  0.246784  0.888593  0.622433  1
  O  O32  1  0.999617  0.999861  0.338966  1
