# generated using pymatgen
data_Pr3Sn5Au6
_symmetry_space_group_name_H-M   'P 1'
_cell_length_a   4.62216658
_cell_length_b   13.69238132
_cell_length_c   10.48636558
_cell_angle_alpha   89.99992986
_cell_angle_beta   89.99996621
_cell_angle_gamma   90.00002037
_symmetry_Int_Tables_number   1
_chemical_formula_structural   Pr3Sn5Au6
_chemical_formula_sum   'Pr6 Sn10 Au12'
_cell_volume   663.66600550
_cell_formula_units_Z   2
loop_
 _symmetry_equiv_pos_site_id
 _symmetry_equiv_pos_as_xyz
  1  'x, y, z'
loop_
 _atom_site_type_symbol
 _atom_site_label
 _atom_site_symmetry_multiplicity
 _atom_site_fract_x
 _atom_site_fract_y
 _atom_site_fract_z
 _atom_site_occupancy
  Pr  Pr0  1  0.250001  0.063342  0.745455  1
  Pr  Pr1  1  0.249999  0.436659  0.745455  1
  Pr  Pr2  1  0.750002  0.936657  0.254546  1
  Pr  Pr3  1  0.750000  0.563343  0.254545  1
  Pr  Pr4  1  0.250000  0.749999  0.745547  1
  Pr  Pr5  1  0.750002  0.250000  0.254454  1
  Sn  Sn6  1  0.249999  0.088802  0.378461  1
  Sn  Sn7  1  0.250001  0.411198  0.378461  1
  Sn  Sn8  1  0.750001  0.911198  0.621539  1
  Sn  Sn9  1  0.750000  0.588802  0.621539  1
  Sn  Sn10  1  0.249999  0.609475  0.024486  1
  Sn  Sn11  1  0.250000  0.890526  0.024486  1
  Sn  Sn12  1  0.750000  0.390525  0.975513  1
  Sn  Sn13  1  0.750001  0.109475  0.975514  1
  Sn  Sn14  1  0.250000  0.750000  0.272669  1
  Sn  Sn15  1  0.749999  0.250000  0.727330  1
  Au  Au16  1  0.250002  0.088462  0.120233  1
  Au  Au17  1  0.250000  0.411538  0.120233  1
  Au  Au18  1  0.750002  0.911539  0.879767  1
  Au  Au19  1  0.750001  0.588461  0.879767  1
  Au  Au20  1  0.250000  0.250000  0.543190  1
  Au  Au21  1  0.750001  0.750000  0.456810  1
  Au  Au22  1  0.250000  0.604911  0.474917  1
  Au  Au23  1  0.250000  0.895089  0.474918  1
  Au  Au24  1  0.750001  0.395088  0.525083  1
  Au  Au25  1  0.750001  0.104912  0.525083  1
  Au  Au26  1  0.250001  0.250000  0.937853  1
  Au  Au27  1  0.750001  0.750000  0.062149  1
