# generated using pymatgen
data_BaBiBS4
_symmetry_space_group_name_H-M   'P 1'
_cell_length_a   6.27665229
_cell_length_b   7.73514961
_cell_length_c   8.21798480
_cell_angle_alpha   99.79158194
_cell_angle_beta   112.45049674
_cell_angle_gamma   90.00000000
_symmetry_Int_Tables_number   1
_chemical_formula_structural   BaBiBS4
_chemical_formula_sum   'Ba2 Bi2 B2 S8'
_cell_volume   362.45385972
_cell_formula_units_Z   2
loop_
 _symmetry_equiv_pos_site_id
 _symmetry_equiv_pos_as_xyz
  1  'x, y, z'
loop_
 _atom_site_type_symbol
 _atom_site_label
 _atom_site_symmetry_multiplicity
 _atom_site_fract_x
 _atom_site_fract_y
 _atom_site_fract_z
 _atom_site_occupancy
  Ba  Ba0  1  0.181400  0.688761  0.362800  1
  Ba  Ba1  1  0.818601  0.311240  0.637200  1
  Bi  Bi2  1  0.545978  0.258948  0.091956  1
  Bi  Bi3  1  0.454022  0.741053  0.908044  1
  B  B4  1  0.104019  0.154929  0.208039  1
  B  B5  1  0.895981  0.845070  0.791961  1
  S  S6  1  0.034899  0.320314  0.069798  1
  S  S7  1  0.387544  0.069978  0.278581  1
  S  S8  1  0.891037  0.069978  0.278581  1
  S  S9  1  0.657539  0.547055  0.315076  1
  S  S10  1  0.342462  0.452946  0.684925  1
  S  S11  1  0.108962  0.930022  0.721419  1
  S  S12  1  0.612456  0.930022  0.721419  1
  S  S13  1  0.965101  0.679686  0.930202  1
