# generated using pymatgen
data_Li9V5(Si5O16)2
_symmetry_space_group_name_H-M   'P 1'
_cell_length_a   8.11086230
_cell_length_b   8.05859882
_cell_length_c   8.06096759
_cell_angle_alpha   89.04765662
_cell_angle_beta   88.74257448
_cell_angle_gamma   88.74783240
_symmetry_Int_Tables_number   1
_chemical_formula_structural   Li9V5(Si5O16)2
_chemical_formula_sum   'Li9 V5 Si10 O32'
_cell_volume   526.56111729
_cell_formula_units_Z   1
loop_
 _symmetry_equiv_pos_site_id
 _symmetry_equiv_pos_as_xyz
  1  'x, y, z'
loop_
 _atom_site_type_symbol
 _atom_site_label
 _atom_site_symmetry_multiplicity
 _atom_site_fract_x
 _atom_site_fract_y
 _atom_site_fract_z
 _atom_site_occupancy
  Li  Li0  1  0.991348  0.506708  0.503759  1
  Li  Li1  1  0.258622  0.746246  0.743365  1
  Li  Li2  1  0.248299  0.246088  0.246279  1
  Li  Li3  1  0.507758  0.501855  0.994924  1
  Li  Li4  1  0.502678  0.993362  0.508244  1
  Li  Li5  1  0.624985  0.624430  0.625573  1
  Li  Li6  1  0.747393  0.741853  0.256605  1
  Li  Li7  1  0.742233  0.255087  0.748083  1
  Li  Li8  1  0.001775  0.003660  0.003936  1
  V  V9  1  0.114776  0.134140  0.622111  1
  V  V10  1  0.124929  0.871958  0.378324  1
  V  V11  1  0.135140  0.627744  0.116024  1
  V  V12  1  0.377276  0.129564  0.873712  1
  V  V13  1  0.872753  0.376348  0.120459  1
  Si  Si14  1  0.125014  0.388453  0.861658  1
  Si  Si15  1  0.375758  0.384563  0.619145  1
  Si  Si16  1  0.388142  0.619729  0.372745  1
  Si  Si17  1  0.392015  0.867175  0.131125  1
  Si  Si18  1  0.616133  0.369631  0.381826  1
  Si  Si19  1  0.624980  0.115983  0.134025  1
  Si  Si20  1  0.633854  0.868203  0.880377  1
  Si  Si21  1  0.858082  0.118821  0.382718  1
  Si  Si22  1  0.862074  0.877183  0.630316  1
  Si  Si23  1  0.874159  0.630794  0.865634  1
  O  O24  1  0.078511  0.121262  0.375734  1
  O  O25  1  0.103778  0.612430  0.869449  1
  O  O26  1  0.119192  0.380598  0.085638  1
  O  O27  1  0.161149  0.626384  0.360292  1
  O  O28  1  0.088884  0.889436  0.623360  1
  O  O29  1  0.130839  0.164426  0.869309  1
  O  O30  1  0.146233  0.380879  0.637735  1
  O  O31  1  0.171527  0.873905  0.128581  1
  O  O32  1  0.365660  0.157545  0.630159  1
  O  O33  1  0.386807  0.644497  0.144647  1
  O  O34  1  0.385362  0.845274  0.357272  1
  O  O35  1  0.402812  0.093657  0.131565  1
  O  O36  1  0.351959  0.387422  0.844147  1
  O  O37  1  0.375858  0.602677  0.589474  1
  O  O38  1  0.387693  0.384977  0.384676  1
  O  O39  1  0.412874  0.870914  0.904178  1
  O  O40  1  0.591842  0.366272  0.598923  1
  O  O41  1  0.617781  0.887697  0.117810  1
  O  O42  1  0.628103  0.103757  0.911336  1
  O  O43  1  0.645101  0.885995  0.665041  1
  O  O44  1  0.604982  0.585020  0.364175  1
  O  O45  1  0.621855  0.338700  0.146360  1
  O  O46  1  0.632184  0.132139  0.362334  1
  O  O47  1  0.658027  0.651034  0.883619  1
  O  O48  1  0.837141  0.345815  0.379051  1
  O  O49  1  0.862270  0.865360  0.865029  1
  O  O50  1  0.874110  0.660327  0.647556  1
  O  O51  1  0.898077  0.405766  0.862668  1
  O  O52  1  0.847108  0.118382  0.156345  1
  O  O53  1  0.864669  0.892653  0.404847  1
  O  O54  1  0.863495  0.105466  0.605403  1
  O  O55  1  0.883940  0.619850  0.092412  1
