# generated using pymatgen
data_Na2Nb3O6
_symmetry_space_group_name_H-M   'P 1'
_cell_length_a   5.16871706
_cell_length_b   5.16871098
_cell_length_c   23.66905586
_cell_angle_alpha   89.99985037
_cell_angle_beta   90.00041793
_cell_angle_gamma   59.99992795
_symmetry_Int_Tables_number   1
_chemical_formula_structural   Na2Nb3O6
_chemical_formula_sum   'Na8 Nb12 O24'
_cell_volume   547.61616339
_cell_formula_units_Z   4
loop_
 _symmetry_equiv_pos_site_id
 _symmetry_equiv_pos_as_xyz
  1  'x, y, z'
loop_
 _atom_site_type_symbol
 _atom_site_label
 _atom_site_symmetry_multiplicity
 _atom_site_fract_x
 _atom_site_fract_y
 _atom_site_fract_z
 _atom_site_occupancy
  Na  Na0  1  -0.000002  0.000003  0.000025  1
  Na  Na1  1  -0.000003  0.000001  0.500004  1
  Na  Na2  1  0.333333  0.333335  0.750071  1
  Na  Na3  1  0.333332  0.333334  0.000023  1
  Na  Na4  1  0.333335  0.333333  0.249903  1
  Na  Na5  1  0.666667  0.666667  0.250107  1
  Na  Na6  1  0.666664  0.666669  0.500003  1
  Na  Na7  1  0.666667  0.666667  0.749872  1
  Nb  Nb8  1  0.333326  0.995550  0.875009  1
  Nb  Nb9  1  0.329083  0.004244  0.375009  1
  Nb  Nb10  1  0.004380  0.328953  0.625021  1
  Nb  Nb11  1  0.995954  0.333324  0.124961  1
  Nb  Nb12  1  0.004227  0.666680  0.375009  1
  Nb  Nb13  1  0.995554  0.671117  0.875009  1
  Nb  Nb14  1  0.670739  0.995937  0.124961  1
  Nb  Nb15  1  0.666674  0.004372  0.625021  1
  Nb  Nb16  1  0.666664  0.329099  0.375009  1
  Nb  Nb17  1  0.671102  0.333339  0.875009  1
  Nb  Nb18  1  0.328969  0.666656  0.625022  1
  Nb  Nb19  1  0.333335  0.670721  0.124962  1
  O  O20  1  0.329777  0.005119  0.071759  1
  O  O21  1  0.335034  0.994738  0.571816  1
  O  O22  1  0.336909  0.001544  0.178182  1
  O  O23  1  0.994802  0.334965  0.428160  1
  O  O24  1  0.998354  0.338540  0.321860  1
  O  O25  1  0.338563  0.998306  0.678212  1
  O  O26  1  0.005398  0.329712  0.928143  1
  O  O27  1  0.001759  0.336944  0.821864  1
  O  O28  1  0.994741  0.670224  0.571816  1
  O  O29  1  0.005127  0.665101  0.071759  1
  O  O30  1  0.661284  0.001772  0.821864  1
  O  O31  1  0.664885  0.005404  0.928142  1
  O  O32  1  0.670230  0.994812  0.428161  1
  O  O33  1  0.663098  0.998372  0.321860  1
  O  O34  1  0.001560  0.661544  0.178182  1
  O  O35  1  0.998321  0.663127  0.678211  1
  O  O36  1  0.670231  0.335030  0.571817  1
  O  O37  1  0.665114  0.329766  0.071759  1
  O  O38  1  0.661560  0.336890  0.178182  1
  O  O39  1  0.336931  0.661298  0.821865  1
  O  O40  1  0.329705  0.664892  0.928142  1
  O  O41  1  0.338519  0.663112  0.321860  1
  O  O42  1  0.334953  0.670243  0.428160  1
  O  O43  1  0.663144  0.338549  0.678212  1
