# generated using pymatgen
data_Eu3Sn
_symmetry_space_group_name_H-M   'P 1'
_cell_length_a   7.45646048
_cell_length_b   7.45646097
_cell_length_c   5.89930783
_cell_angle_alpha   90.00000000
_cell_angle_beta   90.00000000
_cell_angle_gamma   119.99999784
_symmetry_Int_Tables_number   1
_chemical_formula_structural   Eu3Sn
_chemical_formula_sum   'Eu6 Sn2'
_cell_volume   284.05155352
_cell_formula_units_Z   2
loop_
 _symmetry_equiv_pos_site_id
 _symmetry_equiv_pos_as_xyz
  1  'x, y, z'
loop_
 _atom_site_type_symbol
 _atom_site_label
 _atom_site_symmetry_multiplicity
 _atom_site_fract_x
 _atom_site_fract_y
 _atom_site_fract_z
 _atom_site_occupancy
  Eu  Eu0  1  0.174972  0.349945  0.250000  1
  Eu  Eu1  1  0.650055  0.825028  0.250000  1
  Eu  Eu2  1  0.174972  0.825028  0.250000  1
  Eu  Eu3  1  0.825028  0.650055  0.750001  1
  Eu  Eu4  1  0.349946  0.174972  0.750001  1
  Eu  Eu5  1  0.825028  0.174972  0.750001  1
  Sn  Sn6  1  0.333333  0.666666  0.750001  1
  Sn  Sn7  1  0.666666  0.333332  0.250000  1
