# generated using pymatgen
data_Co6OF11
_symmetry_space_group_name_H-M   'P 1'
_cell_length_a   10.64369870
_cell_length_b   6.60903422
_cell_length_c   3.21342096
_cell_angle_alpha   90.25159557
_cell_angle_beta   90.09281089
_cell_angle_gamma   72.01392845
_symmetry_Int_Tables_number   1
_chemical_formula_structural   Co6OF11
_chemical_formula_sum   'Co6 O1 F11'
_cell_volume   214.99809234
_cell_formula_units_Z   1
loop_
 _symmetry_equiv_pos_site_id
 _symmetry_equiv_pos_as_xyz
  1  'x, y, z'
loop_
 _atom_site_type_symbol
 _atom_site_label
 _atom_site_symmetry_multiplicity
 _atom_site_fract_x
 _atom_site_fract_y
 _atom_site_fract_z
 _atom_site_occupancy
  Co  Co0  1  0.000891  0.018491  0.004188  1
  Co  Co1  1  0.000496  0.478718  0.501797  1
  Co  Co2  1  0.333486  0.335914  0.997027  1
  Co  Co3  1  0.666455  0.165292  0.497819  1
  Co  Co4  1  0.335317  0.833962  0.499719  1
  Co  Co5  1  0.667913  0.665315  -0.000080  1
  O  O6  1  0.000446  0.292563  0.001854  1
  F  F7  1  0.000203  0.709373  0.993720  1
  F  F8  1  0.334157  0.030308  0.000296  1
  F  F9  1  0.203372  0.402891  0.497454  1
  F  F10  1  0.464605  0.269844  0.496736  1
  F  F11  1  0.131508  0.931637  0.503314  1
  F  F12  1  0.336782  0.638828  0.998403  1
  F  F13  1  0.667789  0.360214  0.999033  1
  F  F14  1  0.870317  0.060165  0.501473  1
  F  F15  1  0.537027  0.732302  0.499415  1
  F  F16  1  0.797728  0.600899  0.500459  1
  F  F17  1  0.664993  0.971540  0.996981  1
