# generated using pymatgen
data_LiMn(PO3)4
_symmetry_space_group_name_H-M   'P 1'
_cell_length_a   6.98609483
_cell_length_b   7.20831966
_cell_length_c   9.00631294
_cell_angle_alpha   90.00000000
_cell_angle_beta   90.00000000
_cell_angle_gamma   94.82709284
_symmetry_Int_Tables_number   1
_chemical_formula_structural   LiMn(PO3)4
_chemical_formula_sum   'Li2 Mn2 P8 O24'
_cell_volume   451.93132504
_cell_formula_units_Z   2
loop_
 _symmetry_equiv_pos_site_id
 _symmetry_equiv_pos_as_xyz
  1  'x, y, z'
loop_
 _atom_site_type_symbol
 _atom_site_label
 _atom_site_symmetry_multiplicity
 _atom_site_fract_x
 _atom_site_fract_y
 _atom_site_fract_z
 _atom_site_occupancy
  Li  Li0  1  0.333140  0.693423  0.352462  1
  Li  Li1  1  0.666860  0.306577  0.852462  1
  Mn  Mn2  1  0.231970  0.233194  0.926909  1
  Mn  Mn3  1  0.768030  0.766806  0.426909  1
  P  P4  1  0.979566  0.415912  0.369641  1
  P  P5  1  0.074926  0.091263  0.569553  1
  P  P6  1  0.396377  0.588405  0.733333  1
  P  P7  1  0.435508  0.064315  0.386609  1
  P  P8  1  0.564492  0.935685  0.886609  1
  P  P9  1  0.603623  0.411595  0.233333  1
  P  P10  1  0.925074  0.908737  0.069553  1
  P  P11  1  0.020434  0.584088  0.869641  1
  O  O12  1  0.020454  0.782394  0.947951  1
  O  O13  1  0.978566  0.897592  0.543204  1
  O  O14  1  0.116522  0.457896  0.977950  1
  O  O15  1  0.070217  0.172278  0.721596  1
  O  O16  1  0.172930  0.630871  0.737168  1
  O  O17  1  0.171700  0.478991  0.310120  1
  O  O18  1  0.300766  0.091695  0.529855  1
  O  O19  1  0.325564  0.962832  0.267127  1
  O  O20  1  0.411563  0.388856  0.790318  1
  O  O21  1  0.494017  0.720091  0.860152  1
  O  O22  1  0.385828  0.022749  0.940362  1
  O  O23  1  0.471326  0.635839  0.582400  1
  O  O24  1  0.528674  0.364161  0.082400  1
  O  O25  1  0.614172  0.977251  0.440362  1
  O  O26  1  0.505983  0.279909  0.360152  1
  O  O27  1  0.588437  0.611144  0.290318  1
  O  O28  1  0.674436  0.037168  0.767127  1
  O  O29  1  0.699234  0.908305  0.029855  1
  O  O30  1  0.828300  0.521009  0.810120  1
  O  O31  1  0.827070  0.369129  0.237168  1
  O  O32  1  0.929783  0.827722  0.221596  1
  O  O33  1  0.883478  0.542104  0.477950  1
  O  O34  1  0.021434  0.102408  0.043204  1
  O  O35  1  0.979546  0.217606  0.447951  1
