# generated using pymatgen
data_PaS3
_symmetry_space_group_name_H-M   'P 1'
_cell_length_a   5.76649313
_cell_length_b   5.76478480
_cell_length_c   5.00331591
_cell_angle_alpha   90.00035144
_cell_angle_beta   90.00071738
_cell_angle_gamma   120.01584202
_symmetry_Int_Tables_number   1
_chemical_formula_structural   PaS3
_chemical_formula_sum   'Pa2 S6'
_cell_volume   144.01710767
_cell_formula_units_Z   2
loop_
 _symmetry_equiv_pos_site_id
 _symmetry_equiv_pos_as_xyz
  1  'x, y, z'
loop_
 _atom_site_type_symbol
 _atom_site_label
 _atom_site_symmetry_multiplicity
 _atom_site_fract_x
 _atom_site_fract_y
 _atom_site_fract_z
 _atom_site_occupancy
  Pa  Pa0  1  0.666669  0.333322  0.250009  1
  Pa  Pa1  1  0.333328  0.666674  0.749993  1
  S  S2  1  0.824027  0.176000  0.749999  1
  S  S3  1  0.351970  0.175993  0.750002  1
  S  S4  1  0.824015  0.648016  0.749999  1
  S  S5  1  0.175976  0.823999  0.250002  1
  S  S6  1  0.648022  0.824003  0.249998  1
  S  S7  1  0.175993  0.351987  0.250001  1
