# generated using pymatgen
data_Li4V2Si4O13
_symmetry_space_group_name_H-M   'P 1'
_cell_length_a   13.81325529
_cell_length_b   5.02940525
_cell_length_c   14.15574466
_cell_angle_alpha   90.00000000
_cell_angle_beta   90.00000000
_cell_angle_gamma   90.00000000
_symmetry_Int_Tables_number   1
_chemical_formula_structural   Li4V2Si4O13
_chemical_formula_sum   'Li16 V8 Si16 O52'
_cell_volume   983.43438591
_cell_formula_units_Z   4
loop_
 _symmetry_equiv_pos_site_id
 _symmetry_equiv_pos_as_xyz
  1  'x, y, z'
loop_
 _atom_site_type_symbol
 _atom_site_label
 _atom_site_symmetry_multiplicity
 _atom_site_fract_x
 _atom_site_fract_y
 _atom_site_fract_z
 _atom_site_occupancy
  Li  Li0  1  0.041300  0.182939  0.218808  1
  Li  Li1  1  0.100290  0.662685  0.916076  1
  Li  Li2  1  0.140424  0.647773  0.110448  1
  Li  Li3  1  0.209542  0.251023  0.837518  1
  Li  Li4  1  0.290458  0.751023  0.337518  1
  Li  Li5  1  0.359576  0.147773  0.610448  1
  Li  Li6  1  0.399710  0.162685  0.416076  1
  Li  Li7  1  0.458700  0.682939  0.718808  1
  Li  Li8  1  0.541300  0.317061  0.218808  1
  Li  Li9  1  0.600290  0.837315  0.916076  1
  Li  Li10  1  0.640424  0.852227  0.110448  1
  Li  Li11  1  0.709542  0.248977  0.837518  1
  Li  Li12  1  0.790458  0.748977  0.337518  1
  Li  Li13  1  0.859576  0.352227  0.610448  1
  Li  Li14  1  0.899710  0.337315  0.416076  1
  Li  Li15  1  0.958700  0.817061  0.718808  1
  V  V16  1  0.079122  0.353850  0.626193  1
  V  V17  1  0.172129  0.182556  0.421367  1
  V  V18  1  0.327871  0.682556  0.921367  1
  V  V19  1  0.420878  0.853850  0.126193  1
  V  V20  1  0.579122  0.146150  0.626193  1
  V  V21  1  0.672129  0.317444  0.421367  1
  V  V22  1  0.827871  0.817444  0.921367  1
  V  V23  1  0.920878  0.646150  0.126193  1
  Si  Si24  1  0.022057  0.149925  0.001611  1
  Si  Si25  1  0.061292  0.689427  0.317465  1
  Si  Si26  1  0.189751  0.844779  0.728717  1
  Si  Si27  1  0.225625  0.170720  0.046003  1
  Si  Si28  1  0.274375  0.670720  0.546003  1
  Si  Si29  1  0.310249  0.344779  0.228717  1
  Si  Si30  1  0.438708  0.189427  0.817465  1
  Si  Si31  1  0.477943  0.649925  0.501611  1
  Si  Si32  1  0.522057  0.350075  0.001611  1
  Si  Si33  1  0.561292  0.810573  0.317465  1
  Si  Si34  1  0.689751  0.655221  0.728717  1
  Si  Si35  1  0.725625  0.329280  0.046003  1
  Si  Si36  1  0.774375  0.829280  0.546003  1
  Si  Si37  1  0.810249  0.155221  0.228717  1
  Si  Si38  1  0.938708  0.310573  0.817465  1
  Si  Si39  1  0.977943  0.850075  0.501611  1
  O  O40  1  0.025402  0.423290  0.061265  1
  O  O41  1  0.036844  0.773776  0.208318  1
  O  O42  1  0.032606  0.217685  0.886942  1
  O  O43  1  0.064251  0.062163  0.521040  1
  O  O44  1  0.073308  0.372031  0.338138  1
  O  O45  1  0.093583  0.668633  0.709389  1
  O  O46  1  0.125535  0.986808  0.025430  1
  O  O47  1  0.156659  0.858998  0.347146  1
  O  O48  1  0.177688  0.159406  0.702263  1
  O  O49  1  0.184016  0.472669  0.524830  1
  O  O50  1  0.217562  0.240858  0.160493  1
  O  O51  1  0.215169  0.826402  0.841655  1
  O  O52  1  0.217444  0.445155  0.985743  1
  O  O53  1  0.282556  0.945155  0.485743  1
  O  O54  1  0.284831  0.326402  0.341655  1
  O  O55  1  0.282438  0.740858  0.660493  1
  O  O56  1  0.315984  0.972669  0.024830  1
  O  O57  1  0.322312  0.659406  0.202263  1
  O  O58  1  0.343341  0.358998  0.847146  1
  O  O59  1  0.374465  0.486808  0.525430  1
  O  O60  1  0.406417  0.168633  0.209389  1
  O  O61  1  0.426692  0.872031  0.838138  1
  O  O62  1  0.435749  0.562163  0.021040  1
  O  O63  1  0.467394  0.717685  0.386942  1
  O  O64  1  0.463156  0.273776  0.708318  1
  O  O65  1  0.474598  0.923290  0.561265  1
  O  O66  1  0.525402  0.076710  0.061265  1
  O  O67  1  0.536844  0.726224  0.208318  1
  O  O68  1  0.532606  0.282315  0.886942  1
  O  O69  1  0.564251  0.437837  0.521040  1
  O  O70  1  0.573308  0.127969  0.338138  1
  O  O71  1  0.593583  0.831367  0.709389  1
  O  O72  1  0.625535  0.513192  0.025430  1
  O  O73  1  0.656659  0.641002  0.347146  1
  O  O74  1  0.677688  0.340594  0.702263  1
  O  O75  1  0.684016  0.027331  0.524830  1
  O  O76  1  0.717562  0.259142  0.160493  1
  O  O77  1  0.715169  0.673598  0.841655  1
  O  O78  1  0.717444  0.054845  0.985743  1
  O  O79  1  0.782556  0.554845  0.485743  1
  O  O80  1  0.784831  0.173598  0.341655  1
  O  O81  1  0.782438  0.759142  0.660493  1
  O  O82  1  0.815984  0.527331  0.024830  1
  O  O83  1  0.822312  0.840594  0.202263  1
  O  O84  1  0.843341  0.141002  0.847146  1
  O  O85  1  0.874465  0.013192  0.525430  1
  O  O86  1  0.906417  0.331367  0.209389  1
  O  O87  1  0.926692  0.627969  0.838138  1
  O  O88  1  0.935749  0.937837  0.021040  1
  O  O89  1  0.967394  0.782315  0.386942  1
  O  O90  1  0.963156  0.226224  0.708318  1
  O  O91  1  0.974598  0.576710  0.561265  1
