# generated using pymatgen
data_LiFe4(BO3)4
_symmetry_space_group_name_H-M   'P 1'
_cell_length_a   5.25785329
_cell_length_b   5.25818217
_cell_length_c   20.16227626
_cell_angle_alpha   90.04437775
_cell_angle_beta   90.19017221
_cell_angle_gamma   60.78297065
_symmetry_Int_Tables_number   1
_chemical_formula_structural   LiFe4(BO3)4
_chemical_formula_sum   'Li2 Fe8 B8 O24'
_cell_volume   486.50170770
_cell_formula_units_Z   2
loop_
 _symmetry_equiv_pos_site_id
 _symmetry_equiv_pos_as_xyz
  1  'x, y, z'
loop_
 _atom_site_type_symbol
 _atom_site_label
 _atom_site_symmetry_multiplicity
 _atom_site_fract_x
 _atom_site_fract_y
 _atom_site_fract_z
 _atom_site_occupancy
  Li  Li0  1  0.332607  0.640893  0.668299  1
  Li  Li1  1  0.356822  0.669108  0.921081  1
  Fe  Fe2  1  0.984497  0.675804  0.811105  1
  Fe  Fe3  1  0.996050  0.674908  0.310444  1
  Fe  Fe4  1  0.685522  0.010077  0.938061  1
  Fe  Fe5  1  0.671847  0.997280  0.434458  1
  Fe  Fe6  1  0.323249  0.017386  0.560711  1
  Fe  Fe7  1  0.325723  0.002937  0.060484  1
  Fe  Fe8  1  0.993057  0.314899  0.687254  1
  Fe  Fe9  1  0.001826  0.325218  0.185512  1
  B  B10  1  0.004013  0.341204  0.936164  1
  B  B11  1  0.001228  0.337934  0.435484  1
  B  B12  1  0.329266  0.010650  0.813278  1
  B  B13  1  0.335618  0.004944  0.311216  1
  B  B14  1  0.664475  0.995112  0.685753  1
  B  B15  1  0.658024  0.997359  0.186334  1
  B  B16  1  0.989692  0.669528  0.561704  1
  B  B17  1  0.995920  0.664826  0.062163  1
  O  O18  1  0.114644  0.273714  0.788126  1
  O  O19  1  0.125406  0.270695  0.284410  1
  O  O20  1  0.256153  0.090628  0.959148  1
  O  O21  1  0.033230  0.579494  0.913381  1
  O  O22  1  0.268006  0.123388  0.461919  1
  O  O23  1  0.989101  0.594339  0.411651  1
  O  O24  1  0.597230  0.980002  0.831859  1
  O  O25  1  0.213759  0.726252  0.571839  1
  O  O26  1  0.593824  0.989405  0.335575  1
  O  O27  1  0.235477  0.699715  0.059353  1
  O  O28  1  0.280816  0.778785  0.821300  1
  O  O29  1  0.291010  0.773200  0.313827  1
  O  O30  1  0.648576  0.260121  0.684017  1
  O  O31  1  0.705619  0.227652  0.184203  1
  O  O32  1  0.740975  0.353476  0.935127  1
  O  O33  1  0.427449  0.963208  0.662490  1
  O  O34  1  0.767969  0.295045  0.433777  1
  O  O35  1  0.400734  0.010281  0.162955  1
  O  O36  1  0.017103  0.405820  0.582656  1
  O  O37  1  0.017432  0.402600  0.085456  1
  O  O38  1  0.727666  0.878080  0.533336  1
  O  O39  1  0.727321  0.881902  0.039880  1
  O  O40  1  0.916575  0.745418  0.708877  1
  O  O41  1  0.870824  0.730382  0.213171  1
