# generated using pymatgen
data_Mn15O32
_symmetry_space_group_name_H-M   'P 1'
_cell_length_a   8.24156181
_cell_length_b   10.10352353
_cell_length_c   8.24156181
_cell_angle_alpha   65.83899984
_cell_angle_beta   90.24337272
_cell_angle_gamma   114.19694604
_symmetry_Int_Tables_number   1
_chemical_formula_structural   Mn15O32
_chemical_formula_sum   'Mn15 O32'
_cell_volume   560.00319972
_cell_formula_units_Z   1
loop_
 _symmetry_equiv_pos_site_id
 _symmetry_equiv_pos_as_xyz
  1  'x, y, z'
loop_
 _atom_site_type_symbol
 _atom_site_label
 _atom_site_symmetry_multiplicity
 _atom_site_fract_x
 _atom_site_fract_y
 _atom_site_fract_z
 _atom_site_occupancy
  Mn  Mn0  1  0.245331  0.000703  0.744627  1
  Mn  Mn1  1  0.754669  0.999297  0.255373  1
  Mn  Mn2  1  0.500000  0.000000  0.000000  1
  Mn  Mn3  1  0.624228  0.249288  0.625027  1
  Mn  Mn4  1  0.124200  0.247463  0.128360  1
  Mn  Mn5  1  0.374315  0.249288  0.874940  1
  Mn  Mn6  1  0.875824  0.247463  0.376737  1
  Mn  Mn7  1  0.000000  0.500000  0.500000  1
  Mn  Mn8  1  0.750464  0.500000  0.249536  1
  Mn  Mn9  1  0.249536  0.500000  0.750464  1
  Mn  Mn10  1  0.500000  0.500000  0.000000  1
  Mn  Mn11  1  0.375772  0.750712  0.374973  1
  Mn  Mn12  1  0.875800  0.752537  0.871640  1
  Mn  Mn13  1  0.124176  0.752537  0.623263  1
  Mn  Mn14  1  0.625685  0.750712  0.125060  1
  O  O15  1  0.491840  0.015256  0.756989  1
  O  O16  1  0.272245  0.015256  0.976584  1
  O  O17  1  0.753144  0.018133  0.472180  1
  O  O18  1  0.990313  0.018133  0.235011  1
  O  O19  1  0.381469  0.236293  0.645176  1
  O  O20  1  0.107114  0.251036  0.356078  1
  O  O21  1  0.602568  0.235298  0.867270  1
  O  O22  1  0.882493  0.234625  0.147868  1
  O  O23  1  0.147229  0.264755  0.882319  1
  O  O24  1  0.368098  0.263969  0.103890  1
  O  O25  1  0.647074  0.264755  0.382475  1
  O  O26  1  0.867859  0.263969  0.604129  1
  O  O27  1  0.978462  0.485327  0.272455  1
  O  O28  1  0.477251  0.484802  0.772726  1
  O  O29  1  0.757528  0.484802  0.492450  1
  O  O30  1  0.257782  0.485327  0.993135  1
  O  O31  1  0.242472  0.515198  0.507550  1
  O  O32  1  0.021538  0.514673  0.727545  1
  O  O33  1  0.742218  0.514673  0.006865  1
  O  O34  1  0.522749  0.515198  0.227274  1
  O  O35  1  0.631903  0.736031  0.896110  1
  O  O36  1  0.132141  0.736031  0.395871  1
  O  O37  1  0.352926  0.735245  0.617525  1
  O  O38  1  0.852771  0.735245  0.117681  1
  O  O39  1  0.397432  0.764702  0.132730  1
  O  O40  1  0.117507  0.765375  0.852132  1
  O  O41  1  0.892886  0.748964  0.643922  1
  O  O42  1  0.618531  0.763707  0.354824  1
  O  O43  1  0.246856  0.981867  0.527820  1
  O  O44  1  0.009687  0.981867  0.764989  1
  O  O45  1  0.727755  0.984744  0.023416  1
  O  O46  1  0.508160  0.984744  0.243011  1
