# generated using pymatgen
data_Li3Fe2(P2O7)2
_symmetry_space_group_name_H-M   'P 1'
_cell_length_a   9.84873829
_cell_length_b   9.83933115
_cell_length_c   11.15926812
_cell_angle_alpha   90.22298189
_cell_angle_beta   102.02070454
_cell_angle_gamma   89.95872337
_symmetry_Int_Tables_number   1
_chemical_formula_structural   Li3Fe2(P2O7)2
_chemical_formula_sum   'Li12 Fe8 P16 O56'
_cell_volume   1057.66857877
_cell_formula_units_Z   4
loop_
 _symmetry_equiv_pos_site_id
 _symmetry_equiv_pos_as_xyz
  1  'x, y, z'
loop_
 _atom_site_type_symbol
 _atom_site_label
 _atom_site_symmetry_multiplicity
 _atom_site_fract_x
 _atom_site_fract_y
 _atom_site_fract_z
 _atom_site_occupancy
  Li  Li0  1  0.122263  0.716122  0.451982  1
  Li  Li1  1  0.086703  0.107349  0.027462  1
  Li  Li2  1  0.148271  0.399768  0.040331  1
  Li  Li3  1  0.413756  0.613539  0.969910  1
  Li  Li4  1  0.379593  0.213319  0.551157  1
  Li  Li5  1  0.608882  0.782883  0.453770  1
  Li  Li6  1  0.661629  0.071056  0.533898  1
  Li  Li7  1  0.588398  0.396298  0.028576  1
  Li  Li8  1  0.646771  0.091673  0.044137  1
  Li  Li9  1  0.910694  0.895448  0.971491  1
  Li  Li10  1  0.842720  0.569911  0.465874  1
  Li  Li11  1  0.895138  0.279213  0.549385  1
  Fe  Fe12  1  0.210484  0.925797  0.675377  1
  Fe  Fe13  1  0.251676  0.207910  0.821528  1
  Fe  Fe14  1  0.249385  0.710586  0.174036  1
  Fe  Fe15  1  0.292939  0.423699  0.335288  1
  Fe  Fe16  1  0.705970  0.575105  0.685128  1
  Fe  Fe17  1  0.755911  0.289642  0.824741  1
  Fe  Fe18  1  0.742375  0.786399  0.167551  1
  Fe  Fe19  1  0.799885  0.070959  0.323008  1
  P  P20  1  0.023957  0.450137  0.754938  1
  P  P21  1  0.118105  0.712581  0.881991  1
  P  P22  1  0.058877  0.923781  0.239911  1
  P  P23  1  0.124509  0.146883  0.427697  1
  P  P24  1  0.377904  0.648663  0.575510  1
  P  P25  1  0.439618  0.426955  0.759481  1
  P  P26  1  0.526166  0.052158  0.757137  1
  P  P27  1  0.379760  0.209552  0.115686  1
  P  P28  1  0.619786  0.796532  0.882141  1
  P  P29  1  0.476359  0.950201  0.245506  1
  P  P30  1  0.559473  0.572306  0.243723  1
  P  P31  1  0.620038  0.353012  0.426880  1
  P  P32  1  0.880350  0.848443  0.578129  1
  P  P33  1  0.937653  0.070302  0.757102  1
  P  P34  1  0.879182  0.293057  0.112446  1
  P  P35  1  0.974104  0.550551  0.242760  1
  O  O36  1  0.022829  0.413581  0.624205  1
  O  O37  1  0.031067  0.840639  0.561698  1
  O  O38  1  0.085501  0.080170  0.729784  1
  O  O39  1  0.098060  0.596971  0.776979  1
  O  O40  1  0.108757  0.359362  0.855293  1
  O  O41  1  0.188388  0.826358  0.823185  1
  O  O42  1  0.221635  0.650778  0.999070  1
  O  O43  1  0.021106  0.271629  0.083890  1
  O  O44  1  0.125501  0.061136  0.304208  1
  O  O45  1  0.062465  0.938155  0.106304  1
  O  O46  1  0.127368  0.532452  0.216102  1
  O  O47  1  0.195339  0.281851  0.405571  1
  O  O48  1  0.156722  0.804054  0.293714  1
  O  O49  1  0.216537  0.071692  0.534541  1
  O  O50  1  0.288401  0.572043  0.466516  1
  O  O51  1  0.346774  0.310178  0.699384  1
  O  O52  1  0.306644  0.784216  0.590960  1
  O  O53  1  0.373339  0.034235  0.775049  1
  O  O54  1  0.374674  0.566147  0.698070  1
  O  O55  1  0.439039  0.440785  0.893804  1
  O  O56  1  0.483226  0.765899  0.913361  1
  O  O57  1  0.270496  0.160157  0.003599  1
  O  O58  1  0.317150  0.331958  0.174819  1
  O  O59  1  0.395670  0.093443  0.219255  1
  O  O60  1  0.406560  0.585236  0.265596  1
  O  O61  1  0.383576  0.846204  0.160275  1
  O  O62  1  0.468709  0.346138  0.443296  1
  O  O63  1  0.530224  0.097552  0.628764  1
  O  O64  1  0.490356  0.924586  0.379702  1
  O  O65  1  0.532080  0.660826  0.568201  1
  O  O66  1  0.611436  0.139999  0.859377  1
  O  O67  1  0.587917  0.418119  0.730021  1
  O  O68  1  0.596303  0.904141  0.769343  1
  O  O69  1  0.688605  0.677659  0.826137  1
  O  O70  1  0.722412  0.865478  0.990346  1
  O  O71  1  0.519752  0.232888  0.086467  1
  O  O72  1  0.564681  0.570768  0.109944  1
  O  O73  1  0.612225  0.424468  0.295489  1
  O  O74  1  0.618006  0.962141  0.203609  1
  O  O75  1  0.684962  0.213966  0.417298  1
  O  O76  1  0.659252  0.677609  0.316262  1
  O  O77  1  0.716493  0.441588  0.522675  1
  O  O78  1  0.782468  0.931896  0.480562  1
  O  O79  1  0.836287  0.176257  0.686466  1
  O  O80  1  0.815454  0.706912  0.588953  1
  O  O81  1  0.870916  0.465428  0.776599  1
  O  O82  1  0.933008  0.071283  0.891392  1
  O  O83  1  0.881717  0.921952  0.706901  1
  O  O84  1  0.981798  0.742569  0.913387  1
  O  O85  1  0.773380  0.351526  0.002812  1
  O  O86  1  0.815831  0.169529  0.163286  1
  O  O87  1  0.889343  0.645956  0.150102  1
  O  O88  1  0.900290  0.403343  0.224143  1
  O  O89  1  0.914302  0.906734  0.269888  1
  O  O90  1  0.973871  0.164301  0.438250  1
  O  O91  1  0.981258  0.585742  0.375847  1
