# generated using pymatgen
data_Fe3O5F
_symmetry_space_group_name_H-M   'P 1'
_cell_length_a   7.20218417
_cell_length_b   5.55795703
_cell_length_c   5.54129945
_cell_angle_alpha   72.58001909
_cell_angle_beta   71.48429740
_cell_angle_gamma   71.76666368
_symmetry_Int_Tables_number   1
_chemical_formula_structural   Fe3O5F
_chemical_formula_sum   'Fe6 O10 F2'
_cell_volume   194.78372234
_cell_formula_units_Z   2
loop_
 _symmetry_equiv_pos_site_id
 _symmetry_equiv_pos_as_xyz
  1  'x, y, z'
loop_
 _atom_site_type_symbol
 _atom_site_label
 _atom_site_symmetry_multiplicity
 _atom_site_fract_x
 _atom_site_fract_y
 _atom_site_fract_z
 _atom_site_occupancy
  Fe  Fe0  1  0.827982  0.667173  0.680039  1
  Fe  Fe1  1  0.667171  0.334578  0.341632  1
  Fe  Fe2  1  0.330291  0.649119  0.658644  1
  Fe  Fe3  1  0.171515  0.315603  0.330902  1
  Fe  Fe4  1  0.510171  0.003618  0.010240  1
  Fe  Fe5  1  0.990683  0.024676  0.978155  1
  O  O6  1  0.665396  0.025196  0.654015  1
  O  O7  1  0.331659  0.351940  0.972422  1
  O  O8  1  0.958330  0.238338  0.231026  1
  O  O9  1  0.628142  0.558918  0.566692  1
  O  O10  1  0.040285  0.771786  0.764488  1
  O  O11  1  0.376215  0.418315  0.429838  1
  O  O12  1  0.701097  0.114560  0.115749  1
  O  O13  1  0.336600  0.957406  0.356577  1
  O  O14  1  0.660646  0.648505  0.037180  1
  O  O15  1  0.002976  0.317618  0.680358  1
  F  F16  1  0.296523  0.897776  0.897368  1
  F  F17  1  0.004320  0.704873  0.294675  1
