# generated using pymatgen
data_K4Li3Nb18P12(WO42)2
_symmetry_space_group_name_H-M   'P 1'
_cell_length_a   15.85213865
_cell_length_b   10.57971420
_cell_length_c   10.64673050
_cell_angle_alpha   90.00000000
_cell_angle_beta   90.00000000
_cell_angle_gamma   90.11615064
_symmetry_Int_Tables_number   1
_chemical_formula_structural   K4Li3Nb18P12(WO42)2
_chemical_formula_sum   'K4 Li3 Nb18 P12 W2 O84'
_cell_volume   1785.57117547
_cell_formula_units_Z   1
loop_
 _symmetry_equiv_pos_site_id
 _symmetry_equiv_pos_as_xyz
  1  'x, y, z'
loop_
 _atom_site_type_symbol
 _atom_site_label
 _atom_site_symmetry_multiplicity
 _atom_site_fract_x
 _atom_site_fract_y
 _atom_site_fract_z
 _atom_site_occupancy
  K  K0  1  0.000116  0.502108  0.000000  1
  K  K1  1  0.008061  0.391130  0.500000  1
  K  K2  1  0.500082  0.000764  0.000000  1
  K  K3  1  0.594413  0.003623  0.500000  1
  Li  Li4  1  0.033908  0.808071  0.500000  1
  Li  Li5  1  0.464892  0.310182  0.500000  1
  Li  Li6  1  0.533874  0.687448  0.500000  1
  Nb  Nb7  1  0.216699  0.827929  0.500000  1
  Nb  Nb8  1  0.222893  0.430377  0.176922  1
  Nb  Nb9  1  0.222893  0.430377  0.823078  1
  Nb  Nb10  1  0.279432  0.927414  0.175041  1
  Nb  Nb11  1  0.279432  0.927414  0.824959  1
  Nb  Nb12  1  0.282467  0.325756  0.500000  1
  Nb  Nb13  1  0.423497  0.635810  0.180930  1
  Nb  Nb14  1  0.423497  0.635810  0.819070  1
  Nb  Nb15  1  0.578414  0.359646  0.180373  1
  Nb  Nb16  1  0.578414  0.359646  0.819627  1
  Nb  Nb17  1  0.717325  0.668463  0.500000  1
  Nb  Nb18  1  0.723419  0.069851  0.176086  1
  Nb  Nb19  1  0.723419  0.069851  0.823914  1
  Nb  Nb20  1  0.778147  0.569874  0.175402  1
  Nb  Nb21  1  0.778147  0.569874  0.824598  1
  Nb  Nb22  1  0.791155  0.171833  0.500000  1
  Nb  Nb23  1  0.922926  0.861780  0.180578  1
  Nb  Nb24  1  0.922926  0.861780  0.819422  1
  P  P25  1  0.119574  0.714708  0.232252  1
  P  P26  1  0.119574  0.714708  0.767748  1
  P  P27  1  0.119689  0.118477  0.500000  1
  P  P28  1  0.378249  0.619028  0.500000  1
  P  P29  1  0.380351  0.214669  0.232096  1
  P  P30  1  0.380351  0.214669  0.767904  1
  P  P31  1  0.619364  0.785166  0.231631  1
  P  P32  1  0.619364  0.785166  0.768369  1
  P  P33  1  0.623004  0.379067  0.500000  1
  P  P34  1  0.877715  0.879218  0.500000  1
  P  P35  1  0.880224  0.285705  0.229968  1
  P  P36  1  0.880224  0.285705  0.770032  1
  W  W37  1  0.077125  0.142491  0.181174  1
  W  W38  1  0.077125  0.142491  0.818826  1
  O  O39  1  0.000878  0.003708  0.204425  1
  O  O40  1  0.000878  0.003708  0.795575  1
  O  O41  1  0.030845  0.738089  0.818498  1
  O  O42  1  0.030845  0.738089  0.181502  1
  O  O43  1  0.071979  0.128450  0.000000  1
  O  O44  1  0.074353  0.172794  0.381952  1
  O  O45  1  0.074353  0.172794  0.618048  1
  O  O46  1  0.120523  0.972160  0.500000  1
  O  O47  1  0.123975  0.740469  0.375832  1
  O  O48  1  0.123975  0.740469  0.624168  1
  O  O49  1  0.134263  0.308882  0.163477  1
  O  O50  1  0.134263  0.308882  0.836523  1
  O  O51  1  0.138846  0.572319  0.206991  1
  O  O52  1  0.138846  0.572319  0.793009  1
  O  O53  1  0.174780  0.058185  0.203305  1
  O  O54  1  0.174780  0.058185  0.796695  1
  O  O55  1  0.185913  0.796165  0.162564  1
  O  O56  1  0.185913  0.796165  0.837436  1
  O  O57  1  0.213058  0.166855  0.500000  1
  O  O58  1  0.226242  0.399601  0.367566  1
  O  O59  1  0.226242  0.399601  0.632434  1
  O  O60  1  0.227054  0.466673  0.000000  1
  O  O61  1  0.268285  0.971546  0.000000  1
  O  O62  1  0.270529  0.902395  0.365851  1
  O  O63  1  0.270529  0.902395  0.634149  1
  O  O64  1  0.285672  0.668333  0.500000  1
  O  O65  1  0.313454  0.295784  0.162518  1
  O  O66  1  0.313454  0.295784  0.837482  1
  O  O67  1  0.320705  0.555288  0.207425  1
  O  O68  1  0.320705  0.555288  0.792575  1
  O  O69  1  0.359584  0.072892  0.206753  1
  O  O70  1  0.359584  0.072892  0.793247  1
  O  O71  1  0.365359  0.811892  0.160426  1
  O  O72  1  0.365359  0.811892  0.839574  1
  O  O73  1  0.376069  0.241169  0.375488  1
  O  O74  1  0.376069  0.241169  0.624512  1
  O  O75  1  0.376866  0.472225  0.500000  1
  O  O76  1  0.428323  0.670827  0.385558  1
  O  O77  1  0.428323  0.670827  0.614442  1
  O  O78  1  0.427353  0.622755  0.000000  1
  O  O79  1  0.468925  0.236572  0.181049  1
  O  O80  1  0.468925  0.236572  0.818951  1
  O  O81  1  0.499819  0.499077  0.210518  1
  O  O82  1  0.499819  0.499077  0.789482  1
  O  O83  1  0.530651  0.762894  0.180807  1
  O  O84  1  0.530651  0.762894  0.819194  1
  O  O85  1  0.572576  0.377258  0.000000  1
  O  O86  1  0.571847  0.327426  0.613986  1
  O  O87  1  0.571847  0.327426  0.386014  1
  O  O88  1  0.622520  0.526816  0.500000  1
  O  O89  1  0.623306  0.761511  0.376413  1
  O  O90  1  0.623306  0.761511  0.623587  1
  O  O91  1  0.635723  0.187724  0.162722  1
  O  O92  1  0.635723  0.187724  0.837278  1
  O  O93  1  0.638713  0.928272  0.209390  1
  O  O94  1  0.638713  0.928272  0.790610  1
  O  O95  1  0.678673  0.443834  0.208869  1
  O  O96  1  0.678673  0.443834  0.791131  1
  O  O97  1  0.686010  0.704436  0.162856  1
  O  O98  1  0.686010  0.704436  0.837144  1
  O  O99  1  0.715253  0.331497  0.500000  1
  O  O100  1  0.728822  0.101155  0.368264  1
  O  O101  1  0.728822  0.101155  0.631736  1
  O  O102  1  0.729608  0.028717  0.000000  1
  O  O103  1  0.769827  0.528818  0.000000  1
  O  O104  1  0.773152  0.597881  0.366815  1
  O  O105  1  0.773152  0.597881  0.633185  1
  O  O106  1  0.784787  0.831009  0.500000  1
  O  O107  1  0.815198  0.204028  0.159459  1
  O  O108  1  0.815198  0.204028  0.840541  1
  O  O109  1  0.822057  0.944677  0.208782  1
  O  O110  1  0.822057  0.944677  0.791218  1
  O  O111  1  0.863519  0.427787  0.202847  1
  O  O112  1  0.863519  0.427787  0.797153  1
  O  O113  1  0.864262  0.689034  0.161223  1
  O  O114  1  0.864262  0.689034  0.838777  1
  O  O115  1  0.874895  0.263716  0.626936  1
  O  O116  1  0.874895  0.263716  0.373064  1
  O  O117  1  0.874636  0.025429  0.500000  1
  O  O118  1  0.928363  0.829393  0.385576  1
  O  O119  1  0.928363  0.829393  0.614424  1
  O  O120  1  0.927859  0.877604  0.000000  1
  O  O121  1  0.970626  0.260715  0.182132  1
  O  O122  1  0.970626  0.260715  0.817868  1
