# generated using pymatgen
data_Co3OF5
_symmetry_space_group_name_H-M   'P 1'
_cell_length_a   4.71915293
_cell_length_b   7.90528282
_cell_length_c   5.69472078
_cell_angle_alpha   92.64153014
_cell_angle_beta   91.72217634
_cell_angle_gamma   88.53202943
_symmetry_Int_Tables_number   1
_chemical_formula_structural   Co3OF5
_chemical_formula_sum   'Co6 O2 F10'
_cell_volume   212.06452588
_cell_formula_units_Z   2
loop_
 _symmetry_equiv_pos_site_id
 _symmetry_equiv_pos_as_xyz
  1  'x, y, z'
loop_
 _atom_site_type_symbol
 _atom_site_label
 _atom_site_symmetry_multiplicity
 _atom_site_fract_x
 _atom_site_fract_y
 _atom_site_fract_z
 _atom_site_occupancy
  Co  Co0  1  0.500000  0.000000  0.500000  1
  Co  Co1  1  0.484293  0.336991  0.820313  1
  Co  Co2  1  0.515707  0.663009  0.179687  1
  Co  Co3  1  0.971408  0.676834  0.650412  1
  Co  Co4  1  0.028592  0.323166  0.349588  1
  Co  Co5  1  0.000000  0.000000  0.000000  1
  O  O6  1  0.701194  0.769983  0.468624  1
  O  O7  1  0.298806  0.230017  0.531377  1
  F  F8  1  0.806309  0.436055  0.630490  1
  F  F9  1  0.805886  0.763992  0.963936  1
  F  F10  1  0.804361  0.105059  0.295912  1
  F  F11  1  0.695364  0.103538  0.799083  1
  F  F12  1  0.705709  0.427124  0.135808  1
  F  F13  1  0.294291  0.572876  0.864192  1
  F  F14  1  0.304636  0.896462  0.200917  1
  F  F15  1  0.194114  0.236008  0.036064  1
  F  F16  1  0.195639  0.894941  0.704088  1
  F  F17  1  0.193691  0.563945  0.369510  1
