# generated using pymatgen
data_Sr9La5Br33
_symmetry_space_group_name_H-M   'P 1'
_cell_length_a   12.01773447
_cell_length_b   11.97637317
_cell_length_c   22.84693341
_cell_angle_alpha   100.04143006
_cell_angle_beta   80.42970894
_cell_angle_gamma   70.89739618
_symmetry_Int_Tables_number   1
_chemical_formula_structural   Sr9La5Br33
_chemical_formula_sum   'Sr18 La10 Br66'
_cell_volume   2970.22900795
_cell_formula_units_Z   2
loop_
 _symmetry_equiv_pos_site_id
 _symmetry_equiv_pos_as_xyz
  1  'x, y, z'
loop_
 _atom_site_type_symbol
 _atom_site_label
 _atom_site_symmetry_multiplicity
 _atom_site_fract_x
 _atom_site_fract_y
 _atom_site_fract_z
 _atom_site_occupancy
  Sr  Sr0  1  0.751826  0.922364  0.929718  1
  Sr  Sr1  1  0.910848  0.319290  0.968858  1
  Sr  Sr2  1  0.979363  0.473843  0.193688  1
  Sr  Sr3  1  0.734206  0.867455  0.338086  1
  Sr  Sr4  1  0.867025  0.244896  0.378309  1
  Sr  Sr5  1  0.597888  0.681498  0.540053  1
  Sr  Sr6  1  0.754035  0.071673  0.563234  1
  Sr  Sr7  1  0.645308  0.761287  0.120750  1
  Sr  Sr8  1  0.778719  0.133825  0.157697  1
  Sr  Sr9  1  0.221281  0.866175  0.842303  1
  Sr  Sr10  1  0.354692  0.238713  0.879250  1
  Sr  Sr11  1  0.245965  0.928327  0.436766  1
  Sr  Sr12  1  0.402112  0.318502  0.459947  1
  Sr  Sr13  1  0.132975  0.755104  0.621691  1
  Sr  Sr14  1  0.265794  0.132545  0.661914  1
  Sr  Sr15  1  0.020637  0.526157  0.806312  1
  Sr  Sr16  1  0.089152  0.680710  0.031142  1
  Sr  Sr17  1  0.248174  0.077636  0.070282  1
  La  La18  1  0.955642  0.380490  0.586000  1
  La  La19  1  0.859876  0.178065  0.765467  1
  La  La20  1  0.647261  0.857064  0.733807  1
  La  La21  1  0.543904  0.627171  0.926963  1
  La  La22  1  0.460003  0.463464  0.686362  1
  La  La23  1  0.539997  0.536536  0.313638  1
  La  La24  1  0.456096  0.372829  0.073037  1
  La  La25  1  0.352739  0.142936  0.266193  1
  La  La26  1  0.140124  0.821935  0.234533  1
  La  La27  1  0.044358  0.619510  0.414000  1
  Br  Br28  1  0.861536  0.771435  0.787120  1
  Br  Br29  1  0.851017  0.944633  0.672227  1
  Br  Br30  1  0.795322  0.624385  0.918304  1
  Br  Br31  1  0.953336  0.737896  0.193541  1
  Br  Br32  1  0.991198  0.156452  0.635795  1
  Br  Br33  1  0.927570  0.058822  0.876131  1
  Br  Br34  1  0.813418  0.655423  0.624651  1
  Br  Br35  1  0.814208  0.446944  0.739696  1
  Br  Br36  1  0.773414  0.813206  0.476462  1
  Br  Br37  1  0.881072  0.587247  0.335208  1
  Br  Br38  1  0.878392  0.477279  0.471314  1
  Br  Br39  1  0.959244  0.154082  0.485811  1
  Br  Br40  1  0.706222  0.355317  0.883782  1
  Br  Br41  1  0.816146  0.886625  0.060305  1
  Br  Br42  1  0.541393  0.823905  0.857488  1
  Br  Br43  1  0.893969  0.555059  0.072255  1
  Br  Br44  1  0.566377  0.948577  0.625190  1
  Br  Br45  1  0.960761  0.244524  0.093442  1
  Br  Br46  1  0.696104  0.394484  0.587888  1
  Br  Br47  1  0.626928  0.976587  0.223826  1
  Br  Br48  1  0.797790  0.345295  0.262977  1
  Br  Br49  1  0.685168  0.659458  0.237777  1
  Br  Br50  1  0.875701  0.036730  0.275781  1
  Br  Br51  1  0.642445  0.245451  0.708309  1
  Br  Br52  1  0.496959  0.706947  0.690298  1
  Br  Br53  1  0.642443  0.079999  0.825207  1
  Br  Br54  1  0.534756  0.756037  0.408532  1
  Br  Br55  1  0.433504  0.573969  0.821269  1
  Br  Br56  1  0.608910  0.447167  0.426621  1
  Br  Br57  1  0.280380  0.803695  0.970853  1
  Br  Br58  1  0.385902  0.468956  0.961728  1
  Br  Br59  1  0.681231  0.122760  0.436864  1
  Br  Br60  1  0.469193  0.143680  0.980887  1
  Br  Br61  1  0.530807  0.856320  0.019113  1
  Br  Br62  1  0.318769  0.877240  0.563136  1
  Br  Br63  1  0.614098  0.531044  0.038272  1
  Br  Br64  1  0.719620  0.196305  0.029147  1
  Br  Br65  1  0.391090  0.552833  0.573379  1
  Br  Br66  1  0.566496  0.426031  0.178731  1
  Br  Br67  1  0.465244  0.243963  0.591468  1
  Br  Br68  1  0.357557  0.920001  0.174793  1
  Br  Br69  1  0.503041  0.293053  0.309702  1
  Br  Br70  1  0.357555  0.754549  0.291691  1
  Br  Br71  1  0.124299  0.963270  0.724219  1
  Br  Br72  1  0.314833  0.340542  0.762223  1
  Br  Br73  1  0.202210  0.654705  0.737023  1
  Br  Br74  1  0.373072  0.023413  0.776174  1
  Br  Br75  1  0.303896  0.605516  0.412112  1
  Br  Br76  1  0.039239  0.755476  0.906558  1
  Br  Br77  1  0.433623  0.051423  0.374810  1
  Br  Br78  1  0.106031  0.444941  0.927745  1
  Br  Br79  1  0.458606  0.176095  0.142512  1
  Br  Br80  1  0.183854  0.113375  0.939695  1
  Br  Br81  1  0.293778  0.644683  0.116218  1
  Br  Br82  1  0.040756  0.845918  0.514189  1
  Br  Br83  1  0.121608  0.522721  0.528686  1
  Br  Br84  1  0.118928  0.412753  0.664792  1
  Br  Br85  1  0.226586  0.186794  0.523538  1
  Br  Br86  1  0.185792  0.553056  0.260304  1
  Br  Br87  1  0.186582  0.344577  0.375349  1
  Br  Br88  1  0.072430  0.941178  0.123869  1
  Br  Br89  1  0.008802  0.843548  0.364205  1
  Br  Br90  1  0.046664  0.262104  0.806459  1
  Br  Br91  1  0.204678  0.375615  0.081696  1
  Br  Br92  1  0.148983  0.055367  0.327773  1
  Br  Br93  1  0.138464  0.228565  0.212880  1
