# generated using pymatgen
data_S
_symmetry_space_group_name_H-M   'P 1'
_cell_length_a   6.67754049
_cell_length_b   16.64397353
_cell_length_c   16.70245250
_cell_angle_alpha   93.12901929
_cell_angle_beta   90.00000000
_cell_angle_gamma   90.00000000
_symmetry_Int_Tables_number   1
_chemical_formula_structural   S
_chemical_formula_sum   S56
_cell_volume   1853.55655621
_cell_formula_units_Z   56
loop_
 _symmetry_equiv_pos_site_id
 _symmetry_equiv_pos_as_xyz
  1  'x, y, z'
loop_
 _atom_site_type_symbol
 _atom_site_label
 _atom_site_symmetry_multiplicity
 _atom_site_fract_x
 _atom_site_fract_y
 _atom_site_fract_z
 _atom_site_occupancy
  S  S0  1  0.915621  0.516392  0.213486  1
  S  S1  1  0.415621  0.983608  0.286514  1
  S  S2  1  0.084379  0.483608  0.786514  1
  S  S3  1  0.584379  0.016392  0.713486  1
  S  S4  1  0.186192  0.617388  0.573145  1
  S  S5  1  0.686192  0.882612  0.926855  1
  S  S6  1  0.813808  0.382612  0.426855  1
  S  S7  1  0.313808  0.117388  0.073145  1
  S  S8  1  0.874810  0.821450  0.582616  1
  S  S9  1  0.374810  0.678550  0.917384  1
  S  S10  1  0.125190  0.178550  0.417384  1
  S  S11  1  0.625190  0.321450  0.082616  1
  S  S12  1  0.868585  0.616561  0.558168  1
  S  S13  1  0.368585  0.883439  0.941832  1
  S  S14  1  0.131415  0.383439  0.441832  1
  S  S15  1  0.631415  0.116561  0.058168  1
  S  S16  1  0.754829  0.780236  0.680540  1
  S  S17  1  0.254829  0.719764  0.819460  1
  S  S18  1  0.245171  0.219764  0.319460  1
  S  S19  1  0.745171  0.280236  0.180540  1
  S  S20  1  0.748821  0.646005  0.663987  1
  S  S21  1  0.248821  0.853995  0.836013  1
  S  S22  1  0.251179  0.353995  0.336013  1
  S  S23  1  0.751179  0.146005  0.163987  1
  S  S24  1  0.826653  0.573170  0.113828  1
  S  S25  1  0.326653  0.926830  0.386172  1
  S  S26  1  0.173347  0.426830  0.886172  1
  S  S27  1  0.673347  0.073170  0.613828  1
  S  S28  1  0.850949  0.591868  0.311199  1
  S  S29  1  0.350949  0.908132  0.188801  1
  S  S30  1  0.149051  0.408132  0.688801  1
  S  S31  1  0.649051  0.091868  0.811199  1
  S  S32  1  0.508314  0.560790  0.117322  1
  S  S33  1  0.008314  0.939210  0.382678  1
  S  S34  1  0.491686  0.439210  0.882678  1
  S  S35  1  0.991686  0.060790  0.617322  1
  S  S36  1  0.533353  0.579937  0.321707  1
  S  S37  1  0.033353  0.920063  0.178293  1
  S  S38  1  0.466647  0.420063  0.678293  1
  S  S39  1  0.966647  0.079937  0.821707  1
  S  S40  1  0.396367  0.667349  0.150947  1
  S  S41  1  0.896367  0.832651  0.349053  1
  S  S42  1  0.603633  0.332651  0.849053  1
  S  S43  1  0.103633  0.167349  0.650947  1
  S  S44  1  0.412184  0.679779  0.284711  1
  S  S45  1  0.912184  0.820221  0.215289  1
  S  S46  1  0.587816  0.320221  0.715289  1
  S  S47  1  0.087816  0.179779  0.784711  1
  S  S48  1  0.268949  0.719871  0.519375  1
  S  S49  1  0.768949  0.780129  0.980625  1
  S  S50  1  0.731051  0.280129  0.480625  1
  S  S51  1  0.231051  0.219871  0.019375  1
  S  S52  1  0.192747  0.815360  0.596012  1
  S  S53  1  0.692747  0.684640  0.903988  1
  S  S54  1  0.807253  0.184640  0.403988  1
  S  S55  1  0.307253  0.315360  0.096012  1
