# generated using pymatgen
data_Li2Mn(Si2O5)2
_symmetry_space_group_name_H-M   'P 1'
_cell_length_a   9.73734890
_cell_length_b   7.71114717
_cell_length_c   6.96097161
_cell_angle_alpha   63.82490893
_cell_angle_beta   78.37324800
_cell_angle_gamma   100.07929720
_symmetry_Int_Tables_number   1
_chemical_formula_structural   Li2Mn(Si2O5)2
_chemical_formula_sum   'Li4 Mn2 Si8 O20'
_cell_volume   438.25218078
_cell_formula_units_Z   2
loop_
 _symmetry_equiv_pos_site_id
 _symmetry_equiv_pos_as_xyz
  1  'x, y, z'
loop_
 _atom_site_type_symbol
 _atom_site_label
 _atom_site_symmetry_multiplicity
 _atom_site_fract_x
 _atom_site_fract_y
 _atom_site_fract_z
 _atom_site_occupancy
  Li  Li0  1  0.074835  0.250665  0.608217  1
  Li  Li1  1  0.561901  0.675422  0.803106  1
  Li  Li2  1  0.438099  0.324578  0.196894  1
  Li  Li3  1  0.925165  0.749335  0.391783  1
  Mn  Mn4  1  0.424323  0.306102  0.752670  1
  Mn  Mn5  1  0.575677  0.693898  0.247330  1
  Si  Si6  1  0.181391  0.935712  0.766875  1
  Si  Si7  1  0.256456  0.635991  0.617270  1
  Si  Si8  1  0.237994  0.607970  0.194937  1
  Si  Si9  1  0.145664  0.276568  0.104738  1
  Si  Si10  1  0.854336  0.723432  0.895262  1
  Si  Si11  1  0.762006  0.392030  0.805063  1
  Si  Si12  1  0.743544  0.364009  0.382730  1
  Si  Si13  1  0.818609  0.064288  0.233125  1
  O  O14  1  0.004912  0.916715  0.786381  1
  O  O15  1  0.141634  0.447241  0.858435  1
  O  O16  1  0.248773  0.851895  0.600962  1
  O  O17  1  0.184020  0.611251  0.432906  1
  O  O18  1  0.191398  0.792869  0.017425  1
  O  O19  1  0.125152  0.383131  0.268164  1
  O  O20  1  0.422843  0.622092  0.577387  1
  O  O21  1  0.254701  0.173182  0.666074  1
  O  O22  1  0.705514  0.782445  0.913758  1
  O  O23  1  0.593719  0.385376  0.887038  1
  O  O24  1  0.406281  0.614624  0.112962  1
  O  O25  1  0.294486  0.217555  0.086242  1
  O  O26  1  0.745300  0.826818  0.333926  1
  O  O27  1  0.577157  0.377908  0.422613  1
  O  O28  1  0.874848  0.616869  0.731836  1
  O  O29  1  0.808602  0.207131  0.982575  1
  O  O30  1  0.815980  0.388749  0.567094  1
  O  O31  1  0.751227  0.148105  0.399038  1
  O  O32  1  0.858366  0.552759  0.141565  1
  O  O33  1  0.995088  0.083285  0.213619  1
