# generated using pymatgen
data_LiCrPH2O5
_symmetry_space_group_name_H-M   'P 1'
_cell_length_a   10.40504570
_cell_length_b   17.28840879
_cell_length_c   5.03216973
_cell_angle_alpha   90.00000000
_cell_angle_beta   90.00000000
_cell_angle_gamma   90.00000000
_symmetry_Int_Tables_number   1
_chemical_formula_structural   LiCrPH2O5
_chemical_formula_sum   'Li8 Cr8 P8 H16 O40'
_cell_volume   905.22032374
_cell_formula_units_Z   8
loop_
 _symmetry_equiv_pos_site_id
 _symmetry_equiv_pos_as_xyz
  1  'x, y, z'
loop_
 _atom_site_type_symbol
 _atom_site_label
 _atom_site_symmetry_multiplicity
 _atom_site_fract_x
 _atom_site_fract_y
 _atom_site_fract_z
 _atom_site_occupancy
  Li  Li0  1  0.174389  0.494828  0.465377  1
  Li  Li1  1  0.174389  0.994828  0.534623  1
  Li  Li2  1  0.398079  0.245894  0.911186  1
  Li  Li3  1  0.398079  0.745894  0.088814  1
  Li  Li4  1  0.674389  0.005172  0.465377  1
  Li  Li5  1  0.674389  0.505172  0.534623  1
  Li  Li6  1  0.898079  0.754106  0.088814  1
  Li  Li7  1  0.898079  0.254106  0.911186  1
  Cr  Cr8  1  0.146420  0.191001  0.560312  1
  Cr  Cr9  1  0.146420  0.691001  0.439688  1
  Cr  Cr10  1  0.424772  0.441385  0.876502  1
  Cr  Cr11  1  0.424772  0.941385  0.123498  1
  Cr  Cr12  1  0.646420  0.308999  0.560312  1
  Cr  Cr13  1  0.646420  0.808999  0.439688  1
  Cr  Cr14  1  0.924772  0.558615  0.123498  1
  Cr  Cr15  1  0.924772  0.058615  0.876502  1
  P  P16  1  0.232732  0.091077  0.030184  1
  P  P17  1  0.232732  0.591077  0.969816  1
  P  P18  1  0.339398  0.340624  0.406490  1
  P  P19  1  0.339398  0.840624  0.593510  1
  P  P20  1  0.732732  0.408923  0.030184  1
  P  P21  1  0.732732  0.908923  0.969816  1
  P  P22  1  0.839398  0.659376  0.593510  1
  P  P23  1  0.839398  0.159376  0.406490  1
  H  H24  1  0.001032  0.370993  0.084957  1
  H  H25  1  0.001032  0.870993  0.915043  1
  H  H26  1  0.053557  0.381336  0.633060  1
  H  H27  1  0.053557  0.881336  0.366940  1
  H  H28  1  0.109713  0.310399  0.137349  1
  H  H29  1  0.109713  0.810399  0.862651  1
  H  H30  1  0.449778  0.054700  0.633551  1
  H  H31  1  0.449778  0.554700  0.366449  1
  H  H32  1  0.501032  0.129007  0.084957  1
  H  H33  1  0.501032  0.629007  0.915043  1
  H  H34  1  0.553557  0.118664  0.633060  1
  H  H35  1  0.553557  0.618664  0.366940  1
  H  H36  1  0.609713  0.189601  0.137349  1
  H  H37  1  0.609713  0.689601  0.862651  1
  H  H38  1  0.949778  0.445300  0.633551  1
  H  H39  1  0.949778  0.945300  0.366449  1
  O  O40  1  0.024375  0.426889  0.532175  1
  O  O41  1  0.024375  0.926889  0.467825  1
  O  O42  1  0.040738  0.324172  0.009697  1
  O  O43  1  0.040738  0.824172  0.990303  1
  O  O44  1  0.124272  0.048265  0.872632  1
  O  O45  1  0.124272  0.548265  0.127368  1
  O  O46  1  0.194419  0.093497  0.326633  1
  O  O47  1  0.194419  0.593497  0.673367  1
  O  O48  1  0.210000  0.797401  0.566704  1
  O  O49  1  0.210000  0.297401  0.433296  1
  O  O50  1  0.249338  0.173853  0.907707  1
  O  O51  1  0.249338  0.673853  0.092293  1
  O  O52  1  0.323348  0.924127  0.475187  1
  O  O53  1  0.323348  0.424127  0.524813  1
  O  O54  1  0.361899  0.047742  0.994004  1
  O  O55  1  0.361899  0.547742  0.005996  1
  O  O56  1  0.379723  0.343859  0.111144  1
  O  O57  1  0.379723  0.843859  0.888856  1
  O  O58  1  0.446427  0.297438  0.566851  1
  O  O59  1  0.446427  0.797438  0.433149  1
  O  O60  1  0.524375  0.073111  0.532175  1
  O  O61  1  0.524375  0.573111  0.467825  1
  O  O62  1  0.540738  0.175828  0.009697  1
  O  O63  1  0.540738  0.675828  0.990303  1
  O  O64  1  0.624272  0.951735  0.127368  1
  O  O65  1  0.624272  0.451735  0.872632  1
  O  O66  1  0.694419  0.906503  0.673367  1
  O  O67  1  0.694419  0.406503  0.326633  1
  O  O68  1  0.710000  0.202599  0.433296  1
  O  O69  1  0.710000  0.702599  0.566704  1
  O  O70  1  0.749338  0.326147  0.907707  1
  O  O71  1  0.749338  0.826147  0.092293  1
  O  O72  1  0.823348  0.575873  0.475187  1
  O  O73  1  0.823348  0.075873  0.524813  1
  O  O74  1  0.861899  0.452258  0.994004  1
  O  O75  1  0.861899  0.952258  0.005996  1
  O  O76  1  0.879723  0.656141  0.888856  1
  O  O77  1  0.879723  0.156141  0.111144  1
  O  O78  1  0.946427  0.702562  0.433149  1
  O  O79  1  0.946427  0.202562  0.566851  1
