# generated using pymatgen
data_LiNd9Mo16O35
_symmetry_space_group_name_H-M   'P 1'
_cell_length_a   10.15639574
_cell_length_b   10.15639574
_cell_length_c   9.90256935
_cell_angle_alpha   79.14377112
_cell_angle_beta   100.85622888
_cell_angle_gamma   129.06176839
_symmetry_Int_Tables_number   1
_chemical_formula_structural   LiNd9Mo16O35
_chemical_formula_sum   'Li1 Nd9 Mo16 O35'
_cell_volume   775.68900712
_cell_formula_units_Z   1
loop_
 _symmetry_equiv_pos_site_id
 _symmetry_equiv_pos_as_xyz
  1  'x, y, z'
loop_
 _atom_site_type_symbol
 _atom_site_label
 _atom_site_symmetry_multiplicity
 _atom_site_fract_x
 _atom_site_fract_y
 _atom_site_fract_z
 _atom_site_occupancy
  Li  Li0  1  0.000000  0.000000  0.000000  1
  Nd  Nd1  1  0.382287  0.072597  0.202353  1
  Nd  Nd2  1  0.072597  0.382287  0.797647  1
  Nd  Nd3  1  0.617712  0.927403  0.797647  1
  Nd  Nd4  1  0.927403  0.617713  0.202353  1
  Nd  Nd5  1  0.701918  0.298082  0.534022  1
  Nd  Nd6  1  0.298082  0.701918  0.465979  1
  Nd  Nd7  1  0.307959  0.692041  0.066925  1
  Nd  Nd8  1  0.692041  0.307959  0.933075  1
  Nd  Nd9  1  0.500000  0.500000  0.000000  1
  Mo  Mo10  1  0.261841  0.062000  0.829383  1
  Mo  Mo11  1  0.062000  0.261840  0.170617  1
  Mo  Mo12  1  0.738160  0.938000  0.170617  1
  Mo  Mo13  1  0.938000  0.738159  0.829383  1
  Mo  Mo14  1  0.211022  0.788977  0.745488  1
  Mo  Mo15  1  0.788978  0.211022  0.254512  1
  Mo  Mo16  1  0.270292  0.046450  0.551437  1
  Mo  Mo17  1  0.046450  0.270291  0.448563  1
  Mo  Mo18  1  0.729708  0.953549  0.448563  1
  Mo  Mo19  1  0.953550  0.729708  0.551437  1
  Mo  Mo20  1  0.009610  0.990390  0.356034  1
  Mo  Mo21  1  0.990390  0.009610  0.643966  1
  Mo  Mo22  1  0.682839  0.686195  0.355998  1
  Mo  Mo23  1  0.686195  0.682840  0.644002  1
  Mo  Mo24  1  0.317159  0.313804  0.644002  1
  Mo  Mo25  1  0.313803  0.317159  0.355998  1
  O  O26  1  0.500000  0.500000  0.500000  1
  O  O27  1  0.439925  0.206084  0.405219  1
  O  O28  1  0.206084  0.439925  0.594781  1
  O  O29  1  0.560075  0.793916  0.594781  1
  O  O30  1  0.793916  0.560075  0.405219  1
  O  O31  1  0.102014  0.897985  0.986732  1
  O  O32  1  0.897986  0.102014  0.013268  1
  O  O33  1  0.506106  0.493894  0.233294  1
  O  O34  1  0.493894  0.506106  0.766706  1
  O  O35  1  0.458354  0.222007  0.693034  1
  O  O36  1  0.222006  0.458355  0.306966  1
  O  O37  1  0.541646  0.777995  0.306966  1
  O  O38  1  0.777994  0.541647  0.693034  1
  O  O39  1  0.393493  0.934436  0.607383  1
  O  O40  1  0.934437  0.393493  0.392616  1
  O  O41  1  0.606507  0.065563  0.392616  1
  O  O42  1  0.065564  0.606507  0.607383  1
  O  O43  1  0.223369  0.425232  0.019597  1
  O  O44  1  0.425233  0.223368  0.980403  1
  O  O45  1  0.776632  0.574767  0.980403  1
  O  O46  1  0.574767  0.776631  0.019597  1
  O  O47  1  0.324818  0.675182  0.811259  1
  O  O48  1  0.675181  0.324818  0.188741  1
  O  O49  1  0.383577  0.947545  0.887829  1
  O  O50  1  0.947546  0.383577  0.112171  1
  O  O51  1  0.616423  0.052454  0.112171  1
  O  O52  1  0.052455  0.616422  0.887829  1
  O  O53  1  0.231309  0.768691  0.231917  1
  O  O54  1  0.768690  0.231309  0.768083  1
  O  O55  1  0.126786  0.873213  0.398139  1
  O  O56  1  0.873213  0.126787  0.601861  1
  O  O57  1  0.143776  0.182613  0.798428  1
  O  O58  1  0.182613  0.143776  0.201572  1
  O  O59  1  0.856224  0.817386  0.201572  1
  O  O60  1  0.817387  0.856224  0.798428  1
