# generated using pymatgen
data_DyGa3
_symmetry_space_group_name_H-M   'P 1'
_cell_length_a   6.26933860
_cell_length_b   6.26933867
_cell_length_c   4.58108069
_cell_angle_alpha   90.00000000
_cell_angle_beta   90.00000000
_cell_angle_gamma   119.99999965
_symmetry_Int_Tables_number   1
_chemical_formula_structural   DyGa3
_chemical_formula_sum   'Dy2 Ga6'
_cell_volume   155.93443526
_cell_formula_units_Z   2
loop_
 _symmetry_equiv_pos_site_id
 _symmetry_equiv_pos_as_xyz
  1  'x, y, z'
loop_
 _atom_site_type_symbol
 _atom_site_label
 _atom_site_symmetry_multiplicity
 _atom_site_fract_x
 _atom_site_fract_y
 _atom_site_fract_z
 _atom_site_occupancy
  Dy  Dy0  1  0.333333  0.666666  0.750001  1
  Dy  Dy1  1  0.666667  0.333332  0.250001  1
  Ga  Ga2  1  0.148715  0.297429  0.250001  1
  Ga  Ga3  1  0.702572  0.851284  0.250001  1
  Ga  Ga4  1  0.148713  0.851284  0.250001  1
  Ga  Ga5  1  0.851286  0.702571  0.750001  1
  Ga  Ga6  1  0.297428  0.148714  0.750001  1
  Ga  Ga7  1  0.851284  0.148714  0.750001  1
