# generated using pymatgen
data_LiFe(Si2O5)2
_symmetry_space_group_name_H-M   'P 1'
_cell_length_a   11.58298577
_cell_length_b   5.25788902
_cell_length_c   7.85418322
_cell_angle_alpha   89.99999093
_cell_angle_beta   74.09598559
_cell_angle_gamma   90.00035923
_symmetry_Int_Tables_number   1
_chemical_formula_structural   LiFe(Si2O5)2
_chemical_formula_sum   'Li2 Fe2 Si8 O20'
_cell_volume   460.02620072
_cell_formula_units_Z   2
loop_
 _symmetry_equiv_pos_site_id
 _symmetry_equiv_pos_as_xyz
  1  'x, y, z'
loop_
 _atom_site_type_symbol
 _atom_site_label
 _atom_site_symmetry_multiplicity
 _atom_site_fract_x
 _atom_site_fract_y
 _atom_site_fract_z
 _atom_site_occupancy
  Li  Li0  1  0.249999  0.254194  0.750002  1
  Li  Li1  1  0.750001  0.745806  0.249998  1
  Fe  Fe2  1  0.250009  0.753819  0.750007  1
  Fe  Fe3  1  0.749991  0.246181  0.249993  1
  Si  Si4  1  0.000087  0.479161  0.705881  1
  Si  Si5  1  0.147694  0.020010  0.146338  1
  Si  Si6  1  0.352306  0.020009  0.353663  1
  Si  Si7  1  0.499914  0.479157  0.794119  1
  Si  Si8  1  0.500086  0.520843  0.205881  1
  Si  Si9  1  0.647694  0.979991  0.646337  1
  Si  Si10  1  0.852306  0.979990  0.853662  1
  Si  Si11  1  0.999913  0.520839  0.294119  1
  O  O12  1  0.000000  0.500000  0.500000  1
  O  O13  1  0.135065  0.514537  0.726181  1
  O  O14  1  0.205935  0.993400  0.933832  1
  O  O15  1  0.044473  0.804346  0.218789  1
  O  O16  1  0.090077  0.304858  0.181040  1
  O  O17  1  0.294068  0.993396  0.566168  1
  O  O18  1  0.364937  0.514531  0.773819  1
  O  O19  1  0.249998  0.984472  0.250002  1
  O  O20  1  0.409923  0.304858  0.318959  1
  O  O21  1  0.544474  0.195651  0.718790  1
  O  O22  1  0.455526  0.804349  0.281210  1
  O  O23  1  0.590077  0.695142  0.681041  1
  O  O24  1  0.500000  0.500000  0.000000  1
  O  O25  1  0.750002  0.015528  0.749998  1
  O  O26  1  0.635063  0.485469  0.226181  1
  O  O27  1  0.705932  0.006604  0.433832  1
  O  O28  1  0.909923  0.695142  0.818960  1
  O  O29  1  0.955527  0.195654  0.781211  1
  O  O30  1  0.794065  0.006600  0.066168  1
  O  O31  1  0.864935  0.485463  0.273819  1
