# generated using pymatgen
data_LiMnVO4
_symmetry_space_group_name_H-M   'P 1'
_cell_length_a   6.02101886
_cell_length_b   6.02101886
_cell_length_c   6.02101886
_cell_angle_alpha   61.33213628
_cell_angle_beta   88.98389138
_cell_angle_gamma   120.16785936
_symmetry_Int_Tables_number   1
_chemical_formula_structural   LiMnVO4
_chemical_formula_sum   'Li2 Mn2 V2 O8'
_cell_volume   155.64481545
_cell_formula_units_Z   2
loop_
 _symmetry_equiv_pos_site_id
 _symmetry_equiv_pos_as_xyz
  1  'x, y, z'
loop_
 _atom_site_type_symbol
 _atom_site_label
 _atom_site_symmetry_multiplicity
 _atom_site_fract_x
 _atom_site_fract_y
 _atom_site_fract_z
 _atom_site_occupancy
  Li  Li0  1  0.500000  0.000000  0.500000  1
  Li  Li1  1  0.000000  0.500000  0.500000  1
  Mn  Mn2  1  0.500000  0.000000  0.000000  1
  Mn  Mn3  1  0.500000  0.500000  0.500000  1
  V  V4  1  0.124739  0.250000  0.125261  1
  V  V5  1  0.875261  0.750000  0.874739  1
  O  O6  1  0.760046  0.007219  0.247174  1
  O  O7  1  0.756990  0.516777  0.226233  1
  O  O8  1  0.243010  0.016777  0.240212  1
  O  O9  1  0.245607  0.492781  0.247174  1
  O  O10  1  0.754393  0.507219  0.752826  1
  O  O11  1  0.756990  0.983223  0.759788  1
  O  O12  1  0.243010  0.483223  0.773767  1
  O  O13  1  0.239954  0.992781  0.752826  1
