# generated using pymatgen
data_LiMnPO4
_symmetry_space_group_name_H-M   'P 1'
_cell_length_a   7.63015831
_cell_length_b   4.98018096
_cell_length_c   18.89728824
_cell_angle_alpha   90.00000000
_cell_angle_beta   88.76414264
_cell_angle_gamma   90.00000000
_symmetry_Int_Tables_number   1
_chemical_formula_structural   LiMnPO4
_chemical_formula_sum   'Li8 Mn8 P8 O32'
_cell_volume   717.92177011
_cell_formula_units_Z   8
loop_
 _symmetry_equiv_pos_site_id
 _symmetry_equiv_pos_as_xyz
  1  'x, y, z'
loop_
 _atom_site_type_symbol
 _atom_site_label
 _atom_site_symmetry_multiplicity
 _atom_site_fract_x
 _atom_site_fract_y
 _atom_site_fract_z
 _atom_site_occupancy
  Li  Li0  1  0.024090  0.758758  0.588465  1
  Li  Li1  1  0.024090  0.741242  0.088465  1
  Li  Li2  1  0.502326  0.329259  0.818178  1
  Li  Li3  1  0.502326  0.170741  0.318178  1
  Li  Li4  1  0.497674  0.829259  0.681822  1
  Li  Li5  1  0.497674  0.670741  0.181822  1
  Li  Li6  1  0.975910  0.258758  0.911535  1
  Li  Li7  1  0.975910  0.241242  0.411535  1
  Mn  Mn8  1  0.175572  0.771093  0.773186  1
  Mn  Mn9  1  0.175572  0.728907  0.273186  1
  Mn  Mn10  1  0.326690  0.222689  0.519354  1
  Mn  Mn11  1  0.326690  0.277311  0.019354  1
  Mn  Mn12  1  0.673310  0.722689  0.980646  1
  Mn  Mn13  1  0.673310  0.777311  0.480646  1
  Mn  Mn14  1  0.824428  0.271093  0.726814  1
  Mn  Mn15  1  0.824428  0.228907  0.226814  1
  P  P16  1  0.248452  0.324110  0.683721  1
  P  P17  1  0.248452  0.175890  0.183721  1
  P  P18  1  0.249894  0.729615  0.935664  1
  P  P19  1  0.249894  0.770385  0.435664  1
  P  P20  1  0.750106  0.229615  0.564336  1
  P  P21  1  0.750106  0.270385  0.064336  1
  P  P22  1  0.751548  0.824110  0.816279  1
  P  P23  1  0.751548  0.675890  0.316279  1
  O  O24  1  0.081395  0.413345  0.727094  1
  O  O25  1  0.081395  0.086655  0.227094  1
  O  O26  1  0.170607  0.626539  0.007023  1
  O  O27  1  0.147827  0.608497  0.873269  1
  O  O28  1  0.223272  0.420962  0.606958  1
  O  O29  1  0.268997  0.013683  0.688753  1
  O  O30  1  0.170607  0.873461  0.507023  1
  O  O31  1  0.147827  0.891503  0.373269  1
  O  O32  1  0.223272  0.079038  0.106958  1
  O  O33  1  0.268997  0.486317  0.188753  1
  O  O34  1  0.246422  0.041934  0.932180  1
  O  O35  1  0.246422  0.458066  0.432180  1
  O  O36  1  0.402870  0.470952  0.720344  1
  O  O37  1  0.402870  0.029048  0.220344  1
  O  O38  1  0.441149  0.613525  0.930398  1
  O  O39  1  0.441149  0.886475  0.430398  1
  O  O40  1  0.558851  0.113525  0.569602  1
  O  O41  1  0.558851  0.386475  0.069602  1
  O  O42  1  0.597130  0.970952  0.779656  1
  O  O43  1  0.597130  0.529048  0.279656  1
  O  O44  1  0.753578  0.541934  0.567820  1
  O  O45  1  0.753578  0.958066  0.067820  1
  O  O46  1  0.731003  0.513683  0.811247  1
  O  O47  1  0.776728  0.920962  0.893042  1
  O  O48  1  0.852173  0.108497  0.626731  1
  O  O49  1  0.829393  0.126539  0.492977  1
  O  O50  1  0.731003  0.986317  0.311247  1
  O  O51  1  0.776728  0.579038  0.393042  1
  O  O52  1  0.852173  0.391503  0.126731  1
  O  O53  1  0.829393  0.373461  0.992977  1
  O  O54  1  0.918605  0.913345  0.772906  1
  O  O55  1  0.918605  0.586655  0.272906  1
