# generated using pymatgen
data_LiFeF3
_symmetry_space_group_name_H-M   'P 1'
_cell_length_a   19.70490550
_cell_length_b   9.13832449
_cell_length_c   5.65255317
_cell_angle_alpha   90.00202938
_cell_angle_beta   90.00770030
_cell_angle_gamma   89.99080838
_symmetry_Int_Tables_number   1
_chemical_formula_structural   LiFeF3
_chemical_formula_sum   'Li16 Fe16 F48'
_cell_volume   1017.85421199
_cell_formula_units_Z   16
loop_
 _symmetry_equiv_pos_site_id
 _symmetry_equiv_pos_as_xyz
  1  'x, y, z'
loop_
 _atom_site_type_symbol
 _atom_site_label
 _atom_site_symmetry_multiplicity
 _atom_site_fract_x
 _atom_site_fract_y
 _atom_site_fract_z
 _atom_site_occupancy
  Li  Li0  1  0.032104  0.665391  0.325596  1
  Li  Li1  1  0.032063  0.834723  0.825568  1
  Li  Li2  1  0.226984  0.664413  0.535558  1
  Li  Li3  1  0.226982  0.835783  0.035639  1
  Li  Li4  1  0.273006  0.164263  0.535891  1
  Li  Li5  1  0.272952  0.335604  0.035817  1
  Li  Li6  1  0.467936  0.165184  0.325606  1
  Li  Li7  1  0.467845  0.334491  0.825602  1
  Li  Li8  1  0.532128  0.665367  0.174392  1
  Li  Li9  1  0.532082  0.834732  0.674482  1
  Li  Li10  1  0.726993  0.664411  0.964132  1
  Li  Li11  1  0.726970  0.835691  0.464032  1
  Li  Li12  1  0.773060  0.164300  0.964472  1
  Li  Li13  1  0.773037  0.335632  0.464486  1
  Li  Li14  1  0.967936  0.165280  0.174523  1
  Li  Li15  1  0.967903  0.334614  0.674489  1
  Fe  Fe16  1  0.121239  0.967893  0.333274  1
  Fe  Fe17  1  0.121262  0.532329  0.833503  1
  Fe  Fe18  1  0.121943  0.341781  0.336678  1
  Fe  Fe19  1  0.121897  0.158383  0.836504  1
  Fe  Fe20  1  0.378109  0.658261  0.836533  1
  Fe  Fe21  1  0.378117  0.841622  0.336645  1
  Fe  Fe22  1  0.378756  0.032058  0.833435  1
  Fe  Fe23  1  0.378740  0.467686  0.333247  1
  Fe  Fe24  1  0.621241  0.532237  0.666522  1
  Fe  Fe25  1  0.621189  0.967888  0.166705  1
  Fe  Fe26  1  0.621863  0.158358  0.663395  1
  Fe  Fe27  1  0.621886  0.341712  0.163254  1
  Fe  Fe28  1  0.878082  0.658288  0.663450  1
  Fe  Fe29  1  0.878078  0.841648  0.163440  1
  Fe  Fe30  1  0.878771  0.032087  0.666629  1
  Fe  Fe31  1  0.878794  0.467770  0.166584  1
  F  F32  1  0.053277  0.836605  0.153237  1
  F  F33  1  0.053268  0.663518  0.653255  1
  F  F34  1  0.068866  0.169245  0.183078  1
  F  F35  1  0.068831  0.330955  0.683150  1
  F  F36  1  0.071137  0.507797  0.149674  1
  F  F37  1  0.071150  0.992304  0.649426  1
  F  F38  1  0.175766  0.158180  0.505318  1
  F  F39  1  0.175711  0.342030  0.005180  1
  F  F40  1  0.178193  0.016703  0.017141  1
  F  F41  1  0.178197  0.483573  0.517018  1
  F  F42  1  0.193865  0.814185  0.348266  1
  F  F43  1  0.193842  0.685961  0.848370  1
  F  F44  1  0.306154  0.185888  0.848396  1
  F  F45  1  0.306108  0.313926  0.348251  1
  F  F46  1  0.321835  0.516704  0.017626  1
  F  F47  1  0.321854  0.983285  0.517604  1
  F  F48  1  0.324260  0.658082  0.505405  1
  F  F49  1  0.324233  0.841778  0.005518  1
  F  F50  1  0.428822  0.007716  0.149326  1
  F  F51  1  0.428773  0.492042  0.649387  1
  F  F52  1  0.431239  0.669316  0.182824  1
  F  F53  1  0.431232  0.830675  0.682924  1
  F  F54  1  0.446731  0.163268  0.653217  1
  F  F55  1  0.446733  0.336420  0.153283  1
  F  F56  1  0.553274  0.663501  0.846763  1
  F  F57  1  0.553253  0.836546  0.346896  1
  F  F58  1  0.568767  0.169403  0.317194  1
  F  F59  1  0.568734  0.330677  0.817121  1
  F  F60  1  0.571178  0.507860  0.350512  1
  F  F61  1  0.571158  0.992241  0.850793  1
  F  F62  1  0.675774  0.158192  0.994406  1
  F  F63  1  0.675740  0.341881  0.494473  1
  F  F64  1  0.678126  0.016791  0.482012  1
  F  F65  1  0.678151  0.483360  0.982236  1
  F  F66  1  0.693845  0.686058  0.651561  1
  F  F67  1  0.693810  0.813945  0.151677  1
  F  F68  1  0.806166  0.185779  0.651687  1
  F  F69  1  0.806222  0.314118  0.151706  1
  F  F70  1  0.821861  0.516474  0.483052  1
  F  F71  1  0.821840  0.983464  0.983010  1
  F  F72  1  0.824267  0.658026  0.994797  1
  F  F73  1  0.824221  0.841856  0.494718  1
  F  F74  1  0.928867  0.007664  0.350607  1
  F  F75  1  0.928906  0.492278  0.850430  1
  F  F76  1  0.931165  0.669119  0.316813  1
  F  F77  1  0.931149  0.830857  0.816885  1
  F  F78  1  0.946745  0.163374  0.846856  1
  F  F79  1  0.946759  0.336505  0.346837  1
