# generated using pymatgen
data_B5W2
_symmetry_space_group_name_H-M   'P 1'
_cell_length_a   7.37628647
_cell_length_b   7.37628647
_cell_length_c   7.37628648
_cell_angle_alpha   24.25374573
_cell_angle_beta   24.25374577
_cell_angle_gamma   24.25374572
_symmetry_Int_Tables_number   1
_chemical_formula_structural   B5W2
_chemical_formula_sum   'B5 W2'
_cell_volume   59.52405797
_cell_formula_units_Z   1
loop_
 _symmetry_equiv_pos_site_id
 _symmetry_equiv_pos_as_xyz
  1  'x, y, z'
loop_
 _atom_site_type_symbol
 _atom_site_label
 _atom_site_symmetry_multiplicity
 _atom_site_fract_x
 _atom_site_fract_y
 _atom_site_fract_z
 _atom_site_occupancy
  B  B0  1  0.500000  0.500000  0.500000  1
  B  B1  1  0.814918  0.814918  0.814918  1
  B  B2  1  0.331090  0.331090  0.331090  1
  B  B3  1  0.668910  0.668910  0.668910  1
  B  B4  1  0.185082  0.185082  0.185082  1
  W  W5  1  0.923558  0.923558  0.923558  1
  W  W6  1  0.076442  0.076442  0.076442  1
