# generated using pymatgen
data_BaMgTe2O7
_symmetry_space_group_name_H-M   'P 1'
_cell_length_a   5.65639370
_cell_length_b   7.39605813
_cell_length_c   8.57271707
_cell_angle_alpha   64.44534157
_cell_angle_beta   90.00000000
_cell_angle_gamma   90.00000000
_symmetry_Int_Tables_number   1
_chemical_formula_structural   BaMgTe2O7
_chemical_formula_sum   'Ba2 Mg2 Te4 O14'
_cell_volume   323.55553199
_cell_formula_units_Z   2
loop_
 _symmetry_equiv_pos_site_id
 _symmetry_equiv_pos_as_xyz
  1  'x, y, z'
loop_
 _atom_site_type_symbol
 _atom_site_label
 _atom_site_symmetry_multiplicity
 _atom_site_fract_x
 _atom_site_fract_y
 _atom_site_fract_z
 _atom_site_occupancy
  Ba  Ba0  1  0.750001  0.663964  0.415729  1
  Ba  Ba1  1  0.250000  0.079691  0.584272  1
  Mg  Mg2  1  0.750001  0.239453  0.234905  1
  Mg  Mg3  1  0.250000  0.474358  0.765095  1
  Te  Te4  1  0.250000  0.552501  0.147689  1
  Te  Te5  1  0.250000  0.032316  0.156347  1
  Te  Te6  1  0.750001  0.188664  0.843652  1
  Te  Te7  1  0.750001  0.700190  0.852311  1
  O  O8  1  0.000000  0.994517  1.000000  1
  O  O9  1  0.500000  0.994517  1.000000  1
  O  O10  1  0.250000  0.322655  0.029002  1
  O  O11  1  0.250000  0.732068  0.274002  1
  O  O12  1  0.506808  0.417016  0.287540  1
  O  O13  1  0.993191  0.417016  0.287540  1
  O  O14  1  0.006597  0.024828  0.313079  1
  O  O15  1  0.493403  0.024828  0.313079  1
  O  O16  1  0.506598  0.337909  0.686921  1
  O  O17  1  0.993403  0.337909  0.686921  1
  O  O18  1  0.006810  0.704557  0.712460  1
  O  O19  1  0.493191  0.704557  0.712460  1
  O  O20  1  0.750001  0.006070  0.725998  1
  O  O21  1  0.750001  0.351658  0.970998  1
