# generated using pymatgen
data_Rb4Te2S8O15
_symmetry_space_group_name_H-M   'P 1'
_cell_length_a   21.62281906
_cell_length_b   9.57401606
_cell_length_c   12.67548060
_cell_angle_alpha   90.00000000
_cell_angle_beta   90.00000000
_cell_angle_gamma   90.00000000
_symmetry_Int_Tables_number   1
_chemical_formula_structural   Rb4Te2S8O15
_chemical_formula_sum   'Rb16 Te8 S32 O60'
_cell_volume   2624.04271723
_cell_formula_units_Z   4
loop_
 _symmetry_equiv_pos_site_id
 _symmetry_equiv_pos_as_xyz
  1  'x, y, z'
loop_
 _atom_site_type_symbol
 _atom_site_label
 _atom_site_symmetry_multiplicity
 _atom_site_fract_x
 _atom_site_fract_y
 _atom_site_fract_z
 _atom_site_occupancy
  Rb  Rb0  1  0.261862  0.748421  0.969091  1
  Rb  Rb1  1  0.238138  0.751579  0.469091  1
  Rb  Rb2  1  0.761862  0.751579  0.030909  1
  Rb  Rb3  1  0.738138  0.748421  0.530909  1
  Rb  Rb4  1  0.738138  0.251579  0.030909  1
  Rb  Rb5  1  0.761862  0.248421  0.530909  1
  Rb  Rb6  1  0.238138  0.248421  0.969091  1
  Rb  Rb7  1  0.261862  0.251579  0.469091  1
  Rb  Rb8  1  0.393852  0.919392  0.689571  1
  Rb  Rb9  1  0.106148  0.580608  0.189571  1
  Rb  Rb10  1  0.893852  0.580608  0.310429  1
  Rb  Rb11  1  0.606148  0.919392  0.810429  1
  Rb  Rb12  1  0.606148  0.080608  0.310429  1
  Rb  Rb13  1  0.893852  0.419392  0.810429  1
  Rb  Rb14  1  0.106148  0.419392  0.689571  1
  Rb  Rb15  1  0.393852  0.080608  0.189571  1
  Te  Te16  1  0.071051  0.994429  0.649983  1
  Te  Te17  1  0.428949  0.505571  0.149983  1
  Te  Te18  1  0.571051  0.505571  0.350017  1
  Te  Te19  1  0.928949  0.994429  0.850017  1
  Te  Te20  1  0.928949  0.005571  0.350017  1
  Te  Te21  1  0.571051  0.494429  0.850017  1
  Te  Te22  1  0.428949  0.494429  0.649983  1
  Te  Te23  1  0.071051  0.005571  0.149983  1
  S  S24  1  0.085477  0.935824  0.469939  1
  S  S25  1  0.414523  0.564176  0.969939  1
  S  S26  1  0.585477  0.564176  0.530061  1
  S  S27  1  0.914523  0.935824  0.030061  1
  S  S28  1  0.914523  0.064176  0.530061  1
  S  S29  1  0.585477  0.435824  0.030061  1
  S  S30  1  0.414523  0.435824  0.469939  1
  S  S31  1  0.085477  0.064176  0.969939  1
  S  S32  1  0.156986  0.879631  0.730810  1
  S  S33  1  0.343014  0.620369  0.230810  1
  S  S34  1  0.656986  0.620369  0.269190  1
  S  S35  1  0.843014  0.879631  0.769190  1
  S  S36  1  0.843014  0.120369  0.269190  1
  S  S37  1  0.656986  0.379631  0.769190  1
  S  S38  1  0.343014  0.379631  0.730810  1
  S  S39  1  0.156986  0.120369  0.230810  1
  S  S40  1  0.052305  0.715703  0.461904  1
  S  S41  1  0.447695  0.784297  0.961904  1
  S  S42  1  0.552305  0.784297  0.538096  1
  S  S43  1  0.947695  0.715703  0.038096  1
  S  S44  1  0.947695  0.284297  0.538096  1
  S  S45  1  0.552305  0.215703  0.038096  1
  S  S46  1  0.447695  0.215703  0.461904  1
  S  S47  1  0.052305  0.284297  0.961904  1
  S  S48  1  0.230293  0.035600  0.720824  1
  S  S49  1  0.269707  0.464400  0.220824  1
  S  S50  1  0.730293  0.464400  0.279176  1
  S  S51  1  0.769707  0.035600  0.779176  1
  S  S52  1  0.769707  0.964400  0.279176  1
  S  S53  1  0.730293  0.535600  0.779176  1
  S  S54  1  0.269707  0.535600  0.720824  1
  S  S55  1  0.230293  0.964400  0.220824  1
  O  O56  1  0.005041  0.700691  0.542994  1
  O  O57  1  0.494959  0.799309  0.042994  1
  O  O58  1  0.505041  0.799309  0.457006  1
  O  O59  1  0.994959  0.700691  0.957006  1
  O  O60  1  0.994959  0.299309  0.457006  1
  O  O61  1  0.505041  0.200691  0.957006  1
  O  O62  1  0.494959  0.200691  0.542994  1
  O  O63  1  0.005041  0.299309  0.042994  1
  O  O64  1  0.108519  0.633376  0.477571  1
  O  O65  1  0.391481  0.866624  0.977571  1
  O  O66  1  0.608519  0.866624  0.522429  1
  O  O67  1  0.891481  0.633376  0.022429  1
  O  O68  1  0.891481  0.366624  0.522429  1
  O  O69  1  0.608519  0.133376  0.022429  1
  O  O70  1  0.391481  0.133376  0.477571  1
  O  O71  1  0.108519  0.366624  0.977571  1
  O  O72  1  0.028795  0.715435  0.352968  1
  O  O73  1  0.471205  0.784565  0.852968  1
  O  O74  1  0.528795  0.784565  0.647032  1
  O  O75  1  0.971205  0.715435  0.147032  1
  O  O76  1  0.971205  0.284565  0.647032  1
  O  O77  1  0.528795  0.215435  0.147032  1
  O  O78  1  0.471205  0.215435  0.352968  1
  O  O79  1  0.028795  0.284565  0.852968  1
  O  O80  1  0.201151  0.173197  0.729248  1
  O  O81  1  0.298849  0.326803  0.229248  1
  O  O82  1  0.701151  0.326803  0.270752  1
  O  O83  1  0.798849  0.173197  0.770752  1
  O  O84  1  0.798849  0.826803  0.270752  1
  O  O85  1  0.701151  0.673197  0.770752  1
  O  O86  1  0.298849  0.673197  0.729248  1
  O  O87  1  0.201151  0.826803  0.229248  1
  O  O88  1  0.260942  0.011358  0.618710  1
  O  O89  1  0.239058  0.488642  0.118710  1
  O  O90  1  0.760942  0.488642  0.381290  1
  O  O91  1  0.739058  0.011358  0.881290  1
  O  O92  1  0.739058  0.988642  0.381290  1
  O  O93  1  0.760942  0.511358  0.881290  1
  O  O94  1  0.239058  0.511358  0.618710  1
  O  O95  1  0.260942  0.988642  0.118710  1
  O  O96  1  0.268411  0.997311  0.812076  1
  O  O97  1  0.231589  0.502689  0.312076  1
  O  O98  1  0.768411  0.502689  0.187924  1
  O  O99  1  0.731589  0.997311  0.687924  1
  O  O100  1  0.731589  0.002689  0.187924  1
  O  O101  1  0.768411  0.497311  0.687924  1
  O  O102  1  0.231589  0.497311  0.812076  1
  O  O103  1  0.268411  0.002689  0.312076  1
  O  O104  1  0.130033  0.672140  0.955981  1
  O  O105  1  0.369967  0.827860  0.455981  1
  O  O106  1  0.630033  0.827860  0.044019  1
  O  O107  1  0.869967  0.672140  0.544019  1
  O  O108  1  0.869967  0.327860  0.044019  1
  O  O109  1  0.630033  0.172140  0.544019  1
  O  O110  1  0.369967  0.172140  0.955981  1
  O  O111  1  0.130033  0.327860  0.455981  1
  O  O112  1  0.000000  0.613500  0.750000  1
  O  O113  1  0.500000  0.886500  0.250000  1
  O  O114  1  0.000000  0.386500  0.250000  1
  O  O115  1  0.500000  0.113500  0.750000  1
