# generated using pymatgen
data_Li2Mn3(BO3)3
_symmetry_space_group_name_H-M   'P 1'
_cell_length_a   9.12187141
_cell_length_b   7.89436547
_cell_length_c   6.10867005
_cell_angle_alpha   80.90869175
_cell_angle_beta   76.98880732
_cell_angle_gamma   114.39641990
_symmetry_Int_Tables_number   1
_chemical_formula_structural   Li2Mn3(BO3)3
_chemical_formula_sum   'Li4 Mn6 B6 O18'
_cell_volume   374.38782444
_cell_formula_units_Z   2
loop_
 _symmetry_equiv_pos_site_id
 _symmetry_equiv_pos_as_xyz
  1  'x, y, z'
loop_
 _atom_site_type_symbol
 _atom_site_label
 _atom_site_symmetry_multiplicity
 _atom_site_fract_x
 _atom_site_fract_y
 _atom_site_fract_z
 _atom_site_occupancy
  Li  Li0  1  0.619492  0.165498  0.164972  1
  Li  Li1  1  0.055248  0.180021  0.509585  1
  Li  Li2  1  0.944751  0.819979  0.490415  1
  Li  Li3  1  0.380508  0.834502  0.835028  1
  Mn  Mn4  1  0.267408  0.155183  0.091046  1
  Mn  Mn5  1  0.412023  0.219500  0.534530  1
  Mn  Mn6  1  0.059796  0.526746  0.221984  1
  Mn  Mn7  1  0.940204  0.473254  0.778016  1
  Mn  Mn8  1  0.587977  0.780500  0.465470  1
  Mn  Mn9  1  0.732592  0.844817  0.908954  1
  B  B10  1  0.924238  0.129595  0.138813  1
  B  B11  1  0.730362  0.186042  0.559408  1
  B  B12  1  0.389145  0.534689  0.212810  1
  B  B13  1  0.610855  0.465311  0.787190  1
  B  B14  1  0.269638  0.813958  0.440592  1
  B  B15  1  0.075762  0.870405  0.861187  1
  O  O16  1  0.005411  0.048214  0.249438  1
  O  O17  1  0.757797  0.016240  0.142950  1
  O  O18  1  0.647547  0.988337  0.682364  1
  O  O19  1  0.299714  0.333788  0.327455  1
  O  O20  1  0.657534  0.266252  0.434294  1
  O  O21  1  0.317456  0.628973  0.106229  1
  O  O22  1  0.903459  0.300926  0.545553  1
  O  O23  1  0.557252  0.630956  0.209172  1
  O  O24  1  0.998590  0.671966  0.969769  1
  O  O25  1  0.001410  0.328034  0.030231  1
  O  O26  1  0.442748  0.369044  0.790828  1
  O  O27  1  0.096541  0.699074  0.454447  1
  O  O28  1  0.682544  0.371027  0.893771  1
  O  O29  1  0.342466  0.733748  0.565706  1
  O  O30  1  0.700286  0.666212  0.672545  1
  O  O31  1  0.352453  0.011662  0.317636  1
  O  O32  1  0.242203  0.983760  0.857050  1
  O  O33  1  0.994589  0.951786  0.750562  1
