# generated using pymatgen
data_K4P2PdS8
_symmetry_space_group_name_H-M   'P 1'
_cell_length_a   6.47782244
_cell_length_b   7.00020577
_cell_length_c   9.12564279
_cell_angle_alpha   87.69354875
_cell_angle_beta   82.28430629
_cell_angle_gamma   84.61767092
_symmetry_Int_Tables_number   1
_chemical_formula_structural   K4P2PdS8
_chemical_formula_sum   'K4 P2 Pd1 S8'
_cell_volume   408.09737452
_cell_formula_units_Z   1
loop_
 _symmetry_equiv_pos_site_id
 _symmetry_equiv_pos_as_xyz
  1  'x, y, z'
loop_
 _atom_site_type_symbol
 _atom_site_label
 _atom_site_symmetry_multiplicity
 _atom_site_fract_x
 _atom_site_fract_y
 _atom_site_fract_z
 _atom_site_occupancy
  K  K0  1  0.289235  0.337019  0.138361  1
  K  K1  1  0.746009  0.219980  0.475975  1
  K  K2  1  0.253991  0.780020  0.524025  1
  K  K3  1  0.710765  0.662981  0.861638  1
  P  P4  1  0.826870  0.731718  0.262627  1
  P  P5  1  0.173130  0.268282  0.737373  1
  Pd  Pd6  1  0.000000  0.000000  0.000000  1
  S  S7  1  0.678083  0.958479  0.148386  1
  S  S8  1  0.776237  0.475977  0.186261  1
  S  S9  1  0.131718  0.803437  0.188658  1
  S  S10  1  0.759966  0.746663  0.484912  1
  S  S11  1  0.240034  0.253337  0.515089  1
  S  S12  1  0.868280  0.196563  0.811342  1
  S  S13  1  0.223763  0.524023  0.813739  1
  S  S14  1  0.321917  0.041521  0.851613  1
