# generated using pymatgen
data_CsTi8O16
_symmetry_space_group_name_H-M   'P 1'
_cell_length_a   5.96561241
_cell_length_b   10.80037762
_cell_length_c   10.80385003
_cell_angle_alpha   94.33673622
_cell_angle_beta   106.02682292
_cell_angle_gamma   73.96788553
_symmetry_Int_Tables_number   1
_chemical_formula_structural   CsTi8O16
_chemical_formula_sum   'Cs2 Ti16 O32'
_cell_volume   643.02442291
_cell_formula_units_Z   2
loop_
 _symmetry_equiv_pos_site_id
 _symmetry_equiv_pos_as_xyz
  1  'x, y, z'
loop_
 _atom_site_type_symbol
 _atom_site_label
 _atom_site_symmetry_multiplicity
 _atom_site_fract_x
 _atom_site_fract_y
 _atom_site_fract_z
 _atom_site_occupancy
  Cs  Cs0  1  0.968368  0.000000  0.000000  1
  Cs  Cs1  1  0.781632  0.500000  0.500000  1
  Ti  Ti2  1  0.590450  0.151010  0.331145  1
  Ti  Ti3  1  0.092243  0.152911  0.338182  1
  Ti  Ti4  1  0.657757  0.347089  0.161818  1
  Ti  Ti5  1  0.159550  0.348990  0.168855  1
  Ti  Ti6  1  0.996775  0.161051  0.654169  1
  Ti  Ti7  1  0.246343  0.661051  0.154169  1
  Ti  Ti8  1  0.491011  0.169862  0.649841  1
  Ti  Ti9  1  0.738968  0.669862  0.149841  1
  Ti  Ti10  1  0.258989  0.330138  0.850159  1
  Ti  Ti11  1  0.011032  0.830138  0.350159  1
  Ti  Ti12  1  0.753225  0.338949  0.845831  1
  Ti  Ti13  1  0.503657  0.838949  0.345831  1
  Ti  Ti14  1  0.339684  0.651010  0.831145  1
  Ti  Ti15  1  0.843026  0.652911  0.838182  1
  Ti  Ti16  1  0.906974  0.847089  0.661818  1
  Ti  Ti17  1  0.410316  0.848990  0.668855  1
  O  O18  1  0.775372  0.158268  0.209623  1
  O  O19  1  0.275505  0.157587  0.210365  1
  O  O20  1  0.853237  0.332874  0.037280  1
  O  O21  1  0.351895  0.334682  0.038076  1
  O  O22  1  0.398105  0.165318  0.461924  1
  O  O23  1  0.896763  0.167126  0.462720  1
  O  O24  1  0.474495  0.342413  0.289635  1
  O  O25  1  0.974628  0.341732  0.290377  1
  O  O26  1  0.314256  0.037933  0.664976  1
  O  O27  1  0.062787  0.537933  0.164976  1
  O  O28  1  0.812552  0.037671  0.667563  1
  O  O29  1  0.567341  0.537671  0.167563  1
  O  O30  1  0.935859  0.789144  0.158485  1
  O  O31  1  0.183482  0.289144  0.658485  1
  O  O32  1  0.431768  0.791169  0.157323  1
  O  O33  1  0.684386  0.291169  0.657323  1
  O  O34  1  0.065614  0.208831  0.842677  1
  O  O35  1  0.318232  0.708831  0.342677  1
  O  O36  1  0.814141  0.710856  0.341515  1
  O  O37  1  0.566518  0.210856  0.841515  1
  O  O38  1  0.182659  0.962329  0.332437  1
  O  O39  1  0.937448  0.462329  0.832437  1
  O  O40  1  0.435744  0.462067  0.835024  1
  O  O41  1  0.687213  0.962067  0.335024  1
  O  O42  1  0.025982  0.658268  0.709623  1
  O  O43  1  0.527273  0.657587  0.710365  1
  O  O44  1  0.601169  0.832874  0.537279  1
  O  O45  1  0.101499  0.834682  0.538076  1
  O  O46  1  0.648501  0.665318  0.961924  1
  O  O47  1  0.148831  0.667126  0.962721  1
  O  O48  1  0.222727  0.842413  0.789635  1
  O  O49  1  0.724018  0.841732  0.790377  1
