# generated using pymatgen
data_LiFe4(BO3)4
_symmetry_space_group_name_H-M   'P 1'
_cell_length_a   5.31760872
_cell_length_b   9.03237902
_cell_length_c   10.27883746
_cell_angle_alpha   89.99999842
_cell_angle_beta   90.36066736
_cell_angle_gamma   90.00000236
_symmetry_Int_Tables_number   1
_chemical_formula_structural   LiFe4(BO3)4
_chemical_formula_sum   'Li2 Fe8 B8 O24'
_cell_volume   493.68953989
_cell_formula_units_Z   2
loop_
 _symmetry_equiv_pos_site_id
 _symmetry_equiv_pos_as_xyz
  1  'x, y, z'
loop_
 _atom_site_type_symbol
 _atom_site_label
 _atom_site_symmetry_multiplicity
 _atom_site_fract_x
 _atom_site_fract_y
 _atom_site_fract_z
 _atom_site_occupancy
  Li  Li0  1  0.356178  0.007229  0.828830  1
  Li  Li1  1  0.356178  0.992771  0.328830  1
  Fe  Fe2  1  0.137978  0.168191  0.117504  1
  Fe  Fe3  1  0.843112  0.172419  0.371313  1
  Fe  Fe4  1  0.340210  0.340256  0.872889  1
  Fe  Fe5  1  0.663056  0.332123  0.625213  1
  Fe  Fe6  1  0.340210  0.659744  0.372889  1
  Fe  Fe7  1  0.137978  0.831809  0.617504  1
  Fe  Fe8  1  0.663056  0.667877  0.125213  1
  Fe  Fe9  1  0.843112  0.827581  0.871313  1
  B  B10  1  0.169042  0.173932  0.628079  1
  B  B11  1  0.335276  0.323975  0.376283  1
  B  B12  1  0.834860  0.164525  0.866914  1
  B  B13  1  0.648950  0.334478  0.123664  1
  B  B14  1  0.335276  0.676025  0.876283  1
  B  B15  1  0.648950  0.665522  0.623664  1
  B  B16  1  0.169042  0.826068  0.128079  1
  B  B17  1  0.834860  0.835475  0.366914  1
  O  O18  1  0.259769  0.035575  0.644396  1
  O  O19  1  0.086754  0.177908  0.904528  1
  O  O20  1  0.718129  0.028282  0.870234  1
  O  O21  1  0.203832  0.197017  0.334611  1
  O  O22  1  0.306006  0.296583  0.674807  1
  O  O23  1  0.775603  0.215808  0.183072  1
  O  O24  1  0.936160  0.200930  0.567920  1
  O  O25  1  0.422864  0.307866  0.059364  1
  O  O26  1  0.241964  0.461144  0.362918  1
  O  O27  1  0.571940  0.299144  0.432849  1
  O  O28  1  0.701702  0.289218  0.824720  1
  O  O29  1  0.241964  0.538856  0.862918  1
  O  O30  1  0.754784  0.471176  0.127732  1
  O  O31  1  0.306006  0.703417  0.174807  1
  O  O32  1  0.422864  0.692134  0.559364  1
  O  O33  1  0.754784  0.528824  0.627732  1
  O  O34  1  0.571940  0.700856  0.932849  1
  O  O35  1  0.086754  0.822092  0.404528  1
  O  O36  1  0.203832  0.802983  0.834611  1
  O  O37  1  0.701702  0.710782  0.324720  1
  O  O38  1  0.775603  0.784192  0.683072  1
  O  O39  1  0.259769  0.964425  0.144396  1
  O  O40  1  0.936160  0.799070  0.067920  1
  O  O41  1  0.718129  0.971718  0.370234  1
