# generated using pymatgen
data_Li8CoO5F
_symmetry_space_group_name_H-M   'P 1'
_cell_length_a   5.31814459
_cell_length_b   5.97191286
_cell_length_c   5.41207641
_cell_angle_alpha   112.78329957
_cell_angle_beta   66.22610288
_cell_angle_gamma   118.51076767
_symmetry_Int_Tables_number   1
_chemical_formula_structural   Li8CoO5F
_chemical_formula_sum   'Li8 Co1 O5 F1'
_cell_volume   134.10535854
_cell_formula_units_Z   1
loop_
 _symmetry_equiv_pos_site_id
 _symmetry_equiv_pos_as_xyz
  1  'x, y, z'
loop_
 _atom_site_type_symbol
 _atom_site_label
 _atom_site_symmetry_multiplicity
 _atom_site_fract_x
 _atom_site_fract_y
 _atom_site_fract_z
 _atom_site_occupancy
  Li  Li0  1  0.109348  0.358196  0.469896  1
  Li  Li1  1  0.531631  0.662798  0.232575  1
  Li  Li2  1  0.239546  0.645181  0.889214  1
  Li  Li3  1  0.290614  0.022096  0.373458  1
  Li  Li4  1  0.664838  0.971359  0.675825  1
  Li  Li5  1  0.769557  0.340819  0.091618  1
  Li  Li6  1  0.465998  0.362598  0.795445  1
  Li  Li7  1  0.897520  0.656947  0.519302  1
  Co  Co8  1  0.028577  0.969590  0.962215  1
  O  O9  1  0.266999  0.763715  0.585852  1
  O  O10  1  0.356520  0.234109  0.108052  1
  O  O11  1  0.065961  0.225454  0.767869  1
  O  O12  1  0.941215  0.754744  0.203406  1
  O  O13  1  0.646442  0.755288  0.887994  1
  F  F14  1  0.725233  0.277107  0.437278  1
