# generated using pymatgen
data_LiMn(PO4)2
_symmetry_space_group_name_H-M   'P 1'
_cell_length_a   4.80159399
_cell_length_b   17.05908237
_cell_length_c   6.61697026
_cell_angle_alpha   90.00000000
_cell_angle_beta   94.25429412
_cell_angle_gamma   90.00000000
_symmetry_Int_Tables_number   1
_chemical_formula_structural   LiMn(PO4)2
_chemical_formula_sum   'Li4 Mn4 P8 O32'
_cell_volume   540.50782908
_cell_formula_units_Z   4
loop_
 _symmetry_equiv_pos_site_id
 _symmetry_equiv_pos_as_xyz
  1  'x, y, z'
loop_
 _atom_site_type_symbol
 _atom_site_label
 _atom_site_symmetry_multiplicity
 _atom_site_fract_x
 _atom_site_fract_y
 _atom_site_fract_z
 _atom_site_occupancy
  Li  Li0  1  0.213794  0.884927  0.500522  1
  Li  Li1  1  0.286206  0.384927  0.999478  1
  Li  Li2  1  0.713794  0.615073  0.000522  1
  Li  Li3  1  0.786206  0.115073  0.499478  1
  Mn  Mn4  1  0.205581  0.869762  0.012245  1
  Mn  Mn5  1  0.294419  0.369762  0.487755  1
  Mn  Mn6  1  0.705581  0.630238  0.512245  1
  Mn  Mn7  1  0.794419  0.130238  0.987755  1
  P  P8  1  0.172920  0.712188  0.270746  1
  P  P9  1  0.225785  0.534347  0.725952  1
  P  P10  1  0.274215  0.034347  0.774048  1
  P  P11  1  0.327080  0.212188  0.229254  1
  P  P12  1  0.672920  0.787812  0.770746  1
  P  P13  1  0.725785  0.965653  0.225952  1
  P  P14  1  0.774215  0.465653  0.274048  1
  P  P15  1  0.827080  0.287812  0.729254  1
  O  O16  1  0.010272  0.192462  0.187040  1
  O  O17  1  0.021561  0.692871  0.465339  1
  O  O18  1  0.059387  0.671641  0.077930  1
  O  O19  1  0.119285  0.070473  0.946188  1
  O  O20  1  0.081061  0.434434  0.287561  1
  O  O21  1  0.148496  0.052338  0.556738  1
  O  O22  1  0.137047  0.803509  0.244139  1
  O  O23  1  0.216429  0.443085  0.705695  1
  O  O24  1  0.283571  0.943085  0.794305  1
  O  O25  1  0.351504  0.552338  0.943262  1
  O  O26  1  0.380715  0.570473  0.553812  1
  O  O27  1  0.362953  0.303509  0.255861  1
  O  O28  1  0.418939  0.934434  0.212439  1
  O  O29  1  0.440613  0.171641  0.422070  1
  O  O30  1  0.510272  0.307538  0.687040  1
  O  O31  1  0.478439  0.192871  0.034661  1
  O  O32  1  0.521561  0.807129  0.965339  1
  O  O33  1  0.489728  0.692462  0.312960  1
  O  O34  1  0.559387  0.828359  0.577930  1
  O  O35  1  0.581061  0.065566  0.787561  1
  O  O36  1  0.637047  0.696491  0.744139  1
  O  O37  1  0.619285  0.429527  0.446188  1
  O  O38  1  0.648496  0.447662  0.056738  1
  O  O39  1  0.716429  0.056915  0.205695  1
  O  O40  1  0.783571  0.556915  0.294305  1
  O  O41  1  0.862953  0.196491  0.755861  1
  O  O42  1  0.851504  0.947662  0.443262  1
  O  O43  1  0.918939  0.565566  0.712439  1
  O  O44  1  0.880715  0.929527  0.053812  1
  O  O45  1  0.940613  0.328359  0.922070  1
  O  O46  1  0.978439  0.307129  0.534661  1
  O  O47  1  0.989728  0.807538  0.812960  1
