# generated using pymatgen
data_Fe4O5F3
_symmetry_space_group_name_H-M   'P 1'
_cell_length_a   4.71137243
_cell_length_b   7.75251983
_cell_length_c   7.65594987
_cell_angle_alpha   75.65925119
_cell_angle_beta   91.08726561
_cell_angle_gamma   88.73394658
_symmetry_Int_Tables_number   1
_chemical_formula_structural   Fe4O5F3
_chemical_formula_sum   'Fe8 O10 F6'
_cell_volume   270.76776807
_cell_formula_units_Z   2
loop_
 _symmetry_equiv_pos_site_id
 _symmetry_equiv_pos_as_xyz
  1  'x, y, z'
loop_
 _atom_site_type_symbol
 _atom_site_label
 _atom_site_symmetry_multiplicity
 _atom_site_fract_x
 _atom_site_fract_y
 _atom_site_fract_z
 _atom_site_occupancy
  Fe  Fe0  1  0.451327  0.132724  0.633576  1
  Fe  Fe1  1  0.500000  0.375000  0.875000  1
  Fe  Fe2  1  0.500000  0.875000  0.375000  1
  Fe  Fe3  1  0.548673  0.617276  0.116424  1
  Fe  Fe4  1  0.045455  0.755466  0.758330  1
  Fe  Fe5  1  0.020190  0.527531  0.490918  1
  Fe  Fe6  1  0.979810  0.222469  0.259082  1
  Fe  Fe7  1  0.954545  0.994534  0.991670  1
  O  O8  1  0.812245  0.771221  0.965336  1
  O  O9  1  0.794177  0.015423  0.224320  1
  O  O10  1  0.678783  0.166243  0.845055  1
  O  O11  1  0.693311  0.652671  0.345571  1
  O  O12  1  0.697317  0.385043  0.093496  1
  O  O13  1  0.321217  0.583757  0.904945  1
  O  O14  1  0.302683  0.364957  0.656504  1
  O  O15  1  0.306689  0.097329  0.404429  1
  O  O16  1  0.205823  0.734577  0.525680  1
  O  O17  1  0.187755  0.978779  0.784664  1
  F  F18  1  0.809280  0.284113  0.475437  1
  F  F19  1  0.811940  0.541078  0.717044  1
  F  F20  1  0.703627  0.911488  0.600766  1
  F  F21  1  0.296373  0.838512  0.149234  1
  F  F22  1  0.188060  0.208922  0.032956  1
  F  F23  1  0.190720  0.465887  0.274563  1
