# generated using pymatgen
data_LiFeP3H8O13
_symmetry_space_group_name_H-M   'P 1'
_cell_length_a   7.79189890
_cell_length_b   10.12000279
_cell_length_c   7.31076896
_cell_angle_alpha   105.71571537
_cell_angle_beta   103.18327992
_cell_angle_gamma   83.80407010
_symmetry_Int_Tables_number   1
_chemical_formula_structural   LiFeP3H8O13
_chemical_formula_sum   'Li2 Fe2 P6 H16 O26'
_cell_volume   539.65275623
_cell_formula_units_Z   2
loop_
 _symmetry_equiv_pos_site_id
 _symmetry_equiv_pos_as_xyz
  1  'x, y, z'
loop_
 _atom_site_type_symbol
 _atom_site_label
 _atom_site_symmetry_multiplicity
 _atom_site_fract_x
 _atom_site_fract_y
 _atom_site_fract_z
 _atom_site_occupancy
  Li  Li0  1  0.185702  0.236426  0.803843  1
  Li  Li1  1  0.814298  0.763574  0.196157  1
  Fe  Fe2  1  0.000000  0.000000  0.000000  1
  Fe  Fe3  1  0.500000  0.500000  0.000000  1
  P  P4  1  0.193252  0.255075  0.330234  1
  P  P5  1  0.195526  0.522757  0.242865  1
  P  P6  1  0.542682  0.271286  0.592187  1
  P  P7  1  0.457318  0.728714  0.407813  1
  P  P8  1  0.804474  0.477243  0.757135  1
  P  P9  1  0.806748  0.744925  0.669766  1
  H  H10  1  0.032837  0.039810  0.367005  1
  H  H11  1  0.179020  0.569868  0.813977  1
  H  H12  1  0.135144  0.898361  0.311645  1
  H  H13  1  0.260291  0.794599  0.924502  1
  H  H14  1  0.302049  0.601670  0.690444  1
  H  H15  1  0.346121  0.992437  0.852788  1
  H  H16  1  0.378664  0.994895  0.652431  1
  H  H17  1  0.353375  0.913114  0.098094  1
  H  H18  1  0.646625  0.086886  0.901906  1
  H  H19  1  0.621336  0.005105  0.347569  1
  H  H20  1  0.653879  0.007563  0.147212  1
  H  H21  1  0.697951  0.398330  0.309556  1
  H  H22  1  0.739709  0.205401  0.075498  1
  H  H23  1  0.864856  0.101639  0.688355  1
  H  H24  1  0.820980  0.430132  0.186023  1
  H  H25  1  0.967163  0.960190  0.632995  1
  O  O26  1  0.119858  0.211421  0.474854  1
  O  O27  1  0.020569  0.948350  0.272239  1
  O  O28  1  0.041508  0.614527  0.191810  1
  O  O29  1  0.141661  0.418898  0.353100  1
  O  O30  1  0.144634  0.181075  0.117924  1
  O  O31  1  0.255740  0.895374  0.982437  1
  O  O32  1  0.285584  0.617000  0.824198  1
  O  O33  1  0.387082  0.052488  0.786637  1
  O  O34  1  0.447180  0.330262  0.756434  1
  O  O35  1  0.296421  0.440162  0.090750  1
  O  O36  1  0.342194  0.608011  0.426430  1
  O  O37  1  0.407668  0.252187  0.384854  1
  O  O38  1  0.345975  0.858890  0.411620  1
  O  O39  1  0.654025  0.141110  0.588380  1
  O  O40  1  0.592332  0.747813  0.615146  1
  O  O41  1  0.657806  0.391989  0.573570  1
  O  O42  1  0.703579  0.559838  0.909250  1
  O  O43  1  0.552820  0.669738  0.243566  1
  O  O44  1  0.612918  0.947512  0.213363  1
  O  O45  1  0.714416  0.383000  0.175802  1
  O  O46  1  0.744260  0.104626  0.017563  1
  O  O47  1  0.855366  0.818925  0.882076  1
  O  O48  1  0.858339  0.581102  0.646900  1
  O  O49  1  0.958492  0.385473  0.808190  1
  O  O50  1  0.979431  0.051650  0.727761  1
  O  O51  1  0.880142  0.788579  0.525146  1
