# generated using pymatgen
data_Li4Ni7(PO4)6
_symmetry_space_group_name_H-M   'P 1'
_cell_length_a   8.76733421
_cell_length_b   8.76733421
_cell_length_c   6.41295205
_cell_angle_alpha   81.20726735
_cell_angle_beta   98.79273265
_cell_angle_gamma   74.97873135
_symmetry_Int_Tables_number   1
_chemical_formula_structural   Li4Ni7(PO4)6
_chemical_formula_sum   'Li4 Ni7 P6 O24'
_cell_volume   460.83390794
_cell_formula_units_Z   1
loop_
 _symmetry_equiv_pos_site_id
 _symmetry_equiv_pos_as_xyz
  1  'x, y, z'
loop_
 _atom_site_type_symbol
 _atom_site_label
 _atom_site_symmetry_multiplicity
 _atom_site_fract_x
 _atom_site_fract_y
 _atom_site_fract_z
 _atom_site_occupancy
  Li  Li0  1  0.268410  0.731590  0.535739  1
  Li  Li1  1  0.463035  0.253389  0.529987  1
  Li  Li2  1  0.746611  0.536965  0.529987  1
  Li  Li3  1  0.941950  0.058050  0.505163  1
  Ni  Ni4  1  0.021432  0.364067  0.184454  1
  Ni  Ni5  1  0.635933  0.978568  0.184454  1
  Ni  Ni6  1  0.377188  0.374972  0.998864  1
  Ni  Ni7  1  0.625028  0.622812  0.998864  1
  Ni  Ni8  1  0.000161  0.999839  0.002972  1
  Ni  Ni9  1  0.357222  0.016516  0.816082  1
  Ni  Ni10  1  0.983484  0.642778  0.816082  1
  P  P11  1  0.096862  0.284551  0.712240  1
  P  P12  1  0.715449  0.903138  0.712240  1
  P  P13  1  0.315276  0.684724  0.046773  1
  P  P14  1  0.691192  0.308808  0.954938  1
  P  P15  1  0.283531  0.090789  0.286220  1
  P  P16  1  0.909211  0.716469  0.286220  1
  O  O17  1  0.222381  0.601147  0.891096  1
  O  O18  1  0.398853  0.777619  0.891096  1
  O  O19  1  0.209260  0.790740  0.167909  1
  O  O20  1  0.606647  0.976604  0.862114  1
  O  O21  1  0.023396  0.393353  0.862114  1
  O  O22  1  0.900312  0.892223  0.775583  1
  O  O23  1  0.107777  0.099688  0.775583  1
  O  O24  1  0.281867  0.278777  0.736074  1
  O  O25  1  0.721223  0.718133  0.736074  1
  O  O26  1  0.456237  0.543763  0.193567  1
  O  O27  1  0.556893  0.443107  0.784182  1
  O  O28  1  0.885245  0.902808  0.217271  1
  O  O29  1  0.097192  0.114755  0.217271  1
  O  O30  1  0.293696  0.270758  0.271421  1
  O  O31  1  0.729242  0.706304  0.271421  1
  O  O32  1  0.339282  0.984873  0.511441  1
  O  O33  1  0.015127  0.660718  0.511441  1
  O  O34  1  0.804687  0.195313  0.852029  1
  O  O35  1  0.389569  0.015492  0.135290  1
  O  O36  1  0.984508  0.610431  0.135290  1
  O  O37  1  0.598265  0.219727  0.098648  1
  O  O38  1  0.780273  0.401735  0.098648  1
  O  O39  1  0.654042  0.012952  0.488737  1
  O  O40  1  0.987048  0.345958  0.488737  1
