# generated using pymatgen
data_CsTe
_symmetry_space_group_name_H-M   'P 1'
_cell_length_a   5.10411592
_cell_length_b   6.32335126
_cell_length_c   11.82244512
_cell_angle_alpha   90.00000000
_cell_angle_beta   90.00000000
_cell_angle_gamma   90.00000000
_symmetry_Int_Tables_number   1
_chemical_formula_structural   CsTe
_chemical_formula_sum   'Cs4 Te4'
_cell_volume   381.57080933
_cell_formula_units_Z   4
loop_
 _symmetry_equiv_pos_site_id
 _symmetry_equiv_pos_as_xyz
  1  'x, y, z'
loop_
 _atom_site_type_symbol
 _atom_site_label
 _atom_site_symmetry_multiplicity
 _atom_site_fract_x
 _atom_site_fract_y
 _atom_site_fract_z
 _atom_site_occupancy
  Te  Te0  1  0.000000  0.364709  0.404641  1
  Te  Te1  1  0.000000  0.635291  0.595359  1
  Te  Te2  1  0.000000  0.864709  0.095359  1
  Te  Te3  1  0.000000  0.135291  0.904641  1
  Cs  Cs4  1  0.500000  0.822000  0.364206  1
  Cs  Cs5  1  0.500000  0.178000  0.635794  1
  Cs  Cs6  1  0.500000  0.322000  0.135794  1
  Cs  Cs7  1  0.500000  0.678000  0.864206  1
