# generated using pymatgen
data_Li2BeSiO4
_symmetry_space_group_name_H-M   'P 1'
_cell_length_a   4.75607457
_cell_length_b   4.99055984
_cell_length_c   6.15980267
_cell_angle_alpha   90.00000000
_cell_angle_beta   90.00277671
_cell_angle_gamma   90.00000000
_symmetry_Int_Tables_number   1
_chemical_formula_structural   Li2BeSiO4
_chemical_formula_sum   'Li4 Be2 Si2 O8'
_cell_volume   146.20584056
_cell_formula_units_Z   2
loop_
 _symmetry_equiv_pos_site_id
 _symmetry_equiv_pos_as_xyz
  1  'x, y, z'
loop_
 _atom_site_type_symbol
 _atom_site_label
 _atom_site_symmetry_multiplicity
 _atom_site_fract_x
 _atom_site_fract_y
 _atom_site_fract_z
 _atom_site_occupancy
  Li  Li0  1  0.998504  0.174828  0.499722  1
  Li  Li1  1  0.498504  0.825172  0.999722  1
  Li  Li2  1  0.498497  0.334917  0.747015  1
  Li  Li3  1  0.998497  0.665083  0.247015  1
  Be  Be4  1  0.508729  0.319563  0.248309  1
  Be  Be5  1  0.008729  0.680437  0.748309  1
  O  O6  1  0.352949  0.201431  0.029425  1
  O  O7  1  0.353298  0.701091  0.715648  1
  O  O8  1  0.919849  0.862553  0.965324  1
  O  O9  1  0.852949  0.798569  0.529425  1
  O  O10  1  0.419849  0.137447  0.465324  1
  O  O11  1  0.919368  0.359808  0.782293  1
  O  O12  1  0.419368  0.640193  0.282293  1
  O  O13  1  0.853298  0.298909  0.215648  1
  Si  Si14  1  0.008806  0.180314  0.997265  1
  Si  Si15  1  0.508806  0.819686  0.497265  1
