# generated using pymatgen
data_Li2Mn3(BO3)3
_symmetry_space_group_name_H-M   'P 1'
_cell_length_a   5.86676907
_cell_length_b   14.06006603
_cell_length_c   5.22572019
_cell_angle_alpha   101.02558899
_cell_angle_beta   112.38580512
_cell_angle_gamma   99.56645501
_symmetry_Int_Tables_number   1
_chemical_formula_structural   Li2Mn3(BO3)3
_chemical_formula_sum   'Li4 Mn6 B6 O18'
_cell_volume   377.40213597
_cell_formula_units_Z   2
loop_
 _symmetry_equiv_pos_site_id
 _symmetry_equiv_pos_as_xyz
  1  'x, y, z'
loop_
 _atom_site_type_symbol
 _atom_site_label
 _atom_site_symmetry_multiplicity
 _atom_site_fract_x
 _atom_site_fract_y
 _atom_site_fract_z
 _atom_site_occupancy
  Li  Li0  1  0.658561  0.127803  0.312988  1
  Li  Li1  1  0.684326  0.460943  0.985924  1
  Li  Li2  1  0.315674  0.539057  0.014076  1
  Li  Li3  1  0.341439  0.872197  0.687012  1
  Mn  Mn4  1  0.745808  0.256084  0.891975  1
  Mn  Mn5  1  0.753973  0.591181  0.578434  1
  Mn  Mn6  1  0.761690  0.917037  0.240398  1
  Mn  Mn7  1  0.238310  0.082963  0.759602  1
  Mn  Mn8  1  0.246027  0.408819  0.421566  1
  Mn  Mn9  1  0.254192  0.743916  0.108025  1
  B  B10  1  0.742884  0.034185  0.790469  1
  B  B11  1  0.744057  0.361470  0.453592  1
  B  B12  1  0.738336  0.690485  0.116202  1
  B  B13  1  0.261664  0.309515  0.883798  1
  B  B14  1  0.255943  0.638530  0.546408  1
  B  B15  1  0.257116  0.965815  0.209531  1
  O  O16  1  0.828725  0.048853  0.579364  1
  O  O17  1  0.827139  0.379081  0.242532  1
  O  O18  1  0.731431  0.270644  0.512154  1
  O  O19  1  0.697860  0.597148  0.160360  1
  O  O20  1  0.676337  0.114575  0.927327  1
  O  O21  1  0.673368  0.438215  0.593302  1
  O  O22  1  0.626522  0.762944  0.202906  1
  O  O23  1  0.877021  0.712654  0.957563  1
  O  O24  1  0.294210  0.055669  0.152534  1
  O  O25  1  0.705790  0.944331  0.847466  1
  O  O26  1  0.122979  0.287346  0.042437  1
  O  O27  1  0.373478  0.237056  0.797094  1
  O  O28  1  0.326632  0.561785  0.406698  1
  O  O29  1  0.323663  0.885425  0.072673  1
  O  O30  1  0.302140  0.402852  0.839640  1
  O  O31  1  0.268569  0.729356  0.487846  1
  O  O32  1  0.172861  0.620919  0.757468  1
  O  O33  1  0.171275  0.951147  0.420636  1
