# generated using pymatgen
data_LiMn(PO3)4
_symmetry_space_group_name_H-M   'P 1'
_cell_length_a   7.37103569
_cell_length_b   13.05249631
_cell_length_c   9.46694003
_cell_angle_alpha   90.00000000
_cell_angle_beta   90.48037221
_cell_angle_gamma   90.00000000
_symmetry_Int_Tables_number   1
_chemical_formula_structural   LiMn(PO3)4
_chemical_formula_sum   'Li4 Mn4 P16 O48'
_cell_volume   910.78622775
_cell_formula_units_Z   4
loop_
 _symmetry_equiv_pos_site_id
 _symmetry_equiv_pos_as_xyz
  1  'x, y, z'
loop_
 _atom_site_type_symbol
 _atom_site_label
 _atom_site_symmetry_multiplicity
 _atom_site_fract_x
 _atom_site_fract_y
 _atom_site_fract_z
 _atom_site_occupancy
  Li  Li0  1  0.977525  0.212459  0.025525  1
  Li  Li1  1  0.522475  0.712459  0.474475  1
  Li  Li2  1  0.477525  0.287541  0.525525  1
  Li  Li3  1  0.022475  0.787541  0.974475  1
  Mn  Mn4  1  0.995794  0.288948  0.431091  1
  Mn  Mn5  1  0.504206  0.788948  0.068909  1
  Mn  Mn6  1  0.495794  0.211052  0.931091  1
  Mn  Mn7  1  0.004206  0.711052  0.568909  1
  P  P8  1  0.075613  0.622081  0.255908  1
  P  P9  1  0.113519  0.126598  0.695926  1
  P  P10  1  0.168923  0.907397  0.708552  1
  P  P11  1  0.294591  0.902110  0.229853  1
  P  P12  1  0.205409  0.402110  0.270147  1
  P  P13  1  0.331077  0.407397  0.791448  1
  P  P14  1  0.386481  0.626598  0.804074  1
  P  P15  1  0.424387  0.122081  0.244092  1
  P  P16  1  0.575613  0.877919  0.755908  1
  P  P17  1  0.613519  0.373402  0.195926  1
  P  P18  1  0.668923  0.592603  0.208552  1
  P  P19  1  0.794591  0.597890  0.729853  1
  P  P20  1  0.705409  0.097890  0.770147  1
  P  P21  1  0.831077  0.092603  0.291448  1
  P  P22  1  0.886481  0.873402  0.304074  1
  P  P23  1  0.924387  0.377919  0.744092  1
  O  O24  1  0.107213  0.877846  0.294024  1
  O  O25  1  0.037989  0.895469  0.825881  1
  O  O26  1  0.129485  0.416066  0.731267  1
  O  O27  1  0.060899  0.325060  0.220275  1
  O  O28  1  0.103435  0.693788  0.136550  1
  O  O29  1  0.194735  0.135704  0.839299  1
  O  O30  1  0.138074  0.649885  0.403169  1
  O  O31  1  0.305134  0.892691  0.067831  1
  O  O32  1  0.174342  0.514320  0.213982  1
  O  O33  1  0.152783  0.015544  0.625810  1
  O  O34  1  0.151757  0.206310  0.584853  1
  O  O35  1  0.336239  0.328024  0.910126  1
  O  O36  1  0.163761  0.828024  0.589874  1
  O  O37  1  0.325658  0.014320  0.286018  1
  O  O38  1  0.348243  0.706310  0.915147  1
  O  O39  1  0.194866  0.392691  0.432169  1
  O  O40  1  0.347217  0.515544  0.874190  1
  O  O41  1  0.361926  0.149885  0.096831  1
  O  O42  1  0.305265  0.635704  0.660701  1
  O  O43  1  0.396565  0.193788  0.363450  1
  O  O44  1  0.439101  0.825060  0.279725  1
  O  O45  1  0.370515  0.916066  0.768733  1
  O  O46  1  0.392787  0.377846  0.205976  1
  O  O47  1  0.462011  0.395469  0.674119  1
  O  O48  1  0.537989  0.604531  0.325881  1
  O  O49  1  0.607213  0.622154  0.794024  1
  O  O50  1  0.629485  0.083934  0.231267  1
  O  O51  1  0.560899  0.174940  0.720275  1
  O  O52  1  0.603435  0.806212  0.636550  1
  O  O53  1  0.694735  0.364296  0.339299  1
  O  O54  1  0.638074  0.850115  0.903169  1
  O  O55  1  0.652783  0.484456  0.125810  1
  O  O56  1  0.805134  0.607309  0.567831  1
  O  O57  1  0.651757  0.293690  0.084853  1
  O  O58  1  0.674342  0.985680  0.713982  1
  O  O59  1  0.836239  0.171976  0.410126  1
  O  O60  1  0.663761  0.671976  0.089874  1
  O  O61  1  0.848243  0.793690  0.415147  1
  O  O62  1  0.847217  0.984456  0.374190  1
  O  O63  1  0.825658  0.485680  0.786018  1
  O  O64  1  0.694866  0.107309  0.932169  1
  O  O65  1  0.861926  0.350115  0.596831  1
  O  O66  1  0.805265  0.864296  0.160701  1
  O  O67  1  0.896565  0.306212  0.863450  1
  O  O68  1  0.939101  0.674940  0.779725  1
  O  O69  1  0.870515  0.583934  0.268733  1
  O  O70  1  0.962011  0.104531  0.174119  1
  O  O71  1  0.892787  0.122154  0.705976  1
