# generated using pymatgen
data_Mn2O3F
_symmetry_space_group_name_H-M   'P 1'
_cell_length_a   4.59729488
_cell_length_b   4.59729488
_cell_length_c   12.11346721
_cell_angle_alpha   90.00000000
_cell_angle_beta   90.00000000
_cell_angle_gamma   92.73809954
_symmetry_Int_Tables_number   1
_chemical_formula_structural   Mn2O3F
_chemical_formula_sum   'Mn8 O12 F4'
_cell_volume   255.72729534
_cell_formula_units_Z   4
loop_
 _symmetry_equiv_pos_site_id
 _symmetry_equiv_pos_as_xyz
  1  'x, y, z'
loop_
 _atom_site_type_symbol
 _atom_site_label
 _atom_site_symmetry_multiplicity
 _atom_site_fract_x
 _atom_site_fract_y
 _atom_site_fract_z
 _atom_site_occupancy
  Mn  Mn0  1  0.998545  0.001455  0.000476  1
  Mn  Mn1  1  0.998545  0.001455  0.249524  1
  Mn  Mn2  1  0.016874  0.983126  0.499167  1
  Mn  Mn3  1  0.016874  0.983126  0.750833  1
  Mn  Mn4  1  0.485972  0.514028  0.625000  1
  Mn  Mn5  1  0.523869  0.476131  0.125000  1
  Mn  Mn6  1  0.481341  0.518659  0.374725  1
  Mn  Mn7  1  0.481341  0.518659  0.875275  1
  O  O8  1  0.191137  0.808863  0.374686  1
  O  O9  1  0.197429  0.802571  0.625000  1
  O  O10  1  0.191137  0.808863  0.875314  1
  O  O11  1  0.311106  0.304071  0.999992  1
  O  O12  1  0.311106  0.304071  0.250008  1
  O  O13  1  0.300953  0.310213  0.499795  1
  O  O14  1  0.300953  0.310213  0.750205  1
  O  O15  1  0.695929  0.688894  0.999992  1
  O  O16  1  0.695929  0.688894  0.250008  1
  O  O17  1  0.689787  0.699047  0.499795  1
  O  O18  1  0.689787  0.699047  0.750205  1
  O  O19  1  0.811629  0.188371  0.125000  1
  F  F20  1  0.221021  0.778979  0.125000  1
  F  F21  1  0.789540  0.210460  0.381367  1
  F  F22  1  0.809649  0.190351  0.625000  1
  F  F23  1  0.789540  0.210460  0.868633  1
