# generated using pymatgen
data_Pm2S3
_symmetry_space_group_name_H-M   'P 1'
_cell_length_a   7.13880349
_cell_length_b   7.13880351
_cell_length_c   7.52225607
_cell_angle_alpha   118.32758706
_cell_angle_beta   61.67241046
_cell_angle_gamma   119.99999986
_symmetry_Int_Tables_number   1
_chemical_formula_structural   Pm2S3
_chemical_formula_sum   'Pm4 S6'
_cell_volume   277.72291307
_cell_formula_units_Z   2
loop_
 _symmetry_equiv_pos_site_id
 _symmetry_equiv_pos_as_xyz
  1  'x, y, z'
loop_
 _atom_site_type_symbol
 _atom_site_label
 _atom_site_symmetry_multiplicity
 _atom_site_fract_x
 _atom_site_fract_y
 _atom_site_fract_z
 _atom_site_occupancy
  Pm  Pm0  1  0.646961  0.353041  0.059119  1
  Pm  Pm1  1  0.853039  0.146961  0.440882  1
  Pm  Pm2  1  0.146960  0.853039  0.559119  1
  Pm  Pm3  1  0.353040  0.646962  0.940882  1
  S  S4  1  0.250000  0.046364  0.250001  1
  S  S5  1  0.953637  0.453638  0.250001  1
  S  S6  1  0.546362  0.749999  0.250001  1
  S  S7  1  0.453637  0.250000  0.750001  1
  S  S8  1  0.046363  0.546363  0.750001  1
  S  S9  1  0.750000  0.953639  0.750001  1
