# generated using pymatgen
data_CaBiO3
_symmetry_space_group_name_H-M   'P 1'
_cell_length_a   5.93906319
_cell_length_b   5.93889931
_cell_length_c   6.16605418
_cell_angle_alpha   61.21768250
_cell_angle_beta   118.77918090
_cell_angle_gamma   119.99841479
_symmetry_Int_Tables_number   1
_chemical_formula_structural   CaBiO3
_chemical_formula_sum   'Ca2 Bi2 O6'
_cell_volume   156.56118009
_cell_formula_units_Z   2
loop_
 _symmetry_equiv_pos_site_id
 _symmetry_equiv_pos_as_xyz
  1  'x, y, z'
loop_
 _atom_site_type_symbol
 _atom_site_label
 _atom_site_symmetry_multiplicity
 _atom_site_fract_x
 _atom_site_fract_y
 _atom_site_fract_z
 _atom_site_occupancy
  Ca  Ca0  1  0.862375  0.137629  0.587132  1
  Ca  Ca1  1  0.137634  0.862354  0.412907  1
  Bi  Bi2  1  0.646740  0.353227  0.940183  1
  Bi  Bi3  1  0.353268  0.646759  0.059854  1
  O  O4  1  0.959628  0.732970  0.763328  1
  O  O5  1  0.536726  0.040443  0.763343  1
  O  O6  1  0.267140  0.463246  0.763357  1
  O  O7  1  0.732870  0.536760  0.236614  1
  O  O8  1  0.463266  0.959599  0.236637  1
  O  O9  1  0.040353  0.267014  0.236644  1
