# generated using pymatgen
data_ThNb4O12
_symmetry_space_group_name_H-M   'P 1'
_cell_length_a   5.61616291
_cell_length_b   5.55610625
_cell_length_c   15.81244888
_cell_angle_alpha   90.00000000
_cell_angle_beta   90.00000000
_cell_angle_gamma   90.00000000
_symmetry_Int_Tables_number   1
_chemical_formula_structural   ThNb4O12
_chemical_formula_sum   'Th2 Nb8 O24'
_cell_volume   493.41162078
_cell_formula_units_Z   2
loop_
 _symmetry_equiv_pos_site_id
 _symmetry_equiv_pos_as_xyz
  1  'x, y, z'
loop_
 _atom_site_type_symbol
 _atom_site_label
 _atom_site_symmetry_multiplicity
 _atom_site_fract_x
 _atom_site_fract_y
 _atom_site_fract_z
 _atom_site_occupancy
  Th  Th0  1  0.250000  0.238813  0.000000  1
  Th  Th1  1  0.750000  0.761187  0.500000  1
  Nb  Nb2  1  0.250000  0.737840  0.131078  1
  Nb  Nb3  1  0.250000  0.761196  0.628058  1
  Nb  Nb4  1  0.250000  0.761196  0.371942  1
  Nb  Nb5  1  0.250000  0.737840  0.868922  1
  Nb  Nb6  1  0.750000  0.262160  0.368922  1
  Nb  Nb7  1  0.750000  0.238804  0.871942  1
  Nb  Nb8  1  0.750000  0.238804  0.128058  1
  Nb  Nb9  1  0.750000  0.262160  0.631078  1
  O  O10  1  0.008160  0.009029  0.132312  1
  O  O11  1  0.016328  0.486732  0.098757  1
  O  O12  1  0.991840  0.990971  0.367688  1
  O  O13  1  0.983672  0.513268  0.401243  1
  O  O14  1  0.991840  0.990971  0.632312  1
  O  O15  1  0.983672  0.513268  0.598757  1
  O  O16  1  0.008160  0.009029  0.867688  1
  O  O17  1  0.016328  0.486732  0.901243  1
  O  O18  1  0.250000  0.681686  0.250304  1
  O  O19  1  0.250000  0.681686  0.749696  1
  O  O20  1  0.250000  0.832903  0.000000  1
  O  O21  1  0.250000  0.805385  0.500000  1
  O  O22  1  0.516328  0.513268  0.598757  1
  O  O23  1  0.483672  0.486732  0.098757  1
  O  O24  1  0.483672  0.486732  0.901243  1
  O  O25  1  0.508160  0.990971  0.632312  1
  O  O26  1  0.516328  0.513268  0.401243  1
  O  O27  1  0.491840  0.009029  0.867688  1
  O  O28  1  0.491840  0.009029  0.132312  1
  O  O29  1  0.508160  0.990971  0.367688  1
  O  O30  1  0.750000  0.194615  0.000000  1
  O  O31  1  0.750000  0.318314  0.249696  1
  O  O32  1  0.750000  0.167097  0.500000  1
  O  O33  1  0.750000  0.318314  0.750304  1
