# generated using pymatgen
data_CsNa2Be6(BO3)5
_symmetry_space_group_name_H-M   'P 1'
_cell_length_a   7.34385738
_cell_length_b   7.34385738
_cell_length_c   10.87228960
_cell_angle_alpha   77.62830434
_cell_angle_beta   102.37169566
_cell_angle_gamma   144.72615942
_symmetry_Int_Tables_number   1
_chemical_formula_structural   CsNa2Be6(BO3)5
_chemical_formula_sum   'Cs1 Na2 Be6 B5 O15'
_cell_volume   329.94953629
_cell_formula_units_Z   1
loop_
 _symmetry_equiv_pos_site_id
 _symmetry_equiv_pos_as_xyz
  1  'x, y, z'
loop_
 _atom_site_type_symbol
 _atom_site_label
 _atom_site_symmetry_multiplicity
 _atom_site_fract_x
 _atom_site_fract_y
 _atom_site_fract_z
 _atom_site_occupancy
  Cs  Cs0  1  0.459619  0.459619  0.000000  1
  Na  Na1  1  0.796611  0.172408  0.456419  1
  Na  Na2  1  0.172408  0.796612  0.543582  1
  Be  Be3  1  0.189278  0.704868  0.077496  1
  Be  Be4  1  0.704867  0.189278  0.922504  1
  Be  Be5  1  0.321540  0.600842  0.296919  1
  Be  Be6  1  0.600843  0.321539  0.703081  1
  Be  Be7  1  0.950484  0.969639  0.364797  1
  Be  Be8  1  0.969640  0.950483  0.635203  1
  B  B9  1  0.146679  0.811607  0.275264  1
  B  B10  1  0.811606  0.146679  0.724735  1
  B  B11  1  0.791438  0.110911  0.163682  1
  B  B12  1  0.110911  0.791437  0.836318  1
  B  B13  1  0.454163  0.454163  0.500000  1
  O  O14  1  0.095842  0.423544  0.165757  1
  O  O15  1  0.423544  0.095842  0.834244  1
  O  O16  1  0.579136  0.004571  0.061956  1
  O  O17  1  0.004570  0.579136  0.938045  1
  O  O18  1  0.253339  0.725985  0.355191  1
  O  O19  1  0.725985  0.253339  0.644809  1
  O  O20  1  0.763264  0.763264  0.500000  1
  O  O21  1  0.243032  0.348374  0.398041  1
  O  O22  1  0.348374  0.243031  0.601960  1
  O  O23  1  0.696865  0.901185  0.264772  1
  O  O24  1  0.901185  0.696864  0.735229  1
  O  O25  1  0.112630  0.803989  0.146846  1
  O  O26  1  0.803990  0.112629  0.853155  1
  O  O27  1  0.082117  0.897596  0.335832  1
  O  O28  1  0.897596  0.082117  0.664168  1
