# generated using pymatgen
data_TbBr3
_symmetry_space_group_name_H-M   'P 1'
_cell_length_a   10.29417506
_cell_length_b   10.29417789
_cell_length_c   3.77479070
_cell_angle_alpha   90.00000000
_cell_angle_beta   90.00000000
_cell_angle_gamma   120.00000233
_symmetry_Int_Tables_number   1
_chemical_formula_structural   TbBr3
_chemical_formula_sum   'Tb2 Br6'
_cell_volume   346.42299835
_cell_formula_units_Z   2
loop_
 _symmetry_equiv_pos_site_id
 _symmetry_equiv_pos_as_xyz
  1  'x, y, z'
loop_
 _atom_site_type_symbol
 _atom_site_label
 _atom_site_symmetry_multiplicity
 _atom_site_fract_x
 _atom_site_fract_y
 _atom_site_fract_z
 _atom_site_occupancy
  Tb  Tb0  1  0.333333  0.666667  0.750002  1
  Tb  Tb1  1  0.666666  0.333333  0.250000  1
  Br  Br2  1  0.213700  0.427401  0.250000  1
  Br  Br3  1  0.572599  0.786300  0.250000  1
  Br  Br4  1  0.213701  0.786300  0.250000  1
  Br  Br5  1  0.786299  0.572599  0.750002  1
  Br  Br6  1  0.427402  0.213701  0.750002  1
  Br  Br7  1  0.786300  0.213701  0.750002  1
