# generated using pymatgen
data_Li5Ti3V2(PO4)6
_symmetry_space_group_name_H-M   'P 1'
_cell_length_a   8.50057341
_cell_length_b   8.94753550
_cell_length_c   8.95735421
_cell_angle_alpha   59.79207741
_cell_angle_beta   58.71883334
_cell_angle_gamma   58.55384271
_symmetry_Int_Tables_number   1
_chemical_formula_structural   Li5Ti3V2(PO4)6
_chemical_formula_sum   'Li5 Ti3 V2 P6 O24'
_cell_volume   470.85917832
_cell_formula_units_Z   1
loop_
 _symmetry_equiv_pos_site_id
 _symmetry_equiv_pos_as_xyz
  1  'x, y, z'
loop_
 _atom_site_type_symbol
 _atom_site_label
 _atom_site_symmetry_multiplicity
 _atom_site_fract_x
 _atom_site_fract_y
 _atom_site_fract_z
 _atom_site_occupancy
  Li  Li0  1  0.523817  0.161230  0.157279  1
  Li  Li1  1  0.253623  0.857537  0.642989  1
  Li  Li2  1  0.715224  0.146661  0.333051  1
  Li  Li3  1  0.715762  0.805228  0.145011  1
  Li  Li4  1  0.714326  0.335769  0.805571  1
  Ti  Ti5  1  0.068872  0.641535  0.644383  1
  Ti  Ti6  1  0.438982  0.852091  0.857524  1
  Ti  Ti7  1  0.952302  0.349991  0.347264  1
  V  V8  1  0.997833  0.001052  0.004818  1
  V  V9  1  0.493277  0.498464  0.501043  1
  P  P10  1  0.256383  0.247637  0.551073  1
  P  P11  1  0.258514  0.945898  0.243640  1
  P  P12  1  0.257075  0.551529  0.945245  1
  P  P13  1  0.755511  0.452518  0.045646  1
  P  P14  1  0.762870  0.044670  0.745346  1
  P  P15  1  0.745096  0.748165  0.454423  1
  O  O16  1  0.073029  0.106906  0.308363  1
  O  O17  1  0.070520  0.514038  0.103269  1
  O  O18  1  0.070737  0.313385  0.508601  1
  O  O19  1  0.228495  0.086700  0.741605  1
  O  O20  1  0.446396  0.184841  0.400031  1
  O  O21  1  0.263948  0.402216  0.579470  1
  O  O22  1  0.230394  0.928678  0.094295  1
  O  O23  1  0.267410  0.758302  0.409156  1
  O  O24  1  0.567503  0.609603  0.006398  1
  O  O25  1  0.271697  0.581532  0.748665  1
  O  O26  1  0.781447  0.263471  0.054534  1
  O  O27  1  0.585689  0.997563  0.804707  1
  O  O28  1  0.449154  0.971879  0.180063  1
  O  O29  1  0.226194  0.750399  0.924127  1
  O  O30  1  0.729538  0.427004  0.243921  1
  O  O31  1  0.447541  0.400158  0.970580  1
  O  O32  1  0.734383  0.242563  0.594853  1
  O  O33  1  0.779325  0.059960  0.902017  1
  O  O34  1  0.731609  0.597521  0.421724  1
  O  O35  1  0.547918  0.809271  0.606992  1
  O  O36  1  0.776848  0.903478  0.265501  1
  O  O37  1  0.917977  0.675175  0.514637  1
  O  O38  1  0.935559  0.503483  0.895514  1
  O  O39  1  0.957221  0.894902  0.673667  1
