# generated using pymatgen
data_Li2FePO5
_symmetry_space_group_name_H-M   'P 1'
_cell_length_a   13.40021177
_cell_length_b   12.84521653
_cell_length_c   5.12431582
_cell_angle_alpha   90.00000000
_cell_angle_beta   90.00000000
_cell_angle_gamma   60.40652325
_symmetry_Int_Tables_number   1
_chemical_formula_structural   Li2FePO5
_chemical_formula_sum   'Li16 Fe8 P8 O40'
_cell_volume   766.98013923
_cell_formula_units_Z   8
loop_
 _symmetry_equiv_pos_site_id
 _symmetry_equiv_pos_as_xyz
  1  'x, y, z'
loop_
 _atom_site_type_symbol
 _atom_site_label
 _atom_site_symmetry_multiplicity
 _atom_site_fract_x
 _atom_site_fract_y
 _atom_site_fract_z
 _atom_site_occupancy
  Li  Li0  1  0.362660  0.816471  0.721263  1
  Li  Li1  1  0.080778  0.575799  0.760544  1
  Li  Li2  1  0.144018  0.674474  0.213819  1
  Li  Li3  1  0.578567  0.834438  0.723756  1
  Li  Li4  1  0.421433  0.665562  0.223756  1
  Li  Li5  1  0.855982  0.825526  0.713819  1
  Li  Li6  1  0.362660  0.316471  0.778737  1
  Li  Li7  1  0.080778  0.075799  0.739456  1
  Li  Li8  1  0.919222  0.924201  0.260544  1
  Li  Li9  1  0.637340  0.683529  0.221263  1
  Li  Li10  1  0.144018  0.174474  0.286181  1
  Li  Li11  1  0.578567  0.334438  0.776244  1
  Li  Li12  1  0.421433  0.165562  0.276244  1
  Li  Li13  1  0.855982  0.325526  0.786181  1
  Li  Li14  1  0.919222  0.424201  0.239456  1
  Li  Li15  1  0.637340  0.183529  0.278737  1
  Fe  Fe16  1  0.062467  0.808166  0.729027  1
  Fe  Fe17  1  0.434249  0.875701  0.257390  1
  Fe  Fe18  1  0.062467  0.308166  0.770973  1
  Fe  Fe19  1  0.565751  0.624299  0.757390  1
  Fe  Fe20  1  0.434249  0.375701  0.242610  1
  Fe  Fe21  1  0.937533  0.691834  0.229027  1
  Fe  Fe22  1  0.565751  0.124299  0.742610  1
  Fe  Fe23  1  0.937533  0.191834  0.270973  1
  P  P24  1  0.161681  0.909292  0.225978  1
  P  P25  1  0.662405  0.924483  0.232252  1
  P  P26  1  0.161681  0.409292  0.274022  1
  P  P27  1  0.337595  0.575517  0.732252  1
  P  P28  1  0.662405  0.424483  0.267748  1
  P  P29  1  0.838319  0.590708  0.725978  1
  P  P30  1  0.337595  0.075517  0.767748  1
  P  P31  1  0.838319  0.090708  0.774022  1
  O  O32  1  0.133518  0.912713  0.928411  1
  O  O33  1  0.991335  0.785194  0.026462  1
  O  O34  1  0.120118  0.832565  0.375249  1
  O  O35  1  0.391137  0.955639  0.616275  1
  O  O36  1  0.292859  0.850799  0.268241  1
  O  O37  1  0.101260  0.537859  0.154167  1
  O  O38  1  0.208268  0.646263  0.804902  1
  O  O39  1  0.643669  0.950990  0.931561  1
  O  O40  1  0.496980  0.777409  0.965088  1
  O  O41  1  0.133518  0.412713  0.571589  1
  O  O42  1  0.991335  0.285194  0.473538  1
  O  O43  1  0.603855  0.852280  0.323576  1
  O  O44  1  0.396145  0.647720  0.823576  1
  O  O45  1  0.120118  0.332565  0.124751  1
  O  O46  1  0.503020  0.722591  0.465088  1
  O  O47  1  0.356331  0.549010  0.431561  1
  O  O48  1  0.391137  0.455639  0.883725  1
  O  O49  1  0.292859  0.350799  0.231759  1
  O  O50  1  0.791732  0.853737  0.304902  1
  O  O51  1  0.898740  0.962141  0.654167  1
  O  O52  1  0.101260  0.037859  0.345833  1
  O  O53  1  0.208268  0.146263  0.695098  1
  O  O54  1  0.707141  0.649201  0.768241  1
  O  O55  1  0.608863  0.544361  0.116275  1
  O  O56  1  0.643669  0.450990  0.568439  1
  O  O57  1  0.496980  0.277409  0.534912  1
  O  O58  1  0.879882  0.667435  0.875249  1
  O  O59  1  0.603855  0.352280  0.176424  1
  O  O60  1  0.396145  0.147720  0.676424  1
  O  O61  1  0.008665  0.714806  0.526462  1
  O  O62  1  0.866482  0.587287  0.428411  1
  O  O63  1  0.503020  0.222591  0.034912  1
  O  O64  1  0.356331  0.049010  0.068439  1
  O  O65  1  0.791732  0.353737  0.195098  1
  O  O66  1  0.898740  0.462141  0.845833  1
  O  O67  1  0.707141  0.149201  0.731759  1
  O  O68  1  0.608863  0.044361  0.383725  1
  O  O69  1  0.879882  0.167435  0.624751  1
  O  O70  1  0.008665  0.214806  0.973538  1
  O  O71  1  0.866482  0.087287  0.071589  1
