# generated using pymatgen
data_CaSnS3
_symmetry_space_group_name_H-M   'P 1'
_cell_length_a   11.72622465
_cell_length_b   13.59435593
_cell_length_c   16.41044603
_cell_angle_alpha   82.79497215
_cell_angle_beta   92.21788702
_cell_angle_gamma   74.33724901
_symmetry_Int_Tables_number   1
_chemical_formula_structural   CaSnS3
_chemical_formula_sum   'Ca18 Sn18 S54'
_cell_volume   2491.74918826
_cell_formula_units_Z   18
loop_
 _symmetry_equiv_pos_site_id
 _symmetry_equiv_pos_as_xyz
  1  'x, y, z'
loop_
 _atom_site_type_symbol
 _atom_site_label
 _atom_site_symmetry_multiplicity
 _atom_site_fract_x
 _atom_site_fract_y
 _atom_site_fract_z
 _atom_site_occupancy
  Ca  Ca0  1  0.469099  0.120704  0.040635  1
  Ca  Ca1  1  0.715609  0.112062  0.753061  1
  Ca  Ca2  1  0.029798  0.186663  0.383563  1
  Ca  Ca3  1  0.897186  0.871626  0.585570  1
  Ca  Ca4  1  0.273629  0.893773  0.248527  1
  Ca  Ca5  1  0.565601  0.824458  0.938721  1
  Ca  Ca6  1  0.388613  0.610804  0.040758  1
  Ca  Ca7  1  0.807007  0.549151  0.756320  1
  Ca  Ca8  1  0.072674  0.648891  0.427279  1
  Ca  Ca9  1  0.893711  0.372427  0.554346  1
  Ca  Ca10  1  0.261325  0.439914  0.265742  1
  Ca  Ca11  1  0.632800  0.380459  0.937200  1
  Ca  Ca12  1  0.194990  0.934355  0.940566  1
  Ca  Ca13  1  0.525018  0.921515  0.642092  1
  Ca  Ca14  1  0.897722  0.941941  0.322082  1
  Ca  Ca15  1  0.088149  0.119198  0.663237  1
  Ca  Ca16  1  0.473620  0.046458  0.378020  1
  Ca  Ca17  1  0.814576  0.051059  0.055640  1
  Sn  Sn18  1  0.376986  0.612196  0.808906  1
  Sn  Sn19  1  0.649049  0.697046  0.468983  1
  Sn  Sn20  1  0.044472  0.704783  0.112147  1
  Sn  Sn21  1  0.024062  0.288111  0.894957  1
  Sn  Sn22  1  0.231346  0.379904  0.553174  1
  Sn  Sn23  1  0.581855  0.247207  0.231991  1
  Sn  Sn24  1  0.155473  0.495800  0.938340  1
  Sn  Sn25  1  0.495186  0.494822  0.621487  1
  Sn  Sn26  1  0.905586  0.489712  0.266780  1
  Sn  Sn27  1  0.181806  0.587062  0.684656  1
  Sn  Sn28  1  0.535054  0.463372  0.404482  1
  Sn  Sn29  1  0.817133  0.504255  0.077141  1
  Sn  Sn30  1  0.308087  0.163618  0.831578  1
  Sn  Sn31  1  0.708492  0.205697  0.544132  1
  Sn  Sn32  1  0.077491  0.183803  0.161595  1
  Sn  Sn33  1  0.941034  0.823453  0.823841  1
  Sn  Sn34  1  0.237213  0.877116  0.467625  1
  Sn  Sn35  1  0.736058  0.794134  0.166024  1
  S  S36  1  0.627526  0.736548  0.746455  1
  S  S37  1  0.795393  0.796517  0.447093  1
  S  S38  1  0.206376  0.809764  0.108726  1
  S  S39  1  0.761452  0.179580  0.902049  1
  S  S40  1  0.114234  0.250680  0.521845  1
  S  S41  1  0.374428  0.231786  0.245206  1
  S  S42  1  0.367150  0.754473  0.895120  1
  S  S43  1  0.724729  0.754933  0.646216  1
  S  S44  1  0.917232  0.871148  0.169752  1
  S  S45  1  0.102141  0.120780  0.833772  1
  S  S46  1  0.371169  0.256156  0.368066  1
  S  S47  1  0.629128  0.231359  0.090850  1
  S  S48  1  0.294032  0.950121  0.691353  1
  S  S49  1  0.464499  0.844763  0.496954  1
  S  S50  1  0.042585  0.609508  0.257311  1
  S  S51  1  0.007262  0.383916  0.753768  1
  S  S52  1  0.339834  0.087551  0.681614  1
  S  S53  1  0.678514  0.093727  0.327641  1
  S  S54  1  0.214167  0.294308  0.966233  1
  S  S55  1  0.530718  0.300361  0.607938  1
  S  S56  1  0.767901  0.304438  0.427918  1
  S  S57  1  0.149901  0.730833  0.567847  1
  S  S58  1  0.561480  0.650899  0.349777  1
  S  S59  1  0.852198  0.684644  0.049319  1
  S  S60  1  0.382490  0.472482  0.926317  1
  S  S61  1  0.690920  0.539512  0.576453  1
  S  S62  1  0.079064  0.326821  0.246129  1
  S  S63  1  0.994395  0.660806  0.769455  1
  S  S64  1  0.278965  0.493310  0.426376  1
  S  S65  1  0.619913  0.583412  0.005768  1
  S  S66  1  0.195988  0.537790  0.090207  1
  S  S67  1  0.580041  0.498525  0.774195  1
  S  S68  1  0.917496  0.522962  0.434500  1
  S  S69  1  0.013306  0.520262  0.550025  1
  S  S70  1  0.522448  0.433103  0.247432  1
  S  S71  1  0.861154  0.436269  0.934171  1
  S  S72  1  0.384040  0.008973  0.939225  1
  S  S73  1  0.670386  0.037930  0.566365  1
  S  S74  1  0.939409  0.119636  0.240494  1
  S  S75  1  0.940517  0.966287  0.723456  1
  S  S76  1  0.243985  0.031682  0.369312  1
  S  S77  1  0.644198  0.938859  0.053421  1
  S  S78  1  0.595100  0.965335  0.796505  1
  S  S79  1  0.930278  0.034449  0.464181  1
  S  S80  1  0.276248  0.058592  0.129472  1
  S  S81  1  0.745251  0.905993  0.876964  1
  S  S82  1  0.076970  0.980410  0.548159  1
  S  S83  1  0.437262  0.001730  0.198389  1
  S  S84  1  0.574485  0.205530  0.882466  1
  S  S85  1  0.845751  0.217809  0.656275  1
  S  S86  1  0.001134  0.157607  0.024806  1
  S  S87  1  0.021076  0.835969  0.959796  1
  S  S88  1  0.136875  0.816786  0.357320  1
  S  S89  1  0.374904  0.734362  0.163708  1
