# generated using pymatgen
data_Mn3O5F
_symmetry_space_group_name_H-M   'P 1'
_cell_length_a   7.24299724
_cell_length_b   5.45439369
_cell_length_c   5.45439369
_cell_angle_alpha   70.82505602
_cell_angle_beta   71.21801503
_cell_angle_gamma   71.21801503
_symmetry_Int_Tables_number   1
_chemical_formula_structural   Mn3O5F
_chemical_formula_sum   'Mn6 O10 F2'
_cell_volume   186.97203440
_cell_formula_units_Z   2
loop_
 _symmetry_equiv_pos_site_id
 _symmetry_equiv_pos_as_xyz
  1  'x, y, z'
loop_
 _atom_site_type_symbol
 _atom_site_label
 _atom_site_symmetry_multiplicity
 _atom_site_fract_x
 _atom_site_fract_y
 _atom_site_fract_z
 _atom_site_occupancy
  Mn  Mn0  1  0.844455  0.674118  0.674118  1
  Mn  Mn1  1  0.668930  0.327773  0.327773  1
  Mn  Mn2  1  0.320459  0.656192  0.656192  1
  Mn  Mn3  1  0.162890  0.330925  0.330925  1
  Mn  Mn4  1  0.508439  0.003874  0.003874  1
  Mn  Mn5  1  0.991281  0.004721  0.004721  1
  O  O6  1  0.666897  0.027215  0.638675  1
  O  O7  1  0.334952  0.362385  0.970542  1
  O  O8  1  0.961215  0.231197  0.231197  1
  O  O9  1  0.705211  0.103253  0.103253  1
  O  O10  1  0.033551  0.772505  0.772505  1
  O  O11  1  0.372301  0.430876  0.430876  1
  O  O12  1  0.334952  0.970542  0.362385  1
  O  O13  1  0.666897  0.638675  0.027215  1
  O  O14  1  0.999514  0.307589  0.695996  1
  O  O15  1  0.999514  0.695996  0.307589  1
  F  F16  1  0.295932  0.895367  0.895367  1
  F  F17  1  0.632612  0.566798  0.566798  1
