# generated using pymatgen
data_FeH10N2Cl5O
_symmetry_space_group_name_H-M   'P 1'
_cell_length_a   13.92887920
_cell_length_b   9.95730153
_cell_length_c   7.17052371
_cell_angle_alpha   90.00000000
_cell_angle_beta   90.00000000
_cell_angle_gamma   90.00000000
_symmetry_Int_Tables_number   1
_chemical_formula_structural   FeH10N2Cl5O
_chemical_formula_sum   'Fe4 H40 N8 Cl20 O4'
_cell_volume   994.50897518
_cell_formula_units_Z   4
loop_
 _symmetry_equiv_pos_site_id
 _symmetry_equiv_pos_as_xyz
  1  'x, y, z'
loop_
 _atom_site_type_symbol
 _atom_site_label
 _atom_site_symmetry_multiplicity
 _atom_site_fract_x
 _atom_site_fract_y
 _atom_site_fract_z
 _atom_site_occupancy
  Fe  Fe0  1  0.119818  0.250000  0.187310  1
  Fe  Fe1  1  0.380182  0.750000  0.687310  1
  Fe  Fe2  1  0.619818  0.250000  0.312690  1
  Fe  Fe3  1  0.880182  0.750000  0.812690  1
  H  H4  1  0.029596  0.669393  0.051944  1
  H  H5  1  0.029596  0.830607  0.051944  1
  H  H6  1  0.098658  0.580587  0.653308  1
  H  H7  1  0.098658  0.919413  0.653308  1
  H  H8  1  0.105925  0.088174  0.627191  1
  H  H9  1  0.105925  0.411826  0.627191  1
  H  H10  1  0.154666  0.015474  0.817218  1
  H  H11  1  0.154666  0.484526  0.817218  1
  H  H12  1  0.205443  0.992968  0.608116  1
  H  H13  1  0.205443  0.507032  0.608116  1
  H  H14  1  0.294557  0.492968  0.108116  1
  H  H15  1  0.294557  0.007032  0.108116  1
  H  H16  1  0.345334  0.984526  0.317218  1
  H  H17  1  0.345334  0.515474  0.317218  1
  H  H18  1  0.394075  0.588174  0.127191  1
  H  H19  1  0.394075  0.911826  0.127191  1
  H  H20  1  0.401342  0.080587  0.153308  1
  H  H21  1  0.401342  0.419413  0.153308  1
  H  H22  1  0.470404  0.169393  0.551944  1
  H  H23  1  0.470404  0.330607  0.551944  1
  H  H24  1  0.529596  0.669393  0.448056  1
  H  H25  1  0.529596  0.830607  0.448056  1
  H  H26  1  0.598658  0.580587  0.846692  1
  H  H27  1  0.598658  0.919413  0.846692  1
  H  H28  1  0.605925  0.088174  0.872809  1
  H  H29  1  0.605925  0.411826  0.872809  1
  H  H30  1  0.654666  0.484526  0.682782  1
  H  H31  1  0.654666  0.015474  0.682782  1
  H  H32  1  0.705443  0.992968  0.891884  1
  H  H33  1  0.705443  0.507032  0.891884  1
  H  H34  1  0.794557  0.492968  0.391884  1
  H  H35  1  0.794557  0.007032  0.391884  1
  H  H36  1  0.845334  0.984526  0.182782  1
  H  H37  1  0.845334  0.515474  0.182782  1
  H  H38  1  0.894075  0.588174  0.372809  1
  H  H39  1  0.894075  0.911826  0.372809  1
  H  H40  1  0.901342  0.080587  0.346692  1
  H  H41  1  0.901342  0.419413  0.346692  1
  H  H42  1  0.970404  0.169393  0.948056  1
  H  H43  1  0.970404  0.330607  0.948056  1
  N  N44  1  0.140942  0.003712  0.676718  1
  N  N45  1  0.140942  0.496288  0.676718  1
  N  N46  1  0.359058  0.503712  0.176718  1
  N  N47  1  0.359058  0.996288  0.176718  1
  N  N48  1  0.640942  0.003712  0.823282  1
  N  N49  1  0.640942  0.496288  0.823282  1
  N  N50  1  0.859058  0.503712  0.323282  1
  N  N51  1  0.859058  0.996288  0.323282  1
  Cl  Cl52  1  0.005851  0.250000  0.455147  1
  Cl  Cl53  1  0.106218  0.008974  0.172595  1
  Cl  Cl54  1  0.106218  0.491026  0.172595  1
  Cl  Cl55  1  0.224821  0.250000  0.930432  1
  Cl  Cl56  1  0.246336  0.250000  0.398050  1
  Cl  Cl57  1  0.253664  0.750000  0.898050  1
  Cl  Cl58  1  0.275179  0.750000  0.430432  1
  Cl  Cl59  1  0.393782  0.508974  0.672595  1
  Cl  Cl60  1  0.393782  0.991026  0.672595  1
  Cl  Cl61  1  0.494149  0.750000  0.955147  1
  Cl  Cl62  1  0.505851  0.250000  0.044853  1
  Cl  Cl63  1  0.606218  0.008974  0.327405  1
  Cl  Cl64  1  0.606218  0.491026  0.327405  1
  Cl  Cl65  1  0.724821  0.250000  0.569568  1
  Cl  Cl66  1  0.746336  0.250000  0.101950  1
  Cl  Cl67  1  0.753664  0.750000  0.601950  1
  Cl  Cl68  1  0.775179  0.750000  0.069568  1
  Cl  Cl69  1  0.893782  0.508974  0.827405  1
  Cl  Cl70  1  0.893782  0.991026  0.827405  1
  Cl  Cl71  1  0.994149  0.750000  0.544853  1
  O  O72  1  0.001918  0.750000  0.993127  1
  O  O73  1  0.498082  0.250000  0.493127  1
  O  O74  1  0.501918  0.750000  0.506873  1
  O  O75  1  0.998082  0.250000  0.006873  1
