# generated using pymatgen
data_NiP(H4O3)3
_symmetry_space_group_name_H-M   'P 1'
_cell_length_a   11.31576141
_cell_length_b   18.52526526
_cell_length_c   7.31342781
_cell_angle_alpha   90.00000000
_cell_angle_beta   90.00000000
_cell_angle_gamma   90.00000000
_symmetry_Int_Tables_number   1
_chemical_formula_structural   NiP(H4O3)3
_chemical_formula_sum   'Ni8 P8 H96 O72'
_cell_volume   1533.09545469
_cell_formula_units_Z   8
loop_
 _symmetry_equiv_pos_site_id
 _symmetry_equiv_pos_as_xyz
  1  'x, y, z'
loop_
 _atom_site_type_symbol
 _atom_site_label
 _atom_site_symmetry_multiplicity
 _atom_site_fract_x
 _atom_site_fract_y
 _atom_site_fract_z
 _atom_site_occupancy
  Ni  Ni0  1  0.000000  0.000000  0.000000  1
  Ni  Ni1  1  0.000000  0.500000  0.500000  1
  Ni  Ni2  1  0.199556  0.675394  0.000000  1
  Ni  Ni3  1  0.300444  0.175394  0.500000  1
  Ni  Ni4  1  0.500000  0.000000  0.000000  1
  Ni  Ni5  1  0.500000  0.500000  0.500000  1
  Ni  Ni6  1  0.699556  0.824606  0.500000  1
  Ni  Ni7  1  0.800444  0.324606  0.000000  1
  P  P8  1  0.113110  0.857662  0.500000  1
  P  P9  1  0.206698  0.312959  0.000000  1
  P  P10  1  0.293302  0.812959  0.500000  1
  P  P11  1  0.386890  0.357662  0.000000  1
  P  P12  1  0.613110  0.642338  0.000000  1
  P  P13  1  0.706698  0.187041  0.500000  1
  P  P14  1  0.793302  0.687041  0.000000  1
  P  P15  1  0.886890  0.142338  0.500000  1
  H  H16  1  0.994190  0.681894  0.183399  1
  H  H17  1  0.994190  0.681894  0.816601  1
  H  H18  1  0.051297  0.866835  0.111781  1
  H  H19  1  0.051297  0.866835  0.888219  1
  H  H20  1  0.077687  0.743954  0.262582  1
  H  H21  1  0.077687  0.743954  0.737418  1
  H  H22  1  0.085297  0.631674  0.608153  1
  H  H23  1  0.085297  0.631674  0.391847  1
  H  H24  1  0.094040  0.164046  0.318379  1
  H  H25  1  0.094040  0.164046  0.681621  1
  H  H26  1  0.127563  0.424444  0.242758  1
  H  H27  1  0.127563  0.424444  0.757242  1
  H  H28  1  0.124279  0.984949  0.685309  1
  H  H29  1  0.124279  0.984949  0.314691  1
  H  H30  1  0.126079  0.539618  0.107945  1
  H  H31  1  0.126079  0.539618  0.892055  1
  H  H32  1  0.150640  0.063346  0.226562  1
  H  H33  1  0.150640  0.063346  0.773438  1
  H  H34  1  0.207862  0.486571  0.327152  1
  H  H35  1  0.207862  0.486571  0.672848  1
  H  H36  1  0.198472  0.182061  0.178363  1
  H  H37  1  0.198472  0.182061  0.821637  1
  H  H38  1  0.208915  0.303934  0.389878  1
  H  H39  1  0.208915  0.303934  0.610122  1
  H  H40  1  0.291085  0.803934  0.110122  1
  H  H41  1  0.291085  0.803934  0.889878  1
  H  H42  1  0.301528  0.682061  0.321637  1
  H  H43  1  0.301528  0.682061  0.678363  1
  H  H44  1  0.292138  0.986571  0.172848  1
  H  H45  1  0.292138  0.986571  0.827152  1
  H  H46  1  0.349360  0.563346  0.273438  1
  H  H47  1  0.349360  0.563346  0.726562  1
  H  H48  1  0.373921  0.039618  0.607945  1
  H  H49  1  0.373921  0.039618  0.392055  1
  H  H50  1  0.375721  0.484949  0.814691  1
  H  H51  1  0.375721  0.484949  0.185309  1
  H  H52  1  0.372437  0.924444  0.257242  1
  H  H53  1  0.372437  0.924444  0.742758  1
  H  H54  1  0.405960  0.664046  0.818379  1
  H  H55  1  0.405960  0.664046  0.181621  1
  H  H56  1  0.414703  0.131674  0.891847  1
  H  H57  1  0.414703  0.131674  0.108153  1
  H  H58  1  0.422313  0.243954  0.762582  1
  H  H59  1  0.422313  0.243954  0.237418  1
  H  H60  1  0.448703  0.366835  0.388219  1
  H  H61  1  0.448703  0.366835  0.611781  1
  H  H62  1  0.505810  0.181894  0.316601  1
  H  H63  1  0.505810  0.181894  0.683399  1
  H  H64  1  0.494190  0.818106  0.316601  1
  H  H65  1  0.494190  0.818106  0.683399  1
  H  H66  1  0.551297  0.633165  0.388219  1
  H  H67  1  0.551297  0.633165  0.611781  1
  H  H68  1  0.577687  0.756046  0.237418  1
  H  H69  1  0.577687  0.756046  0.762582  1
  H  H70  1  0.585297  0.868326  0.108153  1
  H  H71  1  0.585297  0.868326  0.891847  1
  H  H72  1  0.594040  0.335954  0.181621  1
  H  H73  1  0.594040  0.335954  0.818379  1
  H  H74  1  0.627563  0.075556  0.257242  1
  H  H75  1  0.627563  0.075556  0.742758  1
  H  H76  1  0.624279  0.515051  0.185309  1
  H  H77  1  0.624279  0.515051  0.814691  1
  H  H78  1  0.626079  0.960382  0.392055  1
  H  H79  1  0.626079  0.960382  0.607945  1
  H  H80  1  0.650640  0.436654  0.273438  1
  H  H81  1  0.650640  0.436654  0.726562  1
  H  H82  1  0.707862  0.013429  0.172848  1
  H  H83  1  0.707862  0.013429  0.827152  1
  H  H84  1  0.698472  0.317939  0.321637  1
  H  H85  1  0.698472  0.317939  0.678363  1
  H  H86  1  0.708915  0.196066  0.110122  1
  H  H87  1  0.708915  0.196066  0.889878  1
  H  H88  1  0.791085  0.696066  0.389878  1
  H  H89  1  0.791085  0.696066  0.610122  1
  H  H90  1  0.801528  0.817939  0.178363  1
  H  H91  1  0.801528  0.817939  0.821637  1
  H  H92  1  0.792138  0.513429  0.327152  1
  H  H93  1  0.792138  0.513429  0.672848  1
  H  H94  1  0.849360  0.936654  0.226562  1
  H  H95  1  0.849360  0.936654  0.773438  1
  H  H96  1  0.873921  0.460382  0.107945  1
  H  H97  1  0.873921  0.460382  0.892055  1
  H  H98  1  0.875721  0.015051  0.314691  1
  H  H99  1  0.875721  0.015051  0.685309  1
  H  H100  1  0.872437  0.575556  0.242758  1
  H  H101  1  0.872437  0.575556  0.757242  1
  H  H102  1  0.905960  0.835954  0.318379  1
  H  H103  1  0.905960  0.835954  0.681621  1
  H  H104  1  0.914703  0.368326  0.391847  1
  H  H105  1  0.914703  0.368326  0.608153  1
  H  H106  1  0.922313  0.256046  0.262582  1
  H  H107  1  0.922313  0.256046  0.737418  1
  H  H108  1  0.948703  0.133165  0.111781  1
  H  H109  1  0.948703  0.133165  0.888219  1
  H  H110  1  0.005810  0.318106  0.183399  1
  H  H111  1  0.005810  0.318106  0.816601  1
  O  O112  1  0.022863  0.891817  0.000000  1
  O  O113  1  0.053337  0.827258  0.325349  1
  O  O114  1  0.053337  0.827258  0.674651  1
  O  O115  1  0.079552  0.693000  0.213273  1
  O  O116  1  0.079552  0.693000  0.786727  1
  O  O117  1  0.082438  0.598932  0.500000  1
  O  O118  1  0.117690  0.940389  0.500000  1
  O  O119  1  0.124389  0.475331  0.707121  1
  O  O120  1  0.124389  0.475331  0.292879  1
  O  O121  1  0.138232  0.011494  0.194538  1
  O  O122  1  0.138232  0.011494  0.805462  1
  O  O123  1  0.127411  0.571897  0.000000  1
  O  O124  1  0.144423  0.340042  0.176735  1
  O  O125  1  0.144423  0.340042  0.823265  1
  O  O126  1  0.179318  0.152588  0.292389  1
  O  O127  1  0.179318  0.152588  0.707611  1
  O  O128  1  0.219623  0.230286  0.000000  1
  O  O129  1  0.248933  0.284295  0.500000  1
  O  O130  1  0.251067  0.784295  0.000000  1
  O  O131  1  0.280377  0.730286  0.500000  1
  O  O132  1  0.320682  0.652588  0.207611  1
  O  O133  1  0.320682  0.652588  0.792389  1
  O  O134  1  0.355577  0.840042  0.323265  1
  O  O135  1  0.355577  0.840042  0.676735  1
  O  O136  1  0.372589  0.071897  0.500000  1
  O  O137  1  0.361768  0.511494  0.305462  1
  O  O138  1  0.361768  0.511494  0.694538  1
  O  O139  1  0.375611  0.975331  0.792879  1
  O  O140  1  0.375611  0.975331  0.207121  1
  O  O141  1  0.382310  0.440389  0.000000  1
  O  O142  1  0.417562  0.098932  0.000000  1
  O  O143  1  0.420448  0.193000  0.713273  1
  O  O144  1  0.420448  0.193000  0.286727  1
  O  O145  1  0.446663  0.327258  0.825349  1
  O  O146  1  0.446663  0.327258  0.174651  1
  O  O147  1  0.477137  0.391817  0.500000  1
  O  O148  1  0.522863  0.608183  0.500000  1
  O  O149  1  0.553337  0.672742  0.174651  1
  O  O150  1  0.553337  0.672742  0.825349  1
  O  O151  1  0.579552  0.807000  0.286727  1
  O  O152  1  0.579552  0.807000  0.713273  1
  O  O153  1  0.582438  0.901068  0.000000  1
  O  O154  1  0.617690  0.559611  0.000000  1
  O  O155  1  0.624389  0.024669  0.207121  1
  O  O156  1  0.624389  0.024669  0.792879  1
  O  O157  1  0.638232  0.488506  0.305462  1
  O  O158  1  0.638232  0.488506  0.694538  1
  O  O159  1  0.627411  0.928103  0.500000  1
  O  O160  1  0.644423  0.159958  0.323265  1
  O  O161  1  0.644423  0.159958  0.676735  1
  O  O162  1  0.679318  0.347412  0.207611  1
  O  O163  1  0.679318  0.347412  0.792389  1
  O  O164  1  0.719623  0.269714  0.500000  1
  O  O165  1  0.748933  0.215705  0.000000  1
  O  O166  1  0.751067  0.715705  0.500000  1
  O  O167  1  0.780377  0.769714  0.000000  1
  O  O168  1  0.820682  0.847412  0.292389  1
  O  O169  1  0.820682  0.847412  0.707611  1
  O  O170  1  0.855577  0.659958  0.176735  1
  O  O171  1  0.855577  0.659958  0.823265  1
  O  O172  1  0.872589  0.428103  0.000000  1
  O  O173  1  0.861768  0.988506  0.194538  1
  O  O174  1  0.861768  0.988506  0.805462  1
  O  O175  1  0.875611  0.524669  0.292879  1
  O  O176  1  0.875611  0.524669  0.707121  1
  O  O177  1  0.882310  0.059611  0.500000  1
  O  O178  1  0.917562  0.401068  0.500000  1
  O  O179  1  0.920448  0.307000  0.213273  1
  O  O180  1  0.920448  0.307000  0.786727  1
  O  O181  1  0.946663  0.172742  0.325349  1
  O  O182  1  0.946663  0.172742  0.674651  1
  O  O183  1  0.977137  0.108183  0.000000  1
