# generated using pymatgen
data_Li2Mn3(BO3)3
_symmetry_space_group_name_H-M   'P 1'
_cell_length_a   6.33879347
_cell_length_b   14.40464146
_cell_length_c   8.82437180
_cell_angle_alpha   89.94873186
_cell_angle_beta   111.04886368
_cell_angle_gamma   90.00000000
_symmetry_Int_Tables_number   1
_chemical_formula_structural   Li2Mn3(BO3)3
_chemical_formula_sum   'Li8 Mn12 B12 O36'
_cell_volume   751.97263075
_cell_formula_units_Z   4
loop_
 _symmetry_equiv_pos_site_id
 _symmetry_equiv_pos_as_xyz
  1  'x, y, z'
loop_
 _atom_site_type_symbol
 _atom_site_label
 _atom_site_symmetry_multiplicity
 _atom_site_fract_x
 _atom_site_fract_y
 _atom_site_fract_z
 _atom_site_occupancy
  Li  Li0  1  0.144842  0.490380  0.789685  1
  Li  Li1  1  0.171047  0.860857  0.842092  1
  Li  Li2  1  0.396203  0.985774  0.292407  1
  Li  Li3  1  0.685682  0.151342  0.871362  1
  Li  Li4  1  0.420933  0.361408  0.341865  1
  Li  Li5  1  0.646923  0.489372  0.793845  1
  Li  Li6  1  0.893769  0.992219  0.287537  1
  Li  Li7  1  0.935565  0.648786  0.371130  1
  Mn  Mn8  1  0.329536  0.310873  0.669089  1
  Mn  Mn9  1  0.319817  0.005465  0.642365  1
  Mn  Mn10  1  0.093588  0.183800  0.187459  1
  Mn  Mn11  1  0.083119  0.810943  0.169289  1
  Mn  Mn12  1  0.072885  0.505658  0.143218  1
  Mn  Mn13  1  0.346637  0.684062  0.686527  1
  Mn  Mn14  1  0.839889  0.684062  0.686527  1
  Mn  Mn15  1  0.570334  0.505658  0.143218  1
  Mn  Mn16  1  0.586169  0.810943  0.169289  1
  Mn  Mn17  1  0.593871  0.183800  0.187459  1
  Mn  Mn18  1  0.822548  0.005465  0.642365  1
  Mn  Mn19  1  0.839552  0.310873  0.669089  1
  B  B20  1  0.249524  0.337057  0.999048  1
  B  B21  1  0.245014  0.665901  0.990029  1
  B  B22  1  0.002237  0.000244  0.005375  1
  B  B23  1  0.253848  0.500177  0.507338  1
  B  B24  1  0.498067  0.166147  0.496133  1
  B  B25  1  0.497416  0.835946  0.494833  1
  B  B26  1  0.746406  0.332965  0.992812  1
  B  B27  1  0.753491  0.500177  0.507338  1
  B  B28  1  0.503139  0.000244  0.005375  1
  B  B29  1  0.751982  0.663632  0.003962  1
  B  B30  1  0.000015  0.161759  0.500030  1
  B  B31  1  0.998866  0.834784  0.497732  1
  O  O32  1  0.069393  0.782147  0.638786  1
  O  O33  1  0.012212  0.256860  0.524424  1
  O  O34  1  0.003431  0.930418  0.506862  1
  O  O35  1  0.066185  0.102478  0.632371  1
  O  O36  1  0.171580  0.303397  0.843160  1
  O  O37  1  0.166042  0.629343  0.832085  1
  O  O38  1  0.230474  0.595451  0.499063  1
  O  O39  1  0.415361  0.948812  0.865578  1
  O  O40  1  0.077287  0.955698  0.156208  1
  O  O41  1  0.331828  0.455994  0.658516  1
  O  O42  1  0.200318  0.448901  0.367576  1
  O  O43  1  0.517382  0.095354  0.997821  1
  O  O44  1  0.420958  0.126509  0.341916  1
  O  O45  1  0.310751  0.608277  0.121503  1
  O  O46  1  0.416314  0.810704  0.332629  1
  O  O47  1  0.505935  0.262689  0.511871  1
  O  O48  1  0.514806  0.930676  0.529613  1
  O  O49  1  0.558151  0.770188  0.616302  1
  O  O50  1  0.567137  0.111063  0.634274  1
  O  O51  1  0.674193  0.626525  0.848387  1
  O  O52  1  0.260689  0.432670  0.021379  1
  O  O53  1  0.255156  0.762445  0.010310  1
  O  O54  1  0.317581  0.279949  0.135162  1
  O  O55  1  0.668026  0.295492  0.836053  1
  O  O56  1  0.980439  0.095354  0.997821  1
  O  O57  1  0.667257  0.448901  0.367576  1
  O  O58  1  0.826688  0.455994  0.658516  1
  O  O59  1  0.578921  0.955698  0.156208  1
  O  O60  1  0.950217  0.948812  0.865578  1
  O  O61  1  0.768589  0.595451  0.499063  1
  O  O62  1  0.810044  0.270922  0.120089  1
  O  O63  1  0.757527  0.428005  0.015054  1
  O  O64  1  0.762704  0.758934  0.025406  1
  O  O65  1  0.820208  0.605750  0.140416  1
  O  O66  1  0.921182  0.126898  0.342363  1
  O  O67  1  0.923963  0.790136  0.347927  1
