# generated using pymatgen
data_KNa2BO3
_symmetry_space_group_name_H-M   'P 1'
_cell_length_a   5.64413843
_cell_length_b   5.65161409
_cell_length_c   6.10632802
_cell_angle_alpha   90.00000000
_cell_angle_beta   90.00000000
_cell_angle_gamma   90.00000000
_symmetry_Int_Tables_number   1
_chemical_formula_structural   KNa2BO3
_chemical_formula_sum   'K2 Na4 B2 O6'
_cell_volume   194.78265719
_cell_formula_units_Z   2
loop_
 _symmetry_equiv_pos_site_id
 _symmetry_equiv_pos_as_xyz
  1  'x, y, z'
loop_
 _atom_site_type_symbol
 _atom_site_label
 _atom_site_symmetry_multiplicity
 _atom_site_fract_x
 _atom_site_fract_y
 _atom_site_fract_z
 _atom_site_occupancy
  B  B0  1  0.795942  0.750000  0.250000  1
  B  B1  1  0.204058  0.250000  0.750000  1
  O  O2  1  0.665781  0.537856  0.250000  1
  O  O3  1  0.334219  0.462144  0.750000  1
  O  O4  1  0.042386  0.750000  0.250000  1
  O  O5  1  0.957614  0.250000  0.750000  1
  O  O6  1  0.334219  0.037856  0.750000  1
  O  O7  1  0.665781  0.962144  0.250000  1
  Na  Na8  1  0.373298  0.750000  0.020648  1
  Na  Na9  1  0.373298  0.750000  0.479352  1
  Na  Na10  1  0.626702  0.250000  0.979352  1
  Na  Na11  1  0.626702  0.250000  0.520648  1
  K  K12  1  0.924034  0.750000  0.750000  1
  K  K13  1  0.075966  0.250000  0.250000  1
