# generated using pymatgen
data_Fe32O35
_symmetry_space_group_name_H-M   'P 1'
_cell_length_a   3.09952108
_cell_length_b   15.41552592
_cell_length_c   23.20653814
_cell_angle_alpha   54.64643372
_cell_angle_beta   57.49230440
_cell_angle_gamma   59.79400926
_symmetry_Int_Tables_number   1
_chemical_formula_structural   Fe32O35
_chemical_formula_sum   'Fe32 O35'
_cell_volume   732.29378797
_cell_formula_units_Z   1
loop_
 _symmetry_equiv_pos_site_id
 _symmetry_equiv_pos_as_xyz
  1  'x, y, z'
loop_
 _atom_site_type_symbol
 _atom_site_label
 _atom_site_symmetry_multiplicity
 _atom_site_fract_x
 _atom_site_fract_y
 _atom_site_fract_z
 _atom_site_occupancy
  Fe  Fe0  1  0.964485  0.013095  0.000834  1
  Fe  Fe1  1  0.052023  0.168916  0.132664  1
  Fe  Fe2  1  0.032954  0.386053  0.001409  1
  Fe  Fe3  1  0.009159  0.146288  0.281821  1
  Fe  Fe4  1  0.992873  0.597145  0.001746  1
  Fe  Fe5  1  0.002558  0.370291  0.143436  1
  Fe  Fe6  1  0.952551  0.361279  0.286105  1
  Fe  Fe7  1  0.003915  0.118841  0.424820  1
  Fe  Fe8  1  0.960128  0.573308  0.152929  1
  Fe  Fe9  1  0.994628  0.799026  0.001504  1
  Fe  Fe10  1  0.025478  0.073293  0.571915  1
  Fe  Fe11  1  0.991299  0.775885  0.140905  1
  Fe  Fe12  1  -0.010347  0.311777  0.431822  1
  Fe  Fe13  1  0.989633  0.967114  0.146874  1
  Fe  Fe14  1  0.001584  0.285677  0.569453  1
  Fe  Fe15  1  0.039778  0.513620  0.418010  1
  Fe  Fe16  1  0.041617  0.729834  0.284374  1
  Fe  Fe17  1  0.992537  0.942741  0.286923  1
  Fe  Fe18  1  -0.006185  0.026067  0.857830  1
  Fe  Fe19  1  0.006727  0.488442  0.569048  1
  Fe  Fe20  1  -0.002508  0.714366  0.428690  1
  Fe  Fe21  1  0.002024  0.058202  0.714697  1
  Fe  Fe22  1  0.008380  0.457869  0.712103  1
  Fe  Fe23  1  0.952452  0.700183  0.572283  1
  Fe  Fe24  1  0.972335  0.912086  0.436987  1
  Fe  Fe25  1  0.970316  0.225785  0.866057  1
  Fe  Fe26  1  0.990828  0.259264  0.713980  1
  Fe  Fe27  1  0.014197  0.655572  0.713665  1
  Fe  Fe28  1  -0.005746  0.431549  0.855752  1
  Fe  Fe29  1  0.998761  0.631793  0.857004  1
  Fe  Fe30  1  -0.001198  0.828521  0.858059  1
  Fe  Fe31  1  0.029365  0.858104  0.705068  1
  O  O32  1  0.504679  0.066275  0.079554  1
  O  O33  1  0.480227  0.062227  0.216249  1
  O  O34  1  0.462745  0.291683  0.077161  1
  O  O35  1  0.489075  0.030587  0.358981  1
  O  O36  1  0.492801  0.268841  0.209193  1
  O  O37  1  0.516846  0.475932  0.074035  1
  O  O38  1  0.494820  0.025540  0.484141  1
  O  O39  1  0.528402  0.219527  0.357356  1
  O  O40  1  0.543349  0.451753  0.207142  1
  O  O41  1  0.530134  0.684000  0.067327  1
  O  O42  1  0.508026  0.191718  0.499422  1
  O  O43  1  0.511032  0.406728  0.370203  1
  O  O44  1  0.526361  0.897875  0.061733  1
  O  O45  1  0.480397  0.680239  0.200332  1
  O  O46  1  0.517097  0.163097  0.641529  1
  O  O47  1  0.463719  0.400177  0.505145  1
  O  O48  1  0.456607  0.635380  0.363362  1
  O  O49  1  0.488907  0.860731  0.217670  1
  O  O50  1  0.451420  0.147058  0.788866  1
  O  O51  1  0.524373  0.363797  0.645700  1
  O  O52  1  0.494795  0.820619  0.363533  1
  O  O53  1  0.489146  0.609863  0.495373  1
  O  O54  1  0.494636  0.565816  0.642192  1
  O  O55  1  0.489281  0.349359  0.788015  1
  O  O56  1  0.533900  0.793860  0.494617  1
  O  O57  1  0.498341  0.104473  0.933977  1
  O  O58  1  0.504223  0.757832  0.655066  1
  O  O59  1  0.496434  0.338352  0.914123  1
  O  O60  1  0.476781  0.539210  0.789259  1
  O  O61  1  0.474493  0.751086  0.781606  1
  O  O62  1  0.498969  0.959360  0.650558  1
  O  O63  1  0.523528  0.517862  0.924212  1
  O  O64  1  0.545723  0.939072  0.781857  1
  O  O65  1  0.477698  0.718085  0.926992  1
  O  O66  1  0.474893  0.920117  0.929846  1
