# generated using pymatgen
data_Li3Mn4(P2O7)4
_symmetry_space_group_name_H-M   'P 1'
_cell_length_a   9.70169084
_cell_length_b   9.76608392
_cell_length_c   11.27468940
_cell_angle_alpha   89.72667855
_cell_angle_beta   102.80551805
_cell_angle_gamma   90.01021226
_symmetry_Int_Tables_number   1
_chemical_formula_structural   Li3Mn4(P2O7)4
_chemical_formula_sum   'Li6 Mn8 P16 O56'
_cell_volume   1041.66718788
_cell_formula_units_Z   2
loop_
 _symmetry_equiv_pos_site_id
 _symmetry_equiv_pos_as_xyz
  1  'x, y, z'
loop_
 _atom_site_type_symbol
 _atom_site_label
 _atom_site_symmetry_multiplicity
 _atom_site_fract_x
 _atom_site_fract_y
 _atom_site_fract_z
 _atom_site_occupancy
  Li  Li0  1  0.142900  0.441927  0.521841  1
  Li  Li1  1  0.414026  0.595601  0.977920  1
  Li  Li2  1  0.392921  0.955760  0.501575  1
  Li  Li3  1  0.914168  0.905677  0.978223  1
  Li  Li4  1  0.828918  0.591294  0.454285  1
  Li  Li5  1  0.873544  0.277750  0.546091  1
  Mn  Mn6  1  0.198814  0.929942  0.671448  1
  Mn  Mn7  1  0.262423  0.219639  0.829712  1
  Mn  Mn8  1  0.221648  0.732985  0.161463  1
  Mn  Mn9  1  0.300753  0.431791  0.326071  1
  Mn  Mn10  1  0.700111  0.572095  0.673422  1
  Mn  Mn11  1  0.757753  0.281582  0.829073  1
  Mn  Mn12  1  0.727587  0.770355  0.165368  1
  Mn  Mn13  1  0.796255  0.061654  0.330499  1
  P  P14  1  0.021483  0.444931  0.758594  1
  P  P15  1  0.116499  0.718074  0.879159  1
  P  P16  1  0.069149  0.921811  0.246422  1
  P  P17  1  0.122893  0.144925  0.426609  1
  P  P18  1  0.379180  0.646631  0.575173  1
  P  P19  1  0.427766  0.425794  0.758774  1
  P  P20  1  0.519106  0.053975  0.749231  1
  P  P21  1  0.383102  0.213135  0.116854  1
  P  P22  1  0.615966  0.784728  0.882911  1
  P  P23  1  0.477048  0.945180  0.246717  1
  P  P24  1  0.570229  0.580185  0.243408  1
  P  P25  1  0.622273  0.351590  0.413941  1
  P  P26  1  0.875515  0.855923  0.573855  1
  P  P27  1  0.925690  0.075990  0.758384  1
  P  P28  1  0.880919  0.280764  0.119814  1
  P  P29  1  0.983000  0.546484  0.253542  1
  O  O30  1  0.015219  0.414639  0.626309  1
  O  O31  1  0.034061  0.847350  0.573720  1
  O  O32  1  0.074703  0.089786  0.733881  1
  O  O33  1  0.105782  0.342809  0.850378  1
  O  O34  1  0.096546  0.589778  0.785127  1
  O  O35  1  0.194061  0.824102  0.816632  1
  O  O36  1  0.221453  0.664111  0.997469  1
  O  O37  1  0.024029  0.234800  0.099780  1
  O  O38  1  0.128777  0.068065  0.300128  1
  O  O39  1  0.079931  0.909362  0.113559  1
  O  O40  1  0.136246  0.538260  0.225368  1
  O  O41  1  0.179373  0.288157  0.414564  1
  O  O42  1  0.176772  0.810343  0.309103  1
  O  O43  1  0.211138  0.055409  0.527874  1
  O  O44  1  0.292667  0.556923  0.473735  1
  O  O45  1  0.320567  0.313760  0.694982  1
  O  O46  1  0.326860  0.791031  0.585754  1
  O  O47  1  0.365547  0.046075  0.779994  1
  O  O48  1  0.364576  0.569622  0.699606  1
  O  O49  1  0.418186  0.424712  0.890499  1
  O  O50  1  0.475456  0.748694  0.904850  1
  O  O51  1  0.291817  0.155440  0.997786  1
  O  O52  1  0.312813  0.330154  0.171077  1
  O  O53  1  0.402751  0.093695  0.215891  1
  O  O54  1  0.421720  0.591203  0.266449  1
  O  O55  1  0.393769  0.845790  0.153035  1
  O  O56  1  0.513973  0.068814  0.617395  1
  O  O57  1  0.465776  0.343508  0.418899  1
  O  O58  1  0.537582  0.648574  0.570854  1
  O  O59  1  0.478186  0.918060  0.376194  1
  O  O60  1  0.600547  0.161735  0.837687  1
  O  O61  1  0.575818  0.412911  0.730914  1
  O  O62  1  0.600319  0.912920  0.791759  1
  O  O63  1  0.690474  0.675728  0.821582  1
  O  O64  1  0.724369  0.834683  0.001338  1
  O  O65  1  0.526802  0.251885  0.092006  1
  O  O66  1  0.581771  0.602601  0.112007  1
  O  O67  1  0.630175  0.431072  0.287692  1
  O  O68  1  0.630823  0.954249  0.219377  1
  O  O69  1  0.688191  0.213511  0.405885  1
  O  O70  1  0.683527  0.683589  0.313144  1
  O  O71  1  0.715776  0.437258  0.516672  1
  O  O72  1  0.790624  0.932633  0.462850  1
  O  O73  1  0.828183  0.196407  0.694919  1
  O  O74  1  0.820260  0.711980  0.587951  1
  O  O75  1  0.865784  0.456305  0.782653  1
  O  O76  1  0.909336  0.073721  0.887920  1
  O  O77  1  0.858360  0.937893  0.693214  1
  O  O78  1  0.976316  0.756500  0.900802  1
  O  O79  1  0.787763  0.335498  0.000182  1
  O  O80  1  0.808167  0.168913  0.180360  1
  O  O81  1  0.901653  0.404821  0.213579  1
  O  O82  1  0.903952  0.656381  0.168682  1
  O  O83  1  0.919251  0.910232  0.266577  1
  O  O84  1  0.965570  0.154042  0.434677  1
  O  O85  1  0.987649  0.555610  0.387541  1
