# generated using pymatgen
data_Li2Mn3(BO3)3
_symmetry_space_group_name_H-M   'P 1'
_cell_length_a   5.85756358
_cell_length_b   5.27339185
_cell_length_c   12.45507107
_cell_angle_alpha   78.25348823
_cell_angle_beta   91.82096179
_cell_angle_gamma   89.46925433
_symmetry_Int_Tables_number   1
_chemical_formula_structural   Li2Mn3(BO3)3
_chemical_formula_sum   'Li4 Mn6 B6 O18'
_cell_volume   376.43164100
_cell_formula_units_Z   2
loop_
 _symmetry_equiv_pos_site_id
 _symmetry_equiv_pos_as_xyz
  1  'x, y, z'
loop_
 _atom_site_type_symbol
 _atom_site_label
 _atom_site_symmetry_multiplicity
 _atom_site_fract_x
 _atom_site_fract_y
 _atom_site_fract_z
 _atom_site_occupancy
  Li  Li0  1  0.180577  0.087849  0.481462  1
  Li  Li1  1  0.461056  0.231751  0.847104  1
  Li  Li2  1  0.513355  0.763023  0.151939  1
  Li  Li3  1  0.866843  0.433230  0.813221  1
  Mn  Mn4  1  0.027211  0.956725  0.715932  1
  Mn  Mn5  1  0.286806  0.702436  0.952470  1
  Mn  Mn6  1  0.361349  0.615091  0.382946  1
  Mn  Mn7  1  0.638229  0.380353  0.606368  1
  Mn  Mn8  1  0.704365  0.299610  0.052119  1
  Mn  Mn9  1  0.971167  0.050894  0.276874  1
  B  B10  1  0.145594  0.527360  0.603643  1
  B  B11  1  0.196483  0.143827  0.058683  1
  B  B12  1  0.475618  0.186004  0.273255  1
  B  B13  1  0.528950  0.808222  0.734073  1
  B  B14  1  0.795877  0.860831  0.936406  1
  B  B15  1  0.863850  0.481449  0.394487  1
  O  O16  1  0.028474  0.657022  0.345804  1
  O  O17  1  0.037498  0.251356  0.117268  1
  O  O18  1  0.149353  0.788128  0.595265  1
  O  O19  1  0.220688  0.880672  0.075364  1
  O  O20  1  0.286574  0.407565  0.537883  1
  O  O21  1  0.334364  0.024736  0.344257  1
  O  O22  1  0.338704  0.305099  0.985793  1
  O  O23  1  0.360632  0.914759  0.791701  1
  O  O24  1  0.465362  0.451353  0.261087  1
  O  O25  1  0.553439  0.543626  0.745037  1
  O  O26  1  0.622016  0.074197  0.207859  1
  O  O27  1  0.649036  0.703151  0.006707  1
  O  O28  1  0.680021  0.980344  0.675612  1
  O  O29  1  0.677541  0.588489  0.441402  1
  O  O30  1  0.779487  0.125896  0.917951  1
  O  O31  1  0.891746  0.223864  0.405951  1
  O  O32  1  0.953103  0.740323  0.878706  1
  O  O33  1  0.001841  0.368589  0.675189  1
