# generated using pymatgen
data_Li3Mn3(PO4)4
_symmetry_space_group_name_H-M   'P 1'
_cell_length_a   14.46318627
_cell_length_b   4.99588651
_cell_length_c   8.62532999
_cell_angle_alpha   90.00000000
_cell_angle_beta   96.13651051
_cell_angle_gamma   90.00000000
_symmetry_Int_Tables_number   1
_chemical_formula_structural   Li3Mn3(PO4)4
_chemical_formula_sum   'Li6 Mn6 P8 O32'
_cell_volume   619.66449186
_cell_formula_units_Z   2
loop_
 _symmetry_equiv_pos_site_id
 _symmetry_equiv_pos_as_xyz
  1  'x, y, z'
loop_
 _atom_site_type_symbol
 _atom_site_label
 _atom_site_symmetry_multiplicity
 _atom_site_fract_x
 _atom_site_fract_y
 _atom_site_fract_z
 _atom_site_occupancy
  Li  Li0  1  0.000000  0.500000  0.500000  1
  Li  Li1  1  0.255648  0.440723  0.449020  1
  Li  Li2  1  0.244352  0.940723  0.050980  1
  Li  Li3  1  0.755648  0.059277  0.949020  1
  Li  Li4  1  0.500000  0.000000  0.000000  1
  Li  Li5  1  0.744352  0.559277  0.550980  1
  Mn  Mn6  1  0.123847  0.489801  0.813757  1
  Mn  Mn7  1  0.000000  0.000000  0.000000  1
  Mn  Mn8  1  0.376153  0.989801  0.686243  1
  Mn  Mn9  1  0.500000  0.500000  0.500000  1
  Mn  Mn10  1  0.623847  0.010199  0.313757  1
  Mn  Mn11  1  0.876153  0.510199  0.186243  1
  P  P12  1  0.151033  0.003368  0.620612  1
  P  P13  1  0.348967  0.503368  0.879388  1
  P  P14  1  0.096408  0.502765  0.172374  1
  P  P15  1  0.403592  0.002765  0.327626  1
  P  P16  1  0.596408  0.997235  0.672374  1
  P  P17  1  0.903592  0.497235  0.827626  1
  P  P18  1  0.651033  0.496632  0.120612  1
  P  P19  1  0.848967  0.996632  0.379388  1
  O  O20  1  0.140608  0.091326  0.794921  1
  O  O21  1  0.244658  0.568232  0.911021  1
  O  O22  1  0.090526  0.160418  0.501422  1
  O  O23  1  0.137743  0.693958  0.616800  1
  O  O24  1  0.008636  0.550896  0.257792  1
  O  O25  1  0.362257  0.193958  0.883200  1
  O  O26  1  0.409474  0.660418  0.998578  1
  O  O27  1  0.255342  0.068232  0.588979  1
  O  O28  1  0.099198  0.210683  0.104713  1
  O  O29  1  0.359392  0.591326  0.705079  1
  O  O30  1  0.081501  0.687053  0.016846  1
  O  O31  1  0.185388  0.578274  0.266090  1
  O  O32  1  0.508636  0.949104  0.757792  1
  O  O33  1  0.314612  0.078274  0.233910  1
  O  O34  1  0.418499  0.187053  0.483154  1
  O  O35  1  0.400802  0.710683  0.395287  1
  O  O36  1  0.599198  0.289317  0.604713  1
  O  O37  1  0.581501  0.812947  0.516846  1
  O  O38  1  0.685388  0.921726  0.766090  1
  O  O39  1  0.491364  0.050896  0.242208  1
  O  O40  1  0.814612  0.421726  0.733910  1
  O  O41  1  0.918499  0.312947  0.983154  1
  O  O42  1  0.640608  0.408674  0.294921  1
  O  O43  1  0.900802  0.789317  0.895287  1
  O  O44  1  0.744658  0.931768  0.411021  1
  O  O45  1  0.590526  0.339582  0.001422  1
  O  O46  1  0.637743  0.806042  0.116800  1
  O  O47  1  0.991364  0.449104  0.742208  1
  O  O48  1  0.862257  0.306042  0.383200  1
  O  O49  1  0.909474  0.839582  0.498578  1
  O  O50  1  0.755342  0.431768  0.088979  1
  O  O51  1  0.859392  0.908674  0.205079  1
