# generated using pymatgen
data_LiFeP2H5O9
_symmetry_space_group_name_H-M   'P 1'
_cell_length_a   15.04533796
_cell_length_b   7.81374004
_cell_length_c   6.51819428
_cell_angle_alpha   90.03009462
_cell_angle_beta   89.95142201
_cell_angle_gamma   90.01388738
_symmetry_Int_Tables_number   1
_chemical_formula_structural   LiFeP2H5O9
_chemical_formula_sum   'Li4 Fe4 P8 H20 O36'
_cell_volume   766.28085950
_cell_formula_units_Z   4
loop_
 _symmetry_equiv_pos_site_id
 _symmetry_equiv_pos_as_xyz
  1  'x, y, z'
loop_
 _atom_site_type_symbol
 _atom_site_label
 _atom_site_symmetry_multiplicity
 _atom_site_fract_x
 _atom_site_fract_y
 _atom_site_fract_z
 _atom_site_occupancy
  Li  Li0  1  0.029285  0.771129  0.243675  1
  Li  Li1  1  0.470816  0.271119  0.743616  1
  Li  Li2  1  0.529201  0.771133  0.256352  1
  Li  Li3  1  0.970795  0.271153  0.756355  1
  Fe  Fe4  1  0.189688  0.245195  0.938302  1
  Fe  Fe5  1  0.310327  0.745185  0.438317  1
  Fe  Fe6  1  0.689702  0.245207  0.561629  1
  Fe  Fe7  1  0.810352  0.745199  0.061560  1
  P  P8  1  0.131831  0.563833  0.643547  1
  P  P9  1  0.135621  0.935697  0.630741  1
  P  P10  1  0.368143  0.063871  0.143515  1
  P  P11  1  0.364383  0.435718  0.130791  1
  P  P12  1  0.631744  0.563768  0.856331  1
  P  P13  1  0.635627  0.935742  0.869200  1
  P  P14  1  0.868158  0.063842  0.356525  1
  P  P15  1  0.864378  0.435675  0.369332  1
  H  H16  1  0.005654  0.507829  0.493508  1
  H  H17  1  0.094384  0.144439  0.284349  1
  H  H18  1  0.092857  0.348669  0.279255  1
  H  H19  1  0.218914  0.643317  0.106975  1
  H  H20  1  0.221840  0.850423  0.107329  1
  H  H21  1  0.281106  0.143307  0.606977  1
  H  H22  1  0.278167  0.350381  0.607361  1
  H  H23  1  0.405640  0.644429  0.784318  1
  H  H24  1  0.407117  0.848638  0.779216  1
  H  H25  1  0.494339  0.007842  0.993472  1
  H  H26  1  0.505653  0.507831  0.006521  1
  H  H27  1  0.594383  0.144464  0.215669  1
  H  H28  1  0.592871  0.348657  0.220758  1
  H  H29  1  0.718895  0.643313  0.393086  1
  H  H30  1  0.721835  0.850407  0.392722  1
  H  H31  1  0.781081  0.143307  0.893041  1
  H  H32  1  0.778152  0.350371  0.892661  1
  H  H33  1  0.905630  0.644410  0.715590  1
  H  H34  1  0.907130  0.848698  0.720679  1
  H  H35  1  0.994338  0.007835  0.506495  1
  O  O36  1  0.069963  0.554333  0.444093  1
  O  O37  1  0.074757  0.945898  0.437976  1
  O  O38  1  0.098327  0.245532  0.194067  1
  O  O39  1  0.112084  0.751640  0.740048  1
  O  O40  1  0.107939  0.071018  0.785732  1
  O  O41  1  0.099472  0.433290  0.798565  1
  O  O42  1  0.204181  0.747602  0.186458  1
  O  O43  1  0.228197  0.554614  0.578257  1
  O  O44  1  0.233899  0.934978  0.576218  1
  O  O45  1  0.271820  0.054601  0.078362  1
  O  O46  1  0.266091  0.434940  0.076248  1
  O  O47  1  0.295824  0.247611  0.686435  1
  O  O48  1  0.392063  0.570950  0.285714  1
  O  O49  1  0.400456  0.933350  0.298501  1
  O  O50  1  0.387871  0.251660  0.240030  1
  O  O51  1  0.401629  0.745514  0.694044  1
  O  O52  1  0.430101  0.054328  0.944007  1
  O  O53  1  0.425278  0.445918  0.937887  1
  O  O54  1  0.569910  0.554369  0.056000  1
  O  O55  1  0.574707  0.945975  0.062109  1
  O  O56  1  0.598340  0.245531  0.305955  1
  O  O57  1  0.612119  0.751586  0.759967  1
  O  O58  1  0.607949  0.070923  0.714325  1
  O  O59  1  0.599518  0.433329  0.701450  1
  O  O60  1  0.704187  0.747600  0.313643  1
  O  O61  1  0.728224  0.554552  0.921664  1
  O  O62  1  0.733897  0.935058  0.923707  1
  O  O63  1  0.771803  0.054577  0.421779  1
  O  O64  1  0.766098  0.435032  0.423880  1
  O  O65  1  0.795815  0.247624  0.813539  1
  O  O66  1  0.892054  0.570902  0.214305  1
  O  O67  1  0.900537  0.933316  0.201362  1
  O  O68  1  0.887906  0.251599  0.260003  1
  O  O69  1  0.901666  0.745493  0.805857  1
  O  O70  1  0.930044  0.054398  0.555947  1
  O  O71  1  0.925237  0.445937  0.562091  1
