# generated using pymatgen
data_Li2SnP2O7
_symmetry_space_group_name_H-M   'P 1'
_cell_length_a   9.46399057
_cell_length_b   8.34480398
_cell_length_c   5.23579391
_cell_angle_alpha   108.28330597
_cell_angle_beta   90.00000000
_cell_angle_gamma   65.07433327
_symmetry_Int_Tables_number   1
_chemical_formula_structural   Li2SnP2O7
_chemical_formula_sum   'Li4 Sn2 P4 O14'
_cell_volume   351.83006677
_cell_formula_units_Z   2
loop_
 _symmetry_equiv_pos_site_id
 _symmetry_equiv_pos_as_xyz
  1  'x, y, z'
loop_
 _atom_site_type_symbol
 _atom_site_label
 _atom_site_symmetry_multiplicity
 _atom_site_fract_x
 _atom_site_fract_y
 _atom_site_fract_z
 _atom_site_occupancy
  Li  Li0  1  0.552193  0.108369  0.947303  1
  Li  Li1  1  0.052193  0.108369  0.661066  1
  Li  Li2  1  0.947807  0.891631  0.338934  1
  Li  Li3  1  0.447807  0.891631  0.052697  1
  Sn  Sn4  1  0.500000  0.500000  0.000000  1
  Sn  Sn5  1  0.000000  0.500000  0.000000  1
  P  P6  1  0.818164  0.283622  0.269192  1
  P  P7  1  0.318164  0.283622  0.514431  1
  P  P8  1  0.681836  0.716378  0.485569  1
  P  P9  1  0.181836  0.716378  0.730808  1
  O  O10  1  0.891871  0.155974  0.432032  1
  O  O11  1  0.391871  0.155974  0.223942  1
  O  O12  1  0.935700  0.269648  0.049268  1
  O  O13  1  0.676334  0.261003  0.148104  1
  O  O14  1  0.435700  0.269648  0.720379  1
  O  O15  1  0.176334  0.261003  0.612898  1
  O  O16  1  0.750000  0.500000  0.497956  1
  O  O17  1  0.250000  0.500000  0.502044  1
  O  O18  1  0.823666  0.738997  0.387102  1
  O  O19  1  0.564300  0.730352  0.279621  1
  O  O20  1  0.323666  0.738997  0.851896  1
  O  O21  1  0.064300  0.730352  0.950732  1
  O  O22  1  0.608129  0.844026  0.776058  1
  O  O23  1  0.108129  0.844026  0.567968  1
