# generated using pymatgen
data_UTa2S6Cl6O
_symmetry_space_group_name_H-M   'P 1'
_cell_length_a   6.98623335
_cell_length_b   9.67922244
_cell_length_c   12.87159663
_cell_angle_alpha   84.14986795
_cell_angle_beta   83.15207405
_cell_angle_gamma   88.78664922
_symmetry_Int_Tables_number   1
_chemical_formula_structural   UTa2S6Cl6O
_chemical_formula_sum   'U2 Ta4 S12 Cl12 O2'
_cell_volume   859.64827167
_cell_formula_units_Z   2
loop_
 _symmetry_equiv_pos_site_id
 _symmetry_equiv_pos_as_xyz
  1  'x, y, z'
loop_
 _atom_site_type_symbol
 _atom_site_label
 _atom_site_symmetry_multiplicity
 _atom_site_fract_x
 _atom_site_fract_y
 _atom_site_fract_z
 _atom_site_occupancy
  U  U0  1  0.234591  0.406591  0.097478  1
  U  U1  1  0.765409  0.593409  0.902522  1
  Ta  Ta2  1  0.222698  0.053685  0.225110  1
  Ta  Ta3  1  0.777301  0.946314  0.774890  1
  Ta  Ta4  1  0.350797  0.302721  0.362803  1
  Ta  Ta5  1  0.649203  0.697279  0.637198  1
  S  S6  1  0.075874  0.131511  0.400704  1
  S  S7  1  0.924127  0.868490  0.599296  1
  S  S8  1  0.175036  0.124289  0.041432  1
  S  S9  1  0.824964  0.875712  0.958568  1
  S  S10  1  0.957001  0.191470  0.150291  1
  S  S11  1  0.042998  0.808530  0.849709  1
  S  S12  1  0.387629  0.536996  0.268241  1
  S  S13  1  0.612370  0.463005  0.731759  1
  S  S14  1  0.104619  0.471902  0.309290  1
  S  S15  1  0.895381  0.528099  0.690710  1
  S  S16  1  0.344022  0.036465  0.408306  1
  S  S17  1  0.655978  0.963534  0.591695  1
  Cl  Cl18  1  0.405200  0.655217  0.003578  1
  Cl  Cl19  1  0.594798  0.344782  0.996422  1
  Cl  Cl20  1  0.494924  0.064656  0.834409  1
  Cl  Cl21  1  0.505076  0.935344  0.165591  1
  Cl  Cl22  1  0.302436  0.344636  0.538217  1
  Cl  Cl23  1  0.697564  0.655364  0.461783  1
  Cl  Cl24  1  0.692661  0.296306  0.356540  1
  Cl  Cl25  1  0.307339  0.703694  0.643460  1
  Cl  Cl26  1  0.106462  0.427238  0.899835  1
  Cl  Cl27  1  0.893538  0.572763  0.100165  1
  Cl  Cl28  1  0.029937  0.858360  0.262066  1
  Cl  Cl29  1  0.970063  0.141639  0.737935  1
  O  O30  1  0.350615  0.240662  0.218105  1
  O  O31  1  0.649384  0.759339  0.781895  1
