# generated using pymatgen
data_Li5Mn6(BO3)6
_symmetry_space_group_name_H-M   'P 1'
_cell_length_a   8.28395333
_cell_length_b   12.63403597
_cell_length_c   8.80141210
_cell_angle_alpha   70.22015069
_cell_angle_beta   62.49720912
_cell_angle_gamma   71.06586818
_symmetry_Int_Tables_number   1
_chemical_formula_structural   Li5Mn6(BO3)6
_chemical_formula_sum   'Li10 Mn12 B12 O36'
_cell_volume   753.07160407
_cell_formula_units_Z   2
loop_
 _symmetry_equiv_pos_site_id
 _symmetry_equiv_pos_as_xyz
  1  'x, y, z'
loop_
 _atom_site_type_symbol
 _atom_site_label
 _atom_site_symmetry_multiplicity
 _atom_site_fract_x
 _atom_site_fract_y
 _atom_site_fract_z
 _atom_site_occupancy
  Li  Li0  1  0.989559  0.805183  0.906285  1
  Li  Li1  1  0.723006  0.696650  0.597685  1
  Li  Li2  1  0.715775  0.448465  0.849618  1
  Li  Li3  1  0.990562  0.551652  0.159938  1
  Li  Li4  1  0.978294  0.055948  0.665089  1
  Li  Li5  1  0.976475  0.303114  0.418777  1
  Li  Li6  1  0.718868  0.203281  0.099408  1
  Li  Li7  1  0.302832  0.873924  0.110348  1
  Li  Li8  1  0.300456  0.625240  0.361757  1
  Li  Li9  1  0.290203  0.116207  0.865531  1
  Mn  Mn10  1  0.380555  0.902650  0.702350  1
  Mn  Mn11  1  0.365180  0.657996  0.971926  1
  Mn  Mn12  1  0.644752  0.754109  0.256497  1
  Mn  Mn13  1  0.625329  0.500706  0.506686  1
  Mn  Mn14  1  0.599287  0.256266  0.766204  1
  Mn  Mn15  1  0.017944  0.583666  0.762267  1
  Mn  Mn16  1  0.999921  0.841177  0.518955  1
  Mn  Mn17  1  0.356315  0.161194  0.480427  1
  Mn  Mn18  1  0.362779  0.409416  0.230925  1
  Mn  Mn19  1  0.636514  0.004162  0.021632  1
  Mn  Mn20  1  0.016069  0.338509  0.008690  1
  Mn  Mn21  1  0.002391  0.089433  0.269950  1
  B  B22  1  0.668982  0.797578  0.869944  1
  B  B23  1  0.980643  0.245992  0.758545  1
  B  B24  1  0.994214  0.503483  0.494680  1
  B  B25  1  0.675321  0.285466  0.379732  1
  B  B26  1  0.672398  0.543492  0.121800  1
  B  B27  1  0.656653  0.044376  0.638245  1
  B  B28  1  0.331867  0.455662  0.878827  1
  B  B29  1  0.338831  0.711284  0.620523  1
  B  B30  1  0.328473  0.954963  0.379926  1
  B  B31  1  0.012013  0.745441  0.245910  1
  B  B32  1  0.330600  0.211150  0.125037  1
  B  B33  1  0.011368  0.999582  0.985955  1
  O  O34  1  0.923611  0.968623  0.908715  1
  O  O35  1  0.859183  0.762412  0.793409  1
  O  O36  1  0.897985  0.780054  0.400492  1
  O  O37  1  0.874619  0.302565  0.896289  1
  O  O38  1  0.879204  0.544809  0.647898  1
  O  O39  1  0.935939  0.718795  0.153224  1
  O  O40  1  0.914165  0.469331  0.413603  1
  O  O41  1  0.891632  0.222265  0.674698  1
  O  O42  1  0.558571  0.781219  0.798491  1
  O  O43  1  0.205134  0.968657  0.929475  1
  O  O44  1  0.864047  0.515216  0.043562  1
  O  O45  1  0.865793  0.263120  0.289156  1
  O  O46  1  0.845261  0.016473  0.550717  1
  O  O47  1  0.529637  0.676056  0.544953  1
  O  O48  1  0.527575  0.417699  0.796879  1
  O  O49  1  0.517363  0.927425  0.293203  1
  O  O50  1  0.601048  0.328420  0.530698  1
  O  O51  1  0.578712  0.100906  0.776607  1
  O  O52  1  0.263518  0.770850  0.757340  1
  O  O53  1  0.583913  0.592923  0.267364  1
  O  O54  1  0.583953  0.845604  0.014168  1
  O  O55  1  0.905346  0.061860  0.113948  1
  O  O56  1  0.560177  0.268354  0.319548  1
  O  O57  1  0.564690  0.522227  0.056192  1
  O  O58  1  0.530714  0.020589  0.596904  1
  O  O59  1  0.219645  0.437301  0.819797  1
  O  O60  1  0.220941  0.690504  0.568667  1
  O  O61  1  0.207146  0.942455  0.321775  1
  O  O62  1  0.204582  0.734912  0.181587  1
  O  O63  1  0.182614  0.498609  0.421608  1
  O  O64  1  0.169993  0.211722  0.707000  1
  O  O65  1  0.526539  0.193480  0.028184  1
  O  O66  1  0.262805  0.509734  0.016128  1
  O  O67  1  0.255165  0.253926  0.274689  1
  O  O68  1  0.254829  0.996732  0.534694  1
  O  O69  1  0.223207  0.185845  0.065552  1
