# generated using pymatgen
data_Mn2OF3
_symmetry_space_group_name_H-M   'P 1'
_cell_length_a   4.85058927
_cell_length_b   13.68611821
_cell_length_c   5.81328447
_cell_angle_alpha   101.49195658
_cell_angle_beta   91.55022081
_cell_angle_gamma   88.76880215
_symmetry_Int_Tables_number   1
_chemical_formula_structural   Mn2OF3
_chemical_formula_sum   'Mn10 O5 F15'
_cell_volume   377.99307736
_cell_formula_units_Z   5
loop_
 _symmetry_equiv_pos_site_id
 _symmetry_equiv_pos_as_xyz
  1  'x, y, z'
loop_
 _atom_site_type_symbol
 _atom_site_label
 _atom_site_symmetry_multiplicity
 _atom_site_fract_x
 _atom_site_fract_y
 _atom_site_fract_z
 _atom_site_occupancy
  Mn  Mn0  1  0.472610  0.012557  0.501255  1
  Mn  Mn1  1  0.502722  0.400374  0.300518  1
  Mn  Mn2  1  0.499645  0.599178  0.693494  1
  Mn  Mn3  1  0.495782  0.200792  0.905868  1
  Mn  Mn4  1  0.545774  0.792637  0.087383  1
  Mn  Mn5  1  0.994702  0.201874  0.397988  1
  Mn  Mn6  1  0.998790  0.399989  0.801911  1
  Mn  Mn7  1  0.981888  0.802321  0.611964  1
  Mn  Mn8  1  0.016248  0.601560  0.200093  1
  Mn  Mn9  1  0.987503  0.989475  0.002760  1
  O  O10  1  0.804677  0.856703  0.921791  1
  O  O11  1  0.683793  0.262707  0.207832  1
  O  O12  1  0.693582  0.657905  0.994778  1
  O  O13  1  0.302318  0.146631  0.600827  1
  O  O14  1  0.318066  0.535957  0.392198  1
  F  F15  1  0.794963  0.260917  0.717063  1
  F  F16  1  0.797221  0.659857  0.508003  1
  F  F17  1  0.804253  0.059423  0.325150  1
  F  F18  1  0.802333  0.460918  0.123454  1
  F  F19  1  0.697371  0.063281  0.827459  1
  F  F20  1  0.694825  0.460522  0.623240  1
  F  F21  1  0.689219  0.871701  0.432958  1
  F  F22  1  0.303820  0.338697  0.979428  1
  F  F23  1  0.320434  0.930754  0.169266  1
  F  F24  1  0.296035  0.734779  0.767111  1
  F  F25  1  0.206866  0.538470  0.881860  1
  F  F26  1  0.196137  0.340739  0.476184  1
  F  F27  1  0.195918  0.131008  0.083219  1
  F  F28  1  0.197012  0.941400  0.678415  1
  F  F29  1  0.205490  0.746874  0.286528  1
