# generated using pymatgen
data_La2Nb2N2O5
_symmetry_space_group_name_H-M   'P 1'
_cell_length_a   8.02207217
_cell_length_b   13.77037505
_cell_length_c   5.73433697
_cell_angle_alpha   90.47133248
_cell_angle_beta   90.04116495
_cell_angle_gamma   98.40043343
_symmetry_Int_Tables_number   1
_chemical_formula_structural   La2Nb2N2O5
_chemical_formula_sum   'La8 Nb8 N8 O20'
_cell_volume   626.63609624
_cell_formula_units_Z   4
loop_
 _symmetry_equiv_pos_site_id
 _symmetry_equiv_pos_as_xyz
  1  'x, y, z'
loop_
 _atom_site_type_symbol
 _atom_site_label
 _atom_site_symmetry_multiplicity
 _atom_site_fract_x
 _atom_site_fract_y
 _atom_site_fract_z
 _atom_site_occupancy
  La  La0  1  0.133024  0.568773  0.344680  1
  La  La1  1  0.215642  0.911782  0.763091  1
  La  La2  1  0.273802  0.122991  0.250953  1
  La  La3  1  0.340854  0.383301  0.772769  1
  La  La4  1  0.665234  0.607968  0.283182  1
  La  La5  1  0.732223  0.883081  0.750372  1
  La  La6  1  0.780431  0.095006  0.264211  1
  La  La7  1  0.862210  0.430198  0.833663  1
  Nb  Nb8  1  0.070408  0.321863  0.294394  1
  Nb  Nb9  1  0.023051  0.117298  0.742076  1
  Nb  Nb10  1  0.413968  0.675525  0.791699  1
  Nb  Nb11  1  0.472547  0.882491  0.263615  1
  Nb  Nb12  1  0.536098  0.118380  0.767460  1
  Nb  Nb13  1  0.597686  0.324575  0.281995  1
  Nb  Nb14  1  0.969221  0.883115  0.258874  1
  Nb  Nb15  1  0.925055  0.675680  0.794744  1
  N  N16  1  0.087344  0.409861  0.549940  1
  N  N17  1  0.026039  0.184888  0.450393  1
  N  N18  1  0.961990  0.981598  0.534054  1
  N  N19  1  0.870439  0.573409  0.561170  1
  N  N20  1  0.770894  0.105893  0.817247  1
  N  N21  1  0.821969  0.303437  0.194051  1
  N  N22  1  0.974696  0.821194  0.943953  1
  N  N23  1  0.916919  0.590445  0.050471  1
  O  O24  1  0.182015  0.697172  0.686595  1
  O  O25  1  0.227715  0.887299  0.319919  1
  O  O26  1  0.134615  0.427964  0.058923  1
  O  O27  1  0.048426  0.018964  0.043943  1
  O  O28  1  0.125244  0.222619  0.955784  1
  O  O29  1  0.373754  0.613813  0.074042  1
  O  O30  1  0.431211  0.820423  0.944559  1
  O  O31  1  0.275437  0.084895  0.672067  1
  O  O32  1  0.328250  0.302118  0.348644  1
  O  O33  1  0.412663  0.563489  0.586060  1
  O  O34  1  0.533565  0.978977  0.522574  1
  O  O35  1  0.500525  0.774764  0.453353  1
  O  O36  1  0.498821  0.227251  0.960812  1
  O  O37  1  0.459622  0.019070  0.029641  1
  O  O38  1  0.585594  0.437895  0.082745  1
  O  O39  1  0.665571  0.696810  0.844614  1
  O  O40  1  0.721803  0.912717  0.170656  1
  O  O41  1  0.562438  0.178096  0.445016  1
  O  O42  1  0.619015  0.386520  0.577705  1
  O  O43  1  0.871977  0.776388  0.448271  1
