# generated using pymatgen
data_Li8CrFe7(PO4)12
_symmetry_space_group_name_H-M   'P 1'
_cell_length_a   8.65589885
_cell_length_b   8.78300361
_cell_length_c   12.21580639
_cell_angle_alpha   90.19486014
_cell_angle_beta   90.02145457
_cell_angle_gamma   89.96742134
_symmetry_Int_Tables_number   1
_chemical_formula_structural   Li8CrFe7(PO4)12
_chemical_formula_sum   'Li8 Cr1 Fe7 P12 O48'
_cell_volume   928.69854006
_cell_formula_units_Z   1
loop_
 _symmetry_equiv_pos_site_id
 _symmetry_equiv_pos_as_xyz
  1  'x, y, z'
loop_
 _atom_site_type_symbol
 _atom_site_label
 _atom_site_symmetry_multiplicity
 _atom_site_fract_x
 _atom_site_fract_y
 _atom_site_fract_z
 _atom_site_occupancy
  Li  Li0  1  0.216962  0.722084  0.181848  1
  Li  Li1  1  0.217699  0.776815  0.817686  1
  Li  Li2  1  0.282735  0.222800  0.318921  1
  Li  Li3  1  0.282801  0.277678  0.682127  1
  Li  Li4  1  0.717064  0.722985  0.317803  1
  Li  Li5  1  0.716749  0.780210  0.680612  1
  Li  Li6  1  0.783266  0.222637  0.182412  1
  Li  Li7  1  0.782891  0.277503  0.818563  1
  Cr  Cr8  1  0.751457  0.460784  0.614164  1
  Fe  Fe9  1  0.248118  0.959128  0.613178  1
  Fe  Fe10  1  0.248940  0.541156  0.386854  1
  Fe  Fe11  1  0.250865  0.040801  0.112900  1
  Fe  Fe12  1  0.250934  0.458917  0.887508  1
  Fe  Fe13  1  0.749593  0.540595  0.111501  1
  Fe  Fe14  1  0.748674  0.960006  0.887600  1
  Fe  Fe15  1  0.751177  0.039340  0.386936  1
  P  P16  1  0.037348  0.251156  0.500111  1
  P  P17  1  0.460839  0.749882  -0.000041  1
  P  P18  1  0.539221  0.250120  0.000569  1
  P  P19  1  0.959686  0.747445  0.500450  1
  P  P20  1  0.105305  0.392719  0.146980  1
  P  P21  1  0.105795  0.107058  0.852998  1
  P  P22  1  0.396508  0.604165  0.646478  1
  P  P23  1  0.393863  0.892787  0.353472  1
  P  P24  1  0.605514  0.109682  0.645459  1
  P  P25  1  0.606328  0.393680  0.355524  1
  P  P26  1  0.894291  0.606981  0.850266  1
  P  P27  1  0.894535  0.892385  0.146806  1
  O  O28  1  0.056023  0.640248  0.429278  1
  O  O29  1  0.055354  0.854825  0.572908  1
  O  O30  1  0.073469  0.895206  0.156118  1
  O  O31  1  0.072528  0.603521  0.841495  1
  O  O32  1  0.142139  0.165988  0.582783  1
  O  O33  1  0.145951  0.338949  0.421968  1
  O  O34  1  0.155446  0.434112  0.030663  1
  O  O35  1  0.155901  0.065921  0.969400  1
  O  O36  1  0.161718  0.232143  0.179967  1
  O  O37  1  0.161889  0.267880  0.820266  1
  O  O38  1  0.174469  0.513743  0.226098  1
  O  O39  1  0.174590  0.985442  0.773840  1
  O  O40  1  0.325902  0.014016  0.274414  1
  O  O41  1  0.328365  0.484333  0.725219  1
  O  O42  1  0.344913  0.766738  0.680207  1
  O  O43  1  0.337374  0.732013  0.320301  1
  O  O44  1  0.349061  0.565993  0.529086  1
  O  O45  1  0.343080  0.934792  0.469947  1
  O  O46  1  0.352668  0.837464  0.079948  1
  O  O47  1  0.352400  0.662269  0.920403  1
  O  O48  1  0.426927  0.108117  0.655782  1
  O  O49  1  0.428157  0.395628  0.347136  1
  O  O50  1  0.443560  0.142397  0.071449  1
  O  O51  1  0.443794  0.357727  0.929026  1
  O  O52  1  0.556818  0.642680  0.071535  1
  O  O53  1  0.556638  0.857201  0.928578  1
  O  O54  1  0.578083  0.598494  0.654313  1
  O  O55  1  0.572837  0.895213  0.343832  1
  O  O56  1  0.647076  0.337775  0.080676  1
  O  O57  1  0.647633  0.163186  0.920330  1
  O  O58  1  0.655694  0.066929  0.529667  1
  O  O59  1  0.657832  0.433524  0.473638  1
  O  O60  1  0.663685  0.232989  0.322249  1
  O  O61  1  0.663732  0.271852  0.677730  1
  O  O62  1  0.676124  0.515096  0.277842  1
  O  O63  1  0.674937  0.990714  0.725480  1
  O  O64  1  0.825791  0.013402  0.226182  1
  O  O65  1  0.825866  0.485608  0.768264  1
  O  O66  1  0.838152  0.731315  0.179014  1
  O  O67  1  0.835771  0.767395  0.818175  1
  O  O68  1  0.840849  0.561336  0.964993  1
  O  O69  1  0.844246  0.933547  0.030421  1
  O  O70  1  0.850217  0.659295  0.579442  1
  O  O71  1  0.850314  0.835258  0.421844  1
  O  O72  1  0.926714  0.104543  0.843844  1
  O  O73  1  0.926200  0.395874  0.155716  1
  O  O74  1  0.941996  0.143278  0.429208  1
  O  O75  1  0.937964  0.362533  0.569640  1
