# generated using pymatgen
data_LiMn2OF3
_symmetry_space_group_name_H-M   'P 1'
_cell_length_a   6.41967592
_cell_length_b   6.41967592
_cell_length_c   6.32373180
_cell_angle_alpha   60.49316792
_cell_angle_beta   90.00000000
_cell_angle_gamma   120.98633584
_symmetry_Int_Tables_number   1
_chemical_formula_structural   LiMn2OF3
_chemical_formula_sum   'Li2 Mn4 O2 F6'
_cell_volume   182.86998065
_cell_formula_units_Z   2
loop_
 _symmetry_equiv_pos_site_id
 _symmetry_equiv_pos_as_xyz
  1  'x, y, z'
loop_
 _atom_site_type_symbol
 _atom_site_label
 _atom_site_symmetry_multiplicity
 _atom_site_fract_x
 _atom_site_fract_y
 _atom_site_fract_z
 _atom_site_occupancy
  Li  Li0  1  0.976495  0.047010  0.976495  1
  Li  Li1  1  0.273505  0.452990  0.273505  1
  Mn  Mn2  1  0.625000  0.250000  0.125000  1
  Mn  Mn3  1  0.625000  0.250000  0.625000  1
  Mn  Mn4  1  0.625000  0.750000  0.625000  1
  Mn  Mn5  1  0.125000  0.750000  0.625000  1
  O  O6  1  0.849833  0.300335  0.849833  1
  O  O7  1  0.400167  0.199665  0.400167  1
  F  F8  1  0.876333  0.226488  0.386756  1
  F  F9  1  0.863244  0.763089  0.373667  1
  F  F10  1  0.386756  0.736911  0.386756  1
  F  F11  1  0.373667  0.273512  0.863244  1
  F  F12  1  0.863244  0.763089  0.863244  1
  F  F13  1  0.386756  0.736911  0.876333  1
