# generated using pymatgen
data_K2TeH6SeO10
_symmetry_space_group_name_H-M   'P 1'
_cell_length_a   6.70553097
_cell_length_b   6.70553097
_cell_length_c   13.99733206
_cell_angle_alpha   75.63564421
_cell_angle_beta   104.36435579
_cell_angle_gamma   121.76614791
_symmetry_Int_Tables_number   1
_chemical_formula_structural   K2TeH6SeO10
_chemical_formula_sum   'K4 Te2 H12 Se2 O20'
_cell_volume   513.07078402
_cell_formula_units_Z   2
loop_
 _symmetry_equiv_pos_site_id
 _symmetry_equiv_pos_as_xyz
  1  'x, y, z'
loop_
 _atom_site_type_symbol
 _atom_site_label
 _atom_site_symmetry_multiplicity
 _atom_site_fract_x
 _atom_site_fract_y
 _atom_site_fract_z
 _atom_site_occupancy
  K  K0  1  0.756623  0.633276  0.383444  1
  K  K1  1  0.366724  0.243377  0.883444  1
  K  K2  1  0.475779  0.950274  0.598032  1
  K  K3  1  0.049726  0.524221  0.098032  1
  Te  Te4  1  0.914623  0.588009  0.737966  1
  Te  Te5  1  0.411991  0.085377  0.237966  1
  H  H6  1  0.295721  0.684881  0.843671  1
  H  H7  1  0.315119  0.704279  0.343671  1
  H  H8  1  0.876477  0.724266  0.876073  1
  H  H9  1  0.275734  0.123523  0.376073  1
  H  H10  1  0.026814  0.015019  0.671840  1
  H  H11  1  0.984981  0.973186  0.171840  1
  H  H12  1  0.797823  0.163299  0.807215  1
  H  H13  1  0.836701  0.202177  0.307215  1
  H  H14  1  0.957330  0.453935  0.598957  1
  H  H15  1  0.546065  0.042670  0.098957  1
  H  H16  1  0.534628  0.494725  0.629547  1
  H  H17  1  0.505275  0.465372  0.129547  1
  Se  Se18  1  0.129859  0.304568  0.487546  1
  Se  Se19  1  0.695432  0.870141  0.987546  1
  O  O20  1  0.208978  0.578793  0.789706  1
  O  O21  1  0.421207  0.791022  0.289706  1
  O  O22  1  0.869201  0.573457  0.873539  1
  O  O23  1  0.426543  0.130799  0.373539  1
  O  O24  1  0.095273  0.933440  0.728311  1
  O  O25  1  0.066560  0.904727  0.228311  1
  O  O26  1  0.727015  0.242281  0.750590  1
  O  O27  1  0.757719  0.272985  0.250590  1
  O  O28  1  0.958986  0.601634  0.602610  1
  O  O29  1  0.398366  0.041014  0.102610  1
  O  O30  1  0.622870  0.599855  0.683810  1
  O  O31  1  0.400145  0.377130  0.183810  1
  O  O32  1  0.398066  0.338048  0.535693  1
  O  O33  1  0.661952  0.601934  0.035693  1
  O  O34  1  0.014114  0.117061  0.403018  1
  O  O35  1  0.882939  0.985886  0.903018  1
  O  O36  1  0.956040  0.199682  0.577609  1
  O  O37  1  0.800318  0.043960  0.077609  1
  O  O38  1  0.153257  0.566372  0.434724  1
  O  O39  1  0.433628  0.846743  0.934724  1
