# generated using pymatgen
data_Rb2CoSe2
_symmetry_space_group_name_H-M   'P 1'
_cell_length_a   6.54897066
_cell_length_b   7.22802152
_cell_length_c   8.44111129
_cell_angle_alpha   115.34982834
_cell_angle_beta   112.82520703
_cell_angle_gamma   90.00000001
_symmetry_Int_Tables_number   1
_chemical_formula_structural   Rb2CoSe2
_chemical_formula_sum   'Rb4 Co2 Se4'
_cell_volume   326.13519546
_cell_formula_units_Z   2
loop_
 _symmetry_equiv_pos_site_id
 _symmetry_equiv_pos_as_xyz
  1  'x, y, z'
loop_
 _atom_site_type_symbol
 _atom_site_label
 _atom_site_symmetry_multiplicity
 _atom_site_fract_x
 _atom_site_fract_y
 _atom_site_fract_z
 _atom_site_occupancy
  Co  Co0  1  0.750000  0.000000  0.000000  1
  Co  Co1  1  0.250000  0.000000  0.000000  1
  Se  Se2  1  0.596475  0.269777  0.192949  1
  Se  Se3  1  0.903525  0.076827  0.807051  1
  Se  Se4  1  0.096475  0.923173  0.192949  1
  Se  Se5  1  0.403525  0.730223  0.807051  1
  Rb  Rb6  1  0.645251  0.817762  0.290503  1
  Rb  Rb7  1  0.354749  0.182238  0.709497  1
  Rb  Rb8  1  0.854749  0.527259  0.709497  1
  Rb  Rb9  1  0.145251  0.472741  0.290503  1
