# generated using pymatgen
data_Mn4O7F
_symmetry_space_group_name_H-M   'P 1'
_cell_length_a   4.48349343
_cell_length_b   5.52049825
_cell_length_c   4.97511299
_cell_angle_alpha   89.96256142
_cell_angle_beta   89.92250631
_cell_angle_gamma   88.57626853
_symmetry_Int_Tables_number   1
_chemical_formula_structural   Mn4O7F
_chemical_formula_sum   'Mn4 O7 F1'
_cell_volume   123.10145548
_cell_formula_units_Z   1
loop_
 _symmetry_equiv_pos_site_id
 _symmetry_equiv_pos_as_xyz
  1  'x, y, z'
loop_
 _atom_site_type_symbol
 _atom_site_label
 _atom_site_symmetry_multiplicity
 _atom_site_fract_x
 _atom_site_fract_y
 _atom_site_fract_z
 _atom_site_occupancy
  Mn  Mn0  1  0.009776  0.854850  0.735742  1
  Mn  Mn1  1  0.008360  0.162737  0.253487  1
  Mn  Mn2  1  0.503153  0.354967  0.755531  1
  Mn  Mn3  1  0.490253  0.636619  0.257466  1
  O  O4  1  0.232292  0.112167  0.920095  1
  O  O5  1  0.231991  0.885881  0.416917  1
  O  O6  1  0.273646  0.390741  0.428833  1
  O  O7  1  0.262781  0.611151  0.922371  1
  O  O8  1  0.731229  0.388506  0.082041  1
  O  O9  1  0.731321  0.611397  0.579664  1
  O  O10  1  0.767189  0.112314  0.574951  1
  F  F11  1  0.758010  0.878673  0.072902  1
