# generated using pymatgen
data_VOF3
_symmetry_space_group_name_H-M   'P 1'
_cell_length_a   5.59223251
_cell_length_b   5.42050370
_cell_length_c   9.56209259
_cell_angle_alpha   90.08287766
_cell_angle_beta   89.33748194
_cell_angle_gamma   93.41511826
_symmetry_Int_Tables_number   1
_chemical_formula_structural   VOF3
_chemical_formula_sum   'V4 O4 F12'
_cell_volume   289.31884303
_cell_formula_units_Z   4
loop_
 _symmetry_equiv_pos_site_id
 _symmetry_equiv_pos_as_xyz
  1  'x, y, z'
loop_
 _atom_site_type_symbol
 _atom_site_label
 _atom_site_symmetry_multiplicity
 _atom_site_fract_x
 _atom_site_fract_y
 _atom_site_fract_z
 _atom_site_occupancy
  V  V0  1  0.044687  0.945173  0.009717  1
  V  V1  1  0.475000  0.450959  0.991596  1
  V  V2  1  0.962534  0.544378  0.505372  1
  V  V3  1  0.453382  0.034556  0.494191  1
  O  O4  1  0.275481  0.778976  0.037166  1
  O  O5  1  0.227339  0.197335  0.466955  1
  O  O6  1  0.796717  0.772374  0.531541  1
  O  O7  1  0.225789  0.274420  0.969779  1
  F  F8  1  0.795451  0.717290  0.033539  1
  F  F9  1  0.043665  0.567122  0.325804  1
  F  F10  1  0.503663  0.445898  0.175474  1
  F  F11  1  0.515433  0.906078  0.328035  1
  F  F12  1  0.975776  0.089933  0.170604  1
  F  F13  1  0.275970  0.723318  0.543207  1
  F  F14  1  0.713173  0.291839  0.456782  1
  F  F15  1  0.007843  0.941954  0.826141  1
  F  F16  1  0.515823  0.077001  0.674082  1
  F  F17  1  0.512305  0.604087  0.828695  1
  F  F18  1  0.986660  0.406623  0.672217  1
  F  F19  1  0.693313  0.230682  0.959102  1
