# generated using pymatgen
data_Nd3SiAgS7
_symmetry_space_group_name_H-M   'P 1'
_cell_length_a   10.31639741
_cell_length_b   10.31868389
_cell_length_c   5.78558360
_cell_angle_alpha   90.00000000
_cell_angle_beta   90.00000000
_cell_angle_gamma   120.01394706
_symmetry_Int_Tables_number   1
_chemical_formula_structural   Nd3SiAgS7
_chemical_formula_sum   'Nd6 Si2 Ag2 S14'
_cell_volume   533.29697990
_cell_formula_units_Z   2
loop_
 _symmetry_equiv_pos_site_id
 _symmetry_equiv_pos_as_xyz
  1  'x, y, z'
loop_
 _atom_site_type_symbol
 _atom_site_label
 _atom_site_symmetry_multiplicity
 _atom_site_fract_x
 _atom_site_fract_y
 _atom_site_fract_z
 _atom_site_occupancy
  Nd  Nd0  1  0.125316  0.359833  0.247229  1
  Nd  Nd1  1  0.874684  0.640168  0.747231  1
  Nd  Nd2  1  0.640189  0.765468  0.247185  1
  Nd  Nd3  1  0.234565  0.874806  0.247197  1
  Nd  Nd4  1  0.765435  0.125194  0.747196  1
  Nd  Nd5  1  0.359811  0.234532  0.747184  1
  Si  Si6  1  0.333353  0.666684  0.659334  1
  Si  Si7  1  0.666646  0.333316  0.159334  1
  Ag  Ag8  1  0.000024  0.999958  0.313360  1
  Ag  Ag9  1  -0.000024  0.000041  0.813360  1
  S  S10  1  0.333331  0.666689  0.025382  1
  S  S11  1  0.666669  0.333311  0.525382  1
  S  S12  1  0.410128  0.525060  0.513549  1
  S  S13  1  0.589872  0.474940  0.013549  1
  S  S14  1  0.475017  0.885111  0.513499  1
  S  S15  1  0.114925  0.589951  0.513365  1
  S  S16  1  0.885075  0.410049  0.013365  1
  S  S17  1  0.524984  0.114888  0.013499  1
  S  S18  1  0.093786  0.269337  0.765325  1
  S  S19  1  0.906214  0.730663  0.265325  1
  S  S20  1  0.730563  0.824362  0.765291  1
  S  S21  1  0.175481  0.906256  0.765280  1
  S  S22  1  0.824519  0.093743  0.265280  1
  S  S23  1  0.269437  0.175638  0.265291  1
