# generated using pymatgen
data_Ba2VP2O11
_symmetry_space_group_name_H-M   'P 1'
_cell_length_a   5.17185312
_cell_length_b   8.92565462
_cell_length_c   10.59846933
_cell_angle_alpha   90.00000000
_cell_angle_beta   91.97215950
_cell_angle_gamma   90.00000000
_symmetry_Int_Tables_number   1
_chemical_formula_structural   Ba2VP2O11
_chemical_formula_sum   'Ba4 V2 P4 O22'
_cell_volume   488.95859463
_cell_formula_units_Z   2
loop_
 _symmetry_equiv_pos_site_id
 _symmetry_equiv_pos_as_xyz
  1  'x, y, z'
loop_
 _atom_site_type_symbol
 _atom_site_label
 _atom_site_symmetry_multiplicity
 _atom_site_fract_x
 _atom_site_fract_y
 _atom_site_fract_z
 _atom_site_occupancy
  Ba  Ba0  1  0.974562  0.989169  0.951626  1
  Ba  Ba1  1  0.025438  0.489169  0.048374  1
  Ba  Ba2  1  0.000715  0.348583  0.620240  1
  Ba  Ba3  1  0.999285  0.848583  0.379760  1
  V  V4  1  0.555275  0.004565  0.671720  1
  V  V5  1  0.444725  0.504565  0.328280  1
  P  P6  1  0.499909  0.284696  0.855677  1
  P  P7  1  0.500091  0.784696  0.144323  1
  P  P8  1  0.542772  0.648749  0.589193  1
  P  P9  1  0.457228  0.148749  0.410807  1
  O  O10  1  0.445588  0.928217  0.801351  1
  O  O11  1  0.554412  0.428217  0.198649  1
  O  O12  1  0.869191  0.042845  0.700203  1
  O  O13  1  0.130809  0.542845  0.299797  1
  O  O14  1  0.456206  0.216107  0.717882  1
  O  O15  1  0.543794  0.716107  0.282118  1
  O  O16  1  0.619695  0.816863  0.572417  1
  O  O17  1  0.380305  0.316863  0.427583  1
  O  O18  1  0.327298  0.060858  0.522697  1
  O  O19  1  0.672702  0.560858  0.477303  1
  O  O20  1  0.351432  0.434802  0.853414  1
  O  O21  1  0.648568  0.934802  0.146586  1
  O  O22  1  0.372175  0.186715  0.955450  1
  O  O23  1  0.627825  0.686715  0.044550  1
  O  O24  1  0.793379  0.295995  0.880585  1
  O  O25  1  0.206621  0.795995  0.119415  1
  O  O26  1  0.670866  0.579700  0.711451  1
  O  O27  1  0.329134  0.079700  0.288549  1
  O  O28  1  0.251516  0.627027  0.577611  1
  O  O29  1  0.748484  0.127027  0.422389  1
  O  O30  1  0.936123  0.692279  0.836563  1
  O  O31  1  0.063877  0.192279  0.163437  1
