# generated using pymatgen
data_LiMnPO4
_symmetry_space_group_name_H-M   'P 1'
_cell_length_a   10.25369117
_cell_length_b   13.93172039
_cell_length_c   5.15846985
_cell_angle_alpha   90.00000000
_cell_angle_beta   90.00000000
_cell_angle_gamma   90.00000000
_symmetry_Int_Tables_number   1
_chemical_formula_structural   LiMnPO4
_chemical_formula_sum   'Li8 Mn8 P8 O32'
_cell_volume   736.89545675
_cell_formula_units_Z   8
loop_
 _symmetry_equiv_pos_site_id
 _symmetry_equiv_pos_as_xyz
  1  'x, y, z'
loop_
 _atom_site_type_symbol
 _atom_site_label
 _atom_site_symmetry_multiplicity
 _atom_site_fract_x
 _atom_site_fract_y
 _atom_site_fract_z
 _atom_site_occupancy
  Li  Li0  1  0.030602  0.501717  0.928883  1
  Li  Li1  1  0.222369  0.750667  0.553188  1
  Li  Li2  1  0.277631  0.250667  0.553188  1
  Li  Li3  1  0.469398  0.001717  0.928883  1
  Li  Li4  1  0.530602  0.501717  0.071117  1
  Li  Li5  1  0.722369  0.750667  0.446812  1
  Li  Li6  1  0.777631  0.250667  0.446812  1
  Li  Li7  1  0.969398  0.001717  0.071117  1
  Mn  Mn8  1  0.034362  0.752873  0.059198  1
  Mn  Mn9  1  0.216356  0.001278  0.556681  1
  Mn  Mn10  1  0.283644  0.501278  0.556681  1
  Mn  Mn11  1  0.465638  0.252873  0.059198  1
  Mn  Mn12  1  0.534362  0.752873  0.940802  1
  Mn  Mn13  1  0.716356  0.001278  0.443319  1
  Mn  Mn14  1  0.783644  0.501278  0.443319  1
  Mn  Mn15  1  0.965638  0.252873  0.940802  1
  P  P16  1  0.031646  0.376189  0.434515  1
  P  P17  1  0.216293  0.127511  0.053295  1
  P  P18  1  0.283707  0.627511  0.053295  1
  P  P19  1  0.468354  0.876189  0.434515  1
  P  P20  1  0.531646  0.376189  0.565485  1
  P  P21  1  0.716293  0.127511  0.946705  1
  P  P22  1  0.783707  0.627511  0.946705  1
  P  P23  1  0.968354  0.876189  0.565485  1
  O  O24  1  0.997943  0.880784  0.861621  1
  O  O25  1  0.973594  0.467709  0.564974  1
  O  O26  1  0.034669  0.784193  0.454991  1
  O  O27  1  0.067106  0.124741  0.996173  1
  O  O28  1  0.180593  0.373405  0.489092  1
  O  O29  1  0.221232  0.535839  0.931898  1
  O  O30  1  0.275858  0.219688  0.931286  1
  O  O31  1  0.244225  0.129006  0.349926  1
  O  O32  1  0.255775  0.629006  0.349926  1
  O  O33  1  0.224142  0.719688  0.931286  1
  O  O34  1  0.278768  0.035839  0.931898  1
  O  O35  1  0.319407  0.873405  0.489092  1
  O  O36  1  0.432894  0.624741  0.996173  1
  O  O37  1  0.465331  0.284193  0.454991  1
  O  O38  1  0.526406  0.967709  0.564974  1
  O  O39  1  0.502057  0.380784  0.861621  1
  O  O40  1  0.497943  0.880784  0.138379  1
  O  O41  1  0.473594  0.467709  0.435026  1
  O  O42  1  0.534669  0.784193  0.545009  1
  O  O43  1  0.567106  0.124741  0.003827  1
  O  O44  1  0.680593  0.373405  0.510908  1
  O  O45  1  0.721232  0.535839  0.068102  1
  O  O46  1  0.775858  0.219688  0.068714  1
  O  O47  1  0.744225  0.129006  0.650074  1
  O  O48  1  0.755775  0.629006  0.650074  1
  O  O49  1  0.724142  0.719688  0.068714  1
  O  O50  1  0.778768  0.035839  0.068102  1
  O  O51  1  0.819407  0.873405  0.510908  1
  O  O52  1  0.932894  0.624741  0.003827  1
  O  O53  1  0.965331  0.284193  0.545009  1
  O  O54  1  0.026406  0.967709  0.435026  1
  O  O55  1  0.002057  0.380784  0.138379  1
