# generated using pymatgen
data_Li2FeP2O7
_symmetry_space_group_name_H-M   'P 1'
_cell_length_a   6.29687157
_cell_length_b   8.10036342
_cell_length_c   8.10036342
_cell_angle_alpha   73.69462990
_cell_angle_beta   112.87228285
_cell_angle_gamma   67.12771715
_symmetry_Int_Tables_number   1
_chemical_formula_structural   Li2FeP2O7
_chemical_formula_sum   'Li4 Fe2 P4 O14'
_cell_volume   301.98693244
_cell_formula_units_Z   2
loop_
 _symmetry_equiv_pos_site_id
 _symmetry_equiv_pos_as_xyz
  1  'x, y, z'
loop_
 _atom_site_type_symbol
 _atom_site_label
 _atom_site_symmetry_multiplicity
 _atom_site_fract_x
 _atom_site_fract_y
 _atom_site_fract_z
 _atom_site_occupancy
  Li  Li0  1  0.000000  0.229308  0.229308  1
  Li  Li1  1  0.500000  0.270692  0.270692  1
  Li  Li2  1  0.000000  0.770692  0.770692  1
  Li  Li3  1  0.500000  0.729308  0.729308  1
  Fe  Fe4  1  0.000000  0.000000  0.000000  1
  Fe  Fe5  1  0.500000  0.500000  0.500000  1
  P  P6  1  0.589021  0.638406  0.138406  1
  P  P7  1  0.410979  0.138406  0.638406  1
  P  P8  1  0.589021  0.861594  0.361594  1
  P  P9  1  0.410979  0.361594  0.861594  1
  O  O10  1  0.276757  0.035215  0.191262  1
  O  O11  1  0.723243  0.191262  0.035215  1
  O  O12  1  0.246003  0.053603  0.553603  1
  O  O13  1  0.753997  0.553603  0.053603  1
  O  O14  1  0.620710  0.464785  0.308738  1
  O  O15  1  0.379290  0.308738  0.464785  1
  O  O16  1  0.710730  0.750000  0.250000  1
  O  O17  1  0.289270  0.250000  0.750000  1
  O  O18  1  0.379290  0.535215  0.691262  1
  O  O19  1  0.620710  0.691262  0.535215  1
  O  O20  1  0.246003  0.446397  0.946397  1
  O  O21  1  0.753997  0.946397  0.446397  1
  O  O22  1  0.276757  0.808738  0.964785  1
  O  O23  1  0.723243  0.964785  0.808738  1
