# generated using pymatgen
data_Gd2Mg
_symmetry_space_group_name_H-M   'P 1'
_cell_length_a   3.73102400
_cell_length_b   8.88947589
_cell_length_c   5.56492958
_cell_angle_alpha   90.00000000
_cell_angle_beta   90.00000000
_cell_angle_gamma   77.88607223
_symmetry_Int_Tables_number   1
_chemical_formula_structural   Gd2Mg
_chemical_formula_sum   'Gd4 Mg2'
_cell_volume   180.46118873
_cell_formula_units_Z   2
loop_
 _symmetry_equiv_pos_site_id
 _symmetry_equiv_pos_as_xyz
  1  'x, y, z'
loop_
 _atom_site_type_symbol
 _atom_site_label
 _atom_site_symmetry_multiplicity
 _atom_site_fract_x
 _atom_site_fract_y
 _atom_site_fract_z
 _atom_site_occupancy
  Gd  Gd0  1  0.980348  0.039307  0.000000  1
  Gd  Gd1  1  0.661885  0.676233  0.000000  1
  Gd  Gd2  1  0.797432  0.405137  0.500000  1
  Gd  Gd3  1  0.115893  0.768213  0.500000  1
  Mg  Mg4  1  0.322136  0.355726  0.000000  1
  Mg  Mg5  1  0.455641  0.088718  0.500000  1
