# generated using pymatgen
data_Ba3Nb5O15
_symmetry_space_group_name_H-M   'P 1'
_cell_length_a   4.05572200
_cell_length_b   12.87000197
_cell_length_c   12.87000197
_cell_angle_alpha   90.00000000
_cell_angle_beta   90.00000000
_cell_angle_gamma   90.00000000
_symmetry_Int_Tables_number   1
_chemical_formula_structural   Ba3Nb5O15
_chemical_formula_sum   'Ba6 Nb10 O30'
_cell_volume   671.77742500
_cell_formula_units_Z   2
loop_
 _symmetry_equiv_pos_site_id
 _symmetry_equiv_pos_as_xyz
  1  'x, y, z'
loop_
 _atom_site_type_symbol
 _atom_site_label
 _atom_site_symmetry_multiplicity
 _atom_site_fract_x
 _atom_site_fract_y
 _atom_site_fract_z
 _atom_site_occupancy
  O  O0  1  0.500000  0.432078  0.360324  1
  O  O1  1  0.500000  0.567922  0.639676  1
  O  O2  1  0.500000  0.360324  0.567922  1
  O  O3  1  0.500000  0.639676  0.432078  1
  O  O4  1  0.500000  0.860323  0.932078  1
  O  O5  1  0.500000  0.067922  0.860323  1
  O  O6  1  0.500000  0.932078  0.139677  1
  O  O7  1  0.500000  0.139677  0.067922  1
  O  O8  1  0.500000  0.492511  0.156773  1
  O  O9  1  0.500000  0.507489  0.843227  1
  O  O10  1  0.500000  0.156773  0.507489  1
  O  O11  1  0.500000  0.843227  0.492511  1
  O  O12  1  0.500000  0.656774  0.992511  1
  O  O13  1  0.500000  0.007489  0.656774  1
  O  O14  1  0.500000  0.992511  0.343226  1
  O  O15  1  0.500000  0.343226  0.007489  1
  O  O16  1  0.000000  0.000000  0.500000  1
  O  O17  1  0.000000  0.500000  0.000000  1
  O  O18  1  0.500000  0.279438  0.779438  1
  O  O19  1  0.500000  0.220562  0.279438  1
  O  O20  1  0.500000  0.779438  0.720562  1
  O  O21  1  0.500000  0.720562  0.220562  1
  O  O22  1  0.000000  0.078194  0.208182  1
  O  O23  1  0.000000  0.291817  0.421806  1
  O  O24  1  0.000000  0.208182  0.921806  1
  O  O25  1  0.000000  0.921806  0.791818  1
  O  O26  1  0.000000  0.578194  0.291817  1
  O  O27  1  0.000000  0.421806  0.708183  1
  O  O28  1  0.000000  0.708183  0.578194  1
  O  O29  1  0.000000  0.791818  0.078194  1
  Nb  Nb30  1  0.500000  0.287408  0.422552  1
  Nb  Nb31  1  0.500000  0.712592  0.577448  1
  Nb  Nb32  1  0.500000  0.422552  0.712592  1
  Nb  Nb33  1  0.500000  0.577448  0.287408  1
  Nb  Nb34  1  0.500000  0.922553  0.787408  1
  Nb  Nb35  1  0.500000  0.212592  0.922553  1
  Nb  Nb36  1  0.500000  0.787408  0.077447  1
  Nb  Nb37  1  0.500000  0.077447  0.212592  1
  Nb  Nb38  1  0.500000  0.000000  0.500000  1
  Nb  Nb39  1  0.500000  0.500000  0.000000  1
  Ba  Ba40  1  0.000000  0.832291  0.332291  1
  Ba  Ba41  1  0.000000  0.667709  0.832291  1
  Ba  Ba42  1  0.000000  0.332291  0.167709  1
  Ba  Ba43  1  0.000000  0.167709  0.667709  1
  Ba  Ba44  1  0.000000  0.500000  0.500000  1
  Ba  Ba45  1  0.000000  0.000000  0.000000  1
