# generated using pymatgen
data_K3TaF8
_symmetry_space_group_name_H-M   'P 1'
_cell_length_a   8.42075851
_cell_length_b   8.42075648
_cell_length_c   6.38310126
_cell_angle_alpha   90.00000000
_cell_angle_beta   90.00000000
_cell_angle_gamma   120.01678065
_symmetry_Int_Tables_number   1
_chemical_formula_structural   K3TaF8
_chemical_formula_sum   'K6 Ta2 F16'
_cell_volume   391.91440428
_cell_formula_units_Z   2
loop_
 _symmetry_equiv_pos_site_id
 _symmetry_equiv_pos_as_xyz
  1  'x, y, z'
loop_
 _atom_site_type_symbol
 _atom_site_label
 _atom_site_symmetry_multiplicity
 _atom_site_fract_x
 _atom_site_fract_y
 _atom_site_fract_z
 _atom_site_occupancy
  K  K0  1  0.153182  0.306258  0.246562  1
  K  K1  1  0.846817  0.693743  0.746563  1
  K  K2  1  0.693743  0.846818  0.246562  1
  K  K3  1  0.153131  0.846870  0.246519  1
  K  K4  1  0.846869  0.153132  0.746517  1
  K  K5  1  0.306257  0.153182  0.746563  1
  Ta  Ta6  1  0.333296  0.666704  0.738532  1
  Ta  Ta7  1  0.666704  0.333295  0.238534  1
  F  F8  1  0.000022  0.999978  0.004681  1
  F  F9  1  0.999977  0.000023  0.504679  1
  F  F10  1  0.436290  0.563710  0.534251  1
  F  F11  1  0.563710  0.436290  0.034251  1
  F  F12  1  0.436440  0.872851  0.534361  1
  F  F13  1  0.127149  0.563561  0.534361  1
  F  F14  1  0.872850  0.436438  0.034363  1
  F  F15  1  0.563562  0.127150  0.034363  1
  F  F16  1  0.333237  0.666763  0.050765  1
  F  F17  1  0.666762  0.333237  0.550765  1
  F  F18  1  0.202455  0.797547  0.816245  1
  F  F19  1  0.797545  0.202455  0.316243  1
  F  F20  1  0.202500  0.404961  0.816380  1
  F  F21  1  0.595040  0.797500  0.816380  1
  F  F22  1  0.404960  0.202500  0.316380  1
  F  F23  1  0.797500  0.595040  0.316380  1
