# generated using pymatgen
data_Cr3S4
_symmetry_space_group_name_H-M   'P 1'
_cell_length_a   3.44326928
_cell_length_b   5.94757195
_cell_length_c   11.09505703
_cell_angle_alpha   88.76586690
_cell_angle_beta   89.99999375
_cell_angle_gamma   90.00000746
_symmetry_Int_Tables_number   1
_chemical_formula_structural   Cr3S4
_chemical_formula_sum   'Cr6 S8'
_cell_volume   227.16398381
_cell_formula_units_Z   2
loop_
 _symmetry_equiv_pos_site_id
 _symmetry_equiv_pos_as_xyz
  1  'x, y, z'
loop_
 _atom_site_type_symbol
 _atom_site_label
 _atom_site_symmetry_multiplicity
 _atom_site_fract_x
 _atom_site_fract_y
 _atom_site_fract_z
 _atom_site_occupancy
  Cr  Cr0  1  0.000000  0.997803  0.000172  1
  Cr  Cr1  1  0.500000  0.503089  0.503869  1
  Cr  Cr2  1  0.500000  0.468396  0.238737  1
  Cr  Cr3  1  0.000000  0.985829  0.741734  1
  Cr  Cr4  1  1.000000  0.031549  0.257384  1
  Cr  Cr5  1  0.500000  0.513930  0.757225  1
  S  S6  1  0.000000  0.331869  0.118315  1
  S  S7  1  0.500000  0.832019  0.625359  1
  S  S8  1  0.500000  0.843162  0.137538  1
  S  S9  1  1.000000  0.341228  0.636123  1
  S  S10  1  1.000000  0.659026  0.364553  1
  S  S11  1  0.500000  0.157848  0.864657  1
  S  S12  1  0.500000  0.166008  0.380078  1
  S  S13  1  1.000000  0.668243  0.874255  1
