# generated using pymatgen
data_Mn3(OF2)2
_symmetry_space_group_name_H-M   'P 1'
_cell_length_a   4.76196648
_cell_length_b   8.00042366
_cell_length_c   5.80148304
_cell_angle_alpha   93.56915290
_cell_angle_beta   90.00000000
_cell_angle_gamma   90.00000000
_symmetry_Int_Tables_number   1
_chemical_formula_structural   Mn3(OF2)2
_chemical_formula_sum   'Mn6 O4 F8'
_cell_volume   220.59474696
_cell_formula_units_Z   2
loop_
 _symmetry_equiv_pos_site_id
 _symmetry_equiv_pos_as_xyz
  1  'x, y, z'
loop_
 _atom_site_type_symbol
 _atom_site_label
 _atom_site_symmetry_multiplicity
 _atom_site_fract_x
 _atom_site_fract_y
 _atom_site_fract_z
 _atom_site_occupancy
  Mn  Mn0  1  0.501819  0.018316  0.488078  1
  Mn  Mn1  1  0.509920  0.665582  0.145245  1
  Mn  Mn2  1  0.473659  0.340599  0.821580  1
  Mn  Mn3  1  0.009920  0.667752  0.688088  1
  Mn  Mn4  1  0.001819  0.315018  0.345255  1
  Mn  Mn5  1  0.973659  0.992734  0.011754  1
  O  O6  1  0.811518  0.772172  0.960178  1
  O  O7  1  0.806660  0.097723  0.302981  1
  O  O8  1  0.311518  0.561161  0.873155  1
  O  O9  1  0.306660  0.235610  0.530352  1
  F  F10  1  0.805731  0.438130  0.630704  1
  F  F11  1  0.690434  0.120774  0.802353  1
  F  F12  1  0.694900  0.771008  0.462450  1
  F  F13  1  0.705358  0.417929  0.129998  1
  F  F14  1  0.305731  0.895203  0.202629  1
  F  F15  1  0.194900  0.562325  0.370883  1
  F  F16  1  0.190435  0.212559  0.030981  1
  F  F17  1  0.205358  0.915404  0.703336  1
