# generated using pymatgen
data_Ta2CrNO5
_symmetry_space_group_name_H-M   'P 1'
_cell_length_a   4.76481456
_cell_length_b   4.76220043
_cell_length_c   9.25268472
_cell_angle_alpha   90.05687719
_cell_angle_beta   90.19856812
_cell_angle_gamma   89.72709611
_symmetry_Int_Tables_number   1
_chemical_formula_structural   Ta2CrNO5
_chemical_formula_sum   'Ta4 Cr2 N2 O10'
_cell_volume   209.94894497
_cell_formula_units_Z   2
loop_
 _symmetry_equiv_pos_site_id
 _symmetry_equiv_pos_as_xyz
  1  'x, y, z'
loop_
 _atom_site_type_symbol
 _atom_site_label
 _atom_site_symmetry_multiplicity
 _atom_site_fract_x
 _atom_site_fract_y
 _atom_site_fract_z
 _atom_site_occupancy
  Ta  Ta0  1  0.989602  0.009283  0.339675  1
  Ta  Ta1  1  0.977134  0.998779  0.664686  1
  Ta  Ta2  1  0.492245  0.501608  0.164012  1
  Ta  Ta3  1  0.502471  0.511492  0.822052  1
  Cr  Cr4  1  0.003313  0.997885  0.001448  1
  Cr  Cr5  1  0.502216  0.498505  0.500502  1
  N  N6  1  0.700004  0.695710  0.669278  1
  N  N7  1  0.806767  0.196241  0.498530  1
  O  O8  1  0.196590  0.807679  0.498717  1
  O  O9  1  0.202710  0.803984  0.835942  1
  O  O10  1  0.200812  0.798640  0.166601  1
  O  O11  1  0.304829  0.300953  0.326882  1
  O  O12  1  0.306427  0.302222  0.671652  1
  O  O13  1  0.306754  0.300321  0.005788  1
  O  O14  1  0.696481  0.690291  0.002506  1
  O  O15  1  0.698353  0.694925  0.328037  1
  O  O16  1  0.805303  0.194320  0.168527  1
  O  O17  1  0.807989  0.197161  0.835165  1
