# generated using pymatgen
data_LiMn2(BO3)2
_symmetry_space_group_name_H-M   'P 1'
_cell_length_a   5.81729061
_cell_length_b   9.23166369
_cell_length_c   12.43610810
_cell_angle_alpha   75.78687146
_cell_angle_beta   92.06577438
_cell_angle_gamma   104.29974332
_symmetry_Int_Tables_number   1
_chemical_formula_structural   LiMn2(BO3)2
_chemical_formula_sum   'Li5 Mn10 B10 O30'
_cell_volume   627.14178487
_cell_formula_units_Z   5
loop_
 _symmetry_equiv_pos_site_id
 _symmetry_equiv_pos_as_xyz
  1  'x, y, z'
loop_
 _atom_site_type_symbol
 _atom_site_label
 _atom_site_symmetry_multiplicity
 _atom_site_fract_x
 _atom_site_fract_y
 _atom_site_fract_z
 _atom_site_occupancy
  Li  Li0  1  0.960039  0.336073  0.711432  1
  Li  Li1  1  0.232394  0.261808  0.092836  1
  Li  Li2  1  0.442864  0.856459  0.897005  1
  Li  Li3  1  0.181559  0.936864  0.508860  1
  Li  Li4  1  0.026144  0.661014  0.295834  1
  Mn  Mn5  1  0.832070  0.445557  0.907861  1
  Mn  Mn6  1  0.749196  0.342216  0.501983  1
  Mn  Mn7  1  0.961714  0.983418  0.296520  1
  Mn  Mn8  1  0.447245  0.245488  0.305077  1
  Mn  Mn9  1  0.644306  0.844497  0.110963  1
  Mn  Mn10  1  0.366171  0.180169  0.885856  1
  Mn  Mn11  1  0.561964  0.745454  0.687447  1
  Mn  Mn12  1  0.019342  0.006590  0.719867  1
  Mn  Mn13  1  0.247001  0.603340  0.503186  1
  Mn  Mn14  1  0.165537  0.581368  0.090201  1
  B  B15  1  0.970680  0.325492  0.285313  1
  B  B16  1  0.833484  0.099607  0.903854  1
  B  B17  1  0.556584  0.093130  0.700344  1
  B  B18  1  0.778649  0.697967  0.485462  1
  B  B19  1  0.632343  0.501929  0.104832  1
  B  B20  1  0.358563  0.518707  0.891619  1
  B  B21  1  0.228148  0.265004  0.522266  1
  B  B22  1  0.429479  0.898047  0.313987  1
  B  B23  1  0.164877  0.922407  0.087503  1
  B  B24  1  0.041408  0.674649  0.702495  1
  O  O25  1  0.988678  0.522458  0.749333  1
  O  O26  1  0.795441  0.265831  0.368867  1
  O  O27  1  0.998012  0.857997  0.176892  1
  O  O28  1  0.659429  0.986026  0.675890  1
  O  O29  1  0.873499  0.589872  0.454291  1
  O  O30  1  0.707661  0.205668  0.916383  1
  O  O31  1  0.902625  0.771000  0.720790  1
  O  O32  1  0.840835  0.564020  0.038549  1
  O  O33  1  0.639892  0.250158  0.656316  1
  O  O34  1  0.870994  0.853893  0.445749  1
  O  O35  1  0.548075  0.347860  0.144671  1
  O  O36  1  0.758609  0.946917  0.947284  1
  O  O37  1  0.376199  0.040044  0.783975  1
  O  O38  1  0.593701  0.647331  0.564951  1
  O  O39  1  0.468856  0.416054  0.863834  1
  O  O40  1  0.506555  0.607156  0.119719  1
  O  O41  1  0.424932  0.339562  0.449451  1
  O  O42  1  0.633838  0.959299  0.244932  1
  O  O43  1  0.225488  0.078731  0.042871  1
  O  O44  1  0.425635  0.674478  0.843354  1
  O  O45  1  0.169217  0.111100  0.562600  1
  O  O46  1  0.341298  0.744169  0.350346  1
  O  O47  1  0.184584  0.458041  0.977348  1
  O  O48  1  0.073414  0.222423  0.249297  1
  O  O49  1  0.273929  0.823537  0.050895  1
  O  O50  1  0.092223  0.361545  0.548298  1
  O  O51  1  0.308540  0.002802  0.339132  1
  O  O52  1  0.034700  0.164147  0.829526  1
  O  O53  1  0.238087  0.746158  0.627132  1
  O  O54  1  0.045472  0.481816  0.244029  1
