# generated using pymatgen
data_Li3ZnFe2(PO4)3
_symmetry_space_group_name_H-M   'P 1'
_cell_length_a   10.35067058
_cell_length_b   6.05204864
_cell_length_c   14.26905840
_cell_angle_alpha   90.00000000
_cell_angle_beta   89.97768829
_cell_angle_gamma   90.00000000
_symmetry_Int_Tables_number   1
_chemical_formula_structural   Li3ZnFe2(PO4)3
_chemical_formula_sum   'Li12 Zn4 Fe8 P12 O48'
_cell_volume   893.85315849
_cell_formula_units_Z   4
loop_
 _symmetry_equiv_pos_site_id
 _symmetry_equiv_pos_as_xyz
  1  'x, y, z'
loop_
 _atom_site_type_symbol
 _atom_site_label
 _atom_site_symmetry_multiplicity
 _atom_site_fract_x
 _atom_site_fract_y
 _atom_site_fract_z
 _atom_site_occupancy
  Li  Li0  1  0.000454  0.499184  0.666499  1
  Li  Li1  1  0.999603  0.000632  0.000267  1
  Li  Li2  1  0.999603  0.499368  0.000267  1
  Li  Li3  1  0.000928  0.999680  0.333478  1
  Li  Li4  1  0.000928  0.500320  0.333478  1
  Li  Li5  1  0.000454  0.000816  0.666499  1
  Li  Li6  1  0.499035  0.999658  0.500207  1
  Li  Li7  1  0.499035  0.500342  0.500207  1
  Li  Li8  1  0.499838  0.999955  0.166651  1
  Li  Li9  1  0.499838  0.500045  0.166651  1
  Li  Li10  1  0.499436  0.000536  0.833068  1
  Li  Li11  1  0.499436  0.499464  0.833068  1
  Zn  Zn12  1  0.218909  0.750000  0.492319  1
  Zn  Zn13  1  0.218917  0.750000  0.825900  1
  Zn  Zn14  1  0.280969  0.250000  0.326175  1
  Zn  Zn15  1  0.718548  0.750000  0.007399  1
  Fe  Fe16  1  0.220366  0.750000  0.158160  1
  Fe  Fe17  1  0.279401  0.250000  0.658429  1
  Fe  Fe18  1  0.280669  0.250000  0.991234  1
  Fe  Fe19  1  0.719656  0.750000  0.342156  1
  Fe  Fe20  1  0.720529  0.750000  0.675220  1
  Fe  Fe21  1  0.780163  0.250000  0.175314  1
  Fe  Fe22  1  0.780072  0.250000  0.507513  1
  Fe  Fe23  1  0.780193  0.250000  0.842232  1
  P  P24  1  0.094070  0.250000  0.139203  1
  P  P25  1  0.093961  0.250000  0.472176  1
  P  P26  1  0.093567  0.250000  0.805943  1
  P  P27  1  0.405557  0.750000  0.305805  1
  P  P28  1  0.406082  0.750000  0.639155  1
  P  P29  1  0.407491  0.750000  0.972643  1
  P  P30  1  0.593836  0.250000  0.027718  1
  P  P31  1  0.591847  0.250000  0.360454  1
  P  P32  1  0.593176  0.250000  0.694223  1
  P  P33  1  0.907732  0.750000  0.860639  1
  P  P34  1  0.906094  0.750000  0.194152  1
  P  P35  1  0.908010  0.750000  0.527604  1
  O  O36  1  0.044683  0.750000  0.235744  1
  O  O37  1  0.047233  0.750000  0.569237  1
  O  O38  1  0.046722  0.750000  0.902719  1
  O  O39  1  0.097173  0.250000  0.246966  1
  O  O40  1  0.094605  0.250000  0.579986  1
  O  O41  1  0.094549  0.250000  0.913656  1
  O  O42  1  0.164883  0.045824  0.094521  1
  O  O43  1  0.164883  0.454176  0.094521  1
  O  O44  1  0.165515  0.045524  0.427683  1
  O  O45  1  0.164828  0.045230  0.761402  1
  O  O46  1  0.165515  0.454476  0.427683  1
  O  O47  1  0.164828  0.454770  0.761402  1
  O  O48  1  0.334998  0.954026  0.594490  1
  O  O49  1  0.335019  0.954934  0.260979  1
  O  O50  1  0.335603  0.953401  0.927988  1
  O  O51  1  0.334998  0.545974  0.594490  1
  O  O52  1  0.335603  0.546599  0.927988  1
  O  O53  1  0.335019  0.545066  0.260979  1
  O  O54  1  0.405999  0.750000  0.080106  1
  O  O55  1  0.402511  0.750000  0.413784  1
  O  O56  1  0.402616  0.750000  0.746968  1
  O  O57  1  0.452984  0.250000  0.402611  1
  O  O58  1  0.455029  0.250000  0.069658  1
  O  O59  1  0.454863  0.250000  0.736754  1
  O  O60  1  0.544735  0.750000  0.264486  1
  O  O61  1  0.546536  0.750000  0.930323  1
  O  O62  1  0.545032  0.750000  0.597496  1
  O  O63  1  0.593863  0.250000  0.252929  1
  O  O64  1  0.594965  0.250000  0.919871  1
  O  O65  1  0.594372  0.250000  0.586508  1
  O  O66  1  0.664929  0.045047  0.072108  1
  O  O67  1  0.663370  0.046331  0.405175  1
  O  O68  1  0.664929  0.454953  0.072108  1
  O  O69  1  0.663370  0.453669  0.405175  1
  O  O70  1  0.664794  0.045959  0.738448  1
  O  O71  1  0.664794  0.454041  0.738448  1
  O  O72  1  0.835781  0.546619  0.905213  1
  O  O73  1  0.835781  0.953381  0.905213  1
  O  O74  1  0.835031  0.545964  0.238734  1
  O  O75  1  0.836908  0.545786  0.572179  1
  O  O76  1  0.835031  0.954036  0.238734  1
  O  O77  1  0.836908  0.954214  0.572179  1
  O  O78  1  0.906183  0.750000  0.752981  1
  O  O79  1  0.902766  0.750000  0.086171  1
  O  O80  1  0.905510  0.750000  0.420024  1
  O  O81  1  0.954853  0.250000  0.763714  1
  O  O82  1  0.955277  0.250000  0.097458  1
  O  O83  1  0.955220  0.250000  0.429906  1
