# generated using pymatgen
data_LiAg3F8
_symmetry_space_group_name_H-M   'P 1'
_cell_length_a   5.38864877
_cell_length_b   6.89873074
_cell_length_c   9.97748059
_cell_angle_alpha   89.20606841
_cell_angle_beta   105.76485047
_cell_angle_gamma   67.02783040
_symmetry_Int_Tables_number   1
_chemical_formula_structural   LiAg3F8
_chemical_formula_sum   'Li2 Ag6 F16'
_cell_volume   325.62804284
_cell_formula_units_Z   2
loop_
 _symmetry_equiv_pos_site_id
 _symmetry_equiv_pos_as_xyz
  1  'x, y, z'
loop_
 _atom_site_type_symbol
 _atom_site_label
 _atom_site_symmetry_multiplicity
 _atom_site_fract_x
 _atom_site_fract_y
 _atom_site_fract_z
 _atom_site_occupancy
  Li  Li0  1  0.719465  0.749192  0.250654  1
  Li  Li1  1  0.282937  0.250531  0.749465  1
  Ag  Ag2  1  0.885763  0.869362  0.611707  1
  Ag  Ag3  1  0.643749  0.630296  0.888787  1
  Ag  Ag4  1  0.999671  0.000312  0.999832  1
  Ag  Ag5  1  0.500360  0.499836  0.500108  1
  Ag  Ag6  1  0.354971  0.370127  0.111161  1
  Ag  Ag7  1  0.113597  0.130075  0.388459  1
  F  F8  1  0.632211  0.898248  0.409593  1
  F  F9  1  0.619984  0.602355  0.090481  1
  F  F10  1  0.744682  0.485466  0.373974  1
  F  F11  1  0.819212  0.139352  0.201670  1
  F  F12  1  0.741935  0.640426  0.702418  1
  F  F13  1  0.644047  0.986112  0.873204  1
  F  F14  1  0.940731  0.290317  0.914498  1
  F  F15  1  0.816174  0.209977  0.585748  1
  F  F16  1  0.184304  0.789542  0.414031  1
  F  F17  1  0.058982  0.710154  0.085457  1
  F  F18  1  0.355509  0.014457  0.126520  1
  F  F19  1  0.257190  0.361159  0.297652  1
  F  F20  1  0.181577  0.859264  0.798257  1
  F  F21  1  0.256514  0.514157  0.626159  1
  F  F22  1  0.379320  0.397250  0.909761  1
  F  F23  1  0.367117  0.102032  0.590405  1
