# generated using pymatgen
data_Li2Cr2FeSbO8
_symmetry_space_group_name_H-M   'P 1'
_cell_length_a   5.98894809
_cell_length_b   10.33666099
_cell_length_c   9.66813959
_cell_angle_alpha   90.12983329
_cell_angle_beta   90.07746050
_cell_angle_gamma   90.18053584
_symmetry_Int_Tables_number   1
_chemical_formula_structural   Li2Cr2FeSbO8
_chemical_formula_sum   'Li8 Cr8 Fe4 Sb4 O32'
_cell_volume   598.50814053
_cell_formula_units_Z   4
loop_
 _symmetry_equiv_pos_site_id
 _symmetry_equiv_pos_as_xyz
  1  'x, y, z'
loop_
 _atom_site_type_symbol
 _atom_site_label
 _atom_site_symmetry_multiplicity
 _atom_site_fract_x
 _atom_site_fract_y
 _atom_site_fract_z
 _atom_site_occupancy
  Li  Li0  1  0.999751  0.332678  0.909303  1
  Li  Li1  1  0.000643  0.002768  0.999022  1
  Li  Li2  1  0.000415  0.000758  0.496690  1
  Li  Li3  1  0.999224  0.666433  0.410552  1
  Li  Li4  1  0.500590  0.832665  0.909900  1
  Li  Li5  1  0.499075  0.166097  0.409697  1
  Li  Li6  1  0.499752  0.499778  0.998625  1
  Li  Li7  1  0.500164  0.500068  0.497447  1
  Cr  Cr8  1  0.999206  0.829199  0.720294  1
  Cr  Cr9  1  0.244912  0.584645  0.720876  1
  Cr  Cr10  1  0.256638  0.917101  0.220706  1
  Cr  Cr11  1  0.499031  0.330283  0.721853  1
  Cr  Cr12  1  0.501262  0.670482  0.220349  1
  Cr  Cr13  1  0.742962  0.084631  0.721208  1
  Cr  Cr14  1  0.756975  0.413900  0.220858  1
  Cr  Cr15  1  0.754373  0.584556  0.721079  1
  Fe  Fe16  1  0.000675  0.172247  0.222518  1
  Fe  Fe17  1  0.247502  0.412324  0.221778  1
  Fe  Fe18  1  0.253452  0.084828  0.721563  1
  Fe  Fe19  1  0.745391  0.918291  0.220664  1
  Sb  Sb20  1  0.997569  0.333004  0.494935  1
  Sb  Sb21  1  0.001515  0.667126  0.994172  1
  Sb  Sb22  1  0.499137  0.832008  0.494753  1
  Sb  Sb23  1  0.502136  0.166966  0.995435  1
  O  O24  1  0.002817  0.329678  0.117414  1
  O  O25  1  0.999631  0.518335  0.850361  1
  O  O26  1  0.999757  0.005597  0.309525  1
  O  O27  1  0.001011  0.000724  0.812262  1
  O  O28  1  0.995145  0.166620  0.603273  1
  O  O29  1  0.002523  0.834587  0.102210  1
  O  O30  1  0.999569  0.665516  0.615960  1
  O  O31  1  0.996436  0.480910  0.353164  1
  O  O32  1  0.221709  0.741071  0.849517  1
  O  O33  1  0.217913  0.255367  0.353346  1
  O  O34  1  0.251128  0.583411  0.101702  1
  O  O35  1  0.250578  0.416784  0.602177  1
  O  O36  1  0.249548  0.084556  0.103188  1
  O  O37  1  0.247766  0.914414  0.602104  1
  O  O38  1  0.280806  0.242983  0.854225  1
  O  O39  1  0.277939  0.759068  0.348703  1
  O  O40  1  0.503264  0.835102  0.115454  1
  O  O41  1  0.504136  0.017974  0.853886  1
  O  O42  1  0.498937  0.498945  0.311388  1
  O  O43  1  0.503627  0.333930  0.102884  1
  O  O44  1  0.495979  0.165482  0.615545  1
  O  O45  1  0.499766  0.500633  0.813673  1
  O  O46  1  0.496479  0.981448  0.354135  1
  O  O47  1  0.499152  0.664770  0.602849  1
  O  O48  1  0.721828  0.241126  0.849167  1
  O  O49  1  0.720643  0.757834  0.353214  1
  O  O50  1  0.754483  0.086391  0.103285  1
  O  O51  1  0.751316  0.916615  0.601709  1
  O  O52  1  0.750295  0.582707  0.102191  1
  O  O53  1  0.745778  0.416758  0.602282  1
  O  O54  1  0.778515  0.740647  0.850710  1
  O  O55  1  0.778872  0.257484  0.347898  1
