# generated using pymatgen
data_LiMn3(BO3)3
_symmetry_space_group_name_H-M   'P 1'
_cell_length_a   7.76735078
_cell_length_b   9.17189253
_cell_length_c   6.17377699
_cell_angle_alpha   106.27947946
_cell_angle_beta   83.49166364
_cell_angle_gamma   66.30705609
_symmetry_Int_Tables_number   1
_chemical_formula_structural   LiMn3(BO3)3
_chemical_formula_sum   'Li2 Mn6 B6 O18'
_cell_volume   373.61154876
_cell_formula_units_Z   2
loop_
 _symmetry_equiv_pos_site_id
 _symmetry_equiv_pos_as_xyz
  1  'x, y, z'
loop_
 _atom_site_type_symbol
 _atom_site_label
 _atom_site_symmetry_multiplicity
 _atom_site_fract_x
 _atom_site_fract_y
 _atom_site_fract_z
 _atom_site_occupancy
  Li  Li0  1  0.726777  0.943991  0.599631  1
  Li  Li1  1  0.273223  0.056009  0.400369  1
  Mn  Mn2  1  0.988279  0.409510  0.755122  1
  Mn  Mn3  1  0.680434  0.288004  0.587111  1
  Mn  Mn4  1  0.659590  0.060503  0.095595  1
  Mn  Mn5  1  0.340410  0.939497  0.904405  1
  Mn  Mn6  1  0.319566  0.711996  0.412889  1
  Mn  Mn7  1  0.011721  0.590490  0.244878  1
  B  B8  1  0.979045  0.059504  0.750675  1
  B  B9  1  0.364226  0.274081  0.886636  1
  B  B10  1  0.683403  0.620674  0.562610  1
  B  B11  1  0.316597  0.379326  0.437390  1
  B  B12  1  0.635774  0.725919  0.113364  1
  B  B13  1  0.020955  0.940496  0.249325  1
  O  O14  1  0.883217  0.227223  0.754227  1
  O  O15  1  0.841360  0.639112  0.021648  1
  O  O16  1  0.883125  0.978240  0.817716  1
  O  O17  1  0.818163  0.024835  0.346851  1
  O  O18  1  0.463261  0.106008  0.871732  1
  O  O19  1  0.791819  0.458942  0.566447  1
  O  O20  1  0.454520  0.362242  0.828660  1
  O  O21  1  0.771232  0.712346  0.503483  1
  O  O22  1  0.481339  0.691474  0.637933  1
  O  O23  1  0.518661  0.308526  0.362067  1
  O  O24  1  0.228768  0.287654  0.496517  1
  O  O25  1  0.545480  0.637758  0.171340  1
  O  O26  1  0.208181  0.541058  0.433553  1
  O  O27  1  0.536739  0.893992  0.128268  1
  O  O28  1  0.181837  0.975165  0.653149  1
  O  O29  1  0.116875  0.021760  0.182284  1
  O  O30  1  0.158640  0.360888  0.978352  1
  O  O31  1  0.116783  0.772777  0.245773  1
