# generated using pymatgen
data_Li10Mn(SiO5)2
_symmetry_space_group_name_H-M   'P 1'
_cell_length_a   6.12905639
_cell_length_b   15.39560793
_cell_length_c   5.17650230
_cell_angle_alpha   80.13202268
_cell_angle_beta   89.96558665
_cell_angle_gamma   78.47929752
_symmetry_Int_Tables_number   1
_chemical_formula_structural   Li10Mn(SiO5)2
_chemical_formula_sum   'Li20 Mn2 Si4 O20'
_cell_volume   471.24927383
_cell_formula_units_Z   2
loop_
 _symmetry_equiv_pos_site_id
 _symmetry_equiv_pos_as_xyz
  1  'x, y, z'
loop_
 _atom_site_type_symbol
 _atom_site_label
 _atom_site_symmetry_multiplicity
 _atom_site_fract_x
 _atom_site_fract_y
 _atom_site_fract_z
 _atom_site_occupancy
  Li  Li0  1  0.507955  0.983622  0.758955  1
  Li  Li1  1  0.355007  0.869909  0.231233  1
  Li  Li2  1  0.773814  0.869554  0.232456  1
  Li  Li3  1  0.131265  0.736157  0.483311  1
  Li  Li4  1  0.347300  0.737244  0.028907  1
  Li  Li5  1  0.912817  0.737373  0.030509  1
  Li  Li6  1  0.671770  0.650225  0.422965  1
  Li  Li7  1  0.436756  0.610130  0.790745  1
  Li  Li8  1  0.950950  0.610940  0.789953  1
  Li  Li9  1  0.729328  0.538948  0.138256  1
  Li  Li10  1  0.271189  0.460003  0.867694  1
  Li  Li11  1  0.047883  0.389020  0.211334  1
  Li  Li12  1  0.563195  0.388342  0.214706  1
  Li  Li13  1  0.320885  0.350369  0.582064  1
  Li  Li14  1  0.085301  0.262583  0.969530  1
  Li  Li15  1  0.652909  0.262640  0.971396  1
  Li  Li16  1  0.868335  0.263300  0.516428  1
  Li  Li17  1  0.643909  0.131155  0.768008  1
  Li  Li18  1  0.225097  0.130426  0.769533  1
  Li  Li19  1  0.491255  0.017342  0.241689  1
  Mn  Mn20  1  0.037497  0.925869  0.872256  1
  Mn  Mn21  1  0.961602  0.074806  0.128849  1
  Si  Si22  1  0.599443  0.800124  0.694476  1
  Si  Si23  1  0.218656  0.561391  0.311415  1
  Si  Si24  1  0.781894  0.437978  0.692591  1
  Si  Si25  1  0.399749  0.200176  0.305458  1
  O  O26  1  0.548015  0.899923  0.501704  1
  O  O27  1  0.091440  0.815569  0.137987  1
  O  O28  1  0.594518  0.809512  0.009926  1
  O  O29  1  0.411507  0.741908  0.638656  1
  O  O30  1  0.845976  0.742949  0.638385  1
  O  O31  1  0.418450  0.612390  0.173760  1
  O  O32  1  0.968129  0.612311  0.173124  1
  O  O33  1  0.213205  0.572153  0.621802  1
  O  O34  1  0.727520  0.544043  0.737610  1
  O  O35  1  0.272162  0.455410  0.265961  1
  O  O36  1  0.786930  0.426601  0.382542  1
  O  O37  1  0.582715  0.387243  0.831952  1
  O  O38  1  0.033055  0.387378  0.829016  1
  O  O39  1  0.153821  0.258209  0.362092  1
  O  O40  1  0.589958  0.257058  0.361763  1
  O  O41  1  0.404690  0.190767  0.990236  1
  O  O42  1  0.908210  0.184711  0.861266  1
  O  O43  1  0.448507  0.100484  0.498509  1
  O  O44  1  0.246239  0.000408  0.000679  1
  O  O45  1  0.753199  0.000327  0.000863  1
