# generated using pymatgen
data_Li6CoNi5O12
_symmetry_space_group_name_H-M   'P 1'
_cell_length_a   4.89213482
_cell_length_b   5.04206364
_cell_length_c   9.87708629
_cell_angle_alpha   84.24268305
_cell_angle_beta   89.35298988
_cell_angle_gamma   117.78485934
_symmetry_Int_Tables_number   1
_chemical_formula_structural   Li6CoNi5O12
_chemical_formula_sum   'Li6 Co1 Ni5 O12'
_cell_volume   213.98869038
_cell_formula_units_Z   1
loop_
 _symmetry_equiv_pos_site_id
 _symmetry_equiv_pos_as_xyz
  1  'x, y, z'
loop_
 _atom_site_type_symbol
 _atom_site_label
 _atom_site_symmetry_multiplicity
 _atom_site_fract_x
 _atom_site_fract_y
 _atom_site_fract_z
 _atom_site_occupancy
  Li  Li0  1  0.853165  0.494521  0.248308  1
  Li  Li1  1  0.478774  0.165034  0.751091  1
  Li  Li2  1  0.818134  0.846147  0.747708  1
  Li  Li3  1  0.181869  0.153644  0.252189  1
  Li  Li4  1  0.522007  0.835478  0.249315  1
  Li  Li5  1  0.145928  0.504354  0.751613  1
  Co  Co6  1  0.999829  0.000281  0.000386  1
  Ni  Ni7  1  0.662246  0.328112  0.999998  1
  Ni  Ni8  1  0.833157  0.666326  0.499658  1
  Ni  Ni9  1  0.499942  0.000279  0.499959  1
  Ni  Ni10  1  0.338169  0.671855  0.000166  1
  Ni  Ni11  1  0.167302  0.333960  0.499972  1
  O  O12  1  0.824904  0.998329  0.390593  1
  O  O13  1  0.842169  0.337189  0.609911  1
  O  O14  1  0.020191  0.697476  0.898278  1
  O  O15  1  0.685642  0.015500  0.887250  1
  O  O16  1  0.318066  0.986738  0.111121  1
  O  O17  1  0.655881  0.662642  0.106719  1
  O  O18  1  0.491909  0.330367  0.389992  1
  O  O19  1  0.507755  0.669264  0.610049  1
  O  O20  1  0.342603  0.338503  0.893503  1
  O  O21  1  0.175233  0.001486  0.609694  1
  O  O22  1  0.977261  0.299376  0.102756  1
  O  O23  1  0.157869  0.663149  0.389776  1
