# generated using pymatgen
data_Sr2LiSc(B2O5)2
_symmetry_space_group_name_H-M   'P 1'
_cell_length_a   5.27331841
_cell_length_b   12.75864477
_cell_length_c   13.86952066
_cell_angle_alpha   117.05497827
_cell_angle_beta   90.00000000
_cell_angle_gamma   90.00000000
_symmetry_Int_Tables_number   1
_chemical_formula_structural   Sr2LiSc(B2O5)2
_chemical_formula_sum   'Sr8 Li4 Sc4 B16 O40'
_cell_volume   831.03304172
_cell_formula_units_Z   4
loop_
 _symmetry_equiv_pos_site_id
 _symmetry_equiv_pos_as_xyz
  1  'x, y, z'
loop_
 _atom_site_type_symbol
 _atom_site_label
 _atom_site_symmetry_multiplicity
 _atom_site_fract_x
 _atom_site_fract_y
 _atom_site_fract_z
 _atom_site_occupancy
  Li  Li0  1  0.897003  0.878512  0.400479  1
  Li  Li1  1  0.602997  0.378512  0.900479  1
  Li  Li2  1  0.102997  0.121488  0.599521  1
  Li  Li3  1  0.397003  0.621488  0.099521  1
  B  B4  1  0.639098  0.101503  0.705690  1
  B  B5  1  0.890971  0.592545  0.449461  1
  B  B6  1  0.609029  0.092545  0.949461  1
  B  B7  1  0.109029  0.407455  0.550539  1
  B  B8  1  0.360902  0.898497  0.294310  1
  B  B9  1  0.860902  0.601503  0.205690  1
  B  B10  1  0.390971  0.907455  0.050539  1
  B  B11  1  0.139098  0.398497  0.794310  1
  B  B12  1  0.079910  0.422756  0.050669  1
  B  B13  1  0.579910  0.077244  0.449331  1
  B  B14  1  0.420090  0.922756  0.550669  1
  B  B15  1  0.920090  0.577244  0.949331  1
  B  B16  1  0.559420  0.084368  0.228369  1
  B  B17  1  0.059420  0.415632  0.271631  1
  B  B18  1  0.440580  0.915632  0.771631  1
  B  B19  1  0.940580  0.584368  0.728369  1
  O  O20  1  0.408562  0.788748  0.215538  1
  O  O21  1  0.426740  0.037930  0.638875  1
  O  O22  1  0.073260  0.537930  0.138875  1
  O  O23  1  0.573260  0.962070  0.361125  1
  O  O24  1  0.788366  0.132828  0.273543  1
  O  O25  1  0.288366  0.367172  0.226457  1
  O  O26  1  0.211634  0.867172  0.726457  1
  O  O27  1  0.711634  0.632828  0.773543  1
  O  O28  1  0.091438  0.288749  0.715538  1
  O  O29  1  0.926740  0.462070  0.861125  1
  O  O30  1  0.591438  0.211252  0.784462  1
  O  O31  1  0.908562  0.711252  0.284462  1
  O  O32  1  0.838574  0.355697  0.228996  1
  O  O33  1  0.338574  0.144303  0.271004  1
  O  O34  1  0.161426  0.644303  0.771004  1
  O  O35  1  0.661426  0.855697  0.728996  1
  O  O36  1  0.814732  0.117496  0.494218  1
  O  O37  1  0.314732  0.382504  0.005782  1
  O  O38  1  0.185268  0.882504  0.505782  1
  O  O39  1  0.685268  0.617496  0.994218  1
  O  O40  1  0.997435  0.318487  0.461221  1
  O  O41  1  0.497435  0.181513  0.038779  1
  O  O42  1  0.002565  0.681513  0.538779  1
  O  O43  1  0.502565  0.818487  0.961221  1
  O  O44  1  0.373304  0.451695  0.814669  1
  O  O45  1  0.873304  0.048305  0.685331  1
  O  O46  1  0.626696  0.548305  0.185331  1
  O  O47  1  0.126696  0.951695  0.314669  1
  O  O48  1  0.360061  0.432381  0.560504  1
  O  O49  1  0.860061  0.067619  0.939496  1
  O  O50  1  0.639939  0.567619  0.439496  1
  O  O51  1  0.139939  0.932381  0.060504  1
  O  O52  1  0.369048  0.146886  0.487517  1
  O  O53  1  0.869048  0.353114  0.012483  1
  O  O54  1  0.570401  0.975915  0.133772  1
  O  O55  1  0.130952  0.646886  0.987517  1
  O  O56  1  0.929599  0.475915  0.633772  1
  O  O57  1  0.429599  0.024085  0.866228  1
  O  O58  1  0.070401  0.524085  0.366228  1
  O  O59  1  0.630952  0.853114  0.512483  1
  Sc  Sc60  1  0.931085  0.865103  0.617313  1
  Sc  Sc61  1  0.431085  0.634897  0.882687  1
  Sc  Sc62  1  0.068915  0.134897  0.382687  1
  Sc  Sc63  1  0.568915  0.365103  0.117313  1
  Sr  Sr64  1  0.067321  0.151780  0.123616  1
  Sr  Sr65  1  0.432679  0.651780  0.623616  1
  Sr  Sr66  1  0.932679  0.848220  0.876384  1
  Sr  Sr67  1  0.567321  0.348220  0.376384  1
  Sr  Sr68  1  0.883079  0.818255  0.149166  1
  Sr  Sr69  1  0.383079  0.681745  0.350834  1
  Sr  Sr70  1  0.116921  0.181745  0.850834  1
  Sr  Sr71  1  0.616921  0.318255  0.649166  1
