# generated using pymatgen
data_LiMnPH2O5
_symmetry_space_group_name_H-M   'P 1'
_cell_length_a   5.77169777
_cell_length_b   7.94900549
_cell_length_c   4.73626784
_cell_angle_alpha   90.00000000
_cell_angle_beta   90.00000000
_cell_angle_gamma   90.00000000
_symmetry_Int_Tables_number   1
_chemical_formula_structural   LiMnPH2O5
_chemical_formula_sum   'Li2 Mn2 P2 H4 O10'
_cell_volume   217.29645069
_cell_formula_units_Z   2
loop_
 _symmetry_equiv_pos_site_id
 _symmetry_equiv_pos_as_xyz
  1  'x, y, z'
loop_
 _atom_site_type_symbol
 _atom_site_label
 _atom_site_symmetry_multiplicity
 _atom_site_fract_x
 _atom_site_fract_y
 _atom_site_fract_z
 _atom_site_occupancy
  Li  Li0  1  0.000000  0.457547  0.080172  1
  Li  Li1  1  0.500000  0.542453  0.580172  1
  Mn  Mn2  1  0.000000  0.984132  0.026199  1
  Mn  Mn3  1  0.500000  0.015868  0.526199  1
  P  P4  1  0.000000  0.240797  0.590394  1
  P  P5  1  0.500000  0.759203  0.090394  1
  H  H6  1  0.135254  0.781063  0.577405  1
  H  H7  1  0.364746  0.218937  0.077405  1
  H  H8  1  0.635254  0.218937  0.077405  1
  H  H9  1  0.864746  0.781063  0.577405  1
  O  O10  1  0.000000  0.228589  0.262764  1
  O  O11  1  0.000000  0.426248  0.680623  1
  O  O12  1  0.000000  0.784182  0.703718  1
  O  O13  1  0.214673  0.144204  0.718460  1
  O  O14  1  0.285327  0.855796  0.218460  1
  O  O15  1  0.500000  0.215818  0.203718  1
  O  O16  1  0.500000  0.573752  0.180623  1
  O  O17  1  0.500000  0.771411  0.762764  1
  O  O18  1  0.714673  0.855796  0.218460  1
  O  O19  1  0.785327  0.144204  0.718460  1
