# generated using pymatgen
data_ZnP2H15C4NO8
_symmetry_space_group_name_H-M   'P 1'
_cell_length_a   8.55076159
_cell_length_b   13.93829021
_cell_length_c   10.27423100
_cell_angle_alpha   90.00000000
_cell_angle_beta   91.00232567
_cell_angle_gamma   90.00000000
_symmetry_Int_Tables_number   1
_chemical_formula_structural   ZnP2H15C4NO8
_chemical_formula_sum   'Zn4 P8 H60 C16 N4 O32'
_cell_volume   1224.32627013
_cell_formula_units_Z   4
loop_
 _symmetry_equiv_pos_site_id
 _symmetry_equiv_pos_as_xyz
  1  'x, y, z'
loop_
 _atom_site_type_symbol
 _atom_site_label
 _atom_site_symmetry_multiplicity
 _atom_site_fract_x
 _atom_site_fract_y
 _atom_site_fract_z
 _atom_site_occupancy
  Zn  Zn0  1  0.217035  0.575143  0.974501  1
  Zn  Zn1  1  0.217035  0.424857  0.474501  1
  Zn  Zn2  1  0.718542  0.131431  0.584681  1
  Zn  Zn3  1  0.718542  0.868569  0.084681  1
  P  P4  1  0.245946  0.613912  0.658632  1
  P  P5  1  0.245946  0.386088  0.158632  1
  P  P6  1  0.407451  0.773817  0.992024  1
  P  P7  1  0.407451  0.226183  0.492024  1
  P  P8  1  0.749562  0.963289  0.793176  1
  P  P9  1  0.749562  0.036711  0.293175  1
  P  P10  1  0.907758  0.694631  0.962443  1
  P  P11  1  0.907758  0.305369  0.462443  1
  H  H12  1  0.090520  0.222081  0.785449  1
  H  H13  1  0.093177  0.055957  0.719365  1
  H  H14  1  0.090520  0.777919  0.285449  1
  H  H15  1  0.114329  0.859881  0.555945  1
  H  H16  1  0.093177  0.944043  0.219365  1
  H  H17  1  0.114211  0.983713  0.504585  1
  H  H18  1  0.114329  0.140119  0.055945  1
  H  H19  1  0.114211  0.016287  0.004585  1
  H  H20  1  0.218940  0.262215  0.915376  1
  H  H21  1  0.224530  0.972812  0.798966  1
  H  H22  1  0.218940  0.737785  0.415376  1
  H  H23  1  0.224530  0.027188  0.298966  1
  H  H24  1  0.296685  0.229555  0.759327  1
  H  H25  1  0.301262  0.065029  0.694145  1
  H  H26  1  0.296685  0.770445  0.259327  1
  H  H27  1  0.301262  0.934971  0.194145  1
  H  H28  1  0.390350  0.026225  0.978273  1
  H  H29  1  0.390350  0.973775  0.478273  1
  H  H30  1  0.392921  0.848683  0.521443  1
  H  H31  1  0.392921  0.151317  0.021443  1
  H  H32  1  0.472307  0.111836  0.868490  1
  H  H33  1  0.472307  0.888164  0.368490  1
  H  H34  1  0.478209  0.379359  0.883867  1
  H  H35  1  0.478209  0.620641  0.383867  1
  H  H36  1  0.579899  0.475471  0.808352  1
  H  H37  1  0.591170  0.356314  0.740432  1
  H  H38  1  0.579899  0.524529  0.308352  1
  H  H39  1  0.591170  0.643686  0.240432  1
  H  H40  1  0.606112  0.586982  0.587383  1
  H  H41  1  0.624784  0.254954  0.998205  1
  H  H42  1  0.606112  0.413018  0.087383  1
  H  H43  1  0.624784  0.745046  0.498205  1
  H  H44  1  0.711358  0.488722  0.514059  1
  H  H45  1  0.711358  0.511278  0.014059  1
  H  H46  1  0.739921  0.232781  0.856081  1
  H  H47  1  0.739921  0.767219  0.356081  1
  H  H48  1  0.816773  0.581768  0.599240  1
  H  H49  1  0.816773  0.418232  0.099240  1
  H  H50  1  0.833855  0.738735  0.509642  1
  H  H51  1  0.833855  0.261265  0.009642  1
  H  H52  1  0.862694  0.484464  0.824796  1
  H  H53  1  0.862694  0.515536  0.324796  1
  H  H54  1  0.874994  0.366073  0.753568  1
  H  H55  1  0.874994  0.633927  0.253568  1
  H  H56  1  0.970516  0.392673  0.908100  1
  H  H57  1  0.970516  0.607327  0.408100  1
  H  H58  1  0.985624  0.100314  0.926345  1
  H  H59  1  0.985624  0.899686  0.426345  1
  H  H60  1  0.050309  0.701637  0.729503  1
  H  H61  1  0.050309  0.298363  0.229503  1
  H  H62  1  0.162818  0.806920  0.928237  1
  H  H63  1  0.162818  0.193080  0.428237  1
  H  H64  1  0.421235  0.718922  0.737137  1
  H  H65  1  0.421235  0.281078  0.237137  1
  H  H66  1  0.548874  0.866533  0.785556  1
  H  H67  1  0.548874  0.133467  0.285556  1
  H  H68  1  0.664688  0.694877  0.879309  1
  H  H69  1  0.664688  0.305123  0.379309  1
  H  H70  1  0.923351  0.845977  0.785837  1
  H  H71  1  0.923351  0.154023  0.285837  1
  C  C72  1  0.100343  0.090938  0.973544  1
  C  C73  1  0.100343  0.909062  0.473544  1
  C  C74  1  0.206702  0.214565  0.831028  1
  C  C75  1  0.209858  0.046307  0.762994  1
  C  C76  1  0.206702  0.785435  0.331028  1
  C  C77  1  0.209858  0.953693  0.262994  1
  C  C78  1  0.382416  0.099777  0.941294  1
  C  C79  1  0.382416  0.900223  0.441294  1
  C  C80  1  0.583035  0.398592  0.830055  1
  C  C81  1  0.583035  0.601408  0.330055  1
  C  C82  1  0.713433  0.565084  0.538975  1
  C  C83  1  0.731310  0.273865  0.946631  1
  C  C84  1  0.713433  0.434916  0.038975  1
  C  C85  1  0.731310  0.726135  0.446631  1
  C  C86  1  0.869484  0.407402  0.844231  1
  C  C87  1  0.869484  0.592598  0.344231  1
  N  N88  1  0.224880  0.112950  0.877122  1
  N  N89  1  0.224880  0.887050  0.377122  1
  N  N90  1  0.724350  0.378709  0.914667  1
  N  N91  1  0.724350  0.621290  0.414667  1
  O  O92  1  0.003373  0.756034  0.863915  1
  O  O93  1  0.003373  0.243966  0.363915  1
  O  O94  1  0.083595  0.670190  0.644808  1
  O  O95  1  0.083595  0.329810  0.144808  1
  O  O96  1  0.258856  0.841453  0.962836  1
  O  O97  1  0.256467  0.559796  0.786658  1
  O  O98  1  0.258856  0.158547  0.462836  1
  O  O99  1  0.256467  0.440204  0.286658  1
  O  O100  1  0.262137  0.554283  0.536102  1
  O  O101  1  0.262137  0.445717  0.036102  1
  O  O102  1  0.354025  0.324027  0.541685  1
  O  O103  1  0.354025  0.675973  0.041685  1
  O  O104  1  0.380931  0.692840  0.649865  1
  O  O105  1  0.380931  0.307160  0.149865  1
  O  O106  1  0.502093  0.765619  0.863413  1
  O  O107  1  0.501072  0.172770  0.598329  1
  O  O108  1  0.502093  0.234381  0.363413  1
  O  O109  1  0.501072  0.827230  0.098329  1
  O  O110  1  0.584864  0.926294  0.738608  1
  O  O111  1  0.584864  0.073706  0.238608  1
  O  O112  1  0.759805  0.954868  0.940691  1
  O  O113  1  0.758726  0.651498  0.884721  1
  O  O114  1  0.759805  0.045132  0.440691  1
  O  O115  1  0.758726  0.348502  0.384721  1
  O  O116  1  0.770934  0.066224  0.747692  1
  O  O117  1  0.770934  0.933776  0.247692  1
  O  O118  1  0.852123  0.245302  0.577997  1
  O  O119  1  0.852123  0.754699  0.077997  1
  O  O120  1  0.881519  0.899594  0.728240  1
  O  O121  1  0.881519  0.100406  0.228240  1
  O  O122  1  0.999459  0.393175  0.509125  1
  O  O123  1  0.999459  0.606825  0.009125  1
