# generated using pymatgen
data_KNpAgS3
_symmetry_space_group_name_H-M   'P 1'
_cell_length_a   4.09672904
_cell_length_b   7.35904160
_cell_length_c   10.41709111
_cell_angle_alpha   90.00000000
_cell_angle_beta   90.00000000
_cell_angle_gamma   73.83844809
_symmetry_Int_Tables_number   1
_chemical_formula_structural   KNpAgS3
_chemical_formula_sum   'K2 Np2 Ag2 S6'
_cell_volume   301.64323996
_cell_formula_units_Z   2
loop_
 _symmetry_equiv_pos_site_id
 _symmetry_equiv_pos_as_xyz
  1  'x, y, z'
loop_
 _atom_site_type_symbol
 _atom_site_label
 _atom_site_symmetry_multiplicity
 _atom_site_fract_x
 _atom_site_fract_y
 _atom_site_fract_z
 _atom_site_occupancy
  K  K0  1  0.739383  0.521232  0.250000  1
  K  K1  1  0.260617  0.478769  0.750000  1
  Np  Np2  1  0.000000  0.000000  0.000000  1
  Np  Np3  1  0.000000  0.000000  0.500000  1
  Ag  Ag4  1  0.453132  0.093737  0.250000  1
  Ag  Ag5  1  0.546868  0.906263  0.750000  1
  S  S6  1  0.375764  0.248473  0.037273  1
  S  S7  1  0.061795  0.876411  0.250000  1
  S  S8  1  0.375764  0.248473  0.462727  1
  S  S9  1  0.624236  0.751527  0.537273  1
  S  S10  1  0.938205  0.123589  0.750000  1
  S  S11  1  0.624236  0.751527  0.962727  1
