# generated using pymatgen
data_Ba2CaI6
_symmetry_space_group_name_H-M   'P 1'
_cell_length_a   14.34315012
_cell_length_b   14.34157252
_cell_length_c   7.83089717
_cell_angle_alpha   90.00480544
_cell_angle_beta   90.00000000
_cell_angle_gamma   120.00363890
_symmetry_Int_Tables_number   1
_chemical_formula_structural   Ba2CaI6
_chemical_formula_sum   'Ba6 Ca3 I18'
_cell_volume   1394.97858983
_cell_formula_units_Z   3
loop_
 _symmetry_equiv_pos_site_id
 _symmetry_equiv_pos_as_xyz
  1  'x, y, z'
loop_
 _atom_site_type_symbol
 _atom_site_label
 _atom_site_symmetry_multiplicity
 _atom_site_fract_x
 _atom_site_fract_y
 _atom_site_fract_z
 _atom_site_occupancy
  Ba  Ba0  1  0.999944  0.636878  0.999914  1
  Ba  Ba1  1  0.000014  0.305518  0.500091  1
  Ba  Ba2  1  0.363066  0.363122  0.000086  1
  Ba  Ba3  1  0.305448  0.000000  0.500000  1
  Ba  Ba4  1  0.694496  0.694482  0.499909  1
  Ba  Ba5  1  0.636998  0.000000  0.000000  1
  Ca  Ca6  1  0.333344  0.666738  0.492136  1
  Ca  Ca7  1  0.000027  0.000000  0.000000  1
  Ca  Ca8  1  0.666607  0.333262  0.507864  1
  I  I9  1  0.085136  0.876096  0.770769  1
  I  I10  1  0.233972  0.772737  0.252354  1
  I  I11  1  0.131093  0.542983  0.735884  1
  I  I12  1  0.412006  0.869096  0.735740  1
  I  I13  1  0.227214  0.461307  0.252352  1
  I  I14  1  0.123866  0.209083  0.770923  1
  I  I15  1  0.538682  0.765904  0.252253  1
  I  I16  1  0.209040  0.123904  0.229231  1
  I  I17  1  0.457050  0.588015  0.735632  1
  I  I18  1  0.790961  0.914785  0.770850  1
  I  I19  1  0.461235  0.227263  0.747646  1
  I  I20  1  0.588109  0.457017  0.264116  1
  I  I21  1  0.542911  0.130904  0.264260  1
  I  I22  1  0.765908  0.538693  0.747648  1
  I  I23  1  0.914784  0.790918  0.229077  1
  I  I24  1  0.772778  0.234096  0.747747  1
  I  I25  1  0.869035  0.411985  0.264368  1
  I  I26  1  0.876177  0.085215  0.229150  1
