# generated using pymatgen
data_Ca4Sn5S14
_symmetry_space_group_name_H-M   'P 1'
_cell_length_a   14.21709524
_cell_length_b   15.94171500
_cell_length_c   21.90820514
_cell_angle_alpha   90.00000000
_cell_angle_beta   90.00000000
_cell_angle_gamma   90.00000000
_symmetry_Int_Tables_number   1
_chemical_formula_structural   Ca4Sn5S14
_chemical_formula_sum   'Ca32 Sn40 S112'
_cell_volume   4965.38253470
_cell_formula_units_Z   8
loop_
 _symmetry_equiv_pos_site_id
 _symmetry_equiv_pos_as_xyz
  1  'x, y, z'
loop_
 _atom_site_type_symbol
 _atom_site_label
 _atom_site_symmetry_multiplicity
 _atom_site_fract_x
 _atom_site_fract_y
 _atom_site_fract_z
 _atom_site_occupancy
  Ca  Ca0  1  0.411693  0.717331  0.632482  1
  Ca  Ca1  1  0.911693  0.282669  0.867518  1
  Ca  Ca2  1  0.588307  0.782669  0.132482  1
  Ca  Ca3  1  0.088307  0.217331  0.367518  1
  Ca  Ca4  1  0.588307  0.282669  0.367518  1
  Ca  Ca5  1  0.088307  0.717331  0.132482  1
  Ca  Ca6  1  0.411693  0.217331  0.867518  1
  Ca  Ca7  1  0.911693  0.782669  0.632482  1
  Ca  Ca8  1  0.374394  0.800195  0.994990  1
  Ca  Ca9  1  0.874394  0.199805  0.505010  1
  Ca  Ca10  1  0.625606  0.699805  0.494990  1
  Ca  Ca11  1  0.125606  0.300195  0.005010  1
  Ca  Ca12  1  0.625606  0.199805  0.005010  1
  Ca  Ca13  1  0.125606  0.800195  0.494990  1
  Ca  Ca14  1  0.374394  0.300195  0.505010  1
  Ca  Ca15  1  0.874394  0.699805  0.994990  1
  Ca  Ca16  1  0.140319  0.706507  0.810734  1
  Ca  Ca17  1  0.640319  0.293493  0.689266  1
  Ca  Ca18  1  0.859681  0.793493  0.310734  1
  Ca  Ca19  1  0.359681  0.206507  0.189266  1
  Ca  Ca20  1  0.859681  0.293493  0.189266  1
  Ca  Ca21  1  0.359681  0.706507  0.310734  1
  Ca  Ca22  1  0.140319  0.206507  0.689266  1
  Ca  Ca23  1  0.640319  0.793493  0.810734  1
  Ca  Ca24  1  0.110077  0.877368  0.956177  1
  Ca  Ca25  1  0.610077  0.122632  0.543823  1
  Ca  Ca26  1  0.889923  0.622632  0.456177  1
  Ca  Ca27  1  0.389923  0.377368  0.043823  1
  Ca  Ca28  1  0.889923  0.122632  0.043823  1
  Ca  Ca29  1  0.389923  0.877368  0.456177  1
  Ca  Ca30  1  0.110077  0.377368  0.543823  1
  Ca  Ca31  1  0.610077  0.622632  0.956177  1
  Sn  Sn32  1  0.382102  0.591709  0.796594  1
  Sn  Sn33  1  0.882102  0.408291  0.703406  1
  Sn  Sn34  1  0.617898  0.908291  0.296594  1
  Sn  Sn35  1  0.117898  0.091709  0.203406  1
  Sn  Sn36  1  0.617898  0.408291  0.203406  1
  Sn  Sn37  1  0.117898  0.591709  0.296594  1
  Sn  Sn38  1  0.382102  0.091709  0.703406  1
  Sn  Sn39  1  0.882102  0.908291  0.796594  1
  Sn  Sn40  1  0.324092  0.927690  0.854478  1
  Sn  Sn41  1  0.824092  0.072310  0.645522  1
  Sn  Sn42  1  0.675908  0.572310  0.354478  1
  Sn  Sn43  1  0.175908  0.427690  0.145522  1
  Sn  Sn44  1  0.675908  0.072310  0.145522  1
  Sn  Sn45  1  0.175908  0.927690  0.354478  1
  Sn  Sn46  1  0.324092  0.427690  0.645522  1
  Sn  Sn47  1  0.824092  0.572310  0.854478  1
  Sn  Sn48  1  0.170204  0.929162  0.656139  1
  Sn  Sn49  1  0.670204  0.070838  0.843861  1
  Sn  Sn50  1  0.829796  0.570838  0.156139  1
  Sn  Sn51  1  0.329796  0.429162  0.343861  1
  Sn  Sn52  1  0.829796  0.070838  0.343861  1
  Sn  Sn53  1  0.329796  0.929162  0.156139  1
  Sn  Sn54  1  0.170204  0.429162  0.843861  1
  Sn  Sn55  1  0.670204  0.570838  0.656139  1
  Sn  Sn56  1  0.120852  0.564225  0.980980  1
  Sn  Sn57  1  0.620852  0.435775  0.519020  1
  Sn  Sn58  1  0.879148  0.935775  0.480980  1
  Sn  Sn59  1  0.379148  0.064225  0.019020  1
  Sn  Sn60  1  0.879148  0.435775  0.019020  1
  Sn  Sn61  1  0.379148  0.564225  0.480980  1
  Sn  Sn62  1  0.120852  0.064225  0.519020  1
  Sn  Sn63  1  0.620852  0.935775  0.980980  1
  Sn  Sn64  1  0.106799  0.611277  0.646173  1
  Sn  Sn65  1  0.606799  0.388723  0.853827  1
  Sn  Sn66  1  0.893201  0.888723  0.146173  1
  Sn  Sn67  1  0.393201  0.111277  0.353827  1
  Sn  Sn68  1  0.893201  0.388723  0.353827  1
  Sn  Sn69  1  0.393201  0.611277  0.146173  1
  Sn  Sn70  1  0.106799  0.111277  0.853827  1
  Sn  Sn71  1  0.606799  0.888723  0.646173  1
  S  S72  1  0.531865  0.570267  0.567722  1
  S  S73  1  0.031865  0.429733  0.932278  1
  S  S74  1  0.468135  0.929733  0.067722  1
  S  S75  1  0.968135  0.070267  0.432278  1
  S  S76  1  0.468135  0.429733  0.432278  1
  S  S77  1  0.968135  0.570267  0.067722  1
  S  S78  1  0.531865  0.070267  0.932278  1
  S  S79  1  0.031865  0.929733  0.567722  1
  S  S80  1  0.486241  0.742949  0.889437  1
  S  S81  1  0.986241  0.257051  0.610563  1
  S  S82  1  0.513759  0.757051  0.389437  1
  S  S83  1  0.013759  0.242949  0.110563  1
  S  S84  1  0.513759  0.257051  0.110563  1
  S  S85  1  0.013759  0.742949  0.389437  1
  S  S86  1  0.486241  0.242949  0.610563  1
  S  S87  1  0.986241  0.757051  0.889437  1
  S  S88  1  0.543092  0.532227  0.848909  1
  S  S89  1  0.043092  0.467773  0.651091  1
  S  S90  1  0.456908  0.967773  0.348909  1
  S  S91  1  0.956908  0.032227  0.151091  1
  S  S92  1  0.456908  0.467773  0.151091  1
  S  S93  1  0.956908  0.532227  0.348909  1
  S  S94  1  0.543092  0.032227  0.651091  1
  S  S95  1  0.043092  0.967773  0.848909  1
  S  S96  1  0.490967  0.816722  0.724653  1
  S  S97  1  0.990967  0.183278  0.775347  1
  S  S98  1  0.509033  0.683278  0.224653  1
  S  S99  1  0.009033  0.316722  0.275347  1
  S  S100  1  0.509033  0.183278  0.275347  1
  S  S101  1  0.009033  0.816722  0.224653  1
  S  S102  1  0.490967  0.316722  0.775347  1
  S  S103  1  0.990967  0.683278  0.724653  1
  S  S104  1  0.298887  0.745460  0.534682  1
  S  S105  1  0.798887  0.254540  0.965318  1
  S  S106  1  0.701113  0.754540  0.034682  1
  S  S107  1  0.201113  0.245460  0.465318  1
  S  S108  1  0.701113  0.254540  0.465318  1
  S  S109  1  0.201113  0.745460  0.034682  1
  S  S110  1  0.298887  0.245460  0.965318  1
  S  S111  1  0.798887  0.754540  0.534682  1
  S  S112  1  0.251698  0.800021  0.887626  1
  S  S113  1  0.751698  0.199979  0.612374  1
  S  S114  1  0.748302  0.699979  0.387626  1
  S  S115  1  0.248303  0.300021  0.112374  1
  S  S116  1  0.748302  0.199979  0.112374  1
  S  S117  1  0.248303  0.800021  0.387626  1
  S  S118  1  0.251698  0.300021  0.612374  1
  S  S119  1  0.751698  0.699979  0.887626  1
  S  S120  1  0.329608  0.944777  0.746383  1
  S  S121  1  0.829608  0.055223  0.753617  1
  S  S122  1  0.670392  0.555223  0.246383  1
  S  S123  1  0.170392  0.444777  0.253617  1
  S  S124  1  0.670392  0.055223  0.253617  1
  S  S125  1  0.170392  0.944777  0.246383  1
  S  S126  1  0.329608  0.444777  0.753617  1
  S  S127  1  0.829608  0.555223  0.746383  1
  S  S128  1  0.240869  0.571719  0.880320  1
  S  S129  1  0.740869  0.428281  0.619680  1
  S  S130  1  0.759131  0.928281  0.380320  1
  S  S131  1  0.259131  0.071719  0.119680  1
  S  S132  1  0.759131  0.428281  0.119680  1
  S  S133  1  0.259131  0.571719  0.380320  1
  S  S134  1  0.240869  0.071719  0.619680  1
  S  S135  1  0.740869  0.928281  0.880320  1
  S  S136  1  0.286573  0.871350  0.566140  1
  S  S137  1  0.786573  0.128650  0.933860  1
  S  S138  1  0.713427  0.628650  0.066140  1
  S  S139  1  0.213427  0.371350  0.433860  1
  S  S140  1  0.713427  0.128650  0.433860  1
  S  S141  1  0.213427  0.871350  0.066140  1
  S  S142  1  0.286573  0.371350  0.933860  1
  S  S143  1  0.786573  0.628650  0.566140  1
  S  S144  1  0.246239  0.663865  0.703338  1
  S  S145  1  0.746239  0.336135  0.796662  1
  S  S146  1  0.753761  0.836135  0.203338  1
  S  S147  1  0.253761  0.163865  0.296662  1
  S  S148  1  0.753761  0.336135  0.296662  1
  S  S149  1  0.253761  0.663865  0.203338  1
  S  S150  1  0.246239  0.163865  0.796662  1
  S  S151  1  0.746239  0.836135  0.703338  1
  S  S152  1  0.248540  0.520788  0.572462  1
  S  S153  1  0.748540  0.479212  0.927538  1
  S  S154  1  0.751460  0.979212  0.072462  1
  S  S155  1  0.251460  0.020788  0.427538  1
  S  S156  1  0.751460  0.479212  0.427538  1
  S  S157  1  0.251460  0.520788  0.072462  1
  S  S158  1  0.248540  0.020788  0.927538  1
  S  S159  1  0.748540  0.979212  0.572462  1
  S  S160  1  0.049243  0.806770  0.720780  1
  S  S161  1  0.549243  0.193230  0.779220  1
  S  S162  1  0.950757  0.693230  0.220780  1
  S  S163  1  0.450757  0.306770  0.279220  1
  S  S164  1  0.950757  0.193230  0.279220  1
  S  S165  1  0.450757  0.806770  0.220780  1
  S  S166  1  0.049243  0.306770  0.779220  1
  S  S167  1  0.549243  0.693230  0.720780  1
  S  S168  1  0.033665  0.678183  0.557729  1
  S  S169  1  0.533665  0.321817  0.942271  1
  S  S170  1  0.966335  0.821817  0.057729  1
  S  S171  1  0.466335  0.178183  0.442271  1
  S  S172  1  0.966335  0.321817  0.442271  1
  S  S173  1  0.466335  0.678183  0.057729  1
  S  S174  1  0.033665  0.178183  0.942271  1
  S  S175  1  0.533665  0.821817  0.557729  1
  S  S176  1  0.988346  0.625674  0.894206  1
  S  S177  1  0.488346  0.374326  0.605794  1
  S  S178  1  0.011654  0.874326  0.394206  1
  S  S179  1  0.511654  0.125674  0.105794  1
  S  S180  1  0.011654  0.374326  0.105794  1
  S  S181  1  0.511654  0.625674  0.394206  1
  S  S182  1  0.988346  0.125674  0.605794  1
  S  S183  1  0.488346  0.874326  0.894206  1
