# generated using pymatgen
data_LiMnPO4
_symmetry_space_group_name_H-M   'P 1'
_cell_length_a   9.00693386
_cell_length_b   8.91445255
_cell_length_c   5.36934820
_cell_angle_alpha   90.00000000
_cell_angle_beta   90.00000000
_cell_angle_gamma   90.00000000
_symmetry_Int_Tables_number   1
_chemical_formula_structural   LiMnPO4
_chemical_formula_sum   'Li4 Mn4 P4 O16'
_cell_volume   431.11508560
_cell_formula_units_Z   4
loop_
 _symmetry_equiv_pos_site_id
 _symmetry_equiv_pos_as_xyz
  1  'x, y, z'
loop_
 _atom_site_type_symbol
 _atom_site_label
 _atom_site_symmetry_multiplicity
 _atom_site_fract_x
 _atom_site_fract_y
 _atom_site_fract_z
 _atom_site_occupancy
  Li  Li0  1  0.120991  0.923361  0.750000  1
  Li  Li1  1  0.379009  0.423361  0.250000  1
  Li  Li2  1  0.620991  0.576639  0.750000  1
  Li  Li3  1  0.879009  0.076639  0.250000  1
  Mn  Mn4  1  0.909909  0.665290  0.750000  1
  Mn  Mn5  1  0.590091  0.165290  0.250000  1
  Mn  Mn6  1  0.409909  0.834710  0.750000  1
  Mn  Mn7  1  0.090091  0.334710  0.250000  1
  P  P8  1  0.257805  0.036586  0.250000  1
  P  P9  1  0.242195  0.536586  0.750000  1
  P  P10  1  0.757805  0.463414  0.250000  1
  P  P11  1  0.742195  0.963414  0.750000  1
  O  O12  1  0.094945  0.098406  0.250000  1
  O  O13  1  0.218580  0.441815  0.513129  1
  O  O14  1  0.218580  0.441815  0.986871  1
  O  O15  1  0.136442  0.675677  0.750000  1
  O  O16  1  0.363558  0.175677  0.250000  1
  O  O17  1  0.281420  0.941815  0.013129  1
  O  O18  1  0.281420  0.941815  0.486871  1
  O  O19  1  0.405055  0.598406  0.750000  1
  O  O20  1  0.594945  0.401594  0.250000  1
  O  O21  1  0.718580  0.058185  0.513129  1
  O  O22  1  0.718580  0.058185  0.986871  1
  O  O23  1  0.636442  0.824323  0.750000  1
  O  O24  1  0.863558  0.324323  0.250000  1
  O  O25  1  0.781420  0.558185  0.013129  1
  O  O26  1  0.781420  0.558185  0.486871  1
  O  O27  1  0.905055  0.901594  0.750000  1
