# generated using pymatgen
data_Na3Zn4As3H12O19
_symmetry_space_group_name_H-M   'P 1'
_cell_length_a   10.99717490
_cell_length_b   10.99717490
_cell_length_c   10.99717537
_cell_angle_alpha   60.66908336
_cell_angle_beta   60.66908336
_cell_angle_gamma   60.66908164
_symmetry_Int_Tables_number   1
_chemical_formula_structural   Na3Zn4As3H12O19
_chemical_formula_sum   'Na6 Zn8 As6 H24 O38'
_cell_volume   954.63890579
_cell_formula_units_Z   2
loop_
 _symmetry_equiv_pos_site_id
 _symmetry_equiv_pos_as_xyz
  1  'x, y, z'
loop_
 _atom_site_type_symbol
 _atom_site_label
 _atom_site_symmetry_multiplicity
 _atom_site_fract_x
 _atom_site_fract_y
 _atom_site_fract_z
 _atom_site_occupancy
  Na  Na0  1  0.061158  0.663677  0.947557  1
  Na  Na1  1  0.163677  0.561158  0.447557  1
  Na  Na2  1  0.663677  0.947557  0.061158  1
  Na  Na3  1  0.561158  0.447557  0.163677  1
  Na  Na4  1  0.447557  0.163677  0.561158  1
  Na  Na5  1  0.947557  0.061158  0.663677  1
  Zn  Zn6  1  0.005493  0.989868  0.292457  1
  Zn  Zn7  1  0.505493  0.792457  0.489868  1
  Zn  Zn8  1  0.489868  0.505493  0.792457  1
  Zn  Zn9  1  0.999133  0.999133  0.999133  1
  Zn  Zn10  1  0.499133  0.499133  0.499133  1
  Zn  Zn11  1  0.292457  0.005493  0.989868  1
  Zn  Zn12  1  0.792457  0.489868  0.505493  1
  Zn  Zn13  1  0.989868  0.292457  0.005493  1
  As  As14  1  0.308402  0.837650  0.804262  1
  As  As15  1  0.337650  0.808402  0.304262  1
  As  As16  1  0.304262  0.337650  0.808402  1
  As  As17  1  0.837650  0.804262  0.308402  1
  As  As18  1  0.804262  0.308402  0.837650  1
  As  As19  1  0.808402  0.304262  0.337650  1
  H  H20  1  0.009744  0.749746  0.684606  1
  H  H21  1  0.146160  0.800277  0.618784  1
  H  H22  1  0.031277  0.451992  0.234093  1
  H  H23  1  0.300277  0.646160  0.118784  1
  H  H24  1  0.734093  0.951992  0.531276  1
  H  H25  1  0.249746  0.509744  0.184606  1
  H  H26  1  0.118784  0.300277  0.646160  1
  H  H27  1  0.621311  0.883823  0.675607  1
  H  H28  1  0.175607  0.383823  0.121311  1
  H  H29  1  0.531276  0.734093  0.951992  1
  H  H30  1  0.184606  0.249746  0.509744  1
  H  H31  1  0.121311  0.175607  0.383823  1
  H  H32  1  0.675607  0.621311  0.883823  1
  H  H33  1  0.749746  0.684606  0.009744  1
  H  H34  1  0.234093  0.031277  0.451992  1
  H  H35  1  0.883823  0.675607  0.621311  1
  H  H36  1  0.383823  0.121311  0.175607  1
  H  H37  1  0.800277  0.618784  0.146160  1
  H  H38  1  0.451992  0.234093  0.031277  1
  H  H39  1  0.509744  0.184606  0.249746  1
  H  H40  1  0.951992  0.531276  0.734093  1
  H  H41  1  0.618784  0.146160  0.800277  1
  H  H42  1  0.646160  0.118784  0.300277  1
  H  H43  1  0.684606  0.009744  0.749746  1
  O  O44  1  0.134169  0.962016  0.808913  1
  O  O45  1  0.049287  0.806117  0.696450  1
  O  O46  1  0.165394  0.806959  0.346067  1
  O  O47  1  0.388135  0.939481  0.135318  1
  O  O48  1  0.326871  0.855740  0.439991  1
  O  O49  1  0.355740  0.826871  0.939991  1
  O  O50  1  0.439481  0.888135  0.635318  1
  O  O51  1  0.306959  0.665394  0.846067  1
  O  O52  1  0.131933  0.458090  0.168867  1
  O  O53  1  0.668867  0.958090  0.631933  1
  O  O54  1  0.135318  0.388135  0.939481  1
  O  O55  1  0.306117  0.549287  0.196450  1
  O  O56  1  0.665394  0.846067  0.306959  1
  O  O57  1  0.462016  0.634169  0.308912  1
  O  O58  1  0.308912  0.462016  0.634169  1
  O  O59  1  0.826871  0.939991  0.355740  1
  O  O60  1  0.196450  0.306117  0.549287  1
  O  O61  1  0.631933  0.668867  0.958090  1
  O  O62  1  0.072983  0.072983  0.072983  1
  O  O63  1  0.572983  0.572983  0.572983  1
  O  O64  1  0.168867  0.131933  0.458090  1
  O  O65  1  0.806117  0.696450  0.049287  1
  O  O66  1  0.439991  0.326871  0.855740  1
  O  O67  1  0.962016  0.808913  0.134169  1
  O  O68  1  0.346067  0.165394  0.806959  1
  O  O69  1  0.635318  0.439481  0.888135  1
  O  O70  1  0.888135  0.635318  0.439481  1
  O  O71  1  0.458090  0.168867  0.131933  1
  O  O72  1  0.958090  0.631933  0.668867  1
  O  O73  1  0.634169  0.308912  0.462016  1
  O  O74  1  0.549287  0.196450  0.306117  1
  O  O75  1  0.855740  0.439991  0.326871  1
  O  O76  1  0.806959  0.346067  0.165394  1
  O  O77  1  0.846067  0.306959  0.665394  1
  O  O78  1  0.939991  0.355740  0.826871  1
  O  O79  1  0.696450  0.049287  0.806117  1
  O  O80  1  0.808913  0.134169  0.962016  1
  O  O81  1  0.939481  0.135318  0.388135  1
