# generated using pymatgen
data_Ce3MnAlS7
_symmetry_space_group_name_H-M   'P 1'
_cell_length_a   10.06508752
_cell_length_b   10.05940572
_cell_length_c   5.99889888
_cell_angle_alpha   90.00000000
_cell_angle_beta   90.00000000
_cell_angle_gamma   120.09361432
_symmetry_Int_Tables_number   1
_chemical_formula_structural   Ce3MnAlS7
_chemical_formula_sum   'Ce6 Mn2 Al2 S14'
_cell_volume   525.51074609
_cell_formula_units_Z   2
loop_
 _symmetry_equiv_pos_site_id
 _symmetry_equiv_pos_as_xyz
  1  'x, y, z'
loop_
 _atom_site_type_symbol
 _atom_site_label
 _atom_site_symmetry_multiplicity
 _atom_site_fract_x
 _atom_site_fract_y
 _atom_site_fract_z
 _atom_site_occupancy
  Ce  Ce0  1  0.140898  0.372375  0.243945  1
  Ce  Ce1  1  0.859102  0.627625  0.743946  1
  Ce  Ce2  1  0.627591  0.768052  0.243104  1
  Ce  Ce3  1  0.232391  0.859990  0.243816  1
  Ce  Ce4  1  0.767608  0.140010  0.743815  1
  Ce  Ce5  1  0.372409  0.231948  0.743104  1
  Mn  Mn6  1  0.000080  0.000099  0.021572  1
  Mn  Mn7  1  -0.000081  0.999901  0.521573  1
  Al  Al8  1  0.333652  0.666844  0.662645  1
  Al  Al9  1  0.666348  0.333156  0.162646  1
  S  S10  1  0.333552  0.666711  0.034914  1
  S  S11  1  0.666449  0.333289  0.534915  1
  S  S12  1  0.092412  0.238440  0.788756  1
  S  S13  1  0.907587  0.761561  0.288757  1
  S  S14  1  0.761486  0.853662  0.788447  1
  S  S15  1  0.146136  0.908119  0.787949  1
  S  S16  1  0.853864  0.091880  0.287948  1
  S  S17  1  0.238514  0.146337  0.288446  1
  S  S18  1  0.420953  0.519701  0.516498  1
  S  S19  1  0.579047  0.480299  0.016498  1
  S  S20  1  0.481104  0.901699  0.516471  1
  S  S21  1  0.098404  0.579287  0.515878  1
  S  S22  1  0.901596  0.420713  0.015877  1
  S  S23  1  0.518896  0.098301  0.016470  1
