# generated using pymatgen
data_YbMoClO4
_symmetry_space_group_name_H-M   'P 1'
_cell_length_a   6.75041405
_cell_length_b   6.75041405
_cell_length_c   6.87106913
_cell_angle_alpha   102.10420651
_cell_angle_beta   102.10420651
_cell_angle_gamma   59.20123771
_symmetry_Int_Tables_number   1
_chemical_formula_structural   YbMoClO4
_chemical_formula_sum   'Yb2 Mo2 Cl2 O8'
_cell_volume   261.00695079
_cell_formula_units_Z   2
loop_
 _symmetry_equiv_pos_site_id
 _symmetry_equiv_pos_as_xyz
  1  'x, y, z'
loop_
 _atom_site_type_symbol
 _atom_site_label
 _atom_site_symmetry_multiplicity
 _atom_site_fract_x
 _atom_site_fract_y
 _atom_site_fract_z
 _atom_site_occupancy
  Yb  Yb0  1  0.283360  0.283360  0.151480  1
  Yb  Yb1  1  0.716640  0.716640  0.848521  1
  Mo  Mo2  1  0.634926  0.634926  0.265035  1
  Mo  Mo3  1  0.365074  0.365074  0.734966  1
  Cl  Cl4  1  0.983851  0.983851  0.351359  1
  Cl  Cl5  1  0.016149  0.016149  0.648642  1
  O  O6  1  0.883685  0.466087  0.124947  1
  O  O7  1  0.466087  0.883685  0.124947  1
  O  O8  1  0.481750  0.481750  0.253739  1
  O  O9  1  0.282396  0.282396  0.482547  1
  O  O10  1  0.717603  0.717603  0.517454  1
  O  O11  1  0.518249  0.518249  0.746260  1
  O  O12  1  0.533913  0.116315  0.875052  1
  O  O13  1  0.116315  0.533913  0.875052  1
