# generated using pymatgen
data_Li4MnF6
_symmetry_space_group_name_H-M   'P 1'
_cell_length_a   4.94861947
_cell_length_b   8.83609048
_cell_length_c   8.83612619
_cell_angle_alpha   59.99933905
_cell_angle_beta   89.99974301
_cell_angle_gamma   90.00038429
_symmetry_Int_Tables_number   1
_chemical_formula_structural   Li4MnF6
_chemical_formula_sum   'Li12 Mn3 F18'
_cell_volume   334.60610647
_cell_formula_units_Z   3
loop_
 _symmetry_equiv_pos_site_id
 _symmetry_equiv_pos_as_xyz
  1  'x, y, z'
loop_
 _atom_site_type_symbol
 _atom_site_label
 _atom_site_symmetry_multiplicity
 _atom_site_fract_x
 _atom_site_fract_y
 _atom_site_fract_z
 _atom_site_occupancy
  Li  Li0  1  0.499981  0.685708  0.314303  1
  Li  Li1  1  0.999999  0.649369  0.350625  1
  Li  Li2  1  0.499999  0.685744  0.000001  1
  Li  Li3  1  0.000015  0.346214  0.653792  1
  Li  Li4  1  0.500013  0.314294  0.685715  1
  Li  Li5  1  0.000005  0.653786  0.000010  1
  Li  Li6  1  0.000001  0.350631  0.999999  1
  Li  Li7  1  0.500038  0.000020  0.685719  1
  Li  Li8  1  0.000023  0.999985  0.649378  1
  Li  Li9  1  0.499998  0.314283  1.000000  1
  Li  Li10  1  0.999985  0.000002  0.346210  1
  Li  Li11  1  0.499982  -0.000001  0.314280  1
  Mn  Mn12  1  0.491912  0.666691  0.666675  1
  Mn  Mn13  1  0.508116  0.333335  0.333329  1
  Mn  Mn14  1  0.999987  0.000003  -0.000002  1
  F  F15  1  0.228929  0.880838  0.880195  1
  F  F16  1  0.724826  0.787631  0.785758  1
  F  F17  1  0.259286  0.905404  0.545578  1
  F  F18  1  0.259304  0.549016  0.905415  1
  F  F19  1  0.724786  0.785757  0.426634  1
  F  F20  1  0.228889  0.880192  0.238976  1
  F  F21  1  0.771070  0.761018  0.119812  1
  F  F22  1  0.724802  0.426640  0.787613  1
  F  F23  1  0.259302  0.545584  0.549010  1
  F  F24  1  0.228906  0.238984  0.880825  1
  F  F25  1  0.275177  0.573374  0.214247  1
  F  F26  1  0.740712  0.450992  0.454422  1
  F  F27  1  0.740702  0.454423  0.094587  1
  F  F28  1  0.275232  0.212383  0.573366  1
  F  F29  1  0.771117  0.119180  0.761021  1
  F  F30  1  0.275203  0.214239  0.212385  1
  F  F31  1  0.740709  0.094586  0.450997  1
  F  F32  1  0.771092  0.119804  0.119179  1
