# generated using pymatgen
data_Li2Mn3(BO3)3
_symmetry_space_group_name_H-M   'P 1'
_cell_length_a   8.24319611
_cell_length_b   8.28371989
_cell_length_c   15.85011797
_cell_angle_alpha   88.93601607
_cell_angle_beta   89.32010691
_cell_angle_gamma   60.08480274
_symmetry_Int_Tables_number   1
_chemical_formula_structural   Li2Mn3(BO3)3
_chemical_formula_sum   'Li10 Mn15 B15 O45'
_cell_volume   937.94592689
_cell_formula_units_Z   5
loop_
 _symmetry_equiv_pos_site_id
 _symmetry_equiv_pos_as_xyz
  1  'x, y, z'
loop_
 _atom_site_type_symbol
 _atom_site_label
 _atom_site_symmetry_multiplicity
 _atom_site_fract_x
 _atom_site_fract_y
 _atom_site_fract_z
 _atom_site_occupancy
  Li  Li0  1  0.016489  0.279549  0.503344  1
  Li  Li1  1  0.015589  0.286447  0.902275  1
  Li  Li2  1  0.026894  0.270752  0.098577  1
  Li  Li3  1  0.287067  0.693352  0.297825  1
  Li  Li4  1  0.266148  0.703360  0.700298  1
  Li  Li5  1  0.285264  0.706229  0.101430  1
  Li  Li6  1  0.694622  0.018341  0.501765  1
  Li  Li7  1  0.693301  0.017273  0.697282  1
  Li  Li8  1  0.702248  0.030763  0.899767  1
  Li  Li9  1  0.701955  0.012473  0.300340  1
  Mn  Mn10  1  0.630274  0.381578  0.993346  1
  Mn  Mn11  1  0.657172  0.362779  0.395157  1
  Mn  Mn12  1  0.616479  0.399333  0.593543  1
  Mn  Mn13  1  0.653838  0.369665  0.793180  1
  Mn  Mn14  1  0.656829  0.351967  0.196838  1
  Mn  Mn15  1  0.354755  0.985148  0.402460  1
  Mn  Mn16  1  0.349857  0.993260  0.802501  1
  Mn  Mn17  1  0.355722  0.989370  0.602047  1
  Mn  Mn18  1  0.373661  0.996998  0.200521  1
  Mn  Mn19  1  0.399561  0.983644  0.000881  1
  Mn  Mn20  1  0.985139  0.617573  0.204976  1
  Mn  Mn21  1  0.992532  0.636360  0.805338  1
  Mn  Mn22  1  0.997055  0.657106  0.005130  1
  Mn  Mn23  1  0.003574  0.635591  0.403198  1
  Mn  Mn24  1  0.989752  0.629200  0.604398  1
  B  B25  1  0.013598  0.011766  0.997777  1
  B  B26  1  0.329710  0.335966  0.100138  1
  B  B27  1  0.337580  0.330467  0.902447  1
  B  B28  1  0.009159  0.977506  0.198095  1
  B  B29  1  0.337547  0.335832  0.297993  1
  B  B30  1  0.332798  0.335319  0.698534  1
  B  B31  1  0.341362  0.321948  0.502640  1
  B  B32  1  0.988166  0.000483  0.800812  1
  B  B33  1  0.994600  0.998681  0.399568  1
  B  B34  1  0.979671  0.008689  0.601612  1
  B  B35  1  0.666313  0.666184  0.295948  1
  B  B36  1  0.650211  0.673938  0.697143  1
  B  B37  1  0.677561  0.658373  0.100389  1
  B  B38  1  0.673027  0.679131  0.902450  1
  B  B39  1  0.667489  0.667752  0.502761  1
  O  O40  1  0.068223  0.109932  0.811479  1
  O  O41  1  0.071125  0.112087  0.408406  1
  O  O42  1  0.076223  0.103995  0.596499  1
  O  O43  1  0.101546  0.077119  0.184990  1
  O  O44  1  0.109111  0.112162  0.998994  1
  O  O45  1  0.135547  0.445687  0.112002  1
  O  O46  1  0.146057  0.442342  0.909034  1
  O  O47  1  0.149048  0.438372  0.504114  1
  O  O48  1  0.143701  0.458650  0.297617  1
  O  O49  1  0.144828  0.458478  0.708462  1
  O  O50  1  0.399585  0.145436  0.091657  1
  O  O51  1  0.416549  0.133921  0.905375  1
  O  O52  1  0.414264  0.131460  0.500521  1
  O  O53  1  0.408614  0.144994  0.700882  1
  O  O54  1  0.411059  0.145254  0.299677  1
  O  O55  1  0.107843  0.809677  0.388687  1
  O  O56  1  0.097583  0.809331  0.797594  1
  O  O57  1  0.076756  0.817145  0.610818  1
  O  O58  1  0.108331  0.822858  0.012616  1
  O  O59  1  0.111875  0.782947  0.200348  1
  O  O60  1  0.440678  0.415868  0.097436  1
  O  O61  1  0.453471  0.411611  0.298237  1
  O  O62  1  0.460395  0.395029  0.891512  1
  O  O63  1  0.448336  0.415353  0.687501  1
  O  O64  1  0.464349  0.391762  0.501212  1
  O  O65  1  0.794072  0.082909  0.793167  1
  O  O66  1  0.799985  0.075394  0.401619  1
  O  O67  1  0.784092  0.104153  0.597934  1
  O  O68  1  0.817804  0.073284  0.209060  1
  O  O69  1  0.823113  0.106526  0.981661  1
  O  O70  1  0.457008  0.785441  0.706036  1
  O  O71  1  0.473427  0.786703  0.299553  1
  O  O72  1  0.484376  0.783777  0.092949  1
  O  O73  1  0.480319  0.792804  0.914141  1
  O  O74  1  0.478503  0.779806  0.506560  1
  O  O75  1  0.726098  0.483744  0.680589  1
  O  O76  1  0.742240  0.477703  0.292514  1
  O  O77  1  0.748194  0.468676  0.092985  1
  O  O78  1  0.746477  0.491272  0.888120  1
  O  O79  1  0.744238  0.470671  0.502770  1
  O  O80  1  0.769225  0.745102  0.704367  1
  O  O81  1  0.787622  0.741702  0.294540  1
  O  O82  1  0.794816  0.730463  0.114899  1
  O  O83  1  0.788733  0.756837  0.906092  1
  O  O84  1  0.790128  0.737664  0.500048  1
