# generated using pymatgen
data_Li5Mn6(BO3)6
_symmetry_space_group_name_H-M   'P 1'
_cell_length_a   8.28421483
_cell_length_b   12.64850341
_cell_length_c   8.80218504
_cell_angle_alpha   109.82630277
_cell_angle_beta   117.79497512
_cell_angle_gamma   71.24275151
_symmetry_Int_Tables_number   1
_chemical_formula_structural   Li5Mn6(BO3)6
_chemical_formula_sum   'Li10 Mn12 B12 O36'
_cell_volume   752.59938487
_cell_formula_units_Z   2
loop_
 _symmetry_equiv_pos_site_id
 _symmetry_equiv_pos_as_xyz
  1  'x, y, z'
loop_
 _atom_site_type_symbol
 _atom_site_label
 _atom_site_symmetry_multiplicity
 _atom_site_fract_x
 _atom_site_fract_y
 _atom_site_fract_z
 _atom_site_occupancy
  Li  Li0  1  0.293522  0.307153  0.590392  1
  Li  Li1  1  0.301495  0.559238  0.839968  1
  Li  Li2  1  0.977260  0.200411  0.897225  1
  Li  Li3  1  0.292492  0.799521  0.074840  1
  Li  Li4  1  0.713824  0.367826  0.383413  1
  Li  Li5  1  0.726257  0.866144  0.885371  1
  Li  Li6  1  0.709633  0.120030  0.136179  1
  Li  Li7  1  0.980270  0.948116  0.646727  1
  Li  Li8  1  0.992784  0.703189  0.408249  1
  Li  Li9  1  0.980128  0.448222  0.145451  1
  Mn  Mn10  1  0.998481  0.412081  0.769563  1
  Mn  Mn11  1  0.015487  0.160188  0.524216  1
  Mn  Mn12  1  0.353957  0.001442  0.005647  1
  Mn  Mn13  1  0.620664  0.091327  0.725108  1
  Mn  Mn14  1  0.618101  0.340281  0.976820  1
  Mn  Mn15  1  0.005566  0.656258  0.024685  1
  Mn  Mn16  1  0.021742  0.913501  0.273034  1
  Mn  Mn17  1  0.354536  0.249792  0.247003  1
  Mn  Mn18  1  0.364184  0.501510  0.490686  1
  Mn  Mn19  1  0.387586  0.750851  0.741280  1
  Mn  Mn20  1  0.615388  0.842480  0.469865  1
  Mn  Mn21  1  0.647651  0.583551  0.254434  1
  B  B22  1  0.327639  0.206163  0.875777  1
  B  B23  1  0.008538  0.754670  0.749205  1
  B  B24  1  0.011531  0.496739  0.498045  1
  B  B25  1  0.338929  0.949225  0.624794  1
  B  B26  1  0.660426  0.547455  0.885949  1
  B  B27  1  0.326638  0.459998  0.123606  1
  B  B28  1  0.339815  0.716481  0.379329  1
  B  B29  1  0.664246  0.291355  0.622988  1
  B  B30  1  0.678645  0.033472  0.376651  1
  B  B31  1  0.987698  0.997977  0.988852  1
  B  B32  1  0.673344  0.791505  0.131001  1
  B  B33  1  0.987836  0.255604  0.246688  1
  O  O34  1  0.249909  0.173700  0.959779  1
  O  O35  1  0.223473  0.008057  0.497569  1
  O  O36  1  0.215340  0.509623  0.979019  1
  O  O37  1  0.215959  0.261127  0.737687  1
  O  O38  1  0.177110  0.240551  0.341883  1
  O  O39  1  0.204415  0.722382  0.816339  1
  O  O40  1  0.203927  0.474722  0.593542  1
  O  O41  1  0.520397  0.183159  0.931067  1
  O  O42  1  0.268310  0.911599  0.712074  1
  O  O43  1  0.582126  0.520238  0.972546  1
  O  O44  1  0.246489  0.430619  0.207722  1
  O  O45  1  0.574550  0.264409  0.701223  1
  O  O46  1  0.269344  0.688014  0.474370  1
  O  O47  1  0.610199  0.996461  0.464946  1
  O  O48  1  0.541160  0.598602  0.742359  1
  O  O49  1  0.221563  0.756961  0.229832  1
  O  O50  1  0.558121  0.084735  0.236872  1
  O  O51  1  0.561483  0.831201  0.975263  1
  O  O52  1  0.557946  0.341150  0.478446  1
  O  O53  1  0.911330  0.050850  0.847500  1
  O  O54  1  0.176422  0.956471  0.062294  1
  O  O55  1  0.850379  0.522919  0.935471  1
  O  O56  1  0.532869  0.922371  0.672645  1
  O  O57  1  0.520378  0.439748  0.187079  1
  O  O58  1  0.532617  0.703930  0.441687  1
  O  O59  1  0.856372  0.269372  0.687127  1
  O  O60  1  0.868679  0.019111  0.435725  1
  O  O61  1  0.873919  0.228303  0.299890  1
  O  O62  1  0.915431  0.744202  0.835835  1
  O  O63  1  0.894399  0.465354  0.538399  1
  O  O64  1  0.584028  0.772614  0.217842  1
  O  O65  1  0.906493  0.300670  0.095965  1
  O  O66  1  0.911085  0.799640  0.597812  1
  O  O67  1  0.936611  0.550722  0.356787  1
  O  O68  1  0.863406  0.772736  0.193949  1
  O  O69  1  0.871089  0.984903  0.053444  1
