# generated using pymatgen
data_LiMnF3
_symmetry_space_group_name_H-M   'P 1'
_cell_length_a   5.90715865
_cell_length_b   5.90724674
_cell_length_c   5.89796425
_cell_angle_alpha   90.00000000
_cell_angle_beta   90.00000000
_cell_angle_gamma   120.00077529
_symmetry_Int_Tables_number   1
_chemical_formula_structural   LiMnF3
_chemical_formula_sum   'Li2 Mn2 F6'
_cell_volume   178.23505361
_cell_formula_units_Z   2
loop_
 _symmetry_equiv_pos_site_id
 _symmetry_equiv_pos_as_xyz
  1  'x, y, z'
loop_
 _atom_site_type_symbol
 _atom_site_label
 _atom_site_symmetry_multiplicity
 _atom_site_fract_x
 _atom_site_fract_y
 _atom_site_fract_z
 _atom_site_occupancy
  Li  Li0  1  0.333309  0.666675  0.750000  1
  Li  Li1  1  0.666670  0.333349  0.250000  1
  Mn  Mn2  1  0.999994  0.000019  0.999996  1
  Mn  Mn3  1  0.999994  0.000019  0.500004  1
  F  F4  1  0.154360  0.845594  0.750000  1
  F  F5  1  0.154405  0.308798  0.750000  1
  F  F6  1  0.308791  0.154396  0.250000  1
  F  F7  1  0.691192  0.845613  0.750000  1
  F  F8  1  0.845621  0.691224  0.250000  1
  F  F9  1  0.845607  0.154412  0.250000  1
