# generated using pymatgen
data_Ca2SiB5O14
_symmetry_space_group_name_H-M   'P 1'
_cell_length_a   13.20904427
_cell_length_b   9.44477520
_cell_length_c   8.66451241
_cell_angle_alpha   90.00000000
_cell_angle_beta   105.18165214
_cell_angle_gamma   90.00000000
_symmetry_Int_Tables_number   1
_chemical_formula_structural   Ca2SiB5O14
_chemical_formula_sum   'Ca8 Si4 B20 O56'
_cell_volume   1043.22899165
_cell_formula_units_Z   4
loop_
 _symmetry_equiv_pos_site_id
 _symmetry_equiv_pos_as_xyz
  1  'x, y, z'
loop_
 _atom_site_type_symbol
 _atom_site_label
 _atom_site_symmetry_multiplicity
 _atom_site_fract_x
 _atom_site_fract_y
 _atom_site_fract_z
 _atom_site_occupancy
  Ca  Ca0  1  0.114911  0.318368  0.645991  1
  Ca  Ca1  1  0.885089  0.818368  0.854009  1
  Ca  Ca2  1  0.885089  0.681632  0.354009  1
  Ca  Ca3  1  0.114911  0.181632  0.145991  1
  Ca  Ca4  1  0.401047  0.692238  0.002772  1
  Ca  Ca5  1  0.598953  0.192238  0.497228  1
  Ca  Ca6  1  0.598953  0.307762  0.997228  1
  Ca  Ca7  1  0.401047  0.807762  0.502772  1
  Si  Si8  1  0.140986  0.942609  0.507763  1
  Si  Si9  1  0.859014  0.442609  0.992237  1
  Si  Si10  1  0.859014  0.057391  0.492237  1
  Si  Si11  1  0.140986  0.557391  0.007763  1
  B  B12  1  0.039207  0.031799  0.752037  1
  B  B13  1  0.960793  0.531799  0.747963  1
  B  B14  1  0.960793  0.968201  0.247963  1
  B  B15  1  0.039207  0.468201  0.252037  1
  B  B16  1  0.316175  0.113375  0.523832  1
  B  B17  1  0.683825  0.613375  0.976168  1
  B  B18  1  0.683825  0.886625  0.476168  1
  B  B19  1  0.316175  0.386625  0.023832  1
  B  B20  1  0.490011  0.098096  0.749450  1
  B  B21  1  0.509989  0.598096  0.750550  1
  B  B22  1  0.509989  0.901904  0.250550  1
  B  B23  1  0.490011  0.401904  0.249450  1
  B  B24  1  0.338986  0.239550  0.784339  1
  B  B25  1  0.661014  0.739550  0.715661  1
  B  B26  1  0.661014  0.760450  0.215661  1
  B  B27  1  0.338986  0.260450  0.284339  1
  B  B28  1  0.157972  0.845913  0.966649  1
  B  B29  1  0.842028  0.345913  0.533351  1
  B  B30  1  0.842028  0.154087  0.033351  1
  B  B31  1  0.157972  0.654087  0.466649  1
  O  O32  1  0.074549  0.986334  0.323774  1
  O  O33  1  0.925451  0.486334  0.176226  1
  O  O34  1  0.925451  0.013666  0.676226  1
  O  O35  1  0.074549  0.513666  0.823774  1
  O  O36  1  0.125727  0.776768  0.541750  1
  O  O37  1  0.874273  0.276768  0.958250  1
  O  O38  1  0.874273  0.223232  0.458250  1
  O  O39  1  0.125727  0.723232  0.041750  1
  O  O40  1  0.100187  0.044193  0.632489  1
  O  O41  1  0.899813  0.544193  0.867511  1
  O  O42  1  0.899813  0.955807  0.367511  1
  O  O43  1  0.100187  0.455807  0.132489  1
  O  O44  1  0.265336  0.973668  0.521467  1
  O  O45  1  0.734664  0.473668  0.978533  1
  O  O46  1  0.734664  0.026332  0.478533  1
  O  O47  1  0.265336  0.526332  0.021467  1
  O  O48  1  0.062735  0.907230  0.857918  1
  O  O49  1  0.937265  0.407230  0.642082  1
  O  O50  1  0.937265  0.092770  0.142082  1
  O  O51  1  0.062735  0.592770  0.357918  1
  O  O52  1  0.431503  0.088392  0.577518  1
  O  O53  1  0.568497  0.588392  0.922482  1
  O  O54  1  0.568497  0.911608  0.422482  1
  O  O55  1  0.431503  0.411608  0.077518  1
  O  O56  1  0.287900  0.328854  0.861500  1
  O  O57  1  0.712100  0.828854  0.638500  1
  O  O58  1  0.712100  0.671146  0.138500  1
  O  O59  1  0.287900  0.171146  0.361500  1
  O  O60  1  0.282209  0.211740  0.630167  1
  O  O61  1  0.717791  0.711740  0.869833  1
  O  O62  1  0.717791  0.788260  0.369833  1
  O  O63  1  0.282209  0.288260  0.130167  1
  O  O64  1  0.436420  0.179914  0.849659  1
  O  O65  1  0.563580  0.679914  0.650341  1
  O  O66  1  0.563580  0.820086  0.150341  1
  O  O67  1  0.436420  0.320086  0.349659  1
  O  O68  1  0.503086  0.947599  0.782315  1
  O  O69  1  0.496914  0.447599  0.717685  1
  O  O70  1  0.496914  0.052401  0.217685  1
  O  O71  1  0.503086  0.552401  0.282315  1
  O  O72  1  0.594076  0.150703  0.767600  1
  O  O73  1  0.405924  0.650703  0.732400  1
  O  O74  1  0.405924  0.849297  0.232400  1
  O  O75  1  0.594076  0.349297  0.267600  1
  O  O76  1  0.248036  0.829058  0.905245  1
  O  O77  1  0.751964  0.329058  0.594755  1
  O  O78  1  0.751964  0.170942  0.094755  1
  O  O79  1  0.248036  0.670942  0.405245  1
  O  O80  1  0.190722  0.968717  0.069152  1
  O  O81  1  0.809278  0.468717  0.430848  1
  O  O82  1  0.809278  0.031283  0.930848  1
  O  O83  1  0.190722  0.531283  0.569152  1
  O  O84  1  0.060892  0.161507  0.848569  1
  O  O85  1  0.939108  0.661507  0.651431  1
  O  O86  1  0.939108  0.838493  0.151431  1
  O  O87  1  0.060892  0.338493  0.348569  1
