# generated using pymatgen
data_Li3V3P8O29
_symmetry_space_group_name_H-M   'P 1'
_cell_length_a   9.78830823
_cell_length_b   9.75202428
_cell_length_c   14.15339098
_cell_angle_alpha   90.05553824
_cell_angle_beta   90.24446808
_cell_angle_gamma   59.94367005
_symmetry_Int_Tables_number   1
_chemical_formula_structural   Li3V3P8O29
_chemical_formula_sum   'Li6 V6 P16 O58'
_cell_volume   1169.34430428
_cell_formula_units_Z   2
loop_
 _symmetry_equiv_pos_site_id
 _symmetry_equiv_pos_as_xyz
  1  'x, y, z'
loop_
 _atom_site_type_symbol
 _atom_site_label
 _atom_site_symmetry_multiplicity
 _atom_site_fract_x
 _atom_site_fract_y
 _atom_site_fract_z
 _atom_site_occupancy
  Li  Li0  1  0.673180  0.664379  0.389585  1
  Li  Li1  1  0.313701  0.770581  0.554013  1
  Li  Li2  1  0.231412  0.675554  0.947527  1
  Li  Li3  1  0.092811  0.233629  0.944709  1
  Li  Li4  1  0.953730  0.015581  0.009716  1
  Li  Li5  1  0.953290  0.034928  0.486439  1
  V  V6  1  0.571289  0.427173  0.247642  1
  V  V7  1  0.441549  0.557437  0.751094  1
  V  V8  1  0.564704  0.000719  0.751844  1
  V  V9  1  0.433915  0.001893  0.247176  1
  V  V10  1  0.001271  0.568400  0.251109  1
  V  V11  1  0.999292  0.437988  0.742049  1
  P  P12  1  0.917480  0.774680  0.839506  1
  P  P13  1  0.779059  0.913342  0.343995  1
  P  P14  1  0.912384  0.306618  0.342973  1
  P  P15  1  0.667492  0.665144  0.131244  1
  P  P16  1  0.661839  0.670605  0.630638  1
  P  P17  1  0.783143  0.305215  0.842475  1
  P  P18  1  0.694635  0.219484  0.657730  1
  P  P19  1  0.309204  0.915482  0.843038  1
  P  P20  1  0.696941  0.079012  0.157616  1
  P  P21  1  0.318156  0.776322  0.341113  1
  P  P22  1  0.225743  0.689033  0.160156  1
  P  P23  1  0.335397  0.333833  0.368905  1
  P  P24  1  0.329570  0.333836  0.867508  1
  P  P25  1  0.086510  0.693853  0.654673  1
  P  P26  1  0.227163  0.081405  0.657476  1
  P  P27  1  0.083444  0.226947  0.158917  1
  O  O28  1  0.011163  0.780391  0.567290  1
  O  O29  1  0.916197  0.736417  0.334321  1
  O  O30  1  0.791271  0.003777  0.072453  1
  O  O31  1  0.742996  0.909671  0.832808  1
  O  O32  1  0.920903  0.614711  0.824472  1
  O  O33  1  0.815597  0.659891  0.179262  1
  O  O34  1  0.903754  0.470146  0.334670  1
  O  O35  1  0.014910  0.214644  0.067480  1
  O  O36  1  0.917553  0.345970  0.834030  1
  O  O37  1  0.662738  0.815038  0.676266  1
  O  O38  1  0.625223  0.904886  0.333552  1
  O  O39  1  0.812025  0.520860  0.672956  1
  O  O40  1  0.666302  0.664442  0.026993  1
  O  O41  1  0.655775  0.672314  0.525444  1
  O  O42  1  0.662574  0.520074  0.176969  1
  O  O43  1  0.465546  0.917988  0.828938  1
  O  O44  1  0.523729  0.814383  0.178153  1
  O  O45  1  0.736903  0.344443  0.333426  1
  O  O46  1  0.800845  0.202698  0.749240  1
  O  O47  1  0.777648  0.213614  0.570318  1
  O  O48  1  0.794242  0.216994  0.929222  1
  O  O49  1  0.620601  0.463652  0.826394  1
  O  O50  1  0.512562  0.669324  0.672163  1
  O  O51  1  0.655798  0.255870  0.167566  1
  O  O52  1  0.481274  0.624276  0.329494  1
  O  O53  1  0.348551  0.918328  0.331867  1
  O  O54  1  0.799163  0.995487  0.250495  1
  O  O55  1  0.798171  0.991759  0.427975  1
  O  O56  1  0.219279  0.996417  0.572847  1
  O  O57  1  0.653025  0.086698  0.670465  1
  O  O58  1  0.535517  0.381017  0.675313  1
  O  O59  1  0.345950  0.740022  0.839222  1
  O  O60  1  0.474686  0.346047  0.322637  1
  O  O61  1  0.383242  0.533422  0.174016  1
  O  O62  1  0.212478  0.773005  0.069953  1
  O  O63  1  0.232785  0.784951  0.429296  1
  O  O64  1  0.208473  0.796524  0.250513  1
  O  O65  1  0.262243  0.654341  0.664667  1
  O  O66  1  0.477514  0.188062  0.822951  1
  O  O67  1  0.542237  0.074313  0.169528  1
  O  O68  1  0.328453  0.486611  0.825476  1
  O  O69  1  0.324816  0.340353  0.972304  1
  O  O70  1  0.334585  0.335037  0.472985  1
  O  O71  1  0.181751  0.474599  0.323452  1
  O  O72  1  0.384598  0.081142  0.672510  1
  O  O73  1  0.348446  0.182338  0.320687  1
  O  O74  1  0.086450  0.655322  0.170246  1
  O  O75  1  0.000823  0.797366  0.747120  1
  O  O76  1  0.004039  0.782249  0.924055  1
  O  O77  1  0.084639  0.534446  0.670816  1
  O  O78  1  0.182777  0.330719  0.824760  1
  O  O79  1  0.081840  0.384133  0.174800  1
  O  O80  1  0.257785  0.088544  0.169614  1
  O  O81  1  0.213778  0.003718  0.926334  1
  O  O82  1  0.205658  0.995777  0.749137  1
  O  O83  1  0.090361  0.256872  0.665987  1
  O  O84  1  0.992825  0.204896  0.425264  1
  O  O85  1  0.990641  0.208829  0.245901  1
