# generated using pymatgen
data_Cu6OF11
_symmetry_space_group_name_H-M   'P 1'
_cell_length_a   3.27692351
_cell_length_b   13.80577804
_cell_length_c   4.67280840
_cell_angle_alpha   91.61658294
_cell_angle_beta   83.22993595
_cell_angle_gamma   90.78906437
_symmetry_Int_Tables_number   1
_chemical_formula_structural   Cu6OF11
_chemical_formula_sum   'Cu6 O1 F11'
_cell_volume   209.83087420
_cell_formula_units_Z   1
loop_
 _symmetry_equiv_pos_site_id
 _symmetry_equiv_pos_as_xyz
  1  'x, y, z'
loop_
 _atom_site_type_symbol
 _atom_site_label
 _atom_site_symmetry_multiplicity
 _atom_site_fract_x
 _atom_site_fract_y
 _atom_site_fract_z
 _atom_site_occupancy
  Cu  Cu0  1  0.999412  0.001714  0.008018  1
  Cu  Cu1  1  0.000452  0.666260  0.997711  1
  Cu  Cu2  1  0.001984  0.327916  0.983317  1
  Cu  Cu3  1  0.504122  0.498122  0.491919  1
  Cu  Cu4  1  0.500191  0.834116  0.501918  1
  Cu  Cu5  1  0.518201  0.177158  0.534151  1
  O  O6  1  0.022074  0.233088  0.697280  1
  F  F7  1  0.028485  0.565166  0.696722  1
  F  F8  1  0.023929  0.901489  0.706573  1
  F  F9  1  0.547672  0.264984  0.203023  1
  F  F10  1  0.530338  0.598028  0.202929  1
  F  F11  1  0.529234  0.932551  0.205462  1
  F  F12  1  0.460076  0.068732  0.802352  1
  F  F13  1  0.452573  0.399697  0.787019  1
  F  F14  1  0.471741  0.734231  0.795370  1
  F  F15  1  0.976214  0.766687  0.298732  1
  F  F16  1  0.964010  0.101666  0.307520  1
  F  F17  1  0.969292  0.428397  0.279984  1
