# generated using pymatgen
data_LuCuPbSe3
_symmetry_space_group_name_H-M   'P 1'
_cell_length_a   10.44859870
_cell_length_b   7.09375415
_cell_length_c   13.59646472
_cell_angle_alpha   16.53233034
_cell_angle_beta   89.71114559
_cell_angle_gamma   89.75161783
_symmetry_Int_Tables_number   1
_chemical_formula_structural   LuCuPbSe3
_chemical_formula_sum   'Lu2 Cu2 Pb2 Se6'
_cell_volume   286.76243220
_cell_formula_units_Z   2
loop_
 _symmetry_equiv_pos_site_id
 _symmetry_equiv_pos_as_xyz
  1  'x, y, z'
loop_
 _atom_site_type_symbol
 _atom_site_label
 _atom_site_symmetry_multiplicity
 _atom_site_fract_x
 _atom_site_fract_y
 _atom_site_fract_z
 _atom_site_occupancy
  Lu  Lu0  1  0.494462  0.500565  0.498756  1
  Lu  Lu1  1  0.995349  0.499404  0.501496  1
  Cu  Cu2  1  0.244962  0.499758  0.966921  1
  Cu  Cu3  1  0.745194  0.500217  0.033056  1
  Pb  Pb4  1  0.236358  0.500348  0.254625  1
  Pb  Pb5  1  0.735919  0.500592  0.744719  1
  Se  Se6  1  0.554020  0.498875  0.139723  1
  Se  Se7  1  0.934703  0.498249  0.140669  1
  Se  Se8  1  0.746852  0.500277  0.423066  1
  Se  Se9  1  0.244573  0.500314  0.577448  1
  Se  Se10  1  0.435676  0.500108  0.860758  1
  Se  Se11  1  0.055239  0.501282  0.860333  1
