# generated using pymatgen
data_Fe2C4Cl2O9
_symmetry_space_group_name_H-M   'P 1'
_cell_length_a   14.93131672
_cell_length_b   11.97366107
_cell_length_c   9.00896276
_cell_angle_alpha   89.57885692
_cell_angle_beta   53.31137638
_cell_angle_gamma   37.10976669
_symmetry_Int_Tables_number   1
_chemical_formula_structural   Fe2C4Cl2O9
_chemical_formula_sum   'Fe4 C8 Cl4 O18'
_cell_volume   190.63304732
_cell_formula_units_Z   2
loop_
 _symmetry_equiv_pos_site_id
 _symmetry_equiv_pos_as_xyz
  1  'x, y, z'
loop_
 _atom_site_type_symbol
 _atom_site_label
 _atom_site_symmetry_multiplicity
 _atom_site_fract_x
 _atom_site_fract_y
 _atom_site_fract_z
 _atom_site_occupancy
  Fe  Fe0  1  0.181597  0.958588  0.817423  1
  Fe  Fe1  1  0.042392  0.817423  0.958588  1
  Fe  Fe2  1  0.432577  0.207608  0.068403  1
  Fe  Fe3  1  0.291412  0.068403  0.207608  1
  C  C4  1  0.996348  0.153759  0.704110  1
  C  C5  1  0.145783  0.704110  0.153759  1
  C  C6  1  0.545890  0.104217  0.253652  1
  C  C7  1  0.096241  0.253652  0.104217  1
  C  C8  1  0.028181  0.225379  0.741497  1
  C  C9  1  0.004943  0.741497  0.225379  1
  C  C10  1  0.508503  0.245057  0.221819  1
  C  C11  1  0.024621  0.221819  0.245057  1
  Cl  Cl12  1  0.057510  0.898794  0.579606  1
  Cl  Cl13  1  0.464091  0.579606  0.898794  1
  Cl  Cl14  1  0.670394  0.785909  0.192490  1
  Cl  Cl15  1  0.351206  0.192490  0.785909  1
  O  O16  1  0.186115  0.087497  0.741981  1
  O  O17  1  0.984407  0.741981  0.087497  1
  O  O18  1  0.508019  0.265593  0.063885  1
  O  O19  1  0.162503  0.063885  0.265593  1
  O  O20  1  0.429013  0.703419  0.160454  1
  O  O21  1  0.707114  0.160454  0.703419  1
  O  O22  1  0.089546  0.542886  0.820987  1
  O  O23  1  0.546581  0.820987  0.542886  1
  O  O24  1  0.933769  0.404116  0.741114  1
  O  O25  1  0.921001  0.741114  0.404116  1
  O  O26  1  0.508886  0.328999  0.316231  1
  O  O27  1  0.845884  0.316231  0.328999  1
  O  O28  1  0.071644  0.007112  0.758255  1
  O  O29  1  0.162989  0.758255  0.007112  1
  O  O30  1  0.491745  0.087011  0.178356  1
  O  O31  1  0.242888  0.178356  0.087011  1
  O  O32  1  0.155604  0.844396  0.844396  1
  O  O33  1  0.405604  0.094396  0.094396  1
