# generated using pymatgen
data_LiCo2OF3
_symmetry_space_group_name_H-M   'P 1'
_cell_length_a   5.98528500
_cell_length_b   6.22112183
_cell_length_c   8.71705390
_cell_angle_alpha   90.00459323
_cell_angle_beta   90.00455846
_cell_angle_gamma   90.01583042
_symmetry_Int_Tables_number   1
_chemical_formula_structural   LiCo2OF3
_chemical_formula_sum   'Li4 Co8 O4 F12'
_cell_volume   324.58111893
_cell_formula_units_Z   4
loop_
 _symmetry_equiv_pos_site_id
 _symmetry_equiv_pos_as_xyz
  1  'x, y, z'
loop_
 _atom_site_type_symbol
 _atom_site_label
 _atom_site_symmetry_multiplicity
 _atom_site_fract_x
 _atom_site_fract_y
 _atom_site_fract_z
 _atom_site_occupancy
  Li  Li0  1  0.000002  0.977329  0.019361  1
  Li  Li1  1  0.500000  0.022463  0.230857  1
  Li  Li2  1  0.500048  0.522503  0.519175  1
  Li  Li3  1  0.999954  0.477268  0.730631  1
  Co  Co4  1  0.250023  0.500037  0.124997  1
  Co  Co5  1  0.749976  0.500037  0.124998  1
  Co  Co6  1  0.000016  0.233191  0.392388  1
  Co  Co7  1  0.000013  0.733170  0.357590  1
  Co  Co8  1  0.749989  0.000037  0.625009  1
  Co  Co9  1  0.250016  0.000035  0.625009  1
  Co  Co10  1  0.499980  0.266862  0.892662  1
  Co  Co11  1  0.499989  0.766841  0.857355  1
  O  O12  1  0.000055  0.704975  0.133727  1
  O  O13  1  0.499940  0.294994  0.116507  1
  O  O14  1  0.499954  0.794998  0.633494  1
  O  O15  1  0.000054  0.204952  0.616270  1
  F  F16  1  0.999927  0.243769  0.151900  1
  F  F17  1  0.500067  0.756272  0.097875  1
  F  F18  1  0.759682  0.983303  0.369681  1
  F  F19  1  0.240330  0.983397  0.369695  1
  F  F20  1  0.240367  0.483363  0.380308  1
  F  F21  1  0.759661  0.483267  0.380318  1
  F  F22  1  0.500050  0.256281  0.652164  1
  F  F23  1  0.999959  0.743777  0.598036  1
  F  F24  1  0.740339  0.516733  0.869666  1
  F  F25  1  0.259621  0.516664  0.869673  1
  F  F26  1  0.259640  0.016699  0.880315  1
  F  F27  1  0.740349  0.016782  0.880339  1
