# generated using pymatgen
data_LiFeP2HO7
_symmetry_space_group_name_H-M   'P 1'
_cell_length_a   9.94681315
_cell_length_b   8.74544335
_cell_length_c   6.57173042
_cell_angle_alpha   77.99709448
_cell_angle_beta   108.73967455
_cell_angle_gamma   90.41599701
_symmetry_Int_Tables_number   1
_chemical_formula_structural   LiFeP2HO7
_chemical_formula_sum   'Li4 Fe4 P8 H4 O28'
_cell_volume   528.43351908
_cell_formula_units_Z   4
loop_
 _symmetry_equiv_pos_site_id
 _symmetry_equiv_pos_as_xyz
  1  'x, y, z'
loop_
 _atom_site_type_symbol
 _atom_site_label
 _atom_site_symmetry_multiplicity
 _atom_site_fract_x
 _atom_site_fract_y
 _atom_site_fract_z
 _atom_site_occupancy
  Li  Li0  1  0.123086  0.218766  0.281500  1
  Li  Li1  1  0.376914  0.281234  0.718500  1
  Li  Li2  1  0.628464  0.741102  0.323065  1
  Li  Li3  1  0.871536  0.758898  0.676935  1
  Fe  Fe4  1  0.060539  0.835620  0.164598  1
  Fe  Fe5  1  0.524476  0.277203  0.391758  1
  Fe  Fe6  1  0.439461  0.664380  0.835402  1
  Fe  Fe7  1  0.975524  0.222797  0.608242  1
  P  P8  1  0.388816  0.003860  0.211283  1
  P  P9  1  0.111184  0.496140  0.788717  1
  P  P10  1  0.304559  0.543831  0.232632  1
  P  P11  1  0.823473  0.018206  0.259383  1
  P  P12  1  0.195441  0.956169  0.767368  1
  P  P13  1  0.676527  0.481794  0.740617  1
  P  P14  1  0.877452  0.507659  0.173152  1
  P  P15  1  0.622548  0.992341  0.826848  1
  H  H16  1  0.235902  0.557848  0.556191  1
  H  H17  1  0.753713  0.035456  0.600128  1
  H  H18  1  0.264098  0.942152  0.443809  1
  H  H19  1  0.746287  0.464544  0.399872  1
  O  O20  1  0.249823  0.009724  0.286793  1
  O  O21  1  0.174984  0.125863  0.629332  1
  O  O22  1  0.070495  0.327540  0.855748  1
  O  O23  1  -0.000133  0.612391  0.629228  1
  O  O24  1  0.429505  0.172460  0.144252  1
  O  O25  1  0.508143  0.114216  0.664908  1
  O  O26  1  0.325016  0.374137  0.370668  1
  O  O27  1  0.250177  0.490276  0.713207  1
  O  O28  1  0.171288  0.555246  0.012516  1
  O  O29  1  0.064180  0.914996  0.837787  1
  O  O30  1  0.250730  0.658466  0.342934  1
  O  O31  1  0.693843  0.077092  0.029424  1
  O  O32  1  0.534866  0.467823  0.791116  1
  O  O33  1  0.809402  0.135656  0.403229  1
  O  O34  1  0.249270  0.841534  0.657066  1
  O  O35  1  0.435820  0.585004  0.162213  1
  O  O36  1  0.328712  0.944754  0.987484  1
  O  O37  1  0.690598  0.364344  0.596771  1
  O  O38  1  0.965134  0.032177  0.208884  1
  O  O39  1  0.806157  0.422908  0.970576  1
  O  O40  1  0.750934  0.535380  0.260061  1
  O  O41  1  0.700350  0.645138  0.639474  1
  O  O42  1  0.500133  0.887609  0.370772  1
  O  O43  1  0.572563  0.836124  0.913484  1
  O  O44  1  0.991857  0.385784  0.335092  1
  O  O45  1  0.927437  0.663876  0.086516  1
  O  O46  1  0.799650  0.854862  0.360526  1
  O  O47  1  0.749066  0.964620  0.739939  1
