# generated using pymatgen
data_LiMnPO4
_symmetry_space_group_name_H-M   'P 1'
_cell_length_a   7.66723655
_cell_length_b   13.95145542
_cell_length_c   5.89877219
_cell_angle_alpha   90.00000000
_cell_angle_beta   90.00000000
_cell_angle_gamma   90.00000000
_symmetry_Int_Tables_number   1
_chemical_formula_structural   LiMnPO4
_chemical_formula_sum   'Li8 Mn8 P8 O32'
_cell_volume   630.98640490
_cell_formula_units_Z   8
loop_
 _symmetry_equiv_pos_site_id
 _symmetry_equiv_pos_as_xyz
  1  'x, y, z'
loop_
 _atom_site_type_symbol
 _atom_site_label
 _atom_site_symmetry_multiplicity
 _atom_site_fract_x
 _atom_site_fract_y
 _atom_site_fract_z
 _atom_site_occupancy
  Li  Li0  1  0.170155  0.527214  0.418546  1
  Li  Li1  1  0.170155  0.972786  0.918546  1
  Li  Li2  1  0.329845  0.027214  0.418546  1
  Li  Li3  1  0.329845  0.472786  0.918546  1
  Li  Li4  1  0.670155  0.527214  0.081454  1
  Li  Li5  1  0.670155  0.972786  0.581454  1
  Li  Li6  1  0.829845  0.027214  0.081454  1
  Li  Li7  1  0.829845  0.472786  0.581454  1
  Mn  Mn8  1  0.180751  0.207693  0.148028  1
  Mn  Mn9  1  0.180751  0.292307  0.648028  1
  Mn  Mn10  1  0.319249  0.792307  0.648028  1
  Mn  Mn11  1  0.319249  0.707693  0.148028  1
  Mn  Mn12  1  0.680751  0.207693  0.351972  1
  Mn  Mn13  1  0.680751  0.292307  0.851972  1
  Mn  Mn14  1  0.819249  0.707693  0.351972  1
  Mn  Mn15  1  0.819249  0.792307  0.851972  1
  P  P16  1  0.037994  0.625824  0.892135  1
  P  P17  1  0.037994  0.874176  0.392135  1
  P  P18  1  0.462006  0.125824  0.892135  1
  P  P19  1  0.462006  0.374176  0.392135  1
  P  P20  1  0.537994  0.625824  0.607865  1
  P  P21  1  0.537994  0.874176  0.107865  1
  P  P22  1  0.962006  0.125824  0.607865  1
  P  P23  1  0.962006  0.374176  0.107865  1
  O  O24  1  0.987623  0.068645  0.825110  1
  O  O25  1  0.987623  0.431355  0.325110  1
  O  O26  1  0.099155  0.768025  0.338497  1
  O  O27  1  0.099155  0.731975  0.838497  1
  O  O28  1  0.138876  0.142650  0.478722  1
  O  O29  1  0.138876  0.357350  0.978722  1
  O  O30  1  0.177245  0.582222  0.055013  1
  O  O31  1  0.177245  0.917778  0.555013  1
  O  O32  1  0.322755  0.082222  0.055013  1
  O  O33  1  0.322755  0.417778  0.555013  1
  O  O34  1  0.361124  0.642650  0.478722  1
  O  O35  1  0.361124  0.857350  0.978722  1
  O  O36  1  0.400845  0.231975  0.838497  1
  O  O37  1  0.400845  0.268025  0.338497  1
  O  O38  1  0.512377  0.568645  0.825110  1
  O  O39  1  0.512377  0.931355  0.325110  1
  O  O40  1  0.487623  0.431355  0.174890  1
  O  O41  1  0.487623  0.068645  0.674890  1
  O  O42  1  0.599155  0.731975  0.661503  1
  O  O43  1  0.599155  0.768025  0.161503  1
  O  O44  1  0.638876  0.142650  0.021278  1
  O  O45  1  0.638876  0.357350  0.521278  1
  O  O46  1  0.677245  0.582222  0.444987  1
  O  O47  1  0.677245  0.917778  0.944987  1
  O  O48  1  0.822755  0.082222  0.444987  1
  O  O49  1  0.822755  0.417778  0.944987  1
  O  O50  1  0.861124  0.642650  0.021278  1
  O  O51  1  0.861124  0.857350  0.521278  1
  O  O52  1  0.900845  0.231975  0.661503  1
  O  O53  1  0.900845  0.268025  0.161503  1
  O  O54  1  0.012377  0.568645  0.674890  1
  O  O55  1  0.012377  0.931355  0.174890  1
