# generated using pymatgen
data_Li2Mn3(BO3)3
_symmetry_space_group_name_H-M   'P 1'
_cell_length_a   11.78718456
_cell_length_b   5.29067278
_cell_length_c   6.19039916
_cell_angle_alpha   87.36212614
_cell_angle_beta   95.46909200
_cell_angle_gamma   101.06455964
_symmetry_Int_Tables_number   1
_chemical_formula_structural   Li2Mn3(BO3)3
_chemical_formula_sum   'Li4 Mn6 B6 O18'
_cell_volume   376.99382227
_cell_formula_units_Z   2
loop_
 _symmetry_equiv_pos_site_id
 _symmetry_equiv_pos_as_xyz
  1  'x, y, z'
loop_
 _atom_site_type_symbol
 _atom_site_label
 _atom_site_symmetry_multiplicity
 _atom_site_fract_x
 _atom_site_fract_y
 _atom_site_fract_z
 _atom_site_occupancy
  Li  Li0  1  0.457966  0.160533  0.859440  1
  Li  Li1  1  0.802378  0.813415  0.540323  1
  Li  Li2  1  0.540083  0.844445  0.144615  1
  Li  Li3  1  0.132074  0.477547  0.211669  1
  Mn  Mn4  1  0.788540  0.976271  0.971867  1
  Mn  Mn5  1  0.878771  0.350714  0.375316  1
  Mn  Mn6  1  0.550541  0.697296  0.696870  1
  Mn  Mn7  1  0.446596  0.308457  0.310113  1
  Mn  Mn8  1  0.120115  0.650323  0.635967  1
  Mn  Mn9  1  0.210820  0.019145  0.036172  1
  B  B10  1  0.663854  0.255019  0.591923  1
  B  B11  1  0.998147  0.923424  0.259032  1
  B  B12  1  0.329755  0.592122  0.927993  1
  B  B13  1  0.669133  0.410720  0.091314  1
  B  B14  1  0.004471  0.079661  0.735335  1
  B  B15  1  0.335124  0.744461  0.386629  1
  O  O16  1  0.990371  0.316255  0.633006  1
  O  O17  1  0.914044  0.898999  0.791094  1
  O  O18  1  0.686230  0.009187  0.643322  1
  O  O19  1  0.748212  0.448955  0.518845  1
  O  O20  1  0.553586  0.307867  0.619325  1
  O  O21  1  0.890686  0.987841  0.291641  1
  O  O22  1  0.343131  0.339034  0.971755  1
  O  O23  1  0.780225  0.345191  0.099699  1
  O  O24  1  0.420677  0.783430  0.876384  1
  O  O25  1  0.574798  0.218183  0.125176  1
  O  O26  1  0.220486  0.653249  0.954697  1
  O  O27  1  0.654158  0.659990  0.031780  1
  O  O28  1  0.118671  0.027936  0.759237  1
  O  O29  1  0.448253  0.696947  0.383321  1
  O  O30  1  0.248409  0.566649  0.460385  1
  O  O31  1  0.315967  0.985685  0.298684  1
  O  O32  1  0.083716  0.112293  0.185000  1
  O  O33  1  0.013495  0.673286  0.311560  1
