# generated using pymatgen
data_Li3V3P8O29
_symmetry_space_group_name_H-M   'P 1'
_cell_length_a   9.78364476
_cell_length_b   9.74132218
_cell_length_c   14.13952208
_cell_angle_alpha   89.97294067
_cell_angle_beta   90.30384328
_cell_angle_gamma   60.02473340
_symmetry_Int_Tables_number   1
_chemical_formula_structural   Li3V3P8O29
_chemical_formula_sum   'Li6 V6 P16 O58'
_cell_volume   1167.30192830
_cell_formula_units_Z   2
loop_
 _symmetry_equiv_pos_site_id
 _symmetry_equiv_pos_as_xyz
  1  'x, y, z'
loop_
 _atom_site_type_symbol
 _atom_site_label
 _atom_site_symmetry_multiplicity
 _atom_site_fract_x
 _atom_site_fract_y
 _atom_site_fract_z
 _atom_site_occupancy
  Li  Li0  1  0.677616  0.662518  0.389155  1
  Li  Li1  1  0.317254  0.767783  0.557975  1
  Li  Li2  1  0.672937  0.092681  0.943811  1
  Li  Li3  1  0.093068  0.232940  0.944586  1
  Li  Li4  1  0.031466  0.951700  0.008358  1
  Li  Li5  1  0.949347  0.039856  0.486296  1
  V  V6  1  0.568808  0.431034  0.247569  1
  V  V7  1  0.434588  0.559977  0.756280  1
  V  V8  1  0.565355  0.998090  0.744032  1
  V  V9  1  0.430453  0.002142  0.249313  1
  V  V10  1  0.002618  0.568785  0.249041  1
  V  V11  1  0.997788  0.440986  0.744848  1
  P  P12  1  0.915474  0.778580  0.842608  1
  P  P13  1  0.780495  0.911291  0.342162  1
  P  P14  1  0.911799  0.307235  0.342208  1
  P  P15  1  0.666912  0.667303  0.130988  1
  P  P16  1  0.660958  0.666755  0.629414  1
  P  P17  1  0.779594  0.306731  0.840588  1
  P  P18  1  0.690536  0.226818  0.655461  1
  P  P19  1  0.310975  0.916248  0.841663  1
  P  P20  1  0.689288  0.083340  0.157818  1
  P  P21  1  0.316815  0.774643  0.343979  1
  P  P22  1  0.223057  0.695753  0.160505  1
  P  P23  1  0.334603  0.334061  0.369369  1
  P  P24  1  0.334490  0.326248  0.869060  1
  P  P25  1  0.084544  0.696053  0.656966  1
  P  P26  1  0.222647  0.085912  0.657402  1
  P  P27  1  0.082716  0.226825  0.158239  1
  O  O28  1  0.006751  0.782053  0.569639  1
  O  O29  1  0.918184  0.734925  0.334628  1
  O  O30  1  0.768672  0.014275  0.066591  1
  O  O31  1  0.739747  0.914433  0.833904  1
  O  O32  1  0.919954  0.616996  0.825673  1
  O  O33  1  0.815974  0.661555  0.178849  1
  O  O34  1  0.904004  0.470219  0.333848  1
  O  O35  1  0.015487  0.214437  0.066264  1
  O  O36  1  0.916424  0.343834  0.838521  1
  O  O37  1  0.663351  0.814482  0.674194  1
  O  O38  1  0.626430  0.902444  0.333116  1
  O  O39  1  0.811688  0.520473  0.674778  1
  O  O40  1  0.666816  0.668726  0.026784  1
  O  O41  1  0.661686  0.670488  0.524164  1
  O  O42  1  0.663547  0.521192  0.176638  1
  O  O43  1  0.466370  0.918940  0.826910  1
  O  O44  1  0.523417  0.816096  0.178365  1
  O  O45  1  0.735718  0.346156  0.332744  1
  O  O46  1  0.801055  0.207321  0.745640  1
  O  O47  1  0.776765  0.211735  0.567886  1
  O  O48  1  0.781924  0.212516  0.923747  1
  O  O49  1  0.619213  0.466433  0.827329  1
  O  O50  1  0.511573  0.669347  0.668482  1
  O  O51  1  0.655115  0.257267  0.168502  1
  O  O52  1  0.480548  0.624007  0.329934  1
  O  O53  1  0.346712  0.917401  0.333151  1
  O  O54  1  0.800961  0.989286  0.245155  1
  O  O55  1  0.798241  0.994256  0.423894  1
  O  O56  1  0.218911  0.998366  0.572889  1
  O  O57  1  0.650440  0.091044  0.669970  1
  O  O58  1  0.534171  0.385320  0.673548  1
  O  O59  1  0.350281  0.740601  0.832587  1
  O  O60  1  0.472036  0.347874  0.321167  1
  O  O61  1  0.383190  0.541177  0.170891  1
  O  O62  1  0.202434  0.795112  0.077351  1
  O  O63  1  0.236650  0.781720  0.433909  1
  O  O64  1  0.203675  0.793777  0.256664  1
  O  O65  1  0.259803  0.656421  0.665952  1
  O  O66  1  0.486418  0.182035  0.826989  1
  O  O67  1  0.533035  0.083705  0.173820  1
  O  O68  1  0.333882  0.477190  0.823015  1
  O  O69  1  0.338793  0.325452  0.973926  1
  O  O70  1  0.336426  0.334158  0.473413  1
  O  O71  1  0.181638  0.474472  0.323060  1
  O  O72  1  0.381462  0.086156  0.671798  1
  O  O73  1  0.345754  0.181458  0.323372  1
  O  O74  1  0.086977  0.655396  0.168562  1
  O  O75  1  0.000493  0.798163  0.750038  1
  O  O76  1  0.991360  0.793539  0.929311  1
  O  O77  1  0.084091  0.534956  0.673390  1
  O  O78  1  0.184719  0.327436  0.827396  1
  O  O79  1  0.082131  0.383886  0.173895  1
  O  O80  1  0.256603  0.087612  0.170001  1
  O  O81  1  0.216270  0.000035  0.926137  1
  O  O82  1  0.202752  0.001076  0.749721  1
  O  O83  1  0.087204  0.260571  0.666368  1
  O  O84  1  0.991668  0.204706  0.424530  1
  O  O85  1  0.989738  0.208850  0.245252  1
