# generated using pymatgen
data_LiMnPO4
_symmetry_space_group_name_H-M   'P 1'
_cell_length_a   10.39483223
_cell_length_b   6.95924292
_cell_length_c   5.15492508
_cell_angle_alpha   90.00000000
_cell_angle_beta   90.00000000
_cell_angle_gamma   90.00000000
_symmetry_Int_Tables_number   1
_chemical_formula_structural   LiMnPO4
_chemical_formula_sum   'Li4 Mn4 P4 O16'
_cell_volume   372.90811848
_cell_formula_units_Z   4
loop_
 _symmetry_equiv_pos_site_id
 _symmetry_equiv_pos_as_xyz
  1  'x, y, z'
loop_
 _atom_site_type_symbol
 _atom_site_label
 _atom_site_symmetry_multiplicity
 _atom_site_fract_x
 _atom_site_fract_y
 _atom_site_fract_z
 _atom_site_occupancy
  Li  Li0  1  0.146843  0.498299  0.246113  1
  Li  Li1  1  0.353157  0.998299  0.746113  1
  Li  Li2  1  0.646843  0.001701  0.246113  1
  Li  Li3  1  0.853157  0.501701  0.746113  1
  Mn  Mn4  1  0.159704  0.997860  0.245366  1
  Mn  Mn5  1  0.340296  0.497860  0.745366  1
  Mn  Mn6  1  0.659704  0.502140  0.245366  1
  Mn  Mn7  1  0.840296  0.002140  0.745366  1
  P  P8  1  0.096107  0.751126  0.749902  1
  P  P9  1  0.403893  0.251126  0.249902  1
  P  P10  1  0.596107  0.748874  0.749902  1
  P  P11  1  0.903893  0.248874  0.249902  1
  O  O12  1  0.050471  0.245883  0.192916  1
  O  O13  1  0.121915  0.743360  0.047905  1
  O  O14  1  0.155425  0.569938  0.620885  1
  O  O15  1  0.162368  0.936703  0.642763  1
  O  O16  1  0.337632  0.436703  0.142763  1
  O  O17  1  0.344575  0.069938  0.120885  1
  O  O18  1  0.378085  0.243360  0.547905  1
  O  O19  1  0.449529  0.745883  0.692916  1
  O  O20  1  0.550471  0.254117  0.192916  1
  O  O21  1  0.621915  0.756640  0.047905  1
  O  O22  1  0.655425  0.930062  0.620885  1
  O  O23  1  0.662368  0.563297  0.642763  1
  O  O24  1  0.837632  0.063297  0.142763  1
  O  O25  1  0.844575  0.430062  0.120885  1
  O  O26  1  0.878085  0.256640  0.547905  1
  O  O27  1  0.949529  0.754117  0.692916  1
