# generated using pymatgen
data_LiV2P4(HO8)2
_symmetry_space_group_name_H-M   'P 1'
_cell_length_a   13.61815880
_cell_length_b   7.89510860
_cell_length_c   7.74141807
_cell_angle_alpha   90.11304074
_cell_angle_beta   98.66228255
_cell_angle_gamma   89.94903181
_symmetry_Int_Tables_number   1
_chemical_formula_structural   LiV2P4(HO8)2
_chemical_formula_sum   'Li3 V6 P12 H6 O48'
_cell_volume   822.83686393
_cell_formula_units_Z   3
loop_
 _symmetry_equiv_pos_site_id
 _symmetry_equiv_pos_as_xyz
  1  'x, y, z'
loop_
 _atom_site_type_symbol
 _atom_site_label
 _atom_site_symmetry_multiplicity
 _atom_site_fract_x
 _atom_site_fract_y
 _atom_site_fract_z
 _atom_site_occupancy
  Li  Li0  1  0.147790  0.130109  0.290719  1
  Li  Li1  1  0.517983  0.633832  0.871808  1
  Li  Li2  1  0.852635  0.630792  0.210357  1
  V  V3  1  0.167670  0.507232  0.167167  1
  V  V4  1  0.166989  0.993903  0.675241  1
  V  V5  1  0.496709  0.492294  0.490516  1
  V  V6  1  0.501485  0.005828  0.999633  1
  V  V7  1  0.829903  0.007896  0.331791  1
  V  V8  1  0.834927  0.496809  0.825802  1
  P  P9  1  0.045242  0.849366  0.279602  1
  P  P10  1  0.047508  0.644229  0.776184  1
  P  P11  1  0.289086  0.158017  0.051830  1
  P  P12  1  0.378762  0.658127  0.113183  1
  P  P13  1  0.283857  0.353299  0.556954  1
  P  P14  1  0.381581  0.853372  0.610531  1
  P  P15  1  0.619014  0.146027  0.389564  1
  P  P16  1  0.710111  0.654706  0.448187  1
  P  P17  1  0.621737  0.350332  0.886588  1
  P  P18  1  0.715754  0.851936  0.941604  1
  P  P19  1  0.954057  0.348968  0.221022  1
  P  P20  1  0.953185  0.145100  0.721475  1
  H  H21  1  0.003959  0.508334  0.504284  1
  H  H22  1  0.334528  0.996815  0.332316  1
  H  H23  1  0.331778  0.494167  0.831464  1
  H  H24  1  0.668170  0.503530  0.172412  1
  H  H25  1  0.665549  0.000238  0.664777  1
  H  H26  1  0.995942  0.008820  0.993193  1
  O  O27  1  0.062572  0.958959  0.124948  1
  O  O28  1  0.065799  0.328842  0.203920  1
  O  O29  1  0.091187  0.672811  0.272900  1
  O  O30  1  0.099283  0.947283  0.445410  1
  O  O31  1  0.063312  0.545970  0.613198  1
  O  O32  1  0.239751  0.331430  0.057314  1
  O  O33  1  0.064978  0.160804  0.702981  1
  O  O34  1  0.268880  0.674068  0.134960  1
  O  O35  1  0.094017  0.826122  0.766967  1
  O  O36  1  0.271746  0.058797  0.214186  1
  O  O37  1  0.100127  0.558767  0.942251  1
  O  O38  1  0.233475  0.447852  0.392787  1
  O  O39  1  0.234630  0.174970  0.553244  1
  O  O40  1  0.398184  0.173721  0.026132  1
  O  O41  1  0.268990  0.839821  0.634378  1
  O  O42  1  0.273315  0.446913  0.724736  1
  O  O43  1  0.428023  0.830912  0.110085  1
  O  O44  1  0.234672  0.058557  0.885248  1
  O  O45  1  0.430119  0.558715  0.282462  1
  O  O46  1  0.392376  0.947044  0.443680  1
  O  O47  1  0.396704  0.337967  0.535133  1
  O  O48  1  0.429460  0.673733  0.613600  1
  O  O49  1  0.607630  0.459597  0.044732  1
  O  O50  1  0.434822  0.945523  0.775348  1
  O  O51  1  0.565631  0.059177  0.222140  1
  O  O52  1  0.397070  0.556790  0.952930  1
  O  O53  1  0.568111  0.326979  0.397841  1
  O  O54  1  0.598567  0.660269  0.467078  1
  O  O55  1  0.603338  0.051121  0.552789  1
  O  O56  1  0.565792  0.447900  0.724844  1
  O  O57  1  0.765528  0.943967  0.110741  1
  O  O58  1  0.581525  0.171943  0.895732  1
  O  O59  1  0.727782  0.552827  0.285465  1
  O  O60  1  0.727722  0.174856  0.365249  1
  O  O61  1  0.604552  0.825673  0.961268  1
  O  O62  1  0.754886  0.829600  0.439935  1
  O  O63  1  0.764628  0.558528  0.613511  1
  O  O64  1  0.902241  0.447942  0.054318  1
  O  O65  1  0.729310  0.946485  0.777366  1
  O  O66  1  0.907877  0.173580  0.226519  1
  O  O67  1  0.734119  0.341408  0.863314  1
  O  O68  1  0.934132  0.828827  0.299603  1
  O  O69  1  0.769545  0.674303  0.947405  1
  O  O70  1  0.936699  0.460200  0.375122  1
  O  O71  1  0.898173  0.059993  0.556255  1
  O  O72  1  0.908248  0.327829  0.732369  1
  O  O73  1  0.935679  0.662604  0.792808  1
  O  O74  1  0.937744  0.046993  0.884608  1
