# generated using pymatgen
data_YBr3
_symmetry_space_group_name_H-M   'P 1'
_cell_length_a   10.67312101
_cell_length_b   10.67312133
_cell_length_c   3.75210108
_cell_angle_alpha   90.00000000
_cell_angle_beta   90.00000000
_cell_angle_gamma   120.00000531
_symmetry_Int_Tables_number   1
_chemical_formula_structural   YBr3
_chemical_formula_sum   'Y2 Br6'
_cell_volume   370.15874827
_cell_formula_units_Z   2
loop_
 _symmetry_equiv_pos_site_id
 _symmetry_equiv_pos_as_xyz
  1  'x, y, z'
loop_
 _atom_site_type_symbol
 _atom_site_label
 _atom_site_symmetry_multiplicity
 _atom_site_fract_x
 _atom_site_fract_y
 _atom_site_fract_z
 _atom_site_occupancy
  Y  Y0  1  0.333334  0.666667  0.750001  1
  Y  Y1  1  0.666667  0.333332  0.250000  1
  Br  Br2  1  0.218320  0.436639  0.250000  1
  Br  Br3  1  0.563361  0.781680  0.250000  1
  Br  Br4  1  0.218319  0.781680  0.250000  1
  Br  Br5  1  0.781680  0.563362  0.750001  1
  Br  Br6  1  0.436638  0.218319  0.750001  1
  Br  Br7  1  0.781681  0.218319  0.750001  1
