# generated using pymatgen
data_Ba5Cd2Sb5F
_symmetry_space_group_name_H-M   'P 1'
_cell_length_a   12.02281687
_cell_length_b   12.02281687
_cell_length_c   15.56175292
_cell_angle_alpha   90.00000000
_cell_angle_beta   90.00000000
_cell_angle_gamma   23.94395156
_symmetry_Int_Tables_number   1
_chemical_formula_structural   Ba5Cd2Sb5F
_chemical_formula_sum   'Ba10 Cd4 Sb10 F2'
_cell_volume   912.91178978
_cell_formula_units_Z   2
loop_
 _symmetry_equiv_pos_site_id
 _symmetry_equiv_pos_as_xyz
  1  'x, y, z'
loop_
 _atom_site_type_symbol
 _atom_site_label
 _atom_site_symmetry_multiplicity
 _atom_site_fract_x
 _atom_site_fract_y
 _atom_site_fract_z
 _atom_site_occupancy
  Ba  Ba0  1  0.000000  0.000000  0.000000  1
  Ba  Ba1  1  0.000000  0.000000  0.500000  1
  Ba  Ba2  1  0.095502  0.095502  0.250000  1
  Ba  Ba3  1  0.904499  0.904499  0.750001  1
  Ba  Ba4  1  0.898561  0.898561  0.250000  1
  Ba  Ba5  1  0.101439  0.101439  0.750001  1
  Ba  Ba6  1  0.274675  0.274675  0.617915  1
  Ba  Ba7  1  0.725325  0.725325  0.117914  1
  Ba  Ba8  1  0.725325  0.725325  0.382086  1
  Ba  Ba9  1  0.274675  0.274675  0.882086  1
  Cd  Cd10  1  0.366517  0.366517  0.089250  1
  Cd  Cd11  1  0.633483  0.633483  0.589250  1
  Cd  Cd12  1  0.633483  0.633483  0.910750  1
  Cd  Cd13  1  0.366517  0.366517  0.410750  1
  Sb  Sb14  1  0.490528  0.490528  0.158474  1
  Sb  Sb15  1  0.509472  0.509472  0.658473  1
  Sb  Sb16  1  0.509472  0.509472  0.841526  1
  Sb  Sb17  1  0.490528  0.490528  0.341526  1
  Sb  Sb18  1  0.291907  0.291907  0.250000  1
  Sb  Sb19  1  0.708093  0.708093  0.750001  1
  Sb  Sb20  1  0.148823  0.148823  0.010149  1
  Sb  Sb21  1  0.851177  0.851177  0.510148  1
  Sb  Sb22  1  0.851177  0.851177  0.989852  1
  Sb  Sb23  1  0.148823  0.148823  0.489851  1
  F  F24  1  0.650104  0.650104  0.250000  1
  F  F25  1  0.349896  0.349896  0.750001  1
