# generated using pymatgen
data_UB4W
_symmetry_space_group_name_H-M   'P 1'
_cell_length_a   5.96250145
_cell_length_b   11.56467145
_cell_length_c   3.65618208
_cell_angle_alpha   90.00009581
_cell_angle_beta   90.00011152
_cell_angle_gamma   90.00414211
_symmetry_Int_Tables_number   1
_chemical_formula_structural   UB4W
_chemical_formula_sum   'U4 B16 W4'
_cell_volume   252.10973244
_cell_formula_units_Z   4
loop_
 _symmetry_equiv_pos_site_id
 _symmetry_equiv_pos_as_xyz
  1  'x, y, z'
loop_
 _atom_site_type_symbol
 _atom_site_label
 _atom_site_symmetry_multiplicity
 _atom_site_fract_x
 _atom_site_fract_y
 _atom_site_fract_z
 _atom_site_occupancy
  U  U0  1  0.128592  0.150363  0.000003  1
  U  U1  1  0.871401  0.849629  -0.000000  1
  U  U2  1  0.628596  0.349673  0.000005  1
  U  U3  1  0.371398  0.650333  -0.000002  1
  B  B4  1  0.475458  0.193446  0.500001  1
  B  B5  1  0.524556  0.806550  0.500001  1
  B  B6  1  0.975413  0.306581  0.500000  1
  B  B7  1  0.024590  0.693431  0.500000  1
  B  B8  1  0.368142  0.468155  0.500000  1
  B  B9  1  0.631857  0.531854  0.500002  1
  B  B10  1  0.868110  0.031845  0.500001  1
  B  B11  1  0.131875  0.968138  0.500000  1
  B  B12  1  0.292988  0.311602  0.500001  1
  B  B13  1  0.707007  0.688406  0.499999  1
  B  B14  1  0.792936  0.188423  0.500001  1
  B  B15  1  0.207046  0.811572  0.500001  1
  B  B16  1  0.384804  0.047289  0.500002  1
  B  B17  1  0.615225  0.952702  0.500001  1
  B  B18  1  0.884765  0.452699  0.500000  1
  B  B19  1  0.115245  0.547305  0.500000  1
  W  W20  1  0.137575  0.408753  0.000002  1
  W  W21  1  0.862426  0.591271  0.999998  1
  W  W22  1  0.637535  0.091268  0.000000  1
  W  W23  1  0.362467  0.908708  0.000000  1
