# generated using pymatgen
data_KZn4(SbO4)3
_symmetry_space_group_name_H-M   'P 1'
_cell_length_a   6.84340687
_cell_length_b   6.84340687
_cell_length_c   6.84340604
_cell_angle_alpha   107.75692615
_cell_angle_beta   107.75692626
_cell_angle_gamma   107.75692540
_symmetry_Int_Tables_number   1
_chemical_formula_structural   KZn4(SbO4)3
_chemical_formula_sum   'K1 Zn4 Sb3 O12'
_cell_volume   261.20164752
_cell_formula_units_Z   1
loop_
 _symmetry_equiv_pos_site_id
 _symmetry_equiv_pos_as_xyz
  1  'x, y, z'
loop_
 _atom_site_type_symbol
 _atom_site_label
 _atom_site_symmetry_multiplicity
 _atom_site_fract_x
 _atom_site_fract_y
 _atom_site_fract_z
 _atom_site_occupancy
  K  K0  1  0.495681  0.495681  0.495681  1
  Zn  Zn1  1  0.025251  0.638842  0.510776  1
  Zn  Zn2  1  0.510776  0.025251  0.638842  1
  Zn  Zn3  1  0.638843  0.510777  0.025250  1
  Zn  Zn4  1  0.981927  0.981927  0.981927  1
  Sb  Sb5  1  0.068295  0.195606  0.654414  1
  Sb  Sb6  1  0.195606  0.654414  0.068296  1
  Sb  Sb7  1  0.654414  0.068295  0.195607  1
  O  O8  1  0.894386  0.654768  0.962235  1
  O  O9  1  0.654768  0.962235  0.894386  1
  O  O10  1  0.251106  0.731265  0.390844  1
  O  O11  1  0.731266  0.390843  0.251106  1
  O  O12  1  0.962235  0.894387  0.654768  1
  O  O13  1  0.390843  0.251107  0.731265  1
  O  O14  1  0.985665  0.117553  0.321437  1
  O  O15  1  0.321436  0.985666  0.117553  1
  O  O16  1  0.117553  0.321436  0.985666  1
  O  O17  1  0.736011  0.164256  0.535800  1
  O  O18  1  0.535801  0.736011  0.164256  1
  O  O19  1  0.164256  0.535801  0.736011  1
