# generated using pymatgen
data_Li3V3P8O29
_symmetry_space_group_name_H-M   'P 1'
_cell_length_a   9.78658405
_cell_length_b   9.68821932
_cell_length_c   14.37382229
_cell_angle_alpha   89.49362029
_cell_angle_beta   90.92806203
_cell_angle_gamma   59.93944844
_symmetry_Int_Tables_number   1
_chemical_formula_structural   Li3V3P8O29
_chemical_formula_sum   'Li6 V6 P16 O58'
_cell_volume   1179.15901157
_cell_formula_units_Z   2
loop_
 _symmetry_equiv_pos_site_id
 _symmetry_equiv_pos_as_xyz
  1  'x, y, z'
loop_
 _atom_site_type_symbol
 _atom_site_label
 _atom_site_symmetry_multiplicity
 _atom_site_fract_x
 _atom_site_fract_y
 _atom_site_fract_z
 _atom_site_occupancy
  Li  Li0  1  0.320974  0.905981  0.060157  1
  Li  Li1  1  0.674758  0.233466  0.440449  1
  Li  Li2  1  0.325648  0.768938  0.560852  1
  Li  Li3  1  0.085291  0.232182  0.942345  1
  Li  Li4  1  0.933575  0.987327  0.990597  1
  Li  Li5  1  0.005051  0.003801  0.499772  1
  V  V6  1  0.565630  0.438231  0.244143  1
  V  V7  1  0.436231  0.560192  0.758380  1
  V  V8  1  0.567710  0.998385  0.748698  1
  V  V9  1  0.438288  0.003723  0.253856  1
  V  V10  1  0.000738  0.563581  0.253769  1
  V  V11  1  0.998602  0.442283  0.742106  1
  P  P12  1  0.919181  0.778397  0.838951  1
  P  P13  1  0.784765  0.913860  0.339806  1
  P  P14  1  0.919444  0.294409  0.337144  1
  P  P15  1  0.665412  0.671777  0.133625  1
  P  P16  1  0.657004  0.670601  0.634757  1
  P  P17  1  0.789888  0.298323  0.836933  1
  P  P18  1  0.684757  0.227811  0.656907  1
  P  P19  1  0.318487  0.911736  0.844277  1
  P  P20  1  0.689220  0.085561  0.157015  1
  P  P21  1  0.318677  0.772502  0.344866  1
  P  P22  1  0.212515  0.700427  0.166417  1
  P  P23  1  0.339664  0.334277  0.366559  1
  P  P24  1  0.332181  0.326521  0.865623  1
  P  P25  1  0.084747  0.704551  0.657582  1
  P  P26  1  0.217748  0.086136  0.663081  1
  P  P27  1  0.087998  0.226192  0.156925  1
  O  O28  1  0.011293  0.805635  0.573538  1
  O  O29  1  0.917755  0.737256  0.336737  1
  O  O30  1  0.774046  0.013100  0.071312  1
  O  O31  1  0.742557  0.912473  0.828439  1
  O  O32  1  0.925503  0.616388  0.823762  1
  O  O33  1  0.813050  0.665173  0.182258  1
  O  O34  1  0.927846  0.450877  0.329158  1
  O  O35  1  0.017896  0.223748  0.064812  1
  O  O36  1  0.921323  0.344036  0.833868  1
  O  O37  1  0.663945  0.814680  0.678111  1
  O  O38  1  0.623317  0.917729  0.328224  1
  O  O39  1  0.810048  0.520649  0.678177  1
  O  O40  1  0.662942  0.668352  0.030645  1
  O  O41  1  0.647030  0.672299  0.531720  1
  O  O42  1  0.665153  0.520161  0.178250  1
  O  O43  1  0.475334  0.907369  0.826704  1
  O  O44  1  0.515097  0.817130  0.173910  1
  O  O45  1  0.741626  0.339518  0.332077  1
  O  O46  1  0.805808  0.208294  0.739770  1
  O  O47  1  0.756273  0.221665  0.565453  1
  O  O48  1  0.815225  0.190755  0.917224  1
  O  O49  1  0.624239  0.455195  0.829341  1
  O  O50  1  0.511957  0.670060  0.679782  1
  O  O51  1  0.647752  0.262509  0.168837  1
  O  O52  1  0.472991  0.615020  0.326887  1
  O  O53  1  0.351326  0.912731  0.328328  1
  O  O54  1  0.802720  0.994213  0.245758  1
  O  O55  1  0.797075  0.003499  0.419892  1
  O  O56  1  0.196044  0.996878  0.585866  1
  O  O57  1  0.653142  0.086845  0.669652  1
  O  O58  1  0.529004  0.384287  0.677005  1
  O  O59  1  0.346009  0.739675  0.836044  1
  O  O60  1  0.488839  0.331362  0.326700  1
  O  O61  1  0.375203  0.541536  0.174787  1
  O  O62  1  0.199461  0.805512  0.086587  1
  O  O63  1  0.245879  0.785359  0.436581  1
  O  O64  1  0.196118  0.792103  0.263129  1
  O  O65  1  0.262507  0.657177  0.667617  1
  O  O66  1  0.476888  0.184307  0.818511  1
  O  O67  1  0.534501  0.081838  0.172293  1
  O  O68  1  0.333015  0.479004  0.824035  1
  O  O69  1  0.331115  0.321214  0.968592  1
  O  O70  1  0.345782  0.323159  0.469541  1
  O  O71  1  0.189526  0.482126  0.322759  1
  O  O72  1  0.379177  0.077928  0.670393  1
  O  O73  1  0.337695  0.187327  0.318414  1
  O  O74  1  0.077850  0.661378  0.169474  1
  O  O75  1  0.003285  0.802690  0.749584  1
  O  O76  1  0.994435  0.794764  0.924517  1
  O  O77  1  0.076049  0.546831  0.668365  1
  O  O78  1  0.183573  0.329253  0.820663  1
  O  O79  1  0.088009  0.383268  0.177286  1
  O  O80  1  0.260687  0.082754  0.165275  1
  O  O81  1  0.241950  0.990095  0.933403  1
  O  O82  1  0.197522  0.012611  0.760773  1
  O  O83  1  0.083055  0.263585  0.665214  1
  O  O84  1  0.998097  0.186114  0.418175  1
  O  O85  1  0.993005  0.202869  0.240194  1
