# generated using pymatgen
data_LiCoPO4
_symmetry_space_group_name_H-M   'P 1'
_cell_length_a   14.96660658
_cell_length_b   14.96498280
_cell_length_c   7.89774201
_cell_angle_alpha   90.01072725
_cell_angle_beta   90.00367675
_cell_angle_gamma   119.98243518
_symmetry_Int_Tables_number   1
_chemical_formula_structural   LiCoPO4
_chemical_formula_sum   'Li18 Co18 P18 O72'
_cell_volume   1532.18062099
_cell_formula_units_Z   18
loop_
 _symmetry_equiv_pos_site_id
 _symmetry_equiv_pos_as_xyz
  1  'x, y, z'
loop_
 _atom_site_type_symbol
 _atom_site_label
 _atom_site_symmetry_multiplicity
 _atom_site_fract_x
 _atom_site_fract_y
 _atom_site_fract_z
 _atom_site_occupancy
  Li  Li0  1  0.009818  0.690472  0.497364  1
  Li  Li1  1  0.339101  0.989200  0.572067  1
  Li  Li2  1  0.010804  0.349884  0.572073  1
  Li  Li3  1  0.333295  0.666630  0.663362  1
  Li  Li4  1  0.000243  0.000114  0.909389  1
  Li  Li5  1  0.999907  0.999863  0.409047  1
  Li  Li6  1  0.333340  0.666635  0.162418  1
  Li  Li7  1  0.309501  0.319494  0.497521  1
  Li  Li8  1  0.349891  0.339103  0.072070  1
  Li  Li9  1  0.680473  0.990080  0.497319  1
  Li  Li10  1  0.319494  0.009984  0.997486  1
  Li  Li11  1  0.650147  0.660815  0.571892  1
  Li  Li12  1  0.690561  0.680448  0.997868  1
  Li  Li13  1  0.666647  0.333310  0.163383  1
  Li  Li14  1  0.666660  0.333289  0.662433  1
  Li  Li15  1  0.989057  0.650076  0.072248  1
  Li  Li16  1  0.660856  0.010844  0.072186  1
  Li  Li17  1  0.990023  0.309501  0.997554  1
  Co  Co18  1  0.091114  0.870727  0.812354  1
  Co  Co19  1  0.113873  0.577626  0.750239  1
  Co  Co20  1  0.246783  0.798780  0.262254  1
  Co  Co21  1  0.201209  0.447944  0.262256  1
  Co  Co22  1  0.463704  0.886052  0.750227  1
  Co  Co23  1  0.129234  0.220411  0.812452  1
  Co  Co24  1  0.422339  0.536270  0.750269  1
  Co  Co25  1  0.220436  0.091187  0.312502  1
  Co  Co26  1  0.552120  0.753279  0.262329  1
  Co  Co27  1  0.447917  0.246715  0.762222  1
  Co  Co28  1  0.779525  0.908849  0.812490  1
  Co  Co29  1  0.577691  0.463747  0.250315  1
  Co  Co30  1  0.871107  0.780032  0.312675  1
  Co  Co31  1  0.536281  0.113924  0.250272  1
  Co  Co32  1  0.798766  0.551997  0.762211  1
  Co  Co33  1  0.753257  0.201175  0.762312  1
  Co  Co34  1  0.886076  0.422350  0.250293  1
  Co  Co35  1  0.908873  0.129286  0.312475  1
  P  P36  1  0.095091  0.870730  0.209277  1
  P  P37  1  0.107477  0.576075  0.359766  1
  P  P38  1  0.240346  0.796867  0.861851  1
  P  P39  1  0.203134  0.443600  0.861937  1
  P  P40  1  0.468636  0.892532  0.359726  1
  P  P41  1  0.129201  0.224204  0.209684  1
  P  P42  1  0.423809  0.531340  0.359767  1
  P  P43  1  0.556375  0.759524  0.861897  1
  P  P44  1  0.224249  0.094896  0.709727  1
  P  P45  1  0.775785  0.905212  0.209642  1
  P  P46  1  0.443587  0.240488  0.361967  1
  P  P47  1  0.576108  0.468437  0.859686  1
  P  P48  1  0.870837  0.775812  0.709846  1
  P  P49  1  0.531536  0.107689  0.859761  1
  P  P50  1  0.796918  0.556377  0.361955  1
  P  P51  1  0.759548  0.203148  0.362004  1
  P  P52  1  0.892360  0.423790  0.859753  1
  P  P53  1  0.905022  0.129297  0.709602  1
  O  O54  1  0.019129  0.894824  0.307499  1
  O  O55  1  0.043257  0.813316  0.042486  1
  O  O56  1  0.196262  0.973531  0.168087  1
  O  O57  1  0.117783  0.798862  0.321798  1
  O  O58  1  0.014170  0.557931  0.249746  1
  O  O59  1  0.220993  0.873770  0.756117  1
  O  O60  1  0.138684  0.694424  0.897485  1
  O  O61  1  0.105032  0.630442  0.526198  1
  O  O62  1  0.292404  0.852579  0.030488  1
  O  O63  1  0.209493  0.649431  0.263733  1
  O  O64  1  0.104714  0.472642  0.401136  1
  O  O65  1  0.367951  0.895318  0.401158  1
  O  O66  1  0.026467  0.222706  0.168160  1
  O  O67  1  0.316038  0.773414  0.761092  1
  O  O68  1  0.226589  0.542647  0.761225  1
  O  O69  1  0.147468  0.439869  0.030441  1
  O  O70  1  0.126209  0.347268  0.756030  1
  O  O71  1  0.201085  0.318861  0.321881  1
  O  O72  1  0.543749  0.985774  0.249814  1
  O  O73  1  0.525404  0.894962  0.526203  1
  O  O74  1  0.186695  0.229860  0.042557  1
  O  O75  1  0.105261  0.124284  0.307712  1
  O  O76  1  0.439953  0.790464  0.263705  1
  O  O77  1  0.350522  0.560017  0.263810  1
  O  O78  1  0.305634  0.444295  0.897499  1
  O  O79  1  0.222695  0.196251  0.668090  1
  O  O80  1  0.555677  0.861318  0.897593  1
  O  O81  1  0.124429  0.019047  0.807669  1
  O  O82  1  0.457348  0.683973  0.761204  1
  O  O83  1  0.369593  0.474628  0.526178  1
  O  O84  1  0.229868  0.043110  0.542470  1
  O  O85  1  0.560051  0.707509  0.030553  1
  O  O86  1  0.527352  0.632057  0.401185  1
  O  O87  1  0.442053  0.456192  0.249750  1
  O  O88  1  0.347219  0.221030  0.256088  1
  O  O89  1  0.681111  0.882312  0.321916  1
  O  O90  1  0.318880  0.117760  0.821771  1
  O  O91  1  0.652703  0.778890  0.756223  1
  O  O92  1  0.557901  0.543782  0.749699  1
  O  O93  1  0.472705  0.367970  0.901112  1
  O  O94  1  0.439842  0.292411  0.530438  1
  O  O95  1  0.770134  0.956866  0.042697  1
  O  O96  1  0.630430  0.525375  0.026280  1
  O  O97  1  0.542587  0.316005  0.261223  1
  O  O98  1  0.875634  0.980928  0.307673  1
  O  O99  1  0.444265  0.138629  0.397536  1
  O  O100  1  0.777215  0.803648  0.168322  1
  O  O101  1  0.694449  0.555802  0.397480  1
  O  O102  1  0.649439  0.439966  0.763760  1
  O  O103  1  0.559997  0.209442  0.763829  1
  O  O104  1  0.894743  0.875705  0.807746  1
  O  O105  1  0.813243  0.770120  0.542481  1
  O  O106  1  0.474606  0.105041  0.026236  1
  O  O107  1  0.456157  0.014099  0.749656  1
  O  O108  1  0.798923  0.681138  0.821820  1
  O  O109  1  0.873920  0.652881  0.256043  1
  O  O110  1  0.852560  0.560169  0.530387  1
  O  O111  1  0.773372  0.457354  0.261316  1
  O  O112  1  0.683926  0.226572  0.261201  1
  O  O113  1  0.973483  0.777278  0.668038  1
  O  O114  1  0.632032  0.104705  0.901113  1
  O  O115  1  0.895260  0.527349  0.901189  1
  O  O116  1  0.790557  0.350546  0.763821  1
  O  O117  1  0.707594  0.147496  0.530447  1
  O  O118  1  0.894983  0.369574  0.026214  1
  O  O119  1  0.861312  0.305623  0.397564  1
  O  O120  1  0.778965  0.126189  0.256129  1
  O  O121  1  0.985859  0.442056  0.749714  1
  O  O122  1  0.882258  0.201125  0.821822  1
  O  O123  1  0.803761  0.026473  0.668030  1
  O  O124  1  0.956808  0.186714  0.542581  1
  O  O125  1  0.981001  0.105290  0.807701  1
