# generated using pymatgen
data_Li4NbFe(WO6)2
_symmetry_space_group_name_H-M   'P 1'
_cell_length_a   5.48902140
_cell_length_b   10.98647169
_cell_length_c   9.68795835
_cell_angle_alpha   28.17402259
_cell_angle_beta   51.22939374
_cell_angle_gamma   56.44385677
_symmetry_Int_Tables_number   1
_chemical_formula_structural   Li4NbFe(WO6)2
_chemical_formula_sum   'Li4 Nb1 Fe1 W2 O12'
_cell_volume   215.06535745
_cell_formula_units_Z   1
loop_
 _symmetry_equiv_pos_site_id
 _symmetry_equiv_pos_as_xyz
  1  'x, y, z'
loop_
 _atom_site_type_symbol
 _atom_site_label
 _atom_site_symmetry_multiplicity
 _atom_site_fract_x
 _atom_site_fract_y
 _atom_site_fract_z
 _atom_site_occupancy
  Li  Li0  1  0.318865  0.000085  0.270777  1
  Li  Li1  1  0.256202  0.497881  0.307588  1
  Li  Li2  1  0.772702  0.995426  0.809999  1
  Li  Li3  1  0.775755  0.504460  0.744032  1
  Nb  Nb4  1  0.004916  0.501591  0.011388  1
  Fe  Fe5  1  0.008449  0.998844  0.002499  1
  W  W6  1  0.519884  0.996792  0.502692  1
  W  W7  1  0.488453  0.505028  0.505009  1
  O  O8  1  0.375259  0.307300  0.123355  1
  O  O9  1  0.249913  0.120296  0.613300  1
  O  O10  1  0.142382  0.319617  0.725964  1
  O  O11  1  0.874129  0.181195  0.249283  1
  O  O12  1  0.371985  0.790831  0.138374  1
  O  O13  1  0.742493  0.374389  0.373351  1
  O  O14  1  0.234919  0.622713  0.625210  1
  O  O15  1  0.629056  0.198471  0.850671  1
  O  O16  1  0.124006  0.820734  0.734495  1
  O  O17  1  0.851625  0.695293  0.238674  1
  O  O18  1  0.712004  0.884727  0.373389  1
  O  O19  1  0.618201  0.684324  0.871147  1
