# generated using pymatgen
data_Si2O5
_symmetry_space_group_name_H-M   'P 1'
_cell_length_a   7.55860122
_cell_length_b   7.55860122
_cell_length_c   7.55860122
_cell_angle_alpha   129.56952475
_cell_angle_beta   66.42885248
_cell_angle_gamma   139.71817481
_symmetry_Int_Tables_number   1
_chemical_formula_structural   Si2O5
_chemical_formula_sum   'Si4 O10'
_cell_volume   211.99267218
_cell_formula_units_Z   2
loop_
 _symmetry_equiv_pos_site_id
 _symmetry_equiv_pos_as_xyz
  1  'x, y, z'
loop_
 _atom_site_type_symbol
 _atom_site_label
 _atom_site_symmetry_multiplicity
 _atom_site_fract_x
 _atom_site_fract_y
 _atom_site_fract_z
 _atom_site_occupancy
  Si  Si0  1  0.573594  0.067146  0.722992  1
  Si  Si1  1  0.344154  0.850601  0.277008  1
  Si  Si2  1  0.844154  0.067146  0.993553  1
  Si  Si3  1  0.073594  0.850601  0.006447  1
  O  O4  1  0.482389  0.982389  0.500000  1
  O  O5  1  0.982389  0.982389  0.000000  1
  O  O6  1  0.313592  0.902759  0.850631  1
  O  O7  1  0.052126  0.462960  0.149369  1
  O  O8  1  0.552126  0.902759  0.089167  1
  O  O9  1  0.813592  0.462960  0.910833  1
  O  O10  1  0.683788  0.893211  0.593957  1
  O  O11  1  0.299256  0.089832  0.406043  1
  O  O12  1  0.799256  0.893211  0.709423  1
  O  O13  1  0.183788  0.089832  0.290577  1
