# generated using pymatgen
data_Li5V3P8O29
_symmetry_space_group_name_H-M   'P 1'
_cell_length_a   9.80417009
_cell_length_b   9.81731545
_cell_length_c   13.91527931
_cell_angle_alpha   89.97596616
_cell_angle_beta   90.05776824
_cell_angle_gamma   59.96527626
_symmetry_Int_Tables_number   1
_chemical_formula_structural   Li5V3P8O29
_chemical_formula_sum   'Li10 V6 P16 O58'
_cell_volume   1159.50762425
_cell_formula_units_Z   2
loop_
 _symmetry_equiv_pos_site_id
 _symmetry_equiv_pos_as_xyz
  1  'x, y, z'
loop_
 _atom_site_type_symbol
 _atom_site_label
 _atom_site_symmetry_multiplicity
 _atom_site_fract_x
 _atom_site_fract_y
 _atom_site_fract_z
 _atom_site_occupancy
  Li  Li0  1  0.773474  0.903188  0.556871  1
  Li  Li1  1  0.905410  0.323115  0.557973  1
  Li  Li2  1  0.770226  0.324710  0.062447  1
  Li  Li3  1  0.323226  0.903432  0.062435  1
  Li  Li4  1  0.676779  0.226634  0.437613  1
  Li  Li5  1  0.317753  0.771842  0.558887  1
  Li  Li6  1  0.681930  0.089952  0.941178  1
  Li  Li7  1  0.226550  0.676685  0.943116  1
  Li  Li8  1  0.229776  0.094674  0.437523  1
  Li  Li9  1  0.094600  0.228559  0.942048  1
  V  V10  1  0.566111  0.433665  0.251802  1
  V  V11  1  0.431282  0.568194  0.749224  1
  V  V12  1  0.568691  0.999477  0.750797  1
  V  V13  1  0.433818  0.999678  0.247856  1
  V  V14  1  -0.000037  0.572833  0.250068  1
  V  V15  1  0.999970  0.437160  0.749976  1
  P  P16  1  0.915916  0.770093  0.844120  1
  P  P17  1  0.769503  0.911698  0.340843  1
  P  P18  1  0.913418  0.319863  0.342257  1
  P  P19  1  0.669021  0.663768  0.126922  1
  P  P20  1  0.666162  0.667471  0.626904  1
  P  P21  1  0.768766  0.320320  0.841938  1
  P  P22  1  0.680559  0.231717  0.657917  1
  P  P23  1  0.319410  0.912271  0.842105  1
  P  P24  1  0.682138  0.088185  0.157019  1
  P  P25  1  0.318175  0.770095  0.342934  1
  P  P26  1  0.230483  0.681375  0.159236  1
  P  P27  1  0.330998  0.332504  0.373104  1
  P  P28  1  0.333764  0.333658  0.873103  1
  P  P29  1  0.083953  0.686131  0.655919  1
  P  P30  1  0.231190  0.089126  0.658066  1
  P  P31  1  0.086468  0.233408  0.157811  1
  O  O32  1  0.992449  0.764874  0.568701  1
  O  O33  1  0.916598  0.744866  0.336086  1
  O  O34  1  0.755263  0.007557  0.065659  1
  O  O35  1  0.748096  0.915378  0.841427  1
  O  O36  1  0.905218  0.618033  0.823017  1
  O  O37  1  0.815746  0.665193  0.174650  1
  O  O38  1  0.905075  0.478296  0.324324  1
  O  O39  1  0.997044  0.243653  0.067676  1
  O  O40  1  0.918998  0.336456  0.839581  1
  O  O41  1  0.675102  0.811926  0.667068  1
  O  O42  1  0.620948  0.900809  0.324815  1
  O  O43  1  0.816481  0.511957  0.670204  1
  O  O44  1  0.671082  0.663275  0.019905  1
  O  O45  1  0.671935  0.659806  0.519811  1
  O  O46  1  0.674476  0.510843  0.166944  1
  O  O47  1  0.479633  0.901595  0.824263  1
  O  O48  1  0.514577  0.812893  0.165687  1
  O  O49  1  0.748786  0.335401  0.342882  1
  O  O50  1  0.791062  0.209419  0.749916  1
  O  O51  1  0.758769  0.241909  0.567602  1
  O  O52  1  0.761377  0.240508  0.932229  1
  O  O53  1  0.620631  0.479566  0.823900  1
  O  O54  1  0.513013  0.673851  0.667265  1
  O  O55  1  0.661707  0.255894  0.162006  1
  O  O56  1  0.478791  0.619003  0.323317  1
  O  O57  1  0.338732  0.917519  0.337695  1
  O  O58  1  0.790726  0.001567  0.249622  1
  O  O59  1  0.762144  0.998796  0.431141  1
  O  O60  1  0.238634  0.001838  0.567845  1
  O  O61  1  0.663531  0.083016  0.659105  1
  O  O62  1  0.520347  0.381253  0.675772  1
  O  O63  1  0.336470  0.746543  0.840916  1
  O  O64  1  0.485411  0.327969  0.334435  1
  O  O65  1  0.379078  0.521765  0.175189  1
  O  O66  1  0.237747  0.761088  0.068837  1
  O  O67  1  0.244853  0.763051  0.434282  1
  O  O68  1  0.209283  0.792300  0.250387  1
  O  O69  1  0.251872  0.663483  0.658606  1
  O  O70  1  0.486838  0.186937  0.832718  1
  O  O71  1  0.521391  0.097405  0.176722  1
  O  O72  1  0.324732  0.487151  0.832979  1
  O  O73  1  0.328043  0.331678  0.980236  1
  O  O74  1  0.328466  0.333958  0.480081  1
  O  O75  1  0.184383  0.480832  0.325284  1
  O  O76  1  0.379383  0.100173  0.676089  1
  O  O77  1  0.325483  0.185641  0.332809  1
  O  O78  1  0.083567  0.661418  0.163980  1
  O  O79  1  0.000016  0.791318  0.750020  1
  O  O80  1  0.007611  0.757296  0.931375  1
  O  O81  1  0.094610  0.523270  0.677020  1
  O  O82  1  0.183488  0.328425  0.829848  1
  O  O83  1  0.094891  0.383381  0.175623  1
  O  O84  1  0.251470  0.084268  0.157067  1
  O  O85  1  0.241281  0.000661  0.932433  1
  O  O86  1  0.208913  0.000511  0.750131  1
  O  O87  1  0.080949  0.255443  0.660398  1
  O  O88  1  0.003043  0.240741  0.432378  1
  O  O89  1  0.000051  0.209343  0.250032  1
