# generated using pymatgen
data_LiMnPO4
_symmetry_space_group_name_H-M   'P 1'
_cell_length_a   9.41443699
_cell_length_b   6.41680669
_cell_length_c   5.06629734
_cell_angle_alpha   90.00000000
_cell_angle_beta   90.00000000
_cell_angle_gamma   90.00000000
_symmetry_Int_Tables_number   1
_chemical_formula_structural   LiMnPO4
_chemical_formula_sum   'Li4 Mn4 P4 O16'
_cell_volume   306.05817486
_cell_formula_units_Z   4
loop_
 _symmetry_equiv_pos_site_id
 _symmetry_equiv_pos_as_xyz
  1  'x, y, z'
loop_
 _atom_site_type_symbol
 _atom_site_label
 _atom_site_symmetry_multiplicity
 _atom_site_fract_x
 _atom_site_fract_y
 _atom_site_fract_z
 _atom_site_occupancy
  Li  Li0  1  0.000000  0.000000  0.000000  1
  Li  Li1  1  0.000000  0.500000  0.000000  1
  Li  Li2  1  0.500000  0.000000  0.500000  1
  Li  Li3  1  0.500000  0.500000  0.500000  1
  Mn  Mn4  1  0.148273  0.750000  0.473533  1
  Mn  Mn5  1  0.351727  0.250000  0.973533  1
  Mn  Mn6  1  0.648273  0.750000  0.026467  1
  Mn  Mn7  1  0.851727  0.250000  0.526467  1
  P  P8  1  0.180803  0.250000  0.461083  1
  P  P9  1  0.319197  0.750000  0.961083  1
  P  P10  1  0.680803  0.250000  0.038917  1
  P  P11  1  0.819197  0.750000  0.538917  1
  O  O12  1  0.150838  0.250000  0.762548  1
  O  O13  1  0.112430  0.054947  0.330127  1
  O  O14  1  0.112430  0.445053  0.330127  1
  O  O15  1  0.155814  0.750000  0.898828  1
  O  O16  1  0.344186  0.250000  0.398828  1
  O  O17  1  0.387570  0.945053  0.830127  1
  O  O18  1  0.387570  0.554947  0.830127  1
  O  O19  1  0.349162  0.750000  0.262548  1
  O  O20  1  0.650838  0.250000  0.737452  1
  O  O21  1  0.612429  0.054947  0.169873  1
  O  O22  1  0.612429  0.445053  0.169873  1
  O  O23  1  0.655814  0.750000  0.601172  1
  O  O24  1  0.844186  0.250000  0.101172  1
  O  O25  1  0.887571  0.554947  0.669873  1
  O  O26  1  0.887571  0.945053  0.669873  1
  O  O27  1  0.849162  0.750000  0.237452  1
