# generated using pymatgen
data_Li2Cr2(PO4)3
_symmetry_space_group_name_H-M   'P 1'
_cell_length_a   8.93514215
_cell_length_b   8.31952035
_cell_length_c   8.36566212
_cell_angle_alpha   60.34550584
_cell_angle_beta   90.24299879
_cell_angle_gamma   62.01696018
_symmetry_Int_Tables_number   1
_chemical_formula_structural   Li2Cr2(PO4)3
_chemical_formula_sum   'Li4 Cr4 P6 O24'
_cell_volume   454.03317120
_cell_formula_units_Z   2
loop_
 _symmetry_equiv_pos_site_id
 _symmetry_equiv_pos_as_xyz
  1  'x, y, z'
loop_
 _atom_site_type_symbol
 _atom_site_label
 _atom_site_symmetry_multiplicity
 _atom_site_fract_x
 _atom_site_fract_y
 _atom_site_fract_z
 _atom_site_occupancy
  Li  Li0  1  0.856131  0.812960  0.923661  1
  Li  Li1  1  0.865217  0.053956  0.262943  1
  Li  Li2  1  0.134783  0.946044  0.737057  1
  Li  Li3  1  0.143869  0.187040  0.076339  1
  Cr  Cr4  1  0.949907  0.696500  0.648995  1
  Cr  Cr5  1  0.568625  0.287684  0.852338  1
  Cr  Cr6  1  0.431375  0.712316  0.147662  1
  Cr  Cr7  1  0.050093  0.303500  0.351005  1
  P  P8  1  0.750594  0.497151  0.963836  1
  P  P9  1  0.750435  0.214119  0.536523  1
  P  P10  1  0.748045  0.785085  0.252755  1
  P  P11  1  0.251955  0.214915  0.747245  1
  P  P12  1  0.249565  0.785881  0.463477  1
  P  P13  1  0.249406  0.502849  0.036164  1
  O  O14  1  0.799797  0.662368  0.829398  1
  O  O15  1  0.726048  0.379634  0.881332  1
  O  O16  1  0.909133  0.246649  0.532961  1
  O  O17  1  0.735144  0.132598  0.744113  1
  O  O18  1  0.580350  0.618251  0.004066  1
  O  O19  1  0.801415  0.026768  0.504862  1
  O  O20  1  0.804636  0.705126  0.463782  1
  O  O21  1  0.889495  0.624332  0.205318  1
  O  O22  1  0.911938  0.301182  0.157759  1
  O  O23  1  0.430101  0.186220  0.802485  1
  O  O24  1  0.263971  0.994326  0.883728  1
  O  O25  1  0.576271  0.418803  0.385645  1
  O  O26  1  0.423729  0.581197  0.614355  1
  O  O27  1  0.736029  0.005674  0.116272  1
  O  O28  1  0.569899  0.813780  0.197515  1
  O  O29  1  0.088062  0.698818  0.842241  1
  O  O30  1  0.110505  0.375668  0.794682  1
  O  O31  1  0.195364  0.294874  0.536218  1
  O  O32  1  0.198585  0.973232  0.495138  1
  O  O33  1  0.419650  0.381749  0.995934  1
  O  O34  1  0.264856  0.867402  0.255887  1
  O  O35  1  0.090867  0.753351  0.467039  1
  O  O36  1  0.273953  0.620366  0.118668  1
  O  O37  1  0.200203  0.337632  0.170602  1
