# generated using pymatgen
data_Na6V2As(CO4)4
_symmetry_space_group_name_H-M   'P 1'
_cell_length_a   10.04648284
_cell_length_b   10.04648245
_cell_length_c   10.04648256
_cell_angle_alpha   90.00000242
_cell_angle_beta   60.00000248
_cell_angle_gamma   60.00000207
_symmetry_Int_Tables_number   1
_chemical_formula_structural   Na6V2As(CO4)4
_chemical_formula_sum   'Na12 V4 As2 C8 O32'
_cell_volume   717.01317189
_cell_formula_units_Z   2
loop_
 _symmetry_equiv_pos_site_id
 _symmetry_equiv_pos_as_xyz
  1  'x, y, z'
loop_
 _atom_site_type_symbol
 _atom_site_label
 _atom_site_symmetry_multiplicity
 _atom_site_fract_x
 _atom_site_fract_y
 _atom_site_fract_z
 _atom_site_occupancy
  Na  Na0  1  0.750000  0.666326  0.916326  1
  Na  Na1  1  0.667347  0.916326  0.666326  1
  Na  Na2  1  0.750000  0.666326  0.333674  1
  Na  Na3  1  0.750000  0.083674  0.916326  1
  Na  Na4  1  0.832653  0.333674  0.083674  1
  Na  Na5  1  0.250000  0.916326  0.666326  1
  Na  Na6  1  0.167348  0.666326  0.916326  1
  Na  Na7  1  0.750000  0.083674  0.333674  1
  Na  Na8  1  0.250000  0.333674  0.666326  1
  Na  Na9  1  0.250000  0.916326  0.083674  1
  Na  Na10  1  0.332653  0.083674  0.333674  1
  Na  Na11  1  0.250000  0.333674  0.083674  1
  V  V12  1  0.500000  0.500000  0.500000  1
  V  V13  1  0.500000  0.500000  0.000000  1
  V  V14  1  0.000000  0.500000  0.500000  1
  V  V15  1  0.000000  0.000000  0.500000  1
  As  As16  1  0.750000  0.875000  0.125000  1
  As  As17  1  0.250000  0.125000  0.875000  1
  C  C18  1  0.928527  0.285737  0.714263  1
  C  C19  1  0.571473  0.642789  0.714263  1
  C  C20  1  0.928527  0.285737  0.357211  1
  C  C21  1  0.571473  0.285737  0.714263  1
  C  C22  1  0.428526  0.714263  0.285737  1
  C  C23  1  0.071474  0.714263  0.642789  1
  C  C24  1  0.428526  0.357211  0.285737  1
  C  C25  1  0.071474  0.714263  0.285737  1
  O  O26  1  0.955788  0.855319  0.645147  1
  O  O27  1  0.955788  0.688893  0.399066  1
  O  O28  1  0.789828  0.399066  0.855319  1
  O  O29  1  0.710172  0.645147  0.688893  1
  O  O30  1  0.956254  0.144681  0.688893  1
  O  O31  1  0.890270  0.945135  0.054865  1
  O  O32  1  0.956254  0.399066  0.354853  1
  O  O33  1  0.890270  0.664595  0.054865  1
  O  O34  1  0.609730  0.945135  0.335405  1
  O  O35  1  0.455788  0.645147  0.855319  1
  O  O36  1  0.543746  0.645147  0.600935  1
  O  O37  1  0.609730  0.945135  0.054865  1
  O  O38  1  0.543746  0.311107  0.855319  1
  O  O39  1  0.789828  0.311107  0.354853  1
  O  O40  1  0.710172  0.144681  0.600935  1
  O  O41  1  0.544212  0.600935  0.311107  1
  O  O42  1  0.455788  0.399066  0.688893  1
  O  O43  1  0.289828  0.855319  0.399066  1
  O  O44  1  0.210172  0.688893  0.645147  1
  O  O45  1  0.456254  0.688893  0.144681  1
  O  O46  1  0.390270  0.054865  0.945135  1
  O  O47  1  0.456254  0.354853  0.399066  1
  O  O48  1  0.544212  0.354853  0.144681  1
  O  O49  1  0.109730  0.335405  0.945135  1
  O  O50  1  0.390270  0.054865  0.664595  1
  O  O51  1  0.043746  0.600935  0.645147  1
  O  O52  1  0.109730  0.054865  0.945135  1
  O  O53  1  0.043746  0.855319  0.311107  1
  O  O54  1  0.289828  0.354853  0.311107  1
  O  O55  1  0.210172  0.600935  0.144681  1
  O  O56  1  0.044212  0.311107  0.600935  1
  O  O57  1  0.044212  0.144681  0.354853  1
