# generated using pymatgen
data_Li5Mn6(BO3)6
_symmetry_space_group_name_H-M   'P 1'
_cell_length_a   8.23058579
_cell_length_b   8.85262438
_cell_length_c   6.37070816
_cell_angle_alpha   68.81342675
_cell_angle_beta   89.88104075
_cell_angle_gamma   62.79666551
_symmetry_Int_Tables_number   1
_chemical_formula_structural   Li5Mn6(BO3)6
_chemical_formula_sum   'Li5 Mn6 B6 O18'
_cell_volume   377.41400593
_cell_formula_units_Z   1
loop_
 _symmetry_equiv_pos_site_id
 _symmetry_equiv_pos_as_xyz
  1  'x, y, z'
loop_
 _atom_site_type_symbol
 _atom_site_label
 _atom_site_symmetry_multiplicity
 _atom_site_fract_x
 _atom_site_fract_y
 _atom_site_fract_z
 _atom_site_occupancy
  Li  Li0  1  0.984721  0.718273  0.390822  1
  Li  Li1  1  0.980421  0.717512  0.891661  1
  Li  Li2  1  0.722682  0.295726  0.602214  1
  Li  Li3  1  0.300774  0.981385  0.759615  1
  Li  Li4  1  0.299486  0.980970  0.259533  1
  Mn  Mn5  1  0.368456  0.618746  0.692523  1
  Mn  Mn6  1  0.368869  0.618096  0.189407  1
  Mn  Mn7  1  0.631163  0.020959  0.992643  1
  Mn  Mn8  1  0.632912  0.021254  0.485376  1
  Mn  Mn9  1  0.000034  0.362401  0.316591  1
  Mn  Mn10  1  0.000006  0.362594  0.820519  1
  B  B11  1  0.667457  0.668314  0.415471  1
  B  B12  1  0.659782  0.680928  0.909908  1
  B  B13  1  0.007799  0.992306  0.508415  1
  B  B14  1  0.331622  0.335580  0.582138  1
  B  B15  1  0.007110  0.992450  0.999480  1
  B  B16  1  0.324963  0.331300  0.084240  1
  O  O17  1  0.924278  0.879689  0.560024  1
  O  O18  1  0.922803  0.880547  0.060085  1
  O  O19  1  0.860422  0.559825  0.469734  1
  O  O20  1  0.850819  0.563611  0.967739  1
  O  O21  1  0.587147  0.872535  0.814462  1
  O  O22  1  0.583057  0.859934  0.320386  1
  O  O23  1  0.899237  0.181673  0.428618  1
  O  O24  1  0.899491  0.181839  0.888994  1
  O  O25  1  0.560217  0.579545  0.459245  1
  O  O26  1  0.535891  0.612559  0.944328  1
  O  O27  1  0.202324  0.908942  0.543631  1
  O  O28  1  0.201784  0.908296  0.048842  1
  O  O29  1  0.524951  0.227185  0.636263  1
  O  O30  1  0.515156  0.218139  0.139417  1
  O  O31  1  0.254041  0.530069  0.484746  1
  O  O32  1  0.250255  0.524904  0.989166  1
  O  O33  1  0.217524  0.256445  0.621885  1
  O  O34  1  0.205978  0.255512  0.121853  1
