# generated using pymatgen
data_Mn6OF11
_symmetry_space_group_name_H-M   'P 1'
_cell_length_a   4.96577071
_cell_length_b   5.88084877
_cell_length_c   16.21650184
_cell_angle_alpha   89.47645192
_cell_angle_beta   89.99503625
_cell_angle_gamma   91.30659498
_symmetry_Int_Tables_number   1
_chemical_formula_structural   Mn6OF11
_chemical_formula_sum   'Mn12 O2 F22'
_cell_volume   473.42671866
_cell_formula_units_Z   2
loop_
 _symmetry_equiv_pos_site_id
 _symmetry_equiv_pos_as_xyz
  1  'x, y, z'
loop_
 _atom_site_type_symbol
 _atom_site_label
 _atom_site_symmetry_multiplicity
 _atom_site_fract_x
 _atom_site_fract_y
 _atom_site_fract_z
 _atom_site_occupancy
  Mn  Mn0  1  0.014156  0.170348  0.406861  1
  Mn  Mn1  1  0.013025  0.855766  0.249915  1
  Mn  Mn2  1  0.017233  0.181019  0.088728  1
  Mn  Mn3  1  0.997919  0.169405  0.750427  1
  Mn  Mn4  1  0.003113  0.832950  0.581432  1
  Mn  Mn5  1  0.996288  0.829099  0.922069  1
  Mn  Mn6  1  0.507790  0.326688  0.581251  1
  Mn  Mn7  1  0.504920  0.328984  0.918294  1
  Mn  Mn8  1  0.469288  0.330188  0.247380  1
  Mn  Mn9  1  0.497619  0.646604  0.089221  1
  Mn  Mn10  1  0.495840  0.669174  0.414789  1
  Mn  Mn11  1  0.494123  0.671457  0.750078  1
  O  O12  1  0.218134  0.116167  0.298237  1
  O  O13  1  0.295633  0.387029  0.144764  1
  F  F14  1  0.233549  0.104007  0.641151  1
  F  F15  1  0.221979  0.108569  0.976096  1
  F  F16  1  0.226301  0.882119  0.138146  1
  F  F17  1  0.234850  0.897920  0.471966  1
  F  F18  1  0.225831  0.894017  0.809101  1
  F  F19  1  0.256319  0.618162  0.307244  1
  F  F20  1  0.264854  0.393848  0.472684  1
  F  F21  1  0.270137  0.602996  0.638982  1
  F  F22  1  0.269688  0.393976  0.809345  1
  F  F23  1  0.278781  0.606104  0.976495  1
  F  F24  1  0.744172  0.397125  0.027219  1
  F  F25  1  0.735200  0.614274  0.202772  1
  F  F26  1  0.695883  0.374298  0.352616  1
  F  F27  1  0.729136  0.607358  0.523500  1
  F  F28  1  0.732269  0.605658  0.859586  1
  F  F29  1  0.728848  0.395875  0.692764  1
  F  F30  1  0.767128  0.106183  0.193101  1
  F  F31  1  0.782465  0.112872  0.519513  1
  F  F32  1  0.780649  0.884375  0.358518  1
  F  F33  1  0.760992  0.886535  0.033974  1
  F  F34  1  0.768130  0.101612  0.861384  1
  F  F35  1  0.767760  0.897236  0.690395  1
