# generated using pymatgen
data_Li3V3P8O29
_symmetry_space_group_name_H-M   'P 1'
_cell_length_a   9.73103962
_cell_length_b   9.73095685
_cell_length_c   14.36812878
_cell_angle_alpha   90.98019484
_cell_angle_beta   90.98181301
_cell_angle_gamma   60.47926631
_symmetry_Int_Tables_number   1
_chemical_formula_structural   Li3V3P8O29
_chemical_formula_sum   'Li6 V6 P16 O58'
_cell_volume   1183.68875805
_cell_formula_units_Z   2
loop_
 _symmetry_equiv_pos_site_id
 _symmetry_equiv_pos_as_xyz
  1  'x, y, z'
loop_
 _atom_site_type_symbol
 _atom_site_label
 _atom_site_symmetry_multiplicity
 _atom_site_fract_x
 _atom_site_fract_y
 _atom_site_fract_z
 _atom_site_occupancy
  Li  Li0  1  0.772263  0.323135  0.057555  1
  Li  Li1  1  0.323167  0.772280  0.557566  1
  Li  Li2  1  0.679988  0.085749  0.939975  1
  Li  Li3  1  0.085718  0.680037  0.440044  1
  Li  Li4  1  0.077872  0.930009  0.990624  1
  Li  Li5  1  0.929562  0.077921  0.490386  1
  V  V6  1  0.563053  0.433911  0.252860  1
  V  V7  1  0.433921  0.563049  0.752886  1
  V  V8  1  0.562049  0.996766  0.746733  1
  V  V9  1  0.435097  0.001606  0.251296  1
  V  V10  1  0.996784  0.561992  0.246702  1
  V  V11  1  0.001630  0.435124  0.751265  1
  P  P12  1  0.917162  0.784055  0.837093  1
  P  P13  1  0.784070  0.917060  0.336958  1
  P  P14  1  0.916903  0.306461  0.342705  1
  P  P15  1  0.662331  0.665682  0.133372  1
  P  P16  1  0.665655  0.662338  0.633393  1
  P  P17  1  0.774629  0.316559  0.841678  1
  P  P18  1  0.688262  0.222451  0.662228  1
  P  P19  1  0.306351  0.916998  0.842757  1
  P  P20  1  0.685946  0.086858  0.155809  1
  P  P21  1  0.316574  0.774593  0.341691  1
  P  P22  1  0.222391  0.688415  0.162145  1
  P  P23  1  0.330064  0.337354  0.367218  1
  P  P24  1  0.337370  0.330102  0.867269  1
  P  P25  1  0.086842  0.686069  0.655882  1
  P  P26  1  0.215406  0.085584  0.661719  1
  P  P27  1  0.085562  0.215308  0.161759  1
  O  O28  1  0.018731  0.756871  0.564056  1
  O  O29  1  0.918001  0.739937  0.334494  1
  O  O30  1  0.756647  0.018844  0.063996  1
  O  O31  1  0.739974  0.917967  0.834544  1
  O  O32  1  0.924906  0.620523  0.827676  1
  O  O33  1  0.813156  0.662555  0.181721  1
  O  O34  1  0.924335  0.460490  0.329592  1
  O  O35  1  0.996846  0.205613  0.079124  1
  O  O36  1  0.916955  0.344734  0.835082  1
  O  O37  1  0.662603  0.813107  0.681751  1
  O  O38  1  0.620529  0.924918  0.327712  1
  O  O39  1  0.813138  0.521540  0.681136  1
  O  O40  1  0.669100  0.666930  0.030645  1
  O  O41  1  0.666731  0.669164  0.530648  1
  O  O42  1  0.667299  0.512931  0.170461  1
  O  O43  1  0.460546  0.924331  0.829569  1
  O  O44  1  0.521599  0.813077  0.181217  1
  O  O45  1  0.740653  0.348768  0.327422  1
  O  O46  1  0.791429  0.200923  0.756748  1
  O  O47  1  0.782431  0.207766  0.580006  1
  O  O48  1  0.768017  0.240946  0.930427  1
  O  O49  1  0.620425  0.475897  0.824200  1
  O  O50  1  0.512988  0.667226  0.670521  1
  O  O51  1  0.658470  0.258855  0.164865  1
  O  O52  1  0.475898  0.620409  0.324161  1
  O  O53  1  0.344740  0.916905  0.335159  1
  O  O54  1  0.803694  0.989492  0.239671  1
  O  O55  1  0.809238  0.999095  0.417366  1
  O  O56  1  0.205883  0.996814  0.579033  1
  O  O57  1  0.647383  0.087078  0.670500  1
  O  O58  1  0.533873  0.382248  0.674335  1
  O  O59  1  0.348770  0.740673  0.827445  1
  O  O60  1  0.477287  0.338279  0.319704  1
  O  O61  1  0.382276  0.533874  0.174299  1
  O  O62  1  0.207740  0.782446  0.080130  1
  O  O63  1  0.240998  0.767843  0.430446  1
  O  O64  1  0.200899  0.791411  0.256791  1
  O  O65  1  0.258844  0.658539  0.664876  1
  O  O66  1  0.488091  0.182960  0.827622  1
  O  O67  1  0.528449  0.088623  0.175543  1
  O  O68  1  0.338313  0.477310  0.819733  1
  O  O69  1  0.339847  0.338184  0.970081  1
  O  O70  1  0.338065  0.339805  0.470063  1
  O  O71  1  0.182978  0.488084  0.327565  1
  O  O72  1  0.377256  0.082483  0.674263  1
  O  O73  1  0.332134  0.188664  0.321509  1
  O  O74  1  0.087054  0.647368  0.170468  1
  O  O75  1  0.989596  0.803728  0.739783  1
  O  O76  1  0.999089  0.809088  0.917519  1
  O  O77  1  0.088626  0.528552  0.675548  1
  O  O78  1  0.188675  0.332179  0.821519  1
  O  O79  1  0.082451  0.377178  0.174241  1
  O  O80  1  0.259667  0.081273  0.167610  1
  O  O81  1  0.217073  0.984354  0.928877  1
  O  O82  1  0.195635  0.005905  0.754145  1
  O  O83  1  0.081389  0.259665  0.667551  1
  O  O84  1  0.984210  0.217017  0.429012  1
  O  O85  1  0.005989  0.195577  0.254252  1
