# generated using pymatgen
data_Co2O3F
_symmetry_space_group_name_H-M   'P 1'
_cell_length_a   5.90621435
_cell_length_b   6.32691561
_cell_length_c   6.75076417
_cell_angle_alpha   90.00000000
_cell_angle_beta   115.94115136
_cell_angle_gamma   90.00000000
_symmetry_Int_Tables_number   1
_chemical_formula_structural   Co2O3F
_chemical_formula_sum   'Co8 O12 F4'
_cell_volume   226.84627224
_cell_formula_units_Z   4
loop_
 _symmetry_equiv_pos_site_id
 _symmetry_equiv_pos_as_xyz
  1  'x, y, z'
loop_
 _atom_site_type_symbol
 _atom_site_label
 _atom_site_symmetry_multiplicity
 _atom_site_fract_x
 _atom_site_fract_y
 _atom_site_fract_z
 _atom_site_occupancy
  Co  Co0  1  0.000064  0.972792  0.000128  1
  Co  Co1  1  0.500064  0.027208  0.000128  1
  Co  Co2  1  0.500490  0.000000  0.500979  1
  Co  Co3  1  0.749510  0.500000  0.999021  1
  Co  Co4  1  0.249510  0.500000  0.999021  1
  Co  Co5  1  0.000490  0.000000  0.500979  1
  Co  Co6  1  0.249936  0.472792  0.499872  1
  Co  Co7  1  0.749936  0.527208  0.499872  1
  O  O8  1  0.347244  0.000000  0.194487  1
  O  O9  1  0.847244  0.000000  0.194487  1
  O  O10  1  0.498840  0.310167  0.997680  1
  O  O11  1  0.251160  0.189833  0.502320  1
  O  O12  1  0.998840  0.689833  0.997680  1
  O  O13  1  0.402756  0.500000  0.305513  1
  O  O14  1  0.153072  0.000000  0.806143  1
  O  O15  1  0.902756  0.500000  0.305513  1
  O  O16  1  0.653072  0.000000  0.806143  1
  O  O17  1  0.096928  0.500000  0.693857  1
  O  O18  1  0.596928  0.500000  0.693857  1
  O  O19  1  0.751160  0.810167  0.502320  1
  F  F20  1  0.001157  0.278498  0.002314  1
  F  F21  1  0.748843  0.221502  0.497686  1
  F  F22  1  0.501157  0.721502  0.002314  1
  F  F23  1  0.248843  0.778498  0.497686  1
