# generated using pymatgen
data_Na3(CoO2)5
_symmetry_space_group_name_H-M   'P 1'
_cell_length_a   5.75279283
_cell_length_b   7.54604774
_cell_length_c   4.90219336
_cell_angle_alpha   71.04541118
_cell_angle_beta   73.27684644
_cell_angle_gamma   84.63697804
_symmetry_Int_Tables_number   1
_chemical_formula_structural   Na3(CoO2)5
_chemical_formula_sum   'Na3 Co5 O10'
_cell_volume   192.75670581
_cell_formula_units_Z   1
loop_
 _symmetry_equiv_pos_site_id
 _symmetry_equiv_pos_as_xyz
  1  'x, y, z'
loop_
 _atom_site_type_symbol
 _atom_site_label
 _atom_site_symmetry_multiplicity
 _atom_site_fract_x
 _atom_site_fract_y
 _atom_site_fract_z
 _atom_site_occupancy
  Na  Na0  1  0.495602  0.198378  0.569059  1
  Na  Na1  1  0.495602  0.401622  0.967437  1
  Na  Na2  1  0.494083  0.800000  0.765554  1
  Co  Co3  1  0.996093  0.999260  0.002077  1
  Co  Co4  1  0.006168  0.199814  0.397661  1
  Co  Co5  1  0.996093  0.600740  0.201337  1
  Co  Co6  1  0.006168  0.400186  0.797475  1
  Co  Co7  1  0.009726  0.800000  0.597672  1
  O  O8  1  0.180690  0.200584  0.003080  1
  O  O9  1  0.182823  0.000003  0.608251  1
  O  O10  1  0.824114  0.998477  0.401133  1
  O  O11  1  0.180690  0.399416  0.403663  1
  O  O12  1  0.825009  0.395551  0.192155  1
  O  O13  1  0.173904  0.800000  0.206412  1
  O  O14  1  0.825009  0.204449  0.787705  1
  O  O15  1  0.182823  0.599997  0.808254  1
  O  O16  1  0.824114  0.601522  0.599610  1
  O  O17  1  0.825286  0.800000  0.983462  1
