# generated using pymatgen
data_Rb3GePSe7
_symmetry_space_group_name_H-M   'P 1'
_cell_length_a   7.42543057
_cell_length_b   10.01162040
_cell_length_c   12.19816890
_cell_angle_alpha   78.69189096
_cell_angle_beta   89.53086427
_cell_angle_gamma   68.57120190
_symmetry_Int_Tables_number   1
_chemical_formula_structural   Rb3GePSe7
_chemical_formula_sum   'Rb6 Ge2 P2 Se14'
_cell_volume   825.74333722
_cell_formula_units_Z   2
loop_
 _symmetry_equiv_pos_site_id
 _symmetry_equiv_pos_as_xyz
  1  'x, y, z'
loop_
 _atom_site_type_symbol
 _atom_site_label
 _atom_site_symmetry_multiplicity
 _atom_site_fract_x
 _atom_site_fract_y
 _atom_site_fract_z
 _atom_site_occupancy
  Rb  Rb0  1  0.059199  0.480175  0.789674  1
  Rb  Rb1  1  0.940802  0.519824  0.210326  1
  Rb  Rb2  1  0.680292  0.125819  0.395981  1
  Rb  Rb3  1  0.319708  0.874182  0.604018  1
  Rb  Rb4  1  0.614478  0.194052  0.011217  1
  Rb  Rb5  1  0.385523  0.805948  0.988784  1
  Ge  Ge6  1  0.398950  0.563578  0.371904  1
  Ge  Ge7  1  0.601051  0.436421  0.628096  1
  P  P8  1  0.230645  0.071415  0.219375  1
  P  P9  1  0.769355  0.928585  0.780626  1
  Se  Se10  1  0.109981  0.223708  0.056545  1
  Se  Se11  1  0.890019  0.776292  0.943454  1
  Se  Se12  1  0.044490  0.934579  0.194807  1
  Se  Se13  1  0.955511  0.065420  0.805194  1
  Se  Se14  1  0.083239  0.762608  0.366707  1
  Se  Se15  1  0.916762  0.237391  0.633292  1
  Se  Se16  1  0.349549  0.391579  0.531159  1
  Se  Se17  1  0.650452  0.608421  0.468841  1
  Se  Se18  1  0.469429  0.484654  0.205961  1
  Se  Se19  1  0.530572  0.515346  0.794039  1
  Se  Se20  1  0.463784  0.070262  0.775939  1
  Se  Se21  1  0.536215  0.929738  0.224060  1
  Se  Se22  1  0.153707  0.166753  0.367806  1
  Se  Se23  1  0.846293  0.833246  0.632193  1
