# generated using pymatgen
data_K2CuF4
_symmetry_space_group_name_H-M   'P 1'
_cell_length_a   5.93084576
_cell_length_b   5.93277422
_cell_length_c   7.09713066
_cell_angle_alpha   90.00000000
_cell_angle_beta   114.69791762
_cell_angle_gamma   90.00000000
_symmetry_Int_Tables_number   1
_chemical_formula_structural   K2CuF4
_chemical_formula_sum   'K4 Cu2 F8'
_cell_volume   226.87850490
_cell_formula_units_Z   2
loop_
 _symmetry_equiv_pos_site_id
 _symmetry_equiv_pos_as_xyz
  1  'x, y, z'
loop_
 _atom_site_type_symbol
 _atom_site_label
 _atom_site_symmetry_multiplicity
 _atom_site_fract_x
 _atom_site_fract_y
 _atom_site_fract_z
 _atom_site_occupancy
  F  F0  1  0.767953  0.231996  0.000000  1
  F  F1  1  0.267953  0.268004  0.000000  1
  F  F2  1  0.732047  0.731996  0.000000  1
  F  F3  1  0.232047  0.768004  0.000000  1
  F  F4  1  0.346464  0.500000  0.692927  1
  F  F5  1  0.153536  0.000000  0.307073  1
  F  F6  1  0.846464  0.000000  0.692927  1
  F  F7  1  0.653536  0.500000  0.307073  1
  K  K8  1  0.642180  0.000000  0.284360  1
  K  K9  1  0.857820  0.500000  0.715640  1
  K  K10  1  0.142180  0.500000  0.284360  1
  K  K11  1  0.357820  0.000000  0.715640  1
  Cu  Cu12  1  0.000000  0.000000  0.000000  1
  Cu  Cu13  1  0.500000  0.500000  0.000000  1
