# generated using pymatgen
data_Li3V3P8O29
_symmetry_space_group_name_H-M   'P 1'
_cell_length_a   9.76316805
_cell_length_b   9.76334160
_cell_length_c   14.20847946
_cell_angle_alpha   90.33666155
_cell_angle_beta   90.50240648
_cell_angle_gamma   60.09683050
_symmetry_Int_Tables_number   1
_chemical_formula_structural   Li3V3P8O29
_chemical_formula_sum   'Li6 V6 P16 O58'
_cell_volume   1174.01342064
_cell_formula_units_Z   2
loop_
 _symmetry_equiv_pos_site_id
 _symmetry_equiv_pos_as_xyz
  1  'x, y, z'
loop_
 _atom_site_type_symbol
 _atom_site_label
 _atom_site_symmetry_multiplicity
 _atom_site_fract_x
 _atom_site_fract_y
 _atom_site_fract_z
 _atom_site_occupancy
  Li  Li0  1  0.668422  0.680306  0.896818  1
  Li  Li1  1  0.771171  0.312482  0.056616  1
  Li  Li2  1  0.673378  0.231916  0.444230  1
  Li  Li3  1  0.334056  0.764102  0.556254  1
  Li  Li4  1  0.039163  0.945109  0.996428  1
  Li  Li5  1  0.999704  0.001915  0.498688  1
  V  V6  1  0.560236  0.438720  0.247977  1
  V  V7  1  0.429152  0.567362  0.753572  1
  V  V8  1  0.566938  0.999225  0.750496  1
  V  V9  1  0.436689  0.003013  0.245010  1
  V  V10  1  0.998823  0.562233  0.253499  1
  V  V11  1  0.001735  0.435027  0.743130  1
  P  P12  1  0.915215  0.778754  0.842212  1
  P  P13  1  0.777683  0.917868  0.338798  1
  P  P14  1  0.915251  0.303918  0.345393  1
  P  P15  1  0.667944  0.663694  0.131923  1
  P  P16  1  0.660747  0.667869  0.631479  1
  P  P17  1  0.778016  0.319420  0.839375  1
  P  P18  1  0.685915  0.226470  0.660660  1
  P  P19  1  0.306540  0.914993  0.847046  1
  P  P20  1  0.695384  0.083831  0.153296  1
  P  P21  1  0.314406  0.778666  0.340206  1
  P  P22  1  0.215872  0.693036  0.161025  1
  P  P23  1  0.336424  0.331799  0.366240  1
  P  P24  1  0.331749  0.331830  0.868213  1
  P  P25  1  0.080110  0.700411  0.656057  1
  P  P26  1  0.223617  0.079687  0.660690  1
  P  P27  1  0.081453  0.223594  0.160388  1
  O  O28  1  0.008105  0.795811  0.570564  1
  O  O29  1  0.909685  0.742099  0.332893  1
  O  O30  1  0.787314  0.013106  0.067143  1
  O  O31  1  0.737844  0.914393  0.832324  1
  O  O32  1  0.907930  0.623684  0.830787  1
  O  O33  1  0.814523  0.659675  0.179103  1
  O  O34  1  0.924256  0.457892  0.333175  1
  O  O35  1  0.994395  0.214565  0.076592  1
  O  O36  1  0.918470  0.350104  0.829384  1
  O  O37  1  0.659851  0.813011  0.681228  1
  O  O38  1  0.615862  0.925336  0.326941  1
  O  O39  1  0.810848  0.522324  0.676257  1
  O  O40  1  0.672815  0.655778  0.026831  1
  O  O41  1  0.655054  0.672676  0.527255  1
  O  O42  1  0.668600  0.511355  0.170004  1
  O  O43  1  0.469847  0.905425  0.836905  1
  O  O44  1  0.522356  0.812212  0.173309  1
  O  O45  1  0.737276  0.348527  0.334112  1
  O  O46  1  0.796418  0.208598  0.750119  1
  O  O47  1  0.765579  0.216361  0.570056  1
  O  O48  1  0.779352  0.241953  0.928986  1
  O  O49  1  0.624336  0.483676  0.825717  1
  O  O50  1  0.510458  0.668352  0.671726  1
  O  O51  1  0.653001  0.261487  0.163418  1
  O  O52  1  0.470850  0.619104  0.323350  1
  O  O53  1  0.350574  0.914039  0.326460  1
  O  O54  1  0.799678  0.999011  0.245792  1
  O  O55  1  0.791917  0.004493  0.421769  1
  O  O56  1  0.208494  0.993336  0.578131  1
  O  O57  1  0.652004  0.087416  0.671399  1
  O  O58  1  0.531811  0.383869  0.676937  1
  O  O59  1  0.345171  0.738573  0.832155  1
  O  O60  1  0.487254  0.331410  0.322853  1
  O  O61  1  0.378903  0.536776  0.173997  1
  O  O62  1  0.204637  0.784730  0.076500  1
  O  O63  1  0.241128  0.784117  0.432491  1
  O  O64  1  0.198117  0.794635  0.255611  1
  O  O65  1  0.258281  0.656161  0.665184  1
  O  O66  1  0.471944  0.181001  0.822512  1
  O  O67  1  0.539546  0.078290  0.167477  1
  O  O68  1  0.343443  0.474772  0.823338  1
  O  O69  1  0.334205  0.334141  0.971951  1
  O  O70  1  0.351668  0.326831  0.470332  1
  O  O71  1  0.187968  0.478902  0.324138  1
  O  O72  1  0.384227  0.072943  0.672471  1
  O  O73  1  0.337424  0.186334  0.318469  1
  O  O74  1  0.084757  0.649243  0.170805  1
  O  O75  1  0.998686  0.798979  0.749939  1
  O  O76  1  0.992424  0.797896  0.926843  1
  O  O77  1  0.072858  0.545167  0.669196  1
  O  O78  1  0.181442  0.345601  0.818915  1
  O  O79  1  0.077302  0.383685  0.174046  1
  O  O80  1  0.257311  0.090420  0.165905  1
  O  O81  1  0.210535  0.986255  0.931801  1
  O  O82  1  0.202194  0.002566  0.754967  1
  O  O83  1  0.089794  0.256649  0.665356  1
  O  O84  1  0.984374  0.207237  0.430994  1
  O  O85  1  0.000836  0.200273  0.253098  1
