# generated using pymatgen
data_Ca2SnS4
_symmetry_space_group_name_H-M   'P 1'
_cell_length_a   3.71569195
_cell_length_b   13.21246156
_cell_length_c   13.42901442
_cell_angle_alpha   90.00806621
_cell_angle_beta   89.99951892
_cell_angle_gamma   90.00023659
_symmetry_Int_Tables_number   1
_chemical_formula_structural   Ca2SnS4
_chemical_formula_sum   'Ca8 Sn4 S16'
_cell_volume   659.27646749
_cell_formula_units_Z   4
loop_
 _symmetry_equiv_pos_site_id
 _symmetry_equiv_pos_as_xyz
  1  'x, y, z'
loop_
 _atom_site_type_symbol
 _atom_site_label
 _atom_site_symmetry_multiplicity
 _atom_site_fract_x
 _atom_site_fract_y
 _atom_site_fract_z
 _atom_site_occupancy
  Ca  Ca0  1  0.250003  0.105038  0.578350  1
  Ca  Ca1  1  0.250000  0.604924  0.921711  1
  Ca  Ca2  1  0.749997  0.895029  0.421538  1
  Ca  Ca3  1  0.749997  0.395305  0.078524  1
  Ca  Ca4  1  0.249999  0.145958  0.218567  1
  Ca  Ca5  1  0.250006  0.645881  0.281336  1
  Ca  Ca6  1  0.750001  0.853988  0.781464  1
  Ca  Ca7  1  0.749996  0.353988  0.718557  1
  Sn  Sn8  1  0.750002  0.127772  0.918874  1
  Sn  Sn9  1  0.749999  0.627766  0.581129  1
  Sn  Sn10  1  0.249996  0.872301  0.081162  1
  Sn  Sn11  1  0.250002  0.372306  0.418878  1
  S  S12  1  0.749998  0.298193  0.271049  1
  S  S13  1  0.750012  0.798165  0.228953  1
  S  S14  1  0.250002  0.701719  0.728961  1
  S  S15  1  0.249994  0.201739  0.771044  1
  S  S16  1  0.749999  0.462032  0.883852  1
  S  S17  1  0.749998  0.962040  0.616114  1
  S  S18  1  0.249998  0.537968  0.116118  1
  S  S19  1  0.250000  0.038002  0.383878  1
  S  S20  1  0.250001  0.228731  0.023040  1
  S  S21  1  0.250001  0.728682  0.476935  1
  S  S22  1  0.749998  0.771232  0.976924  1
  S  S23  1  0.750000  0.271252  0.523052  1
  S  S24  1  0.750000  0.018344  0.103834  1
  S  S25  1  0.750005  0.518327  0.396171  1
  S  S26  1  0.249999  0.981654  0.896188  1
  S  S27  1  0.249997  0.481667  0.603795  1
