# generated using pymatgen
data_H6C2SBr2
_symmetry_space_group_name_H-M   'P 1'
_cell_length_a   7.62442068
_cell_length_b   7.55247375
_cell_length_c   11.61265256
_cell_angle_alpha   90.00000000
_cell_angle_beta   93.38853339
_cell_angle_gamma   90.00000000
_symmetry_Int_Tables_number   1
_chemical_formula_structural   H6C2SBr2
_chemical_formula_sum   'H24 C8 S4 Br8'
_cell_volume   667.52503146
_cell_formula_units_Z   4
loop_
 _symmetry_equiv_pos_site_id
 _symmetry_equiv_pos_as_xyz
  1  'x, y, z'
loop_
 _atom_site_type_symbol
 _atom_site_label
 _atom_site_symmetry_multiplicity
 _atom_site_fract_x
 _atom_site_fract_y
 _atom_site_fract_z
 _atom_site_occupancy
  H  H0  1  0.021520  0.216943  0.983555  1
  H  H1  1  0.021520  0.283057  0.483555  1
  H  H2  1  0.124261  0.335038  0.869880  1
  H  H3  1  0.142846  0.098070  0.879411  1
  H  H4  1  0.124261  0.164962  0.369880  1
  H  H5  1  0.142846  0.401930  0.379411  1
  H  H6  1  0.159234  0.083047  0.639305  1
  H  H7  1  0.159234  0.416953  0.139305  1
  H  H8  1  0.286702  0.949673  0.545396  1
  H  H9  1  0.286702  0.550327  0.045396  1
  H  H10  1  0.392667  0.054187  0.670298  1
  H  H11  1  0.392667  0.445813  0.170298  1
  H  H12  1  0.607333  0.554187  0.829702  1
  H  H13  1  0.607333  0.945813  0.329702  1
  H  H14  1  0.713298  0.449673  0.954604  1
  H  H15  1  0.713298  0.050327  0.454604  1
  H  H16  1  0.840766  0.583047  0.860695  1
  H  H17  1  0.840766  0.916953  0.360695  1
  H  H18  1  0.857154  0.598070  0.620589  1
  H  H19  1  0.875739  0.835038  0.630120  1
  H  H20  1  0.857154  0.901930  0.120589  1
  H  H21  1  0.875739  0.664962  0.130120  1
  H  H22  1  0.978480  0.716943  0.516445  1
  H  H23  1  0.978480  0.783057  0.016445  1
  C  C24  1  0.134255  0.221080  0.928777  1
  C  C25  1  0.134255  0.278920  0.428777  1
  C  C26  1  0.287459  0.066093  0.602246  1
  C  C27  1  0.287459  0.433907  0.102246  1
  C  C28  1  0.712541  0.566093  0.897754  1
  C  C29  1  0.712541  0.933907  0.397754  1
  C  C30  1  0.865745  0.721080  0.571223  1
  C  C31  1  0.865745  0.778920  0.071223  1
  S  S32  1  0.335293  0.257499  0.517215  1
  S  S33  1  0.335293  0.242501  0.017215  1
  S  S34  1  0.664707  0.757499  0.982785  1
  S  S35  1  0.664707  0.742501  0.482785  1
  Br  Br36  1  0.223803  0.721005  0.820577  1
  Br  Br37  1  0.223803  0.778995  0.320577  1
  Br  Br38  1  0.292143  0.485662  0.658471  1
  Br  Br39  1  0.292143  0.014338  0.158471  1
  Br  Br40  1  0.707857  0.985662  0.841529  1
  Br  Br41  1  0.707857  0.514338  0.341529  1
  Br  Br42  1  0.776197  0.221004  0.679423  1
  Br  Br43  1  0.776197  0.278996  0.179423  1
