# generated using pymatgen
data_LiSiBiO4
_symmetry_space_group_name_H-M   'P 1'
_cell_length_a   9.55009419
_cell_length_b   16.73178330
_cell_length_c   7.02334980
_cell_angle_alpha   90.00000000
_cell_angle_beta   90.00000000
_cell_angle_gamma   90.51621230
_symmetry_Int_Tables_number   1
_chemical_formula_structural   LiSiBiO4
_chemical_formula_sum   'Li12 Si12 Bi12 O48'
_cell_volume   1122.21626341
_cell_formula_units_Z   12
loop_
 _symmetry_equiv_pos_site_id
 _symmetry_equiv_pos_as_xyz
  1  'x, y, z'
loop_
 _atom_site_type_symbol
 _atom_site_label
 _atom_site_symmetry_multiplicity
 _atom_site_fract_x
 _atom_site_fract_y
 _atom_site_fract_z
 _atom_site_occupancy
  Li  Li0  1  0.237024  0.919486  0.000028  1
  Li  Li1  1  0.255061  0.584454  0.988405  1
  Li  Li2  1  0.252214  0.251747  0.850138  1
  Li  Li3  1  0.247786  0.248253  0.350138  1
  Li  Li4  1  0.244939  0.915546  0.488405  1
  Li  Li5  1  0.262976  0.580514  0.500028  1
  Li  Li6  1  0.737024  0.419486  0.499972  1
  Li  Li7  1  0.755061  0.084454  0.511595  1
  Li  Li8  1  0.752214  0.751747  0.649862  1
  Li  Li9  1  0.747786  0.748253  0.149862  1
  Li  Li10  1  0.744939  0.415546  0.011595  1
  Li  Li11  1  0.762976  0.080514  -0.000028  1
  Si  Si12  1  0.049016  0.407773  0.246830  1
  Si  Si13  1  0.082720  0.764461  0.255602  1
  Si  Si14  1  0.102820  0.072700  0.248578  1
  Si  Si15  1  0.397180  0.427300  0.748578  1
  Si  Si16  1  0.417280  0.735539  0.755602  1
  Si  Si17  1  0.450984  0.092227  0.746830  1
  Si  Si18  1  0.549016  0.907773  0.253170  1
  Si  Si19  1  0.582720  0.264461  0.244398  1
  Si  Si20  1  0.602820  0.572700  0.251422  1
  Si  Si21  1  0.897180  0.927300  0.751422  1
  Si  Si22  1  0.917280  0.235539  0.744398  1
  Si  Si23  1  0.950984  0.592227  0.753170  1
  Bi  Bi24  1  0.024286  0.405001  0.743084  1
  Bi  Bi25  1  0.089991  0.780800  0.753595  1
  Bi  Bi26  1  0.140454  0.064997  0.744410  1
  Bi  Bi27  1  0.359546  0.435003  0.244410  1
  Bi  Bi28  1  0.410009  0.719200  0.253595  1
  Bi  Bi29  1  0.475714  0.094999  0.243084  1
  Bi  Bi30  1  0.524286  0.905001  0.756916  1
  Bi  Bi31  1  0.589991  0.280800  0.746405  1
  Bi  Bi32  1  0.640454  0.564997  0.755590  1
  Bi  Bi33  1  0.859546  0.935003  0.255590  1
  Bi  Bi34  1  0.910009  0.219200  0.246405  1
  Bi  Bi35  1  0.975714  0.594999  0.256916  1
  O  O36  1  0.054249  0.595845  0.566289  1
  O  O37  1  0.052050  0.599976  0.940171  1
  O  O38  1  0.073091  0.931696  0.770574  1
  O  O39  1  0.123706  0.819233  0.441162  1
  O  O40  1  0.145978  0.493062  0.242932  1
  O  O41  1  0.114074  0.820136  0.067873  1
  O  O42  1  0.077245  0.272683  0.740294  1
  O  O43  1  0.123346  0.169605  0.274486  1
  O  O44  1  0.164233  0.023164  0.431261  1
  O  O45  1  0.314114  0.462005  0.562202  1
  O  O46  1  0.173486  0.677771  0.255617  1
  O  O47  1  0.174997  0.342234  0.248946  1
  O  O48  1  0.326514  0.822229  0.755617  1
  O  O49  1  0.325003  0.157766  0.748946  1
  O  O50  1  0.185886  0.037995  0.062201  1
  O  O51  1  0.335767  0.476836  0.931261  1
  O  O52  1  0.376654  0.330395  0.774486  1
  O  O53  1  0.385926  0.679864  0.567873  1
  O  O54  1  0.422755  0.227317  0.240294  1
  O  O55  1  0.354022  0.006938  0.742932  1
  O  O56  1  0.376294  0.680767  0.941162  1
  O  O57  1  0.426909  0.568304  0.270574  1
  O  O58  1  0.447950  0.900024  0.440171  1
  O  O59  1  0.445751  0.904155  0.066289  1
  O  O60  1  0.554249  0.095845  0.933711  1
  O  O61  1  0.552050  0.099976  0.559829  1
  O  O62  1  0.573091  0.431696  0.729426  1
  O  O63  1  0.623706  0.319233  0.058838  1
  O  O64  1  0.645978  0.993062  0.257068  1
  O  O65  1  0.577245  0.772683  0.759706  1
  O  O66  1  0.614074  0.320136  0.432127  1
  O  O67  1  0.623346  0.669605  0.225514  1
  O  O68  1  0.664233  0.523164  0.068739  1
  O  O69  1  0.814114  0.962005  0.937798  1
  O  O70  1  0.674997  0.842234  0.251054  1
  O  O71  1  0.673486  0.177771  0.244383  1
  O  O72  1  0.825003  0.657766  0.751054  1
  O  O73  1  0.826514  0.322229  0.744383  1
  O  O74  1  0.685886  0.537995  0.437798  1
  O  O75  1  0.835767  0.976836  0.568739  1
  O  O76  1  0.876654  0.830395  0.725514  1
  O  O77  1  0.922755  0.727317  0.259706  1
  O  O78  1  0.885926  0.179864  0.932127  1
  O  O79  1  0.854022  0.506938  0.757068  1
  O  O80  1  0.876294  0.180767  0.558838  1
  O  O81  1  0.926909  0.068304  0.229426  1
  O  O82  1  0.947950  0.400024  0.059829  1
  O  O83  1  0.945751  0.404155  0.433711  1
