# generated using pymatgen
data_EuMgGe
_symmetry_space_group_name_H-M   'P 1'
_cell_length_a   7.66810297
_cell_length_b   4.54708499
_cell_length_c   8.50153268
_cell_angle_alpha   90.00196711
_cell_angle_beta   89.99984677
_cell_angle_gamma   90.00001591
_symmetry_Int_Tables_number   1
_chemical_formula_structural   EuMgGe
_chemical_formula_sum   'Eu4 Mg4 Ge4'
_cell_volume   296.42732595
_cell_formula_units_Z   4
loop_
 _symmetry_equiv_pos_site_id
 _symmetry_equiv_pos_as_xyz
  1  'x, y, z'
loop_
 _atom_site_type_symbol
 _atom_site_label
 _atom_site_symmetry_multiplicity
 _atom_site_fract_x
 _atom_site_fract_y
 _atom_site_fract_z
 _atom_site_occupancy
  Eu  Eu0  1  0.482575  0.749999  0.182193  1
  Eu  Eu1  1  0.982577  0.749999  0.317804  1
  Eu  Eu2  1  0.017421  0.250001  0.682209  1
  Eu  Eu3  1  0.517415  0.250009  0.817772  1
  Mg  Mg4  1  0.144383  0.250000  0.064358  1
  Mg  Mg5  1  0.644379  0.250001  0.435652  1
  Mg  Mg6  1  0.355628  0.750000  0.564376  1
  Mg  Mg7  1  0.855622  0.749999  0.935636  1
  Ge  Ge8  1  0.773739  0.250002  0.112281  1
  Ge  Ge9  1  0.273737  0.249998  0.387711  1
  Ge  Ge10  1  0.726248  0.750001  0.612309  1
  Ge  Ge11  1  0.226276  0.749998  0.887697  1
