# generated using pymatgen
data_NiH16(ClO8)2
_symmetry_space_group_name_H-M   'P 1'
_cell_length_a   6.38998350
_cell_length_b   12.78677357
_cell_length_c   9.43769239
_cell_angle_alpha   90.00000000
_cell_angle_beta   106.85216671
_cell_angle_gamma   90.00000000
_symmetry_Int_Tables_number   1
_chemical_formula_structural   NiH16(ClO8)2
_chemical_formula_sum   'Ni2 H32 Cl4 O32'
_cell_volume   738.01273151
_cell_formula_units_Z   2
loop_
 _symmetry_equiv_pos_site_id
 _symmetry_equiv_pos_as_xyz
  1  'x, y, z'
loop_
 _atom_site_type_symbol
 _atom_site_label
 _atom_site_symmetry_multiplicity
 _atom_site_fract_x
 _atom_site_fract_y
 _atom_site_fract_z
 _atom_site_occupancy
  Ni  Ni0  1  0.000000  0.500000  0.500000  1
  Ni  Ni1  1  0.000000  0.000000  0.000000  1
  H  H2  1  0.015575  0.180813  0.866069  1
  H  H3  1  0.046208  0.597835  0.761652  1
  H  H4  1  0.094438  0.371396  0.739108  1
  H  H5  1  0.015575  0.319187  0.366069  1
  H  H6  1  0.046208  0.902165  0.261652  1
  H  H7  1  0.333205  0.940115  0.907296  1
  H  H8  1  0.224179  0.162411  0.555047  1
  H  H9  1  0.094438  0.128604  0.239108  1
  H  H10  1  0.315506  0.402668  0.706377  1
  H  H11  1  0.364750  0.083409  0.664595  1
  H  H12  1  0.334553  0.637083  0.537499  1
  H  H13  1  0.333205  0.559885  0.407296  1
  H  H14  1  0.224179  0.337589  0.055047  1
  H  H15  1  0.315506  0.097332  0.206377  1
  H  H16  1  0.665447  0.137083  0.962501  1
  H  H17  1  0.635250  0.583409  0.835405  1
  H  H18  1  0.364750  0.416591  0.164595  1
  H  H19  1  0.334553  0.862917  0.037499  1
  H  H20  1  0.684494  0.902668  0.793623  1
  H  H21  1  0.775821  0.662411  0.944953  1
  H  H22  1  0.666795  0.440115  0.592704  1
  H  H23  1  0.665447  0.362917  0.462501  1
  H  H24  1  0.635250  0.916591  0.335405  1
  H  H25  1  0.684494  0.597332  0.293623  1
  H  H26  1  0.905562  0.871396  0.760892  1
  H  H27  1  0.775821  0.837589  0.444953  1
  H  H28  1  0.666795  0.059885  0.092704  1
  H  H29  1  0.953792  0.097835  0.738348  1
  H  H30  1  0.984425  0.680813  0.633931  1
  H  H31  1  0.905562  0.628604  0.260892  1
  H  H32  1  0.953792  0.402165  0.238348  1
  H  H33  1  0.984425  0.819187  0.133931  1
  Cl  Cl34  1  0.265005  0.863008  0.590989  1
  Cl  Cl35  1  0.265005  0.636992  0.090989  1
  Cl  Cl36  1  0.734995  0.363008  0.909011  1
  Cl  Cl37  1  0.734995  0.136992  0.409011  1
  O  O38  1  0.033602  0.107108  0.843558  1
  O  O39  1  0.058728  0.825683  0.616480  1
  O  O40  1  0.213872  0.573873  0.957459  1
  O  O41  1  0.157468  0.393528  0.660933  1
  O  O42  1  0.033602  0.392892  0.343558  1
  O  O43  1  0.058728  0.674317  0.116480  1
  O  O44  1  0.213872  0.926127  0.457459  1
  O  O45  1  0.379956  0.930338  0.717542  1
  O  O46  1  0.356134  0.157343  0.638460  1
  O  O47  1  0.298273  0.565075  0.501767  1
  O  O48  1  0.157468  0.106472  0.160933  1
  O  O49  1  0.402520  0.775216  0.583351  1
  O  O50  1  0.597480  0.275216  0.916649  1
  O  O51  1  0.701727  0.065075  0.998233  1
  O  O52  1  0.643866  0.657343  0.861540  1
  O  O53  1  0.379956  0.569662  0.217542  1
  O  O54  1  0.620044  0.430338  0.782458  1
  O  O55  1  0.356134  0.342657  0.138460  1
  O  O56  1  0.298273  0.934925  0.001767  1
  O  O57  1  0.402520  0.724784  0.083351  1
  O  O58  1  0.597480  0.224784  0.416649  1
  O  O59  1  0.842532  0.893528  0.839067  1
  O  O60  1  0.701727  0.434925  0.498233  1
  O  O61  1  0.643866  0.842657  0.361540  1
  O  O62  1  0.620044  0.069662  0.282458  1
  O  O63  1  0.786128  0.073873  0.542541  1
  O  O64  1  0.941272  0.325683  0.883520  1
  O  O65  1  0.966398  0.607108  0.656442  1
  O  O66  1  0.842532  0.606472  0.339067  1
  O  O67  1  0.786128  0.426127  0.042541  1
  O  O68  1  0.941272  0.174317  0.383520  1
  O  O69  1  0.966398  0.892892  0.156442  1
