# generated using pymatgen
data_LiFeSiO4
_symmetry_space_group_name_H-M   'P 1'
_cell_length_a   5.37379013
_cell_length_b   5.92225732
_cell_length_c   11.28115965
_cell_angle_alpha   90.00007011
_cell_angle_beta   90.00000000
_cell_angle_gamma   90.00000000
_symmetry_Int_Tables_number   1
_chemical_formula_structural   LiFeSiO4
_chemical_formula_sum   'Li4 Fe4 Si4 O16'
_cell_volume   359.02254411
_cell_formula_units_Z   4
loop_
 _symmetry_equiv_pos_site_id
 _symmetry_equiv_pos_as_xyz
  1  'x, y, z'
loop_
 _atom_site_type_symbol
 _atom_site_label
 _atom_site_symmetry_multiplicity
 _atom_site_fract_x
 _atom_site_fract_y
 _atom_site_fract_z
 _atom_site_occupancy
  Li  Li0  1  0.174370  0.528797  0.169259  1
  Li  Li1  1  0.325630  0.528797  0.669259  1
  Li  Li2  1  0.674367  0.028800  0.330741  1
  Li  Li3  1  0.825633  0.028800  0.830741  1
  Fe  Fe4  1  0.826421  0.753334  0.576850  1
  Fe  Fe5  1  0.673579  0.753334  0.076850  1
  Fe  Fe6  1  0.173578  0.253336  0.423150  1
  Fe  Fe7  1  0.326422  0.253336  0.923150  1
  Si  Si8  1  0.324274  0.745426  0.416959  1
  Si  Si9  1  0.175726  0.745426  0.916959  1
  Si  Si10  1  0.675725  0.245426  0.583041  1
  Si  Si11  1  0.824275  0.245426  0.083041  1
  O  O12  1  0.233511  0.982672  0.845775  1
  O  O13  1  0.266489  0.982672  0.345775  1
  O  O14  1  0.873106  0.758333  0.939190  1
  O  O15  1  0.173005  0.725875  0.544229  1
  O  O16  1  0.626894  0.758333  0.439190  1
  O  O17  1  0.326995  0.725875  0.044229  1
  O  O18  1  0.251938  0.523834  0.835933  1
  O  O19  1  0.248062  0.523834  0.335933  1
  O  O20  1  0.766493  0.482674  0.154226  1
  O  O21  1  0.733507  0.482674  0.654226  1
  O  O22  1  0.826994  0.225879  0.455770  1
  O  O23  1  0.373103  0.258329  0.560809  1
  O  O24  1  0.673006  0.225879  0.955770  1
  O  O25  1  0.126897  0.258329  0.060809  1
  O  O26  1  0.751941  0.023833  0.664066  1
  O  O27  1  0.748059  0.023833  0.164066  1
