# generated using pymatgen
data_Sb16Cl4O21
_symmetry_space_group_name_H-M   'P 1'
_cell_length_a   10.01318440
_cell_length_b   8.33428428
_cell_length_c   10.47096965
_cell_angle_alpha   88.72665754
_cell_angle_beta   108.32898515
_cell_angle_gamma   77.49401968
_symmetry_Int_Tables_number   1
_chemical_formula_structural   Sb16Cl4O21
_chemical_formula_sum   'Sb16 Cl4 O21'
_cell_volume   805.96226866
_cell_formula_units_Z   1
loop_
 _symmetry_equiv_pos_site_id
 _symmetry_equiv_pos_as_xyz
  1  'x, y, z'
loop_
 _atom_site_type_symbol
 _atom_site_label
 _atom_site_symmetry_multiplicity
 _atom_site_fract_x
 _atom_site_fract_y
 _atom_site_fract_z
 _atom_site_occupancy
  Sb  Sb0  1  0.026804  0.243125  0.713119  1
  Sb  Sb1  1  0.031016  0.743743  0.720853  1
  Sb  Sb2  1  0.158339  0.497933  0.966245  1
  Sb  Sb3  1  0.175215  0.973680  0.985039  1
  Sb  Sb4  1  0.467393  0.091772  0.838340  1
  Sb  Sb5  1  0.461395  0.658841  0.828196  1
  Sb  Sb6  1  0.354507  0.152695  0.368461  1
  Sb  Sb7  1  0.356606  0.606871  0.357405  1
  Sb  Sb8  1  0.644152  0.347562  0.628105  1
  Sb  Sb9  1  0.648375  0.888042  0.643436  1
  Sb  Sb10  1  0.539734  0.839559  0.172148  1
  Sb  Sb11  1  0.530618  0.408253  0.155061  1
  Sb  Sb12  1  0.835384  0.041362  0.024353  1
  Sb  Sb13  1  0.831719  0.540931  0.023782  1
  Sb  Sb14  1  0.973494  0.250439  0.291891  1
  Sb  Sb15  1  0.979909  0.748425  0.290788  1
  Cl  Cl16  1  0.253747  0.449642  0.520597  1
  Cl  Cl17  1  0.261786  0.929680  0.521905  1
  Cl  Cl18  1  0.739280  0.563844  0.477145  1
  Cl  Cl19  1  0.747314  0.049123  0.480145  1
  O  O20  1  0.059484  0.473095  0.767901  1
  O  O21  1  0.077106  0.973891  0.785677  1
  O  O22  1  0.150794  0.207846  0.916215  1
  O  O23  1  0.373510  0.414746  0.980813  1
  O  O24  1  0.388881  0.912751  0.982781  1
  O  O25  1  0.154377  0.211251  0.242468  1
  O  O26  1  0.158318  0.695575  0.232533  1
  O  O27  1  0.555149  0.852061  0.810880  1
  O  O28  1  0.396313  0.378381  0.275082  1
  O  O29  1  0.400836  0.978921  0.247682  1
  O  O30  1  0.602337  0.119630  0.722107  1
  O  O31  1  0.593378  0.523959  0.745190  1
  O  O32  1  0.444027  0.647305  0.187915  1
  O  O33  1  0.842652  0.283641  0.756990  1
  O  O34  1  0.845094  0.801131  0.771398  1
  O  O35  1  0.621799  0.098404  0.012013  1
  O  O36  1  0.612812  0.587666  0.017938  1
  O  O37  1  0.843366  0.288724  0.092756  1
  O  O38  1  0.843900  0.789053  0.093655  1
  O  O39  1  0.938984  0.011213  0.226367  1
  O  O40  1  0.931903  0.512283  0.225825  1
