# generated using pymatgen
data_Na3MnO3
_symmetry_space_group_name_H-M   'P 1'
_cell_length_a   9.67582469
_cell_length_b   9.67648617
_cell_length_c   4.37908043
_cell_angle_alpha   90.00000000
_cell_angle_beta   90.00000000
_cell_angle_gamma   90.00051758
_symmetry_Int_Tables_number   1
_chemical_formula_structural   Na3MnO3
_chemical_formula_sum   'Na12 Mn4 O12'
_cell_volume   410.00447153
_cell_formula_units_Z   4
loop_
 _symmetry_equiv_pos_site_id
 _symmetry_equiv_pos_as_xyz
  1  'x, y, z'
loop_
 _atom_site_type_symbol
 _atom_site_label
 _atom_site_symmetry_multiplicity
 _atom_site_fract_x
 _atom_site_fract_y
 _atom_site_fract_z
 _atom_site_occupancy
  Na  Na0  1  0.119546  0.633621  0.000000  1
  Na  Na1  1  0.133593  0.380487  0.500000  1
  Na  Na2  1  0.158407  0.841641  0.500000  1
  Na  Na3  1  0.341600  0.341631  0.000000  1
  Na  Na4  1  0.366431  0.880487  0.000000  1
  Na  Na5  1  0.380457  0.133599  0.500000  1
  Na  Na6  1  0.619549  0.866379  0.500000  1
  Na  Na7  1  0.633577  0.119519  0.000000  1
  Na  Na8  1  0.658405  0.658355  0.000000  1
  Na  Na9  1  0.841586  0.158365  0.500000  1
  Na  Na10  1  0.866416  0.619510  0.500000  1
  Na  Na11  1  0.880461  0.366377  0.000000  1
  Mn  Mn12  1  0.110049  0.110067  0.000000  1
  Mn  Mn13  1  0.389956  0.610074  0.500000  1
  Mn  Mn14  1  0.610034  0.389943  0.500000  1
  Mn  Mn15  1  0.889963  0.889932  0.000000  1
  O  O16  1  0.094825  0.905205  0.000000  1
  O  O17  1  0.104822  0.304970  0.000000  1
  O  O18  1  0.195038  0.604861  0.500000  1
  O  O19  1  0.304967  0.104848  0.000000  1
  O  O20  1  0.395188  0.804979  0.500000  1
  O  O21  1  0.405175  0.405214  0.500000  1
  O  O22  1  0.594818  0.594807  0.500000  1
  O  O23  1  0.604805  0.195041  0.500000  1
  O  O24  1  0.695044  0.895150  0.000000  1
  O  O25  1  0.804952  0.395151  0.500000  1
  O  O26  1  0.895189  0.695033  0.000000  1
  O  O27  1  0.905186  0.094799  0.000000  1
