# generated using pymatgen
data_RbUAuSe3
_symmetry_space_group_name_H-M   'P 1'
_cell_length_a   4.22126701
_cell_length_b   8.03493755
_cell_length_c   10.77095014
_cell_angle_alpha   89.87502181
_cell_angle_beta   90.00000000
_cell_angle_gamma   74.77073751
_symmetry_Int_Tables_number   1
_chemical_formula_structural   RbUAuSe3
_chemical_formula_sum   'Rb2 U2 Au2 Se6'
_cell_volume   352.49474552
_cell_formula_units_Z   2
loop_
 _symmetry_equiv_pos_site_id
 _symmetry_equiv_pos_as_xyz
  1  'x, y, z'
loop_
 _atom_site_type_symbol
 _atom_site_label
 _atom_site_symmetry_multiplicity
 _atom_site_fract_x
 _atom_site_fract_y
 _atom_site_fract_z
 _atom_site_occupancy
  Rb  Rb0  1  0.250478  0.499043  0.249965  1
  Rb  Rb1  1  0.749522  0.500956  0.750036  1
  U  U2  1  0.000000  0.000000  0.000000  1
  U  U3  1  0.000000  0.000000  0.500000  1
  Au  Au4  1  0.542894  0.914213  0.249831  1
  Au  Au5  1  0.457106  0.085786  0.750169  1
  Se  Se6  1  0.623360  0.753280  0.041276  1
  Se  Se7  1  0.934777  0.130445  0.249844  1
  Se  Se8  1  0.623447  0.753105  0.459211  1
  Se  Se9  1  0.376553  0.246894  0.540789  1
  Se  Se10  1  0.065223  0.869556  0.750156  1
  Se  Se11  1  0.376640  0.246720  0.958724  1
