# generated using pymatgen
data_Li4Co3OF11
_symmetry_space_group_name_H-M   'P 1'
_cell_length_a   6.30195693
_cell_length_b   5.90716758
_cell_length_c   5.74959576
_cell_angle_alpha   97.62969894
_cell_angle_beta   100.76144607
_cell_angle_gamma   100.49297560
_symmetry_Int_Tables_number   1
_chemical_formula_structural   Li4Co3OF11
_chemical_formula_sum   'Li4 Co3 O1 F11'
_cell_volume   203.65318763
_cell_formula_units_Z   1
loop_
 _symmetry_equiv_pos_site_id
 _symmetry_equiv_pos_as_xyz
  1  'x, y, z'
loop_
 _atom_site_type_symbol
 _atom_site_label
 _atom_site_symmetry_multiplicity
 _atom_site_fract_x
 _atom_site_fract_y
 _atom_site_fract_z
 _atom_site_occupancy
  Li  Li0  1  0.432128  0.662230  0.875931  1
  Li  Li1  1  0.675879  0.847986  0.400694  1
  Li  Li2  1  0.601660  0.355872  0.148411  1
  Li  Li3  1  0.852457  0.396373  0.678760  1
  Co  Co4  1  0.133948  0.620368  0.309665  1
  Co  Co5  1  0.990294  0.993220  0.998588  1
  Co  Co6  1  0.342147  0.142612  0.588266  1
  O  O7  1  0.130457  0.940705  0.318999  1
  F  F8  1  0.033382  0.676947  0.914330  1
  F  F9  1  0.411546  0.826829  0.611153  1
  F  F10  1  0.192916  0.409926  0.567748  1
  F  F11  1  0.710536  0.896614  0.067281  1
  F  F12  1  0.400938  0.589386  0.193553  1
  F  F13  1  0.584602  0.397140  0.816501  1
  F  F14  1  0.274980  0.110083  0.907100  1
  F  F15  1  0.840224  0.585899  0.408569  1
  F  F16  1  0.549375  0.178197  0.396091  1
  F  F17  1  0.969873  0.318028  0.113709  1
  F  F18  1  0.872659  0.051584  0.684651  1
