# generated using pymatgen
data_Li3Mn2(P2O7)2
_symmetry_space_group_name_H-M   'P 1'
_cell_length_a   9.82939169
_cell_length_b   9.84099556
_cell_length_c   11.38173024
_cell_angle_alpha   90.27763112
_cell_angle_beta   103.21080051
_cell_angle_gamma   89.56618496
_symmetry_Int_Tables_number   1
_chemical_formula_structural   Li3Mn2(P2O7)2
_chemical_formula_sum   'Li12 Mn8 P16 O56'
_cell_volume   1071.79379396
_cell_formula_units_Z   4
loop_
 _symmetry_equiv_pos_site_id
 _symmetry_equiv_pos_as_xyz
  1  'x, y, z'
loop_
 _atom_site_type_symbol
 _atom_site_label
 _atom_site_symmetry_multiplicity
 _atom_site_fract_x
 _atom_site_fract_y
 _atom_site_fract_z
 _atom_site_occupancy
  Li  Li0  1  0.115362  0.718816  0.447725  1
  Li  Li1  1  0.180906  0.414223  0.549763  1
  Li  Li2  1  0.087699  0.108747  0.026724  1
  Li  Li3  1  0.343296  0.903098  0.958117  1
  Li  Li4  1  0.412480  0.605871  0.970337  1
  Li  Li5  1  0.348818  0.932657  0.467734  1
  Li  Li6  1  0.651182  0.067343  0.532266  1
  Li  Li7  1  0.587520  0.394129  0.029663  1
  Li  Li8  1  0.656704  0.096902  0.041883  1
  Li  Li9  1  0.912301  0.891253  0.973276  1
  Li  Li10  1  0.819094  0.585777  0.450237  1
  Li  Li11  1  0.884638  0.281184  0.552275  1
  Mn  Mn12  1  0.202263  0.925209  0.671665  1
  Mn  Mn13  1  0.256989  0.217323  0.825251  1
  Mn  Mn14  1  0.241679  0.710691  0.173886  1
  Mn  Mn15  1  0.295334  0.420442  0.322831  1
  Mn  Mn16  1  0.704666  0.579558  0.677169  1
  Mn  Mn17  1  0.758321  0.289309  0.826114  1
  Mn  Mn18  1  0.743011  0.782677  0.174749  1
  Mn  Mn19  1  0.797737  0.074791  0.328335  1
  P  P20  1  0.024132  0.452086  0.753677  1
  P  P21  1  0.118051  0.709843  0.888239  1
  P  P22  1  0.061283  0.930954  0.242444  1
  P  P23  1  0.121963  0.149666  0.424356  1
  P  P24  1  0.380435  0.646829  0.578011  1
  P  P25  1  0.438404  0.430416  0.758381  1
  P  P26  1  0.523311  0.050174  0.756130  1
  P  P27  1  0.381953  0.207537  0.109863  1
  P  P28  1  0.618047  0.792463  0.890137  1
  P  P29  1  0.476689  0.949826  0.243870  1
  P  P30  1  0.561596  0.569584  0.241619  1
  P  P31  1  0.619565  0.353171  0.421989  1
  P  P32  1  0.878037  0.850334  0.575644  1
  P  P33  1  0.938717  0.069046  0.757556  1
  P  P34  1  0.881949  0.290157  0.111761  1
  P  P35  1  0.975868  0.547914  0.246323  1
  O  O36  1  0.022927  0.419859  0.623022  1
  O  O37  1  0.030655  0.837900  0.561451  1
  O  O38  1  0.085261  0.087143  0.731385  1
  O  O39  1  0.105730  0.349644  0.844710  1
  O  O40  1  0.098080  0.596249  0.780437  1
  O  O41  1  0.184386  0.829611  0.834177  1
  O  O42  1  0.229687  0.653046  0.996404  1
  O  O43  1  0.020257  0.265142  0.082409  1
  O  O44  1  0.116672  0.078172  0.295227  1
  O  O45  1  0.064948  0.935242  0.110633  1
  O  O46  1  0.129383  0.536517  0.226209  1
  O  O47  1  0.179873  0.291665  0.413228  1
  O  O48  1  0.165378  0.822942  0.310114  1
  O  O49  1  0.213103  0.057870  0.518590  1
  O  O50  1  0.279492  0.563890  0.481116  1
  O  O51  1  0.328551  0.325635  0.695684  1
  O  O52  1  0.318809  0.790296  0.582959  1
  O  O53  1  0.370789  0.040059  0.782791  1
  O  O54  1  0.377424  0.577462  0.705776  1
  O  O55  1  0.441101  0.435610  0.891218  1
  O  O56  1  0.479373  0.774525  0.923580  1
  O  O57  1  0.276941  0.139858  0.000320  1
  O  O58  1  0.322293  0.329393  0.163268  1
  O  O59  1  0.405793  0.097236  0.218612  1
  O  O60  1  0.417201  0.587321  0.272641  1
  O  O61  1  0.391168  0.855148  0.146827  1
  O  O62  1  0.519738  0.079711  0.627011  1
  O  O63  1  0.467569  0.350296  0.432557  1
  O  O64  1  0.532431  0.649704  0.567443  1
  O  O65  1  0.480262  0.920289  0.372989  1
  O  O66  1  0.608832  0.144852  0.853173  1
  O  O67  1  0.582799  0.412679  0.727359  1
  O  O68  1  0.594207  0.902764  0.781388  1
  O  O69  1  0.677707  0.670607  0.836732  1
  O  O70  1  0.723059  0.860142  0.999680  1
  O  O71  1  0.520627  0.225475  0.076420  1
  O  O72  1  0.558899  0.564390  0.108782  1
  O  O73  1  0.622576  0.422538  0.294224  1
  O  O74  1  0.629211  0.959941  0.217209  1
  O  O75  1  0.681191  0.209704  0.417041  1
  O  O76  1  0.671449  0.674365  0.304316  1
  O  O77  1  0.720508  0.436110  0.518884  1
  O  O78  1  0.786897  0.942130  0.481410  1
  O  O79  1  0.834622  0.177058  0.689886  1
  O  O80  1  0.820127  0.708335  0.586772  1
  O  O81  1  0.870617  0.463483  0.773791  1
  O  O82  1  0.935052  0.064758  0.889367  1
  O  O83  1  0.883328  0.921828  0.704773  1
  O  O84  1  0.979743  0.734858  0.917591  1
  O  O85  1  0.770313  0.346954  0.003596  1
  O  O86  1  0.815614  0.170389  0.165823  1
  O  O87  1  0.901920  0.403751  0.219563  1
  O  O88  1  0.894270  0.650356  0.155290  1
  O  O89  1  0.914739  0.912857  0.268615  1
  O  O90  1  0.969345  0.162100  0.438549  1
  O  O91  1  0.977073  0.580141  0.376978  1
