# generated using pymatgen
data_Li8MnFe7(BO3)8
_symmetry_space_group_name_H-M   'P 1'
_cell_length_a   6.02793332
_cell_length_b   5.23191575
_cell_length_c   16.09255648
_cell_angle_alpha   90.46952891
_cell_angle_beta   98.51583409
_cell_angle_gamma   88.92184850
_symmetry_Int_Tables_number   1
_chemical_formula_structural   Li8MnFe7(BO3)8
_chemical_formula_sum   'Li8 Mn1 Fe7 B8 O24'
_cell_volume   501.82944032
_cell_formula_units_Z   1
loop_
 _symmetry_equiv_pos_site_id
 _symmetry_equiv_pos_as_xyz
  1  'x, y, z'
loop_
 _atom_site_type_symbol
 _atom_site_label
 _atom_site_symmetry_multiplicity
 _atom_site_fract_x
 _atom_site_fract_y
 _atom_site_fract_z
 _atom_site_occupancy
  Li  Li0  1  0.066127  0.847701  0.611008  1
  Li  Li1  1  0.435735  0.151230  0.889048  1
  Li  Li2  1  0.182610  0.653228  0.138975  1
  Li  Li3  1  0.316307  0.348999  0.360704  1
  Li  Li4  1  0.687105  0.652330  0.641393  1
  Li  Li5  1  0.813241  0.348612  0.858781  1
  Li  Li6  1  0.563991  0.849231  0.108779  1
  Li  Li7  1  0.934260  0.149808  0.390944  1
  Mn  Mn8  1  0.027075  0.168394  0.210075  1
  Fe  Fe9  1  0.277418  0.662744  0.959792  1
  Fe  Fe10  1  0.222182  0.337748  0.540063  1
  Fe  Fe11  1  0.522754  0.164027  0.707322  1
  Fe  Fe12  1  0.474716  0.821051  0.289729  1
  Fe  Fe13  1  0.775362  0.673476  0.461084  1
  Fe  Fe14  1  0.976832  0.837029  0.792626  1
  Fe  Fe15  1  0.722436  0.324317  0.038467  1
  B  B16  1  0.038798  0.328944  0.703103  1
  B  B17  1  0.287544  0.830074  0.453737  1
  B  B18  1  0.461661  0.670887  0.797014  1
  B  B19  1  0.212527  0.172763  0.045562  1
  B  B20  1  0.786866  0.827502  0.953367  1
  B  B21  1  0.535012  0.329603  0.203275  1
  B  B22  1  0.712811  0.173508  0.546491  1
  B  B23  1  0.964891  0.668497  0.298069  1
  O  O24  1  0.013026  0.589926  0.691817  1
  O  O25  1  0.168943  0.183390  0.654431  1
  O  O26  1  0.174549  0.705901  0.511206  1
  O  O27  1  0.327539  0.294136  0.988491  1
  O  O28  1  0.080707  0.786338  0.240530  1
  O  O29  1  0.330893  0.816445  0.845625  1
  O  O30  1  0.080453  0.319945  0.092827  1
  O  O31  1  0.262075  0.090133  0.442868  1
  O  O32  1  0.487276  0.410061  0.808336  1
  O  O33  1  0.236615  0.912642  0.057452  1
  O  O34  1  0.420188  0.687109  0.405405  1
  O  O35  1  0.421876  0.205595  0.259959  1
  O  O36  1  0.574873  0.795241  0.740020  1
  O  O37  1  0.581131  0.315915  0.595424  1
  O  O38  1  0.764707  0.089366  0.941657  1
  O  O39  1  0.512753  0.589851  0.191407  1
  O  O40  1  0.736690  0.912357  0.557716  1
  O  O41  1  0.918767  0.684479  0.904944  1
  O  O42  1  0.667009  0.186640  0.154097  1
  O  O43  1  0.925602  0.204735  0.760401  1
  O  O44  1  0.672101  0.706632  0.009858  1
  O  O45  1  0.825908  0.295858  0.489688  1
  O  O46  1  0.830316  0.816649  0.344777  1
  O  O47  1  0.987744  0.408954  0.311653  1
