# generated using pymatgen
data_Yb(Mg4Al3)4
_symmetry_space_group_name_H-M   'P 1'
_cell_length_a   9.13909028
_cell_length_b   9.13909146
_cell_length_c   9.13909028
_cell_angle_alpha   109.47121581
_cell_angle_beta   109.47122145
_cell_angle_gamma   109.47121581
_symmetry_Int_Tables_number   1
_chemical_formula_structural   Yb(Mg4Al3)4
_chemical_formula_sum   'Yb1 Mg16 Al12'
_cell_volume   587.60720849
_cell_formula_units_Z   1
loop_
 _symmetry_equiv_pos_site_id
 _symmetry_equiv_pos_as_xyz
  1  'x, y, z'
loop_
 _atom_site_type_symbol
 _atom_site_label
 _atom_site_symmetry_multiplicity
 _atom_site_fract_x
 _atom_site_fract_y
 _atom_site_fract_z
 _atom_site_occupancy
  Yb  Yb0  1  0.000000  0.000000  0.000000  1
  Mg  Mg1  1  0.318577  0.602714  0.999999  1
  Mg  Mg2  1  0.602714  0.318577  0.000000  1
  Mg  Mg3  1  0.356573  0.000000  0.000000  1
  Mg  Mg4  1  0.000000  0.356573  0.000000  1
  Mg  Mg5  1  0.681423  0.681422  0.284138  1
  Mg  Mg6  1  0.999999  0.602714  0.318577  1
  Mg  Mg7  1  0.602714  0.999999  0.318577  1
  Mg  Mg8  1  0.000000  0.000000  0.356573  1
  Mg  Mg9  1  0.715863  0.397285  0.397285  1
  Mg  Mg10  1  0.397285  0.715863  0.397285  1
  Mg  Mg11  1  0.318577  0.999999  0.602714  1
  Mg  Mg12  1  0.000000  0.318577  0.602714  1
  Mg  Mg13  1  0.643426  0.643426  0.643426  1
  Mg  Mg14  1  0.681423  0.284138  0.681423  1
  Mg  Mg15  1  0.284138  0.681422  0.681423  1
  Mg  Mg16  1  0.397285  0.397285  0.715863  1
  Al  Al17  1  0.812864  0.630686  0.999999  1
  Al  Al18  1  0.630686  0.812864  0.999999  1
  Al  Al19  1  0.369314  0.369314  0.182178  1
  Al  Al20  1  0.187135  0.817820  0.187135  1
  Al  Al21  1  0.817821  0.187134  0.187135  1
  Al  Al22  1  0.182178  0.369314  0.369314  1
  Al  Al23  1  0.369314  0.182178  0.369314  1
  Al  Al24  1  0.812864  0.999999  0.630686  1
  Al  Al25  1  0.999999  0.812864  0.630686  1
  Al  Al26  1  0.630686  0.999999  0.812864  1
  Al  Al27  1  0.999999  0.630686  0.812864  1
  Al  Al28  1  0.187135  0.187134  0.817821  1
