# generated using pymatgen
data_Li3Cr3FeO8
_symmetry_space_group_name_H-M   'P 1'
_cell_length_a   10.34813730
_cell_length_b   10.34547023
_cell_length_c   14.66150292
_cell_angle_alpha   19.14866679
_cell_angle_beta   19.22577381
_cell_angle_gamma   33.06936419
_symmetry_Int_Tables_number   1
_chemical_formula_structural   Li3Cr3FeO8
_chemical_formula_sum   'Li3 Cr3 Fe1 O8'
_cell_volume   146.85582254
_cell_formula_units_Z   1
loop_
 _symmetry_equiv_pos_site_id
 _symmetry_equiv_pos_as_xyz
  1  'x, y, z'
loop_
 _atom_site_type_symbol
 _atom_site_label
 _atom_site_symmetry_multiplicity
 _atom_site_fract_x
 _atom_site_fract_y
 _atom_site_fract_z
 _atom_site_occupancy
  Li  Li0  1  0.000003  0.499992  0.500000  1
  Li  Li1  1  0.500003  0.999998  0.499997  1
  Li  Li2  1  0.499996  0.499992  0.500006  1
  Cr  Cr3  1  0.000018  0.500043  -0.000021  1
  Cr  Cr4  1  0.499978  0.000025  0.999994  1
  Cr  Cr5  1  0.500046  0.500003  0.999971  1
  Fe  Fe6  1  0.000005  0.999990  -0.000002  1
  O  O7  1  -0.000109  0.999107  0.259523  1
  O  O8  1  -0.000059  0.528155  0.243024  1
  O  O9  1  0.522982  0.999000  0.247156  1
  O  O10  1  0.000094  0.000897  0.740484  1
  O  O11  1  0.474334  0.473202  0.296811  1
  O  O12  1  0.000038  0.471829  0.756996  1
  O  O13  1  0.477006  0.000976  0.752864  1
  O  O14  1  0.525664  0.526791  0.703196  1
