# generated using pymatgen
data_CaSn2S5
_symmetry_space_group_name_H-M   'P 1'
_cell_length_a   7.12638557
_cell_length_b   10.49796978
_cell_length_c   13.96736569
_cell_angle_alpha   118.37122849
_cell_angle_beta   90.00000000
_cell_angle_gamma   90.00000000
_symmetry_Int_Tables_number   1
_chemical_formula_structural   CaSn2S5
_chemical_formula_sum   'Ca4 Sn8 S20'
_cell_volume   919.42474458
_cell_formula_units_Z   4
loop_
 _symmetry_equiv_pos_site_id
 _symmetry_equiv_pos_as_xyz
  1  'x, y, z'
loop_
 _atom_site_type_symbol
 _atom_site_label
 _atom_site_symmetry_multiplicity
 _atom_site_fract_x
 _atom_site_fract_y
 _atom_site_fract_z
 _atom_site_occupancy
  Ca  Ca0  1  0.290063  0.116815  0.172915  1
  Ca  Ca1  1  0.790063  0.383185  0.327085  1
  Ca  Ca2  1  0.709937  0.883185  0.827085  1
  Ca  Ca3  1  0.209937  0.616815  0.672915  1
  Sn  Sn4  1  0.889428  0.937157  0.306562  1
  Sn  Sn5  1  0.389428  0.562843  0.193438  1
  Sn  Sn6  1  0.110572  0.062843  0.693438  1
  Sn  Sn7  1  0.610572  0.437157  0.806562  1
  Sn  Sn8  1  0.064651  0.642062  0.965685  1
  Sn  Sn9  1  0.564651  0.857938  0.534315  1
  Sn  Sn10  1  0.935349  0.357938  0.034315  1
  Sn  Sn11  1  0.435349  0.142062  0.465685  1
  S  S12  1  0.112569  0.167815  0.373261  1
  S  S13  1  0.612569  0.332185  0.126739  1
  S  S14  1  0.887431  0.832185  0.626739  1
  S  S15  1  0.387431  0.667815  0.873261  1
  S  S16  1  0.514579  0.901730  -0.000403  1
  S  S17  1  0.014579  0.598270  0.500403  1
  S  S18  1  0.485421  0.098270  0.000403  1
  S  S19  1  0.985421  0.401730  0.499597  1
  S  S20  1  0.061407  0.886260  0.116453  1
  S  S21  1  0.561407  0.613740  0.383547  1
  S  S22  1  0.938593  0.113740  0.883547  1
  S  S23  1  0.438593  0.386260  0.616453  1
  S  S24  1  0.605684  0.117031  0.301919  1
  S  S25  1  0.105684  0.382969  0.198081  1
  S  S26  1  0.394316  0.882969  0.698081  1
  S  S27  1  0.894316  0.617031  0.801919  1
  S  S28  1  0.774281  0.569837  0.041330  1
  S  S29  1  0.274281  0.930163  0.458670  1
  S  S30  1  0.225719  0.430163  0.958670  1
  S  S31  1  0.725719  0.069837  0.541330  1
