# generated using pymatgen
data_Li5V3P8O29
_symmetry_space_group_name_H-M   'P 1'
_cell_length_a   9.75520250
_cell_length_b   9.79583162
_cell_length_c   14.01834064
_cell_angle_alpha   90.16505844
_cell_angle_beta   90.02115101
_cell_angle_gamma   60.14490598
_symmetry_Int_Tables_number   1
_chemical_formula_structural   Li5V3P8O29
_chemical_formula_sum   'Li10 V6 P16 O58'
_cell_volume   1161.80971804
_cell_formula_units_Z   2
loop_
 _symmetry_equiv_pos_site_id
 _symmetry_equiv_pos_as_xyz
  1  'x, y, z'
loop_
 _atom_site_type_symbol
 _atom_site_label
 _atom_site_symmetry_multiplicity
 _atom_site_fract_x
 _atom_site_fract_y
 _atom_site_fract_z
 _atom_site_occupancy
  Li  Li0  1  0.772714  0.913237  0.557874  1
  Li  Li1  1  0.904503  0.323269  0.557250  1
  Li  Li2  1  0.764419  0.337468  0.062736  1
  Li  Li3  1  0.332726  0.905218  0.061118  1
  Li  Li4  1  0.318739  0.773823  0.559319  1
  Li  Li5  1  0.670109  0.093436  0.941759  1
  Li  Li6  1  0.236168  0.662726  0.941728  1
  Li  Li7  1  0.091621  0.677140  0.437349  1
  Li  Li8  1  0.225919  0.096682  0.439828  1
  Li  Li9  1  0.997257  0.002145  0.004678  1
  V  V10  1  0.568336  0.430633  0.254862  1
  V  V11  1  0.433612  0.565465  0.746751  1
  V  V12  1  0.567182  0.999842  0.750284  1
  V  V13  1  0.434301  0.000874  0.250667  1
  V  V14  1  0.995413  0.568058  0.241770  1
  V  V15  1  0.003563  0.431347  0.757201  1
  P  P16  1  0.916836  0.776344  0.841052  1
  P  P17  1  0.772441  0.910679  0.339781  1
  P  P18  1  0.912478  0.320543  0.343668  1
  P  P19  1  0.663485  0.664430  0.127652  1
  P  P20  1  0.671027  0.665297  0.630471  1
  P  P21  1  0.770912  0.314460  0.843089  1
  P  P22  1  0.684981  0.228441  0.658735  1
  P  P23  1  0.315131  0.910556  0.843247  1
  P  P24  1  0.686867  0.088508  0.156870  1
  P  P25  1  0.319963  0.769359  0.342246  1
  P  P26  1  0.229600  0.684543  0.159283  1
  P  P27  1  0.327124  0.337174  0.368181  1
  P  P28  1  0.335055  0.334923  0.872597  1
  P  P29  1  0.085458  0.679544  0.654981  1
  P  P30  1  0.228845  0.089609  0.660794  1
  P  P31  1  0.084360  0.221837  0.159174  1
  O  O32  1  0.997767  0.751661  0.564303  1
  O  O33  1  0.920293  0.742043  0.334251  1
  O  O34  1  0.777187  0.013667  0.066646  1
  O  O35  1  0.745678  0.916807  0.841512  1
  O  O36  1  0.916712  0.617734  0.830954  1
  O  O37  1  0.811420  0.671186  0.173876  1
  O  O38  1  0.905823  0.478644  0.321150  1
  O  O39  1  0.991896  0.209889  0.077615  1
  O  O40  1  0.916796  0.338969  0.835065  1
  O  O41  1  0.674625  0.814156  0.670504  1
  O  O42  1  0.620518  0.900329  0.320035  1
  O  O43  1  0.817020  0.516527  0.677559  1
  O  O44  1  0.673357  0.659605  0.021383  1
  O  O45  1  0.681205  0.657520  0.524233  1
  O  O46  1  0.676934  0.510090  0.168557  1
  O  O47  1  0.471576  0.909664  0.830169  1
  O  O48  1  0.510446  0.810442  0.166648  1
  O  O49  1  0.746700  0.341730  0.341035  1
  O  O50  1  0.788442  0.201538  0.755250  1
  O  O51  1  0.771304  0.238731  0.574743  1
  O  O52  1  0.779549  0.226967  0.933666  1
  O  O53  1  0.618945  0.470683  0.830201  1
  O  O54  1  0.514662  0.672672  0.666994  1
  O  O55  1  0.661906  0.257450  0.163849  1
  O  O56  1  0.481158  0.622907  0.323847  1
  O  O57  1  0.334788  0.919287  0.343274  1
  O  O58  1  0.793710  0.999340  0.249418  1
  O  O59  1  0.765880  0.988853  0.431622  1
  O  O60  1  0.239463  0.001813  0.570367  1
  O  O61  1  0.661734  0.083120  0.658288  1
  O  O62  1  0.522881  0.379889  0.676760  1
  O  O63  1  0.340305  0.740862  0.833881  1
  O  O64  1  0.477678  0.330550  0.325400  1
  O  O65  1  0.384483  0.530821  0.169318  1
  O  O66  1  0.219801  0.777823  0.070710  1
  O  O67  1  0.241144  0.756388  0.431546  1
  O  O68  1  0.207280  0.793210  0.251516  1
  O  O69  1  0.250753  0.664705  0.656009  1
  O  O70  1  0.488928  0.189054  0.833702  1
  O  O71  1  0.530678  0.088461  0.168304  1
  O  O72  1  0.323117  0.488879  0.832107  1
  O  O73  1  0.324428  0.339142  0.978615  1
  O  O74  1  0.314846  0.348127  0.474331  1
  O  O75  1  0.179485  0.486388  0.321996  1
  O  O76  1  0.378753  0.101098  0.678751  1
  O  O77  1  0.323151  0.186587  0.330550  1
  O  O78  1  0.085795  0.657393  0.162617  1
  O  O79  1  0.989747  0.796434  0.741849  1
  O  O80  1  0.010858  0.785901  0.922278  1
  O  O81  1  0.096434  0.520372  0.678286  1
  O  O82  1  0.187933  0.328344  0.824741  1
  O  O83  1  0.083826  0.380509  0.168027  1
  O  O84  1  0.256176  0.082249  0.159393  1
  O  O85  1  0.228206  0.982298  0.934320  1
  O  O86  1  0.206136  0.001575  0.751413  1
  O  O87  1  0.080168  0.256318  0.661634  1
  O  O88  1  0.001376  0.248023  0.434247  1
  O  O89  1  0.010574  0.202304  0.257597  1
