# generated using pymatgen
data_Rb5SiHO5
_symmetry_space_group_name_H-M   'P 1'
_cell_length_a   6.62367489
_cell_length_b   6.62367489
_cell_length_c   12.15617459
_cell_angle_alpha   99.05586546
_cell_angle_beta   99.05586546
_cell_angle_gamma   111.21528300
_symmetry_Int_Tables_number   1
_chemical_formula_structural   Rb5SiHO5
_chemical_formula_sum   'Rb10 Si2 H2 O10'
_cell_volume   477.49146980
_cell_formula_units_Z   2
loop_
 _symmetry_equiv_pos_site_id
 _symmetry_equiv_pos_as_xyz
  1  'x, y, z'
loop_
 _atom_site_type_symbol
 _atom_site_label
 _atom_site_symmetry_multiplicity
 _atom_site_fract_x
 _atom_site_fract_y
 _atom_site_fract_z
 _atom_site_occupancy
  Rb  Rb0  1  0.269372  0.269372  0.029280  1
  Rb  Rb1  1  0.605460  0.086851  0.198542  1
  Rb  Rb2  1  0.086851  0.605460  0.198542  1
  Rb  Rb3  1  0.787068  0.787068  0.396051  1
  Rb  Rb4  1  0.692476  0.307524  0.500000  1
  Rb  Rb5  1  0.307524  0.692476  0.500000  1
  Rb  Rb6  1  0.212932  0.212932  0.603948  1
  Rb  Rb7  1  0.913148  0.394540  0.801458  1
  Rb  Rb8  1  0.394540  0.913148  0.801458  1
  Rb  Rb9  1  0.730627  0.730627  0.970719  1
  Si  Si10  1  0.171196  0.171196  0.304256  1
  Si  Si11  1  0.828804  0.828804  0.695744  1
  H  H12  1  0.788035  0.211964  0.000000  1
  H  H13  1  0.211964  0.788035  0.000000  1
  O  O14  1  0.698574  0.301425  0.000000  1
  O  O15  1  0.301425  0.698574  0.000000  1
  O  O16  1  0.022716  0.022716  0.173208  1
  O  O17  1  0.391696  0.391696  0.297845  1
  O  O18  1  0.255726  0.006327  0.374641  1
  O  O19  1  0.006327  0.255726  0.374641  1
  O  O20  1  0.993673  0.744273  0.625359  1
  O  O21  1  0.744273  0.993673  0.625359  1
  O  O22  1  0.608304  0.608304  0.702155  1
  O  O23  1  0.977284  0.977284  0.826792  1
