# generated using pymatgen
data_Mn5(OF3)2
_symmetry_space_group_name_H-M   'P 1'
_cell_length_a   3.21117420
_cell_length_b   8.07850458
_cell_length_c   7.93769192
_cell_angle_alpha   82.16043557
_cell_angle_beta   101.66995251
_cell_angle_gamma   78.53624517
_symmetry_Int_Tables_number   1
_chemical_formula_structural   Mn5(OF3)2
_chemical_formula_sum   'Mn5 O2 F6'
_cell_volume   194.26170444
_cell_formula_units_Z   1
loop_
 _symmetry_equiv_pos_site_id
 _symmetry_equiv_pos_as_xyz
  1  'x, y, z'
loop_
 _atom_site_type_symbol
 _atom_site_label
 _atom_site_symmetry_multiplicity
 _atom_site_fract_x
 _atom_site_fract_y
 _atom_site_fract_z
 _atom_site_occupancy
  Mn  Mn0  1  0.827494  0.826991  0.481978  1
  Mn  Mn1  1  0.683626  0.459486  0.826740  1
  Mn  Mn2  1  0.309053  0.549055  0.167162  1
  Mn  Mn3  1  0.175039  0.173789  0.523865  1
  Mn  Mn4  1  0.985408  0.185714  0.156531  1
  O  O5  1  0.335412  0.338047  0.008872  1
  O  O6  1  0.626426  0.091100  0.343952  1
  F  F7  1  0.362416  0.909988  0.634820  1
  F  F8  1  0.301102  0.733982  0.336186  1
  F  F9  1  0.041609  0.588371  0.671590  1
  F  F10  1  0.676438  0.653544  0.006420  1
  F  F11  1  0.956458  0.410404  0.323319  1
  F  F12  1  0.701919  0.261227  0.665065  1
