# generated using pymatgen
data_Li3V2Cr2O8
_symmetry_space_group_name_H-M   'P 1'
_cell_length_a   5.98504297
_cell_length_b   5.87248895
_cell_length_c   5.98879984
_cell_angle_alpha   60.20803316
_cell_angle_beta   59.70692743
_cell_angle_gamma   89.59294946
_symmetry_Int_Tables_number   1
_chemical_formula_structural   Li3V2Cr2O8
_chemical_formula_sum   'Li3 V2 Cr2 O8'
_cell_volume   149.16606582
_cell_formula_units_Z   1
loop_
 _symmetry_equiv_pos_site_id
 _symmetry_equiv_pos_as_xyz
  1  'x, y, z'
loop_
 _atom_site_type_symbol
 _atom_site_label
 _atom_site_symmetry_multiplicity
 _atom_site_fract_x
 _atom_site_fract_y
 _atom_site_fract_z
 _atom_site_occupancy
  Li  Li0  1  0.000000  0.500000  0.000000  1
  Li  Li1  1  0.500000  0.000000  0.500000  1
  Li  Li2  1  0.500000  0.500000  0.000000  1
  V  V3  1  0.000000  0.500000  0.500000  1
  V  V4  1  0.500000  0.000000  0.000000  1
  Cr  Cr5  1  0.000000  0.000000  0.500000  1
  Cr  Cr6  1  0.000000  0.000000  0.000000  1
  O  O7  1  0.763767  0.785154  0.969681  1
  O  O8  1  0.229793  0.747161  0.485558  1
  O  O9  1  0.217952  0.239635  0.519486  1
  O  O10  1  0.767445  0.254321  0.976772  1
  O  O11  1  0.232555  0.745679  0.023228  1
  O  O12  1  0.782048  0.760365  0.480514  1
  O  O13  1  0.770207  0.252839  0.514442  1
  O  O14  1  0.236233  0.214846  0.030319  1
