# generated using pymatgen
data_Li4V3P8O29
_symmetry_space_group_name_H-M   'P 1'
_cell_length_a   9.77116264
_cell_length_b   9.78637671
_cell_length_c   14.15848648
_cell_angle_alpha   90.24346915
_cell_angle_beta   90.21434643
_cell_angle_gamma   59.87096980
_symmetry_Int_Tables_number   1
_chemical_formula_structural   Li4V3P8O29
_chemical_formula_sum   'Li8 V6 P16 O58'
_cell_volume   1170.96745624
_cell_formula_units_Z   2
loop_
 _symmetry_equiv_pos_site_id
 _symmetry_equiv_pos_as_xyz
  1  'x, y, z'
loop_
 _atom_site_type_symbol
 _atom_site_label
 _atom_site_symmetry_multiplicity
 _atom_site_fract_x
 _atom_site_fract_y
 _atom_site_fract_z
 _atom_site_occupancy
  Li  Li0  1  0.772331  0.904919  0.554463  1
  Li  Li1  1  0.917272  0.311605  0.560832  1
  Li  Li2  1  0.764801  0.333779  0.059343  1
  Li  Li3  1  0.329906  0.907272  0.061784  1
  Li  Li4  1  0.684240  0.225327  0.438694  1
  Li  Li5  1  0.306738  0.777921  0.555599  1
  Li  Li6  1  0.230531  0.669498  0.944508  1
  Li  Li7  1  0.952101  0.010070  0.001002  1
  V  V8  1  0.568284  0.433215  0.250789  1
  V  V9  1  0.432415  0.567397  0.747112  1
  V  V10  1  0.564585  0.000655  0.755757  1
  V  V11  1  0.434579  0.002260  0.249094  1
  V  V12  1  0.994782  0.568945  0.246469  1
  V  V13  1  0.004906  0.434275  0.754038  1
  P  P14  1  0.918113  0.776869  0.840727  1
  P  P15  1  0.772128  0.911324  0.339464  1
  P  P16  1  0.915497  0.318487  0.346039  1
  P  P17  1  0.665445  0.665944  0.128236  1
  P  P18  1  0.668544  0.668063  0.632094  1
  P  P19  1  0.773997  0.315349  0.841483  1
  P  P20  1  0.681024  0.227400  0.660765  1
  P  P21  1  0.313157  0.913121  0.845130  1
  P  P22  1  0.693089  0.084646  0.157331  1
  P  P23  1  0.319552  0.772365  0.339654  1
  P  P24  1  0.225426  0.685443  0.160370  1
  P  P25  1  0.331909  0.335265  0.367886  1
  P  P26  1  0.333519  0.334852  0.870448  1
  P  P27  1  0.083870  0.684746  0.655014  1
  P  P28  1  0.228274  0.085963  0.662129  1
  P  P29  1  0.082071  0.223139  0.161564  1
  O  O30  1  0.989908  0.765548  0.570335  1
  O  O31  1  0.915141  0.743158  0.334159  1
  O  O32  1  0.792877  0.003699  0.074771  1
  O  O33  1  0.744020  0.913715  0.834488  1
  O  O34  1  0.920544  0.616909  0.830459  1
  O  O35  1  0.810569  0.671645  0.175429  1
  O  O36  1  0.902567  0.479054  0.320648  1
  O  O37  1  0.989738  0.207431  0.082331  1
  O  O38  1  0.915418  0.345136  0.828128  1
  O  O39  1  0.667638  0.817899  0.676002  1
  O  O40  1  0.619206  0.903517  0.319505  1
  O  O41  1  0.817296  0.518966  0.675505  1
  O  O42  1  0.666584  0.668336  0.023278  1
  O  O43  1  0.674222  0.669185  0.527161  1
  O  O44  1  0.676072  0.511302  0.166679  1
  O  O45  1  0.473847  0.908258  0.827006  1
  O  O46  1  0.510814  0.814262  0.168475  1
  O  O47  1  0.748774  0.334774  0.339498  1
  O  O48  1  0.791377  0.204518  0.751173  1
  O  O49  1  0.757153  0.239899  0.571832  1
  O  O50  1  0.792933  0.228917  0.931330  1
  O  O51  1  0.617220  0.470075  0.829031  1
  O  O52  1  0.515688  0.670413  0.669719  1
  O  O53  1  0.655755  0.259272  0.163462  1
  O  O54  1  0.479837  0.619522  0.319158  1
  O  O55  1  0.345210  0.916105  0.328321  1
  O  O56  1  0.791060  0.007549  0.254546  1
  O  O57  1  0.756704  0.998020  0.430048  1
  O  O58  1  0.235397  0.991481  0.578789  1
  O  O59  1  0.662071  0.079380  0.661203  1
  O  O60  1  0.519227  0.378150  0.679031  1
  O  O61  1  0.338507  0.743840  0.834966  1
  O  O62  1  0.486335  0.331322  0.332831  1
  O  O63  1  0.380462  0.529236  0.170768  1
  O  O64  1  0.217513  0.776160  0.072515  1
  O  O65  1  0.249613  0.766622  0.430406  1
  O  O66  1  0.204771  0.793419  0.251875  1
  O  O67  1  0.253142  0.661637  0.656212  1
  O  O68  1  0.483732  0.186476  0.824656  1
  O  O69  1  0.538031  0.078953  0.168638  1
  O  O70  1  0.324656  0.488665  0.833233  1
  O  O71  1  0.329345  0.327498  0.974593  1
  O  O72  1  0.327961  0.327141  0.472031  1
  O  O73  1  0.184260  0.475310  0.319163  1
  O  O74  1  0.382824  0.091464  0.680331  1
  O  O75  1  0.341783  0.182282  0.317909  1
  O  O76  1  0.082521  0.658040  0.166353  1
  O  O77  1  0.000965  0.793859  0.747552  1
  O  O78  1  0.003293  0.790823  0.924526  1
  O  O79  1  0.093983  0.524263  0.677504  1
  O  O80  1  0.188269  0.329244  0.822387  1
  O  O81  1  0.078125  0.383203  0.168984  1
  O  O82  1  0.257274  0.084490  0.159674  1
  O  O83  1  0.239893  0.984397  0.937244  1
  O  O84  1  0.201945  0.010811  0.758217  1
  O  O85  1  0.083967  0.256623  0.661514  1
  O  O86  1  0.993943  0.252824  0.437540  1
  O  O87  1  0.014715  0.200727  0.260746  1
