# generated using pymatgen
data_LiMnPO4
_symmetry_space_group_name_H-M   'P 1'
_cell_length_a   10.30464079
_cell_length_b   6.48280381
_cell_length_c   4.82242038
_cell_angle_alpha   90.00000000
_cell_angle_beta   90.00000000
_cell_angle_gamma   90.00000000
_symmetry_Int_Tables_number   1
_chemical_formula_structural   LiMnPO4
_chemical_formula_sum   'Li4 Mn4 P4 O16'
_cell_volume   322.15197781
_cell_formula_units_Z   4
loop_
 _symmetry_equiv_pos_site_id
 _symmetry_equiv_pos_as_xyz
  1  'x, y, z'
loop_
 _atom_site_type_symbol
 _atom_site_label
 _atom_site_symmetry_multiplicity
 _atom_site_fract_x
 _atom_site_fract_y
 _atom_site_fract_z
 _atom_site_occupancy
  Li  Li0  1  0.216146  0.750000  0.500317  1
  Li  Li1  1  0.283854  0.250000  0.000317  1
  Li  Li2  1  0.716146  0.750000  0.999683  1
  Li  Li3  1  0.783854  0.250000  0.499683  1
  Mn  Mn4  1  0.000000  0.000000  0.000000  1
  Mn  Mn5  1  0.000000  0.500000  0.000000  1
  Mn  Mn6  1  0.500000  0.000000  0.500000  1
  Mn  Mn7  1  0.500000  0.500000  0.500000  1
  P  P8  1  0.098119  0.250000  0.422498  1
  P  P9  1  0.401881  0.750000  0.922498  1
  P  P10  1  0.598119  0.250000  0.077502  1
  P  P11  1  0.901881  0.750000  0.577502  1
  O  O12  1  0.044402  0.750000  0.707793  1
  O  O13  1  0.091290  0.250000  0.744935  1
  O  O14  1  0.163237  0.053430  0.303041  1
  O  O15  1  0.163237  0.446570  0.303041  1
  O  O16  1  0.336763  0.553430  0.803041  1
  O  O17  1  0.336763  0.946570  0.803041  1
  O  O18  1  0.408710  0.750000  0.244935  1
  O  O19  1  0.455598  0.250000  0.207793  1
  O  O20  1  0.544402  0.750000  0.792207  1
  O  O21  1  0.591290  0.250000  0.755065  1
  O  O22  1  0.663237  0.053430  0.196959  1
  O  O23  1  0.663237  0.446570  0.196959  1
  O  O24  1  0.836763  0.553430  0.696959  1
  O  O25  1  0.836763  0.946570  0.696959  1
  O  O26  1  0.908710  0.750000  0.255065  1
  O  O27  1  0.955598  0.250000  0.292207  1
