# generated using pymatgen
data_Fe10O9F11
_symmetry_space_group_name_H-M   'P 1'
_cell_length_a   4.76279443
_cell_length_b   4.77013093
_cell_length_c   15.51832111
_cell_angle_alpha   89.97635455
_cell_angle_beta   90.04132355
_cell_angle_gamma   91.27951849
_symmetry_Int_Tables_number   1
_chemical_formula_structural   Fe10O9F11
_chemical_formula_sum   'Fe10 O9 F11'
_cell_volume   352.47508300
_cell_formula_units_Z   1
loop_
 _symmetry_equiv_pos_site_id
 _symmetry_equiv_pos_as_xyz
  1  'x, y, z'
loop_
 _atom_site_type_symbol
 _atom_site_label
 _atom_site_symmetry_multiplicity
 _atom_site_fract_x
 _atom_site_fract_y
 _atom_site_fract_z
 _atom_site_occupancy
  Fe  Fe0  1  0.986713  0.988500  0.000894  1
  Fe  Fe1  1  0.040889  0.022578  0.206364  1
  Fe  Fe2  1  0.988153  0.943415  0.400828  1
  Fe  Fe3  1  0.049969  0.003120  0.597267  1
  Fe  Fe4  1  0.032810  0.013388  0.794007  1
  Fe  Fe5  1  0.489478  0.483035  0.093461  1
  Fe  Fe6  1  0.482240  0.517453  0.499576  1
  Fe  Fe7  1  0.479599  0.524462  0.297906  1
  Fe  Fe8  1  0.456464  0.504508  0.701362  1
  Fe  Fe9  1  0.490304  0.482749  0.907719  1
  O  O10  1  0.189013  0.808055  0.300718  1
  O  O11  1  0.191406  0.800717  0.499119  1
  O  O12  1  0.197937  0.816996  0.698516  1
  O  O13  1  0.297485  0.292430  0.000668  1
  O  O14  1  0.316383  0.318018  0.200921  1
  O  O15  1  0.315792  0.316286  0.597970  1
  O  O16  1  0.309205  0.313037  0.801018  1
  O  O17  1  0.684902  0.679719  0.000627  1
  O  O18  1  0.677730  0.676799  0.399631  1
  F  F19  1  0.200201  0.804163  0.108028  1
  F  F20  1  0.194485  0.799549  0.892925  1
  F  F21  1  0.290289  0.292149  0.399664  1
  F  F22  1  0.708237  0.711807  0.200539  1
  F  F23  1  0.702207  0.707078  0.600576  1
  F  F24  1  0.703749  0.705411  0.798649  1
  F  F25  1  0.806964  0.194766  0.110165  1
  F  F26  1  0.804486  0.189396  0.499169  1
  F  F27  1  0.800384  0.196201  0.303129  1
  F  F28  1  0.802964  0.188592  0.891056  1
  F  F29  1  0.809562  0.205625  0.697524  1
