# generated using pymatgen
data_CoPO4
_symmetry_space_group_name_H-M   'P 1'
_cell_length_a   10.38730957
_cell_length_b   13.71204890
_cell_length_c   5.21375933
_cell_angle_alpha   90.00000000
_cell_angle_beta   90.00000000
_cell_angle_gamma   90.00000000
_symmetry_Int_Tables_number   1
_chemical_formula_structural   CoPO4
_chemical_formula_sum   'Co8 P8 O32'
_cell_volume   742.60250238
_cell_formula_units_Z   8
loop_
 _symmetry_equiv_pos_site_id
 _symmetry_equiv_pos_as_xyz
  1  'x, y, z'
loop_
 _atom_site_type_symbol
 _atom_site_label
 _atom_site_symmetry_multiplicity
 _atom_site_fract_x
 _atom_site_fract_y
 _atom_site_fract_z
 _atom_site_occupancy
  Co  Co0  1  0.040043  0.752091  0.069032  1
  Co  Co1  1  0.221546  0.000216  0.553288  1
  Co  Co2  1  0.278454  0.500216  0.553288  1
  Co  Co3  1  0.459957  0.252091  0.069032  1
  Co  Co4  1  0.540043  0.752091  0.930968  1
  Co  Co5  1  0.721546  0.000216  0.446712  1
  Co  Co6  1  0.778454  0.500216  0.446712  1
  Co  Co7  1  0.959957  0.252091  0.930968  1
  P  P8  1  0.027583  0.376294  0.429661  1
  P  P9  1  0.213014  0.127851  0.049956  1
  P  P10  1  0.286986  0.627851  0.049956  1
  P  P11  1  0.472417  0.876294  0.429661  1
  P  P12  1  0.527583  0.376294  0.570339  1
  P  P13  1  0.713014  0.127851  0.950044  1
  P  P14  1  0.786986  0.627851  0.950044  1
  P  P15  1  0.972417  0.876294  0.570339  1
  O  O16  1  0.997028  0.856168  0.858702  1
  O  O17  1  0.048563  0.969331  0.494653  1
  O  O18  1  0.015450  0.786186  0.411853  1
  O  O19  1  0.068296  0.148101  0.005591  1
  O  O20  1  0.173072  0.395435  0.469569  1
  O  O21  1  0.208227  0.719462  0.973309  1
  O  O22  1  0.250749  0.535792  0.891408  1
  O  O23  1  0.244299  0.106439  0.335140  1
  O  O24  1  0.255701  0.606439  0.335140  1
  O  O25  1  0.249251  0.035792  0.891408  1
  O  O26  1  0.291773  0.219462  0.973309  1
  O  O27  1  0.326928  0.895435  0.469569  1
  O  O28  1  0.431704  0.648101  0.005591  1
  O  O29  1  0.484550  0.286186  0.411853  1
  O  O30  1  0.451437  0.469331  0.494653  1
  O  O31  1  0.502972  0.356168  0.858702  1
  O  O32  1  0.497028  0.856168  0.141298  1
  O  O33  1  0.548563  0.969331  0.505347  1
  O  O34  1  0.515450  0.786186  0.588147  1
  O  O35  1  0.568296  0.148101  0.994409  1
  O  O36  1  0.673072  0.395435  0.530431  1
  O  O37  1  0.708227  0.719462  0.026691  1
  O  O38  1  0.750748  0.535792  0.108592  1
  O  O39  1  0.744299  0.106439  0.664860  1
  O  O40  1  0.755701  0.606439  0.664860  1
  O  O41  1  0.749252  0.035792  0.108592  1
  O  O42  1  0.791773  0.219462  0.026691  1
  O  O43  1  0.826928  0.895435  0.530431  1
  O  O44  1  0.931704  0.648101  0.994409  1
  O  O45  1  0.984550  0.286186  0.588147  1
  O  O46  1  0.951437  0.469331  0.505347  1
  O  O47  1  0.002972  0.356168  0.141298  1
