# generated using pymatgen
data_LiMnPO4
_symmetry_space_group_name_H-M   'P 1'
_cell_length_a   7.77545352
_cell_length_b   7.77556037
_cell_length_c   9.87430316
_cell_angle_alpha   90.00626693
_cell_angle_beta   89.99685024
_cell_angle_gamma   120.00056996
_symmetry_Int_Tables_number   1
_chemical_formula_structural   LiMnPO4
_chemical_formula_sum   'Li6 Mn6 P6 O24'
_cell_volume   517.00175733
_cell_formula_units_Z   6
loop_
 _symmetry_equiv_pos_site_id
 _symmetry_equiv_pos_as_xyz
  1  'x, y, z'
loop_
 _atom_site_type_symbol
 _atom_site_label
 _atom_site_symmetry_multiplicity
 _atom_site_fract_x
 _atom_site_fract_y
 _atom_site_fract_z
 _atom_site_occupancy
  Li  Li0  1  0.034166  0.591629  0.490634  1
  Li  Li1  1  0.557601  0.966028  0.490561  1
  Li  Li2  1  0.408359  0.442527  0.490655  1
  Li  Li3  1  0.442400  0.408427  0.990561  1
  Li  Li4  1  0.591642  0.034169  0.990655  1
  Li  Li5  1  0.965834  0.557463  0.990634  1
  Mn  Mn6  1  0.232429  0.947170  0.267784  1
  Mn  Mn7  1  0.052942  0.285349  0.267822  1
  Mn  Mn8  1  0.285260  0.052851  0.767747  1
  Mn  Mn9  1  0.714734  0.767585  0.267748  1
  Mn  Mn10  1  0.767574  0.714743  0.767780  1
  Mn  Mn11  1  0.947055  0.232406  0.767820  1
  P  P12  1  0.333321  0.666675  0.176387  1
  P  P13  1  0.000011  -0.000002  0.002415  1
  P  P14  1  0.999991  0.999989  0.502414  1
  P  P15  1  0.333277  0.666597  0.774215  1
  P  P16  1  0.666678  0.333354  0.676388  1
  P  P17  1  0.666724  0.333321  0.274213  1
  O  O18  1  0.079123  0.864668  0.450889  1
  O  O19  1  0.186089  0.732955  0.124914  1
  O  O20  1  0.391665  0.876406  0.831822  1
  O  O21  1  0.123561  0.515238  0.831959  1
  O  O22  1  0.267054  0.453172  0.124881  1
  O  O23  1  0.333299  0.666632  0.334016  1
  O  O24  1  0.000016  0.000021  0.164119  1
  O  O25  1  0.999985  0.000006  0.664119  1
  O  O26  1  0.333186  0.666434  0.617755  1
  O  O27  1  0.135336  0.214437  0.450898  1
  O  O28  1  0.214462  0.135325  0.950885  1
  O  O29  1  0.546835  0.813926  0.124915  1
  O  O30  1  0.484717  0.608314  0.831898  1
  O  O31  1  0.785538  0.920863  0.450885  1
  O  O32  1  0.453161  0.267088  0.624914  1
  O  O33  1  0.515284  0.123598  0.331899  1
  O  O34  1  0.608336  0.484741  0.331822  1
  O  O35  1  0.813912  0.546867  0.624914  1
  O  O36  1  0.666702  0.333334  0.834017  1
  O  O37  1  0.666814  0.333247  0.117755  1
  O  O38  1  0.920877  0.785544  0.950888  1
  O  O39  1  0.732947  0.186121  0.624883  1
  O  O40  1  0.876438  0.391678  0.331960  1
  O  O41  1  0.864665  0.079102  0.950898  1
