# generated using pymatgen
data_LiMnP2O7
_symmetry_space_group_name_H-M   'P 1'
_cell_length_a   8.54449059
_cell_length_b   5.17566091
_cell_length_c   12.71510251
_cell_angle_alpha   90.00000000
_cell_angle_beta   98.51506909
_cell_angle_gamma   90.00000000
_symmetry_Int_Tables_number   1
_chemical_formula_structural   LiMnP2O7
_chemical_formula_sum   'Li4 Mn4 P8 O28'
_cell_volume   556.10657307
_cell_formula_units_Z   4
loop_
 _symmetry_equiv_pos_site_id
 _symmetry_equiv_pos_as_xyz
  1  'x, y, z'
loop_
 _atom_site_type_symbol
 _atom_site_label
 _atom_site_symmetry_multiplicity
 _atom_site_fract_x
 _atom_site_fract_y
 _atom_site_fract_z
 _atom_site_occupancy
  Li  Li0  1  0.216633  0.185140  0.978403  1
  Li  Li1  1  0.283367  0.685140  0.521597  1
  Li  Li2  1  0.716633  0.314860  0.478403  1
  Li  Li3  1  0.783367  0.814860  0.021597  1
  Mn  Mn4  1  0.174389  0.284447  0.642049  1
  Mn  Mn5  1  0.325611  0.784447  0.857951  1
  Mn  Mn6  1  0.674389  0.215553  0.142049  1
  Mn  Mn7  1  0.825611  0.715553  0.357951  1
  P  P8  1  0.015935  0.728965  0.840543  1
  P  P9  1  0.061162  0.207886  0.386613  1
  P  P10  1  0.484065  0.228965  0.659457  1
  P  P11  1  0.561162  0.292114  0.886613  1
  P  P12  1  0.438838  0.707886  0.113387  1
  P  P13  1  0.515935  0.771035  0.340543  1
  P  P14  1  0.938838  0.792114  0.613387  1
  P  P15  1  0.984065  0.271035  0.159457  1
  O  O16  1  0.124627  0.976274  0.839029  1
  O  O17  1  0.150490  0.520304  0.833116  1
  O  O18  1  0.088416  0.631910  0.604360  1
  O  O19  1  0.020761  0.916565  0.385229  1
  O  O20  1  0.106098  0.277210  0.269596  1
  O  O21  1  0.201850  0.278195  0.467476  1
  O  O22  1  0.078846  0.288198  0.071841  1
  O  O23  1  0.411584  0.131910  0.895640  1
  O  O24  1  0.349510  0.020304  0.666884  1
  O  O25  1  0.375374  0.476274  0.660971  1
  O  O26  1  0.421154  0.788198  0.428159  1
  O  O27  1  0.520761  0.583435  0.885229  1
  O  O28  1  0.298150  0.778195  0.032524  1
  O  O29  1  0.393902  0.777210  0.230404  1
  O  O30  1  0.606098  0.222790  0.769596  1
  O  O31  1  0.701850  0.221805  0.967476  1
  O  O32  1  0.479239  0.416565  0.114771  1
  O  O33  1  0.578846  0.211802  0.571841  1
  O  O34  1  0.624626  0.523726  0.339029  1
  O  O35  1  0.650490  0.979696  0.333116  1
  O  O36  1  0.588416  0.868090  0.104360  1
  O  O37  1  0.921154  0.711802  0.928159  1
  O  O38  1  0.798150  0.721805  0.532524  1
  O  O39  1  0.893902  0.722790  0.730404  1
  O  O40  1  0.979239  0.083435  0.614771  1
  O  O41  1  0.911584  0.368090  0.395640  1
  O  O42  1  0.849510  0.479696  0.166884  1
  O  O43  1  0.875374  0.023726  0.160971  1
