# generated using pymatgen
data_LiNi5P3O13
_symmetry_space_group_name_H-M   'P 1'
_cell_length_a   6.02693982
_cell_length_b   8.41447799
_cell_length_c   9.76502695
_cell_angle_alpha   96.62891307
_cell_angle_beta   95.75888220
_cell_angle_gamma   90.10121370
_symmetry_Int_Tables_number   1
_chemical_formula_structural   LiNi5P3O13
_chemical_formula_sum   'Li2 Ni10 P6 O26'
_cell_volume   489.38115930
_cell_formula_units_Z   2
loop_
 _symmetry_equiv_pos_site_id
 _symmetry_equiv_pos_as_xyz
  1  'x, y, z'
loop_
 _atom_site_type_symbol
 _atom_site_label
 _atom_site_symmetry_multiplicity
 _atom_site_fract_x
 _atom_site_fract_y
 _atom_site_fract_z
 _atom_site_occupancy
  Li  Li0  1  0.222394  0.420710  0.451600  1
  Li  Li1  1  0.777606  0.579290  0.548400  1
  Ni  Ni2  1  0.018106  0.116586  0.778506  1
  Ni  Ni3  1  0.268209  0.849538  0.925885  1
  Ni  Ni4  1  0.285223  0.794165  0.617203  1
  Ni  Ni5  1  0.228076  0.586595  0.106295  1
  Ni  Ni6  1  0.524017  0.118158  0.767159  1
  Ni  Ni7  1  0.475983  0.881841  0.232841  1
  Ni  Ni8  1  0.771924  0.413405  0.893705  1
  Ni  Ni9  1  0.714777  0.205835  0.382797  1
  Ni  Ni10  1  0.731791  0.150462  0.074115  1
  Ni  Ni11  1  0.981894  0.883414  0.221494  1
  P  P12  1  0.260791  0.470737  0.770322  1
  P  P13  1  0.241140  0.114355  0.479604  1
  P  P14  1  0.250118  0.182793  0.108139  1
  P  P15  1  0.749882  0.817207  0.891861  1
  P  P16  1  0.758860  0.885645  0.520396  1
  P  P17  1  0.739209  0.529263  0.229678  1
  O  O18  1  0.047172  0.364893  0.765940  1
  O  O19  1  0.034454  0.219575  0.459564  1
  O  O20  1  0.040284  0.113869  0.162395  1
  O  O21  1  0.276177  0.111836  0.953255  1
  O  O22  1  0.274305  0.599861  0.898507  1
  O  O23  1  0.254862  0.050856  0.630434  1
  O  O24  1  0.253225  0.555516  0.635539  1
  O  O25  1  0.242915  0.960138  0.377096  1
  O  O26  1  0.214430  0.816349  0.107508  1
  O  O27  1  0.238912  0.362361  0.130416  1
  O  O28  1  0.468712  0.361566  0.781189  1
  O  O29  1  0.437971  0.230427  0.474580  1
  O  O30  1  0.528122  0.874866  0.807200  1
  O  O31  1  0.471878  0.125134  0.192800  1
  O  O32  1  0.562029  0.769573  0.525420  1
  O  O33  1  0.531288  0.638434  0.218811  1
  O  O34  1  0.761088  0.637639  0.869584  1
  O  O35  1  0.785570  0.183651  0.892492  1
  O  O36  1  0.757085  0.039862  0.622904  1
  O  O37  1  0.746775  0.444484  0.364461  1
  O  O38  1  0.745138  0.949144  0.369566  1
  O  O39  1  0.725695  0.400139  0.101493  1
  O  O40  1  0.723823  0.888164  0.046745  1
  O  O41  1  0.959716  0.886131  0.837605  1
  O  O42  1  0.965546  0.780425  0.540436  1
  O  O43  1  0.952828  0.635107  0.234060  1
