# generated using pymatgen
data_V2O3F
_symmetry_space_group_name_H-M   'P 1'
_cell_length_a   4.70433095
_cell_length_b   9.89184258
_cell_length_c   6.00446382
_cell_angle_alpha   72.33209110
_cell_angle_beta   89.99662052
_cell_angle_gamma   86.91996778
_symmetry_Int_Tables_number   1
_chemical_formula_structural   V2O3F
_chemical_formula_sum   'V8 O12 F4'
_cell_volume   265.81183208
_cell_formula_units_Z   4
loop_
 _symmetry_equiv_pos_site_id
 _symmetry_equiv_pos_as_xyz
  1  'x, y, z'
loop_
 _atom_site_type_symbol
 _atom_site_label
 _atom_site_symmetry_multiplicity
 _atom_site_fract_x
 _atom_site_fract_y
 _atom_site_fract_z
 _atom_site_occupancy
  V  V0  1  0.447429  0.223748  0.638129  1
  V  V1  1  0.500000  0.750000  0.375000  1
  V  V2  1  0.552571  0.276252  0.111871  1
  V  V3  1  0.500000  0.750000  0.875000  1
  V  V4  1  0.015260  0.501510  0.739735  1
  V  V5  1  0.984737  0.998482  0.491235  1
  V  V6  1  0.984740  0.998490  0.010265  1
  V  V7  1  0.015263  0.501518  0.258765  1
  O  O8  1  0.813167  0.406324  0.046851  1
  O  O9  1  0.798205  0.899839  0.300072  1
  O  O10  1  0.695192  0.654020  0.174966  1
  O  O11  1  0.689055  0.154566  0.923077  1
  O  O12  1  0.689070  0.154568  0.422362  1
  O  O13  1  0.695213  0.654019  0.671061  1
  O  O14  1  0.304787  0.845981  0.078939  1
  O  O15  1  0.310945  0.345434  0.826923  1
  O  O16  1  0.304808  0.845980  0.575034  1
  O  O17  1  0.310930  0.345432  0.327638  1
  O  O18  1  0.186833  0.093676  0.703149  1
  O  O19  1  0.201795  0.600161  0.449928  1
  F  F20  1  0.801924  0.398637  0.550690  1
  F  F21  1  0.789928  0.899652  0.800178  1
  F  F22  1  0.210072  0.600348  0.949822  1
  F  F23  1  0.198076  0.101363  0.199310  1
