# generated using pymatgen
data_LiMnPO4
_symmetry_space_group_name_H-M   'P 1'
_cell_length_a   8.49945615
_cell_length_b   5.24614138
_cell_length_c   8.81843328
_cell_angle_alpha   90.00000000
_cell_angle_beta   108.88067746
_cell_angle_gamma   90.00000000
_symmetry_Int_Tables_number   1
_chemical_formula_structural   LiMnPO4
_chemical_formula_sum   'Li4 Mn4 P4 O16'
_cell_volume   372.05144915
_cell_formula_units_Z   4
loop_
 _symmetry_equiv_pos_site_id
 _symmetry_equiv_pos_as_xyz
  1  'x, y, z'
loop_
 _atom_site_type_symbol
 _atom_site_label
 _atom_site_symmetry_multiplicity
 _atom_site_fract_x
 _atom_site_fract_y
 _atom_site_fract_z
 _atom_site_occupancy
  Li  Li0  1  0.103873  0.826925  0.982062  1
  Li  Li1  1  0.257358  0.315632  0.501205  1
  Li  Li2  1  0.603873  0.173075  0.982062  1
  Li  Li3  1  0.757358  0.684368  0.501205  1
  Mn  Mn4  1  0.996262  0.676567  0.254497  1
  Mn  Mn5  1  0.330461  0.819052  0.732261  1
  Mn  Mn6  1  0.496262  0.323433  0.254497  1
  Mn  Mn7  1  0.830461  0.180948  0.732261  1
  P  P8  1  0.226104  0.315398  0.864630  1
  P  P9  1  0.367502  0.818955  0.369789  1
  P  P10  1  0.726104  0.684602  0.864630  1
  P  P11  1  0.867502  0.181045  0.369789  1
  O  O12  1  0.074281  0.174944  0.886943  1
  O  O13  1  0.024793  0.312635  0.353197  1
  O  O14  1  0.188717  0.605505  0.838926  1
  O  O15  1  0.264046  0.204647  0.715224  1
  O  O16  1  0.219103  0.779816  0.213359  1
  O  O17  1  0.315762  0.690090  0.506755  1
  O  O18  1  0.574281  0.825056  0.886943  1
  O  O19  1  0.403787  0.106994  0.407534  1
  O  O20  1  0.381751  0.265725  0.012417  1
  O  O21  1  0.524793  0.687365  0.353197  1
  O  O22  1  0.688717  0.394495  0.838926  1
  O  O23  1  0.764046  0.795353  0.715224  1
  O  O24  1  0.719103  0.220184  0.213359  1
  O  O25  1  0.815762  0.309910  0.506755  1
  O  O26  1  0.903787  0.893006  0.407534  1
  O  O27  1  0.881751  0.734275  0.012417  1
