# generated using pymatgen
data_Co3(AsO4)2
_symmetry_space_group_name_H-M   'P 1'
_cell_length_a   6.96195837
_cell_length_b   10.65690895
_cell_length_c   6.96195837
_cell_angle_alpha   70.93499698
_cell_angle_beta   90.00000000
_cell_angle_gamma   109.06500308
_symmetry_Int_Tables_number   1
_chemical_formula_structural   Co3(AsO4)2
_chemical_formula_sum   'Co9 As6 O24'
_cell_volume   458.11479660
_cell_formula_units_Z   3
loop_
 _symmetry_equiv_pos_site_id
 _symmetry_equiv_pos_as_xyz
  1  'x, y, z'
loop_
 _atom_site_type_symbol
 _atom_site_label
 _atom_site_symmetry_multiplicity
 _atom_site_fract_x
 _atom_site_fract_y
 _atom_site_fract_z
 _atom_site_occupancy
  Co  Co0  1  0.377703  0.247772  0.122100  1
  Co  Co1  1  0.774410  0.548821  0.225590  1
  Co  Co2  1  0.250000  0.500000  0.250000  1
  Co  Co3  1  0.630127  0.752228  0.377703  1
  Co  Co4  1  0.870069  0.247772  0.630127  1
  Co  Co5  1  0.521492  0.042983  0.978508  1
  Co  Co6  1  0.978508  0.957017  0.521492  1
  Co  Co7  1  0.225590  0.451179  0.774410  1
  Co  Co8  1  0.122100  0.752228  0.870069  1
  As  As9  1  0.000000  0.000000  0.000000  1
  As  As10  1  0.875005  0.246805  0.221492  1
  As  As11  1  0.371800  0.246805  0.531703  1
  As  As12  1  0.221492  0.753195  0.371800  1
  As  As13  1  0.750000  0.500000  0.750000  1
  As  As14  1  0.531703  0.753195  0.875005  1
  O  O15  1  0.254944  0.088607  0.008935  1
  O  O16  1  0.652521  0.210843  0.112786  1
  O  O17  1  0.107860  0.300851  0.075275  1
  O  O18  1  0.623873  0.699149  0.107860  1
  O  O19  1  0.262791  0.117156  0.427220  1
  O  O20  1  0.470622  0.393355  0.298563  1
  O  O21  1  0.922733  0.393355  0.308082  1
  O  O22  1  0.854365  0.117156  0.455624  1
  O  O23  1  0.075275  0.699149  0.192993  1
  O  O24  1  0.902458  0.911393  0.254944  1
  O  O25  1  0.455624  0.882844  0.262791  1
  O  O26  1  0.558323  0.210843  0.676371  1
  O  O27  1  0.192993  0.300851  0.623873  1
  O  O28  1  0.308082  0.606645  0.470622  1
  O  O29  1  0.733382  0.586756  0.495606  1
  O  O30  1  0.833663  0.088607  0.902458  1
  O  O31  1  0.917638  0.413244  0.733382  1
  O  O32  1  0.112786  0.789157  0.558323  1
  O  O33  1  0.676371  0.789157  0.652521  1
  O  O34  1  0.495606  0.413244  0.853374  1
  O  O35  1  0.853374  0.586756  0.917638  1
  O  O36  1  0.298563  0.606645  0.922733  1
  O  O37  1  0.427220  0.882844  0.854365  1
  O  O38  1  0.008935  0.911393  0.833663  1
