# generated using pymatgen
data_BaCaI4
_symmetry_space_group_name_H-M   'P 1'
_cell_length_a   9.09102565
_cell_length_b   11.47795260
_cell_length_c   11.11802133
_cell_angle_alpha   90.00000000
_cell_angle_beta   90.00000000
_cell_angle_gamma   90.00000000
_symmetry_Int_Tables_number   1
_chemical_formula_structural   BaCaI4
_chemical_formula_sum   'Ba4 Ca4 I16'
_cell_volume   1160.12507282
_cell_formula_units_Z   4
loop_
 _symmetry_equiv_pos_site_id
 _symmetry_equiv_pos_as_xyz
  1  'x, y, z'
loop_
 _atom_site_type_symbol
 _atom_site_label
 _atom_site_symmetry_multiplicity
 _atom_site_fract_x
 _atom_site_fract_y
 _atom_site_fract_z
 _atom_site_occupancy
  Ba  Ba0  1  0.180712  0.750000  0.750000  1
  Ba  Ba1  1  0.319288  0.250000  0.750000  1
  Ba  Ba2  1  0.680712  0.750000  0.250000  1
  Ba  Ba3  1  0.819288  0.250000  0.250000  1
  Ca  Ca4  1  0.250000  0.000000  0.183427  1
  Ca  Ca5  1  0.250000  0.500000  0.316573  1
  Ca  Ca6  1  0.750000  0.500000  0.683427  1
  Ca  Ca7  1  0.750000  0.000000  0.816573  1
  I  I8  1  0.036992  0.032854  0.689886  1
  I  I9  1  0.036992  0.467146  0.810114  1
  I  I10  1  0.145205  0.207996  0.044453  1
  I  I11  1  0.145205  0.292004  0.455547  1
  I  I12  1  0.354795  0.792004  0.044453  1
  I  I13  1  0.354795  0.707996  0.455547  1
  I  I14  1  0.463008  0.532854  0.810114  1
  I  I15  1  0.463008  0.967146  0.689886  1
  I  I16  1  0.536992  0.032854  0.310114  1
  I  I17  1  0.536992  0.467146  0.189886  1
  I  I18  1  0.645205  0.292004  0.544453  1
  I  I19  1  0.645205  0.207996  0.955547  1
  I  I20  1  0.854795  0.707996  0.544453  1
  I  I21  1  0.854795  0.792004  0.955547  1
  I  I22  1  0.963008  0.532854  0.189886  1
  I  I23  1  0.963008  0.967146  0.310114  1
