# generated using pymatgen
data_Fe10O9F11
_symmetry_space_group_name_H-M   'P 1'
_cell_length_a   4.74708724
_cell_length_b   4.76514156
_cell_length_c   15.56703365
_cell_angle_alpha   90.00000000
_cell_angle_beta   90.00000000
_cell_angle_gamma   91.93367945
_symmetry_Int_Tables_number   1
_chemical_formula_structural   Fe10O9F11
_chemical_formula_sum   'Fe10 O9 F11'
_cell_volume   351.93422729
_cell_formula_units_Z   1
loop_
 _symmetry_equiv_pos_site_id
 _symmetry_equiv_pos_as_xyz
  1  'x, y, z'
loop_
 _atom_site_type_symbol
 _atom_site_label
 _atom_site_symmetry_multiplicity
 _atom_site_fract_x
 _atom_site_fract_y
 _atom_site_fract_z
 _atom_site_occupancy
  Fe  Fe0  1  0.990166  0.990535  0.000000  1
  Fe  Fe1  1  0.026974  0.013013  0.206366  1
  Fe  Fe2  1  0.042388  0.988826  0.400320  1
  Fe  Fe3  1  0.042388  0.988826  0.599680  1
  Fe  Fe4  1  0.026974  0.013013  0.793634  1
  Fe  Fe5  1  0.490027  0.485899  0.094309  1
  Fe  Fe6  1  0.459129  0.493376  0.500000  1
  Fe  Fe7  1  0.455068  0.501145  0.297981  1
  Fe  Fe8  1  0.455068  0.501145  0.702019  1
  Fe  Fe9  1  0.490027  0.485899  0.905691  1
  O  O10  1  0.195344  0.805328  0.300558  1
  O  O11  1  0.198099  0.803425  0.500000  1
  O  O12  1  0.195344  0.805328  0.699442  1
  O  O13  1  0.292597  0.289946  0.000000  1
  O  O14  1  0.313807  0.315415  0.194829  1
  O  O15  1  0.306622  0.308006  0.399045  1
  O  O16  1  0.306622  0.308006  0.600955  1
  O  O17  1  0.313807  0.315415  0.805171  1
  O  O18  1  0.696936  0.693219  0.000000  1
  F  F19  1  0.194983  0.802016  0.098097  1
  F  F20  1  0.194983  0.802016  0.901903  1
  F  F21  1  0.702174  0.705053  0.196147  1
  F  F22  1  0.696927  0.699970  0.399051  1
  F  F23  1  0.696927  0.699970  0.600949  1
  F  F24  1  0.702174  0.705053  0.803853  1
  F  F25  1  0.804842  0.190367  0.099677  1
  F  F26  1  0.807127  0.192092  0.500000  1
  F  F27  1  0.798818  0.203665  0.301349  1
  F  F28  1  0.804842  0.190367  0.900323  1
  F  F29  1  0.798818  0.203665  0.698651  1
