# generated using pymatgen
data_Ti3VFe2(PO4)6
_symmetry_space_group_name_H-M   'P 1'
_cell_length_a   8.58175937
_cell_length_b   8.68666094
_cell_length_c   8.68666129
_cell_angle_alpha   60.00000173
_cell_angle_beta   59.59481102
_cell_angle_gamma   59.59481188
_symmetry_Int_Tables_number   1
_chemical_formula_structural   Ti3VFe2(PO4)6
_chemical_formula_sum   'Ti3 V1 Fe2 P6 O24'
_cell_volume   455.07184478
_cell_formula_units_Z   1
loop_
 _symmetry_equiv_pos_site_id
 _symmetry_equiv_pos_as_xyz
  1  'x, y, z'
loop_
 _atom_site_type_symbol
 _atom_site_label
 _atom_site_symmetry_multiplicity
 _atom_site_fract_x
 _atom_site_fract_y
 _atom_site_fract_z
 _atom_site_occupancy
  Ti  Ti0  1  0.066257  0.644581  0.644581  1
  Ti  Ti1  1  0.429590  0.856804  0.856804  1
  Ti  Ti2  1  0.936549  0.354483  0.354483  1
  V  V3  1  0.577711  0.140763  0.140763  1
  Fe  Fe4  1  0.996368  0.001210  0.001210  1
  Fe  Fe5  1  0.497485  0.500838  0.500838  1
  P  P6  1  0.252232  0.248978  0.543362  1
  P  P7  1  0.252232  0.955430  0.248978  1
  P  P8  1  0.252232  0.543362  0.955430  1
  P  P9  1  0.750541  0.457976  0.043624  1
  P  P10  1  0.750541  0.043624  0.747860  1
  P  P11  1  0.750541  0.747860  0.457976  1
  O  O12  1  0.069446  0.118446  0.315144  1
  O  O13  1  0.069446  0.496963  0.118446  1
  O  O14  1  0.069446  0.315144  0.496963  1
  O  O15  1  0.226271  0.089950  0.740642  1
  O  O16  1  0.432410  0.186813  0.391053  1
  O  O17  1  0.261463  0.413256  0.564254  1
  O  O18  1  0.226271  0.943137  0.089950  1
  O  O19  1  0.261463  0.761028  0.413256  1
  O  O20  1  0.569284  0.618448  0.997771  1
  O  O21  1  0.261463  0.564254  0.761028  1
  O  O22  1  0.780733  0.264299  0.052170  1
  O  O23  1  0.569284  0.997771  0.814498  1
  O  O24  1  0.432410  0.989723  0.186813  1
  O  O25  1  0.226271  0.740642  0.943137  1
  O  O26  1  0.728262  0.447489  0.238208  1
  O  O27  1  0.432410  0.391053  0.989723  1
  O  O28  1  0.728262  0.238208  0.586041  1
  O  O29  1  0.780733  0.052170  0.902797  1
  O  O30  1  0.728262  0.586041  0.447489  1
  O  O31  1  0.569284  0.814498  0.618448  1
  O  O32  1  0.780733  0.902797  0.264299  1
  O  O33  1  0.928038  0.677587  0.510562  1
  O  O34  1  0.928038  0.510562  0.883812  1
  O  O35  1  0.928038  0.883812  0.677587  1
