# generated using pymatgen
data_Li3V3P8O29
_symmetry_space_group_name_H-M   'P 1'
_cell_length_a   9.74038072
_cell_length_b   9.74022552
_cell_length_c   14.31226680
_cell_angle_alpha   90.21458824
_cell_angle_beta   90.21520339
_cell_angle_gamma   60.10153594
_symmetry_Int_Tables_number   1
_chemical_formula_structural   Li3V3P8O29
_chemical_formula_sum   'Li6 V6 P16 O58'
_cell_volume   1177.12710464
_cell_formula_units_Z   2
loop_
 _symmetry_equiv_pos_site_id
 _symmetry_equiv_pos_as_xyz
  1  'x, y, z'
loop_
 _atom_site_type_symbol
 _atom_site_label
 _atom_site_symmetry_multiplicity
 _atom_site_fract_x
 _atom_site_fract_y
 _atom_site_fract_z
 _atom_site_occupancy
  Li  Li0  1  0.907410  0.326176  0.558893  1
  Li  Li1  1  0.766811  0.327762  0.058391  1
  Li  Li2  1  0.326170  0.907435  0.058885  1
  Li  Li3  1  0.327716  0.766877  0.558388  1
  Li  Li4  1  0.984658  0.959865  0.003361  1
  Li  Li5  1  0.959775  0.984613  0.503407  1
  V  V6  1  0.564147  0.435002  0.252137  1
  V  V7  1  0.435007  0.564156  0.752115  1
  V  V8  1  0.566961  0.997112  0.746667  1
  V  V9  1  0.440447  0.002663  0.251718  1
  V  V10  1  0.997137  0.566959  0.246663  1
  V  V11  1  0.002696  0.440422  0.751722  1
  P  P12  1  0.915701  0.783304  0.839709  1
  P  P13  1  0.783342  0.915678  0.339682  1
  P  P14  1  0.914450  0.312646  0.343849  1
  P  P15  1  0.664345  0.665181  0.131544  1
  P  P16  1  0.665185  0.664319  0.631524  1
  P  P17  1  0.776356  0.314800  0.842890  1
  P  P18  1  0.694072  0.220375  0.662878  1
  P  P19  1  0.312608  0.914473  0.843851  1
  P  P20  1  0.696542  0.084961  0.156617  1
  P  P21  1  0.314787  0.776362  0.342912  1
  P  P22  1  0.220374  0.694102  0.162892  1
  P  P23  1  0.329317  0.337613  0.365594  1
  P  P24  1  0.337663  0.329295  0.865596  1
  P  P25  1  0.084958  0.696529  0.656661  1
  P  P26  1  0.219670  0.085573  0.662898  1
  P  P27  1  0.085546  0.219667  0.162910  1
  O  O28  1  0.008581  0.791978  0.572569  1
  O  O29  1  0.915091  0.740451  0.328570  1
  O  O30  1  0.791931  0.008621  0.072554  1
  O  O31  1  0.740460  0.915016  0.828566  1
  O  O32  1  0.921279  0.619938  0.826892  1
  O  O33  1  0.811620  0.666003  0.176724  1
  O  O34  1  0.913501  0.469802  0.326502  1
  O  O35  1  0.990960  0.209456  0.084051  1
  O  O36  1  0.914779  0.348544  0.827587  1
  O  O37  1  0.665939  0.811624  0.676697  1
  O  O38  1  0.619984  0.921242  0.326899  1
  O  O39  1  0.814713  0.514448  0.672127  1
  O  O40  1  0.663770  0.658457  0.027679  1
  O  O41  1  0.658427  0.663736  0.527649  1
  O  O42  1  0.669160  0.513162  0.173717  1
  O  O43  1  0.469771  0.913532  0.826529  1
  O  O44  1  0.514444  0.814714  0.172145  1
  O  O45  1  0.742675  0.342809  0.327693  1
  O  O46  1  0.791141  0.197690  0.759841  1
  O  O47  1  0.798280  0.206687  0.583039  1
  O  O48  1  0.785136  0.240366  0.934689  1
  O  O49  1  0.618472  0.472611  0.825763  1
  O  O50  1  0.513162  0.669134  0.673695  1
  O  O51  1  0.653109  0.262569  0.162883  1
  O  O52  1  0.472592  0.618466  0.325791  1
  O  O53  1  0.348574  0.914764  0.327616  1
  O  O54  1  0.799577  0.004150  0.249270  1
  O  O55  1  0.798766  0.992681  0.424600  1
  O  O56  1  0.209475  0.991001  0.584028  1
  O  O57  1  0.655024  0.084479  0.664893  1
  O  O58  1  0.538723  0.381076  0.672814  1
  O  O59  1  0.342791  0.742686  0.827672  1
  O  O60  1  0.477966  0.337562  0.320660  1
  O  O61  1  0.381076  0.538757  0.172841  1
  O  O62  1  0.206683  0.798302  0.083047  1
  O  O63  1  0.240332  0.785151  0.434697  1
  O  O64  1  0.197672  0.791180  0.259851  1
  O  O65  1  0.262535  0.653131  0.662901  1
  O  O66  1  0.480960  0.183493  0.819350  1
  O  O67  1  0.541434  0.077435  0.170702  1
  O  O68  1  0.337600  0.477953  0.820663  1
  O  O69  1  0.334280  0.331430  0.968778  1
  O  O70  1  0.331505  0.334175  0.468783  1
  O  O71  1  0.183506  0.480928  0.319364  1
  O  O72  1  0.381130  0.080297  0.672455  1
  O  O73  1  0.334640  0.186633  0.318558  1
  O  O74  1  0.084500  0.655019  0.164895  1
  O  O75  1  0.004164  0.799580  0.749298  1
  O  O76  1  0.992652  0.798718  0.924633  1
  O  O77  1  0.077413  0.541446  0.670694  1
  O  O78  1  0.186654  0.334648  0.818563  1
  O  O79  1  0.080254  0.381151  0.172441  1
  O  O80  1  0.260976  0.083279  0.160987  1
  O  O81  1  0.237106  0.977558  0.936008  1
  O  O82  1  0.194349  0.017641  0.761146  1
  O  O83  1  0.083277  0.261001  0.660974  1
  O  O84  1  0.977544  0.237176  0.436030  1
  O  O85  1  0.017624  0.194358  0.261166  1
