# generated using pymatgen
data_Li5V3(NiO5)2
_symmetry_space_group_name_H-M   'P 1'
_cell_length_a   5.06970513
_cell_length_b   5.20218565
_cell_length_c   7.92562305
_cell_angle_alpha   106.96862637
_cell_angle_beta   102.66511900
_cell_angle_gamma   100.61921899
_symmetry_Int_Tables_number   1
_chemical_formula_structural   Li5V3(NiO5)2
_chemical_formula_sum   'Li5 V3 Ni2 O10'
_cell_volume   188.03235221
_cell_formula_units_Z   1
loop_
 _symmetry_equiv_pos_site_id
 _symmetry_equiv_pos_as_xyz
  1  'x, y, z'
loop_
 _atom_site_type_symbol
 _atom_site_label
 _atom_site_symmetry_multiplicity
 _atom_site_fract_x
 _atom_site_fract_y
 _atom_site_fract_z
 _atom_site_occupancy
  Li  Li0  1  0.188355  0.930601  0.423970  1
  Li  Li1  1  0.380807  0.285844  0.769695  1
  Li  Li2  1  0.500000  0.500000  0.500000  1
  Li  Li3  1  0.619193  0.714156  0.230305  1
  Li  Li4  1  0.811645  0.069399  0.576030  1
  V  V5  1  0.000000  0.500000  0.000000  1
  V  V6  1  0.680225  0.894181  0.881594  1
  V  V7  1  0.319775  0.105819  0.118406  1
  Ni  Ni8  1  0.086628  0.678696  0.682959  1
  Ni  Ni9  1  0.913372  0.321304  0.317041  1
  O  O10  1  0.048150  0.109720  0.872681  1
  O  O11  1  0.349490  0.734186  0.956874  1
  O  O12  1  0.144361  0.307739  0.550459  1
  O  O13  1  0.243229  0.466757  0.224044  1
  O  O14  1  0.477603  0.908034  0.672900  1
  O  O15  1  0.522397  0.091966  0.327100  1
  O  O16  1  0.756771  0.533243  0.775956  1
  O  O17  1  0.855639  0.692261  0.449541  1
  O  O18  1  0.650510  0.265814  0.043126  1
  O  O19  1  0.951850  0.890280  0.127319  1
