# generated using pymatgen
data_Sr2CdAs2
_symmetry_space_group_name_H-M   'P 1'
_cell_length_a   4.48219974
_cell_length_b   7.68813657
_cell_length_c   8.83742656
_cell_angle_alpha   90.00000000
_cell_angle_beta   75.30983150
_cell_angle_gamma   90.00000000
_symmetry_Int_Tables_number   1
_chemical_formula_structural   Sr2CdAs2
_chemical_formula_sum   'Sr4 Cd2 As4'
_cell_volume   294.58075173
_cell_formula_units_Z   2
loop_
 _symmetry_equiv_pos_site_id
 _symmetry_equiv_pos_as_xyz
  1  'x, y, z'
loop_
 _atom_site_type_symbol
 _atom_site_label
 _atom_site_symmetry_multiplicity
 _atom_site_fract_x
 _atom_site_fract_y
 _atom_site_fract_z
 _atom_site_occupancy
  Sr  Sr0  1  0.465853  0.264012  0.068297  1
  Sr  Sr1  1  0.297152  0.607350  0.405698  1
  Sr  Sr2  1  0.702849  0.107349  0.594302  1
  Sr  Sr3  1  0.534149  0.764012  0.931703  1
  Cd  Cd4  1  0.904033  0.922012  0.191938  1
  Cd  Cd5  1  0.095969  0.422012  0.808062  1
  As  As6  1  0.936671  0.558116  0.126660  1
  As  As7  1  0.324469  0.014152  0.351064  1
  As  As8  1  0.675533  0.514152  0.648936  1
  As  As9  1  0.063331  0.058116  0.873339  1
