# generated using pymatgen
data_K2Y4Cu4Se9
_symmetry_space_group_name_H-M   'P 1'
_cell_length_a   4.12312275
_cell_length_b   7.46931899
_cell_length_c   15.84175109
_cell_angle_alpha   93.78970468
_cell_angle_beta   97.47737379
_cell_angle_gamma   106.02184657
_symmetry_Int_Tables_number   1
_chemical_formula_structural   K2Y4Cu4Se9
_chemical_formula_sum   'K2 Y4 Cu4 Se9'
_cell_volume   462.26722375
_cell_formula_units_Z   1
loop_
 _symmetry_equiv_pos_site_id
 _symmetry_equiv_pos_as_xyz
  1  'x, y, z'
loop_
 _atom_site_type_symbol
 _atom_site_label
 _atom_site_symmetry_multiplicity
 _atom_site_fract_x
 _atom_site_fract_y
 _atom_site_fract_z
 _atom_site_occupancy
  K  K0  1  0.236260  0.203567  0.268953  1
  K  K1  1  0.763739  0.796432  0.731047  1
  Y  Y2  1  0.871132  0.639225  0.103043  1
  Y  Y3  1  0.099231  0.754351  0.444110  1
  Y  Y4  1  0.900768  0.245649  0.555890  1
  Y  Y5  1  0.128867  0.360775  0.896958  1
  Cu  Cu6  1  0.603872  0.178657  0.029089  1
  Cu  Cu7  1  0.511366  0.751350  0.271383  1
  Cu  Cu8  1  0.488634  0.248650  0.728617  1
  Cu  Cu9  1  0.396128  0.821343  0.970911  1
  Se  Se10  1  0.212639  0.347237  0.078039  1
  Se  Se11  1  0.522456  0.915348  0.129565  1
  Se  Se12  1  0.921747  0.566139  0.277358  1
  Se  Se13  1  0.697060  0.998913  0.395208  1
  Se  Se14  1  0.500000  0.500000  0.500000  1
  Se  Se15  1  0.302940  0.001087  0.604792  1
  Se  Se16  1  0.078252  0.433859  0.722642  1
  Se  Se17  1  0.477544  0.084652  0.870435  1
  Se  Se18  1  0.787361  0.652763  0.921961  1
