# generated using pymatgen
data_Yb2TeO6
_symmetry_space_group_name_H-M   'P 1'
_cell_length_a   9.32937152
_cell_length_b   9.32937152
_cell_length_c   5.25744628
_cell_angle_alpha   90.00000000
_cell_angle_beta   90.00000000
_cell_angle_gamma   119.99999999
_symmetry_Int_Tables_number   1
_chemical_formula_structural   Yb2TeO6
_chemical_formula_sum   'Yb6 Te3 O18'
_cell_volume   396.28738891
_cell_formula_units_Z   3
loop_
 _symmetry_equiv_pos_site_id
 _symmetry_equiv_pos_as_xyz
  1  'x, y, z'
loop_
 _atom_site_type_symbol
 _atom_site_label
 _atom_site_symmetry_multiplicity
 _atom_site_fract_x
 _atom_site_fract_y
 _atom_site_fract_z
 _atom_site_occupancy
  O  O0  1  0.751591  0.219685  0.710093  1
  O  O1  1  0.780315  0.531906  0.710093  1
  O  O2  1  0.468094  0.248409  0.710093  1
  O  O3  1  0.531906  0.780315  0.289907  1
  O  O4  1  0.248409  0.468094  0.289907  1
  O  O5  1  0.219685  0.751591  0.289907  1
  O  O6  1  0.582444  0.445746  0.297320  1
  O  O7  1  0.554254  0.136698  0.297320  1
  O  O8  1  0.863302  0.417556  0.297320  1
  O  O9  1  0.083028  0.886021  0.793377  1
  O  O10  1  0.113979  0.197007  0.793377  1
  O  O11  1  0.802993  0.916972  0.793377  1
  O  O12  1  0.197007  0.113979  0.206623  1
  O  O13  1  0.916972  0.802993  0.206623  1
  O  O14  1  0.886021  0.083028  0.206623  1
  O  O15  1  0.445746  0.582444  0.702680  1
  O  O16  1  0.417556  0.863302  0.702680  1
  O  O17  1  0.136698  0.554254  0.702680  1
  Te  Te18  1  0.666667  0.333333  0.508567  1
  Te  Te19  1  0.333333  0.666667  0.491433  1
  Te  Te20  1  0.000000  0.000000  0.000000  1
  Yb  Yb21  1  0.715983  0.715983  0.500000  1
  Yb  Yb22  1  0.000000  0.284017  0.500000  1
  Yb  Yb23  1  0.284017  0.000000  0.500000  1
  Yb  Yb24  1  0.370366  0.370366  0.000000  1
  Yb  Yb25  1  0.000000  0.629634  0.000000  1
  Yb  Yb26  1  0.629634  0.000000  0.000000  1
