# generated using pymatgen
data_Li3Mn4(BO3)4
_symmetry_space_group_name_H-M   'P 1'
_cell_length_a   12.36296459
_cell_length_b   7.92029285
_cell_length_c   5.23887807
_cell_angle_alpha   88.17645356
_cell_angle_beta   87.21795103
_cell_angle_gamma   80.25904471
_symmetry_Int_Tables_number   1
_chemical_formula_structural   Li3Mn4(BO3)4
_chemical_formula_sum   'Li6 Mn8 B8 O24'
_cell_volume   504.84512097
_cell_formula_units_Z   2
loop_
 _symmetry_equiv_pos_site_id
 _symmetry_equiv_pos_as_xyz
  1  'x, y, z'
loop_
 _atom_site_type_symbol
 _atom_site_label
 _atom_site_symmetry_multiplicity
 _atom_site_fract_x
 _atom_site_fract_y
 _atom_site_fract_z
 _atom_site_occupancy
  Li  Li0  1  0.265935  0.152413  0.912182  1
  Li  Li1  1  0.767933  0.154063  0.910553  1
  Li  Li2  1  0.234065  0.847587  0.087818  1
  Li  Li3  1  0.511053  0.633276  0.426350  1
  Li  Li4  1  0.988947  0.366724  0.573650  1
  Li  Li5  1  0.732067  0.845937  0.089447  1
  Mn  Mn6  1  0.379634  0.994494  0.398905  1
  Mn  Mn7  1  0.125652  0.510156  0.902448  1
  Mn  Mn8  1  0.374348  0.489844  0.097552  1
  Mn  Mn9  1  0.120366  0.005506  0.601095  1
  Mn  Mn10  1  0.879706  0.992866  0.404015  1
  Mn  Mn11  1  0.626702  0.494645  0.896385  1
  Mn  Mn12  1  0.873298  0.505355  0.103615  1
  Mn  Mn13  1  0.620294  0.007134  0.595985  1
  B  B14  1  0.045247  0.172539  0.096726  1
  B  B15  1  0.205980  0.327154  0.402740  1
  B  B16  1  0.551737  0.165774  0.099870  1
  B  B17  1  0.294020  0.672846  0.597260  1
  B  B18  1  0.709070  0.336939  0.400751  1
  B  B19  1  0.454753  0.827461  0.903274  1
  B  B20  1  0.790930  0.663061  0.599249  1
  B  B21  1  0.948263  0.834226  0.900130  1
  O  O22  1  0.126535  0.049347  0.990874  1
  O  O23  1  0.001721  0.318583  0.957128  1
  O  O24  1  0.009158  0.154110  0.352169  1
  O  O25  1  0.245526  0.170009  0.532306  1
  O  O26  1  0.130894  0.447020  0.518929  1
  O  O27  1  0.631644  0.046469  0.984294  1
  O  O28  1  0.241507  0.345291  0.144724  1
  O  O29  1  0.518945  0.326899  0.988466  1
  O  O30  1  0.506345  0.128408  0.339438  1
  O  O31  1  0.258493  0.654709  0.855276  1
  O  O32  1  0.369106  0.552980  0.481071  1
  O  O33  1  0.744725  0.182308  0.531432  1
  O  O34  1  0.254474  0.829991  0.467694  1
  O  O35  1  0.636706  0.467126  0.508379  1
  O  O36  1  0.746296  0.354113  0.141144  1
  O  O37  1  0.490842  0.845890  0.647831  1
  O  O38  1  0.498279  0.681417  0.042872  1
  O  O39  1  0.753704  0.645887  0.858856  1
  O  O40  1  0.373465  0.950653  0.009126  1
  O  O41  1  0.863294  0.532874  0.491621  1
  O  O42  1  0.755275  0.817692  0.468568  1
  O  O43  1  0.993655  0.871592  0.660562  1
  O  O44  1  0.981055  0.673101  0.011534  1
  O  O45  1  0.868356  0.953531  0.015706  1
