# generated using pymatgen
data_Li2Fe(SiO3)2
_symmetry_space_group_name_H-M   'P 1'
_cell_length_a   12.40130208
_cell_length_b   11.15692590
_cell_length_c   6.32756807
_cell_angle_alpha   73.52653518
_cell_angle_beta   75.21947933
_cell_angle_gamma   85.85137795
_symmetry_Int_Tables_number   1
_chemical_formula_structural   Li2Fe(SiO3)2
_chemical_formula_sum   'Li12 Fe6 Si12 O36'
_cell_volume   811.76679935
_cell_formula_units_Z   6
loop_
 _symmetry_equiv_pos_site_id
 _symmetry_equiv_pos_as_xyz
  1  'x, y, z'
loop_
 _atom_site_type_symbol
 _atom_site_label
 _atom_site_symmetry_multiplicity
 _atom_site_fract_x
 _atom_site_fract_y
 _atom_site_fract_z
 _atom_site_occupancy
  Li  Li0  1  0.023016  0.000000  0.488492  1
  Li  Li1  1  0.698941  0.000000  0.150530  1
  Li  Li2  1  0.458343  0.130701  0.954348  1
  Li  Li3  1  0.134429  0.219544  0.570492  1
  Li  Li4  1  0.634429  0.280456  0.540037  1
  Li  Li5  1  0.958343  0.369299  0.835051  1
  Li  Li6  1  0.523016  0.500000  0.238492  1
  Li  Li7  1  0.198941  0.500000  0.900529  1
  Li  Li8  1  0.958343  0.630701  0.206606  1
  Li  Li9  1  0.634429  0.719544  0.825536  1
  Li  Li10  1  0.134429  0.780456  0.295080  1
  Li  Li11  1  0.458343  0.869299  0.587308  1
  Fe  Fe12  1  0.262560  0.000000  0.368720  1
  Fe  Fe13  1  0.852852  0.166640  0.725418  1
  Fe  Fe14  1  0.352852  0.333360  0.642058  1
  Fe  Fe15  1  0.762560  0.500000  0.118720  1
  Fe  Fe16  1  0.352852  0.666640  0.005090  1
  Fe  Fe17  1  0.852852  0.833360  0.421730  1
  Si  Si18  1  0.672500  0.000000  0.663750  1
  Si  Si19  1  0.027908  0.000000  0.986046  1
  Si  Si20  1  0.482802  0.115796  0.455000  1
  Si  Si21  1  0.134487  0.216762  0.079718  1
  Si  Si22  1  0.634487  0.283238  0.046481  1
  Si  Si23  1  0.982802  0.384204  0.320797  1
  Si  Si24  1  0.172500  0.500000  0.413750  1
  Si  Si25  1  0.527908  0.500000  0.736046  1
  Si  Si26  1  0.982802  0.615796  0.696402  1
  Si  Si27  1  0.634487  0.716762  0.319032  1
  Si  Si28  1  0.134487  0.783238  0.785795  1
  Si  Si29  1  0.482802  0.884204  0.062198  1
  O  O30  1  0.589225  0.013520  0.483417  1
  O  O31  1  0.960076  0.024550  0.791877  1
  O  O32  1  0.375702  0.028753  0.519351  1
  O  O33  1  0.144032  0.133172  0.329781  1
  O  O34  1  0.110787  0.127035  0.922105  1
  O  O35  1  0.737750  0.130818  0.583048  1
  O  O36  1  0.516040  0.196331  0.178511  1
  O  O37  1  0.736649  0.188755  0.000532  1
  O  O38  1  0.477933  0.203042  0.623567  1
  O  O39  1  0.977933  0.296958  0.576608  1
  O  O40  1  0.236649  0.311245  0.939287  1
  O  O41  1  0.016040  0.303669  0.124841  1
  O  O42  1  0.237750  0.369182  0.463866  1
  O  O43  1  0.610787  0.372965  0.799141  1
  O  O44  1  0.644032  0.366827  0.212953  1
  O  O45  1  0.875702  0.471247  0.298104  1
  O  O46  1  0.460076  0.475450  0.566426  1
  O  O47  1  0.089225  0.486480  0.246937  1
  O  O48  1  0.089225  0.513520  0.663838  1
  O  O49  1  0.460076  0.524550  0.973497  1
  O  O50  1  0.875702  0.528753  0.826194  1
  O  O51  1  0.644032  0.633173  0.143015  1
  O  O52  1  0.610787  0.627035  0.590072  1
  O  O53  1  0.237750  0.630818  0.298384  1
  O  O54  1  0.016040  0.696331  0.859118  1
  O  O55  1  0.236649  0.688755  0.824063  1
  O  O56  1  0.977933  0.703042  0.445458  1
  O  O57  1  0.477933  0.796958  0.898499  1
  O  O58  1  0.736649  0.811245  0.262819  1
  O  O59  1  0.516040  0.803669  0.305449  1
  O  O60  1  0.737750  0.869182  0.679202  1
  O  O61  1  0.110787  0.872965  0.967108  1
  O  O62  1  0.144032  0.866827  0.526187  1
  O  O63  1  0.375702  0.971247  0.104947  1
  O  O64  1  0.960076  0.975450  0.248047  1
  O  O65  1  0.589225  0.986480  0.927356  1
