# generated using pymatgen
data_Li4Mn3Co2Sb3O16
_symmetry_space_group_name_H-M   'P 1'
_cell_length_a   6.18106866
_cell_length_b   6.09679424
_cell_length_c   9.81489348
_cell_angle_alpha   90.00488029
_cell_angle_beta   90.69202906
_cell_angle_gamma   119.55690130
_symmetry_Int_Tables_number   1
_chemical_formula_structural   Li4Mn3Co2Sb3O16
_chemical_formula_sum   'Li4 Mn3 Co2 Sb3 O16'
_cell_volume   321.70736894
_cell_formula_units_Z   1
loop_
 _symmetry_equiv_pos_site_id
 _symmetry_equiv_pos_as_xyz
  1  'x, y, z'
loop_
 _atom_site_type_symbol
 _atom_site_label
 _atom_site_symmetry_multiplicity
 _atom_site_fract_x
 _atom_site_fract_y
 _atom_site_fract_z
 _atom_site_occupancy
  Li  Li0  1  0.326001  0.663002  0.875746  1
  Li  Li1  1  0.974532  0.987245  0.992715  1
  Li  Li2  1  0.990531  0.995296  0.506144  1
  Li  Li3  1  0.653149  0.326604  0.396725  1
  Mn  Mn4  1  0.663279  0.831651  0.216961  1
  Mn  Mn5  1  0.832495  0.663306  0.715074  1
  Mn  Mn6  1  0.832514  0.169211  0.715144  1
  Co  Co7  1  0.346068  0.673042  0.511530  1
  Co  Co8  1  0.686236  0.343149  0.981373  1
  Sb  Sb9  1  0.169096  0.831140  0.215211  1
  Sb  Sb10  1  0.169089  0.338007  0.215191  1
  Sb  Sb11  1  0.343842  0.171913  0.715063  1
  O  O12  1  0.169722  0.849103  0.601692  1
  O  O13  1  0.028016  0.514029  0.332161  1
  O  O14  1  0.306032  0.653046  0.096656  1
  O  O15  1  0.024622  0.012350  0.322482  1
  O  O16  1  0.021431  0.010433  0.814722  1
  O  O17  1  0.169495  0.320593  0.601817  1
  O  O18  1  0.474953  0.963434  0.329727  1
  O  O19  1  0.474924  0.511535  0.329732  1
  O  O20  1  0.308491  0.154257  0.101695  1
  O  O21  1  0.693025  0.846474  0.611338  1
  O  O22  1  0.516184  0.481051  0.836743  1
  O  O23  1  0.516437  0.035181  0.836653  1
  O  O24  1  0.650670  0.325559  0.599226  1
  O  O25  1  0.851294  0.687211  0.106322  1
  O  O26  1  0.956568  0.478362  0.823707  1
  O  O27  1  0.851304  0.164119  0.106289  1
