# generated using pymatgen
data_NbH8N2O2F5
_symmetry_space_group_name_H-M   'P 1'
_cell_length_a   9.45309285
_cell_length_b   9.08325219
_cell_length_c   7.74257983
_cell_angle_alpha   90.00000000
_cell_angle_beta   90.00000000
_cell_angle_gamma   90.00000000
_symmetry_Int_Tables_number   1
_chemical_formula_structural   NbH8N2O2F5
_chemical_formula_sum   'Nb4 H32 N8 O8 F20'
_cell_volume   664.81527246
_cell_formula_units_Z   4
loop_
 _symmetry_equiv_pos_site_id
 _symmetry_equiv_pos_as_xyz
  1  'x, y, z'
loop_
 _atom_site_type_symbol
 _atom_site_label
 _atom_site_symmetry_multiplicity
 _atom_site_fract_x
 _atom_site_fract_y
 _atom_site_fract_z
 _atom_site_occupancy
  Nb  Nb0  1  0.136467  0.250000  0.025093  1
  Nb  Nb1  1  0.363533  0.750000  0.525093  1
  Nb  Nb2  1  0.636467  0.250000  0.474907  1
  Nb  Nb3  1  0.863533  0.750000  0.974907  1
  H  H4  1  0.024781  0.560223  0.670313  1
  H  H5  1  0.024781  0.939777  0.670313  1
  H  H6  1  0.089535  0.580362  0.379220  1
  H  H7  1  0.089535  0.919638  0.379220  1
  H  H8  1  0.119920  0.096484  0.457954  1
  H  H9  1  0.119920  0.403516  0.457954  1
  H  H10  1  0.190208  0.750000  0.937359  1
  H  H11  1  0.239237  0.750000  0.132083  1
  H  H12  1  0.260763  0.250000  0.632083  1
  H  H13  1  0.309792  0.250000  0.437359  1
  H  H14  1  0.380080  0.596484  0.957954  1
  H  H15  1  0.380080  0.903516  0.957954  1
  H  H16  1  0.410465  0.080362  0.879220  1
  H  H17  1  0.410465  0.419638  0.879220  1
  H  H18  1  0.475219  0.060223  0.170313  1
  H  H19  1  0.475219  0.439777  0.170313  1
  H  H20  1  0.524781  0.560223  0.829687  1
  H  H21  1  0.524781  0.939777  0.829687  1
  H  H22  1  0.589535  0.580362  0.120780  1
  H  H23  1  0.589535  0.919638  0.120780  1
  H  H24  1  0.619920  0.096484  0.042046  1
  H  H25  1  0.619920  0.403516  0.042046  1
  H  H26  1  0.690208  0.750000  0.562641  1
  H  H27  1  0.739237  0.750000  0.367917  1
  H  H28  1  0.760763  0.250000  0.867917  1
  H  H29  1  0.809792  0.250000  0.062641  1
  H  H30  1  0.880080  0.596484  0.542046  1
  H  H31  1  0.880080  0.903516  0.542046  1
  H  H32  1  0.910465  0.080362  0.620780  1
  H  H33  1  0.910465  0.419638  0.620780  1
  H  H34  1  0.975219  0.060223  0.329687  1
  H  H35  1  0.975219  0.439777  0.329687  1
  N  N36  1  0.041561  0.017540  0.424452  1
  N  N37  1  0.041561  0.482460  0.424452  1
  N  N38  1  0.458439  0.517540  0.924452  1
  N  N39  1  0.458439  0.982460  0.924452  1
  N  N40  1  0.541561  0.017540  0.075548  1
  N  N41  1  0.541561  0.482460  0.075548  1
  N  N42  1  0.958439  0.517540  0.575548  1
  N  N43  1  0.958439  0.982460  0.575548  1
  O  O44  1  0.014313  0.750000  0.835768  1
  O  O45  1  0.224131  0.250000  0.512655  1
  O  O46  1  0.275869  0.750000  0.012655  1
  O  O47  1  0.485687  0.250000  0.335768  1
  O  O48  1  0.514313  0.750000  0.664232  1
  O  O49  1  0.724131  0.250000  0.987345  1
  O  O50  1  0.775869  0.750000  0.487345  1
  O  O51  1  0.985687  0.250000  0.164232  1
  F  F52  1  0.077608  0.101222  0.857133  1
  F  F53  1  0.077608  0.398778  0.857133  1
  F  F54  1  0.164609  0.750000  0.362438  1
  F  F55  1  0.245600  0.096852  0.149415  1
  F  F56  1  0.245600  0.403148  0.149415  1
  F  F57  1  0.254400  0.596852  0.649415  1
  F  F58  1  0.254400  0.903148  0.649415  1
  F  F59  1  0.335391  0.250000  0.862438  1
  F  F60  1  0.422392  0.601222  0.357133  1
  F  F61  1  0.422392  0.898778  0.357133  1
  F  F62  1  0.577608  0.101222  0.642867  1
  F  F63  1  0.577608  0.398778  0.642867  1
  F  F64  1  0.664609  0.750000  0.137562  1
  F  F65  1  0.745600  0.096852  0.350585  1
  F  F66  1  0.745600  0.403148  0.350585  1
  F  F67  1  0.754400  0.596852  0.850585  1
  F  F68  1  0.754400  0.903148  0.850585  1
  F  F69  1  0.835391  0.250000  0.637562  1
  F  F70  1  0.922392  0.601222  0.142867  1
  F  F71  1  0.922392  0.898778  0.142867  1
