# generated using pymatgen
data_NiS2
_symmetry_space_group_name_H-M   'P 1'
_cell_length_a   3.45400191
_cell_length_b   10.23505695
_cell_length_c   3.45246123
_cell_angle_alpha   90.00000000
_cell_angle_beta   119.98524562
_cell_angle_gamma   90.00000000
_symmetry_Int_Tables_number   1
_chemical_formula_structural   NiS2
_chemical_formula_sum   'Ni2 S4'
_cell_volume   105.71505201
_cell_formula_units_Z   2
loop_
 _symmetry_equiv_pos_site_id
 _symmetry_equiv_pos_as_xyz
  1  'x, y, z'
loop_
 _atom_site_type_symbol
 _atom_site_label
 _atom_site_symmetry_multiplicity
 _atom_site_fract_x
 _atom_site_fract_y
 _atom_site_fract_z
 _atom_site_occupancy
  Ni  Ni0  1  0.666792  0.250000  0.333396  1
  Ni  Ni1  1  0.333634  0.750000  0.666817  1
  S  S2  1  0.333194  0.142852  0.666597  1
  S  S3  1  0.333194  0.357148  0.666597  1
  S  S4  1  0.666593  0.642885  0.333296  1
  S  S5  1  0.666593  0.857115  0.333296  1
