# generated using pymatgen
data_CaSnS3
_symmetry_space_group_name_H-M   'P 1'
_cell_length_a   7.07891679
_cell_length_b   7.07891117
_cell_length_c   6.79479243
_cell_angle_alpha   58.60693611
_cell_angle_beta   58.60676695
_cell_angle_gamma   60.00016312
_symmetry_Int_Tables_number   1
_chemical_formula_structural   CaSnS3
_chemical_formula_sum   'Ca2 Sn2 S6'
_cell_volume   235.57077927
_cell_formula_units_Z   2
loop_
 _symmetry_equiv_pos_site_id
 _symmetry_equiv_pos_as_xyz
  1  'x, y, z'
loop_
 _atom_site_type_symbol
 _atom_site_label
 _atom_site_symmetry_multiplicity
 _atom_site_fract_x
 _atom_site_fract_y
 _atom_site_fract_z
 _atom_site_occupancy
  Ca  Ca0  1  0.750000  0.750000  0.750000  1
  Ca  Ca1  1  0.250000  0.250000  0.250000  1
  Sn  Sn2  1  0.500000  0.500000  0.500000  1
  Sn  Sn3  1  0.000000  0.000000  0.000000  1
  S  S4  1  0.750000  0.359809  0.750000  1
  S  S5  1  0.359808  0.140192  0.750001  1
  S  S6  1  0.140192  0.749999  0.750002  1
  S  S7  1  0.640192  0.859808  0.250002  1
  S  S8  1  0.859808  0.250001  0.250001  1
  S  S9  1  0.250000  0.640191  0.250000  1
