# generated using pymatgen
data_NdCoC2
_symmetry_space_group_name_H-M   'P 1'
_cell_length_a   3.79771099
_cell_length_b   3.79771081
_cell_length_c   7.39561967
_cell_angle_alpha   98.24161801
_cell_angle_beta   98.24161762
_cell_angle_gamma   90.08153660
_symmetry_Int_Tables_number   1
_chemical_formula_structural   NdCoC2
_chemical_formula_sum   'Nd2 Co2 C4'
_cell_volume   104.44603573
_cell_formula_units_Z   2
loop_
 _symmetry_equiv_pos_site_id
 _symmetry_equiv_pos_as_xyz
  1  'x, y, z'
loop_
 _atom_site_type_symbol
 _atom_site_label
 _atom_site_symmetry_multiplicity
 _atom_site_fract_x
 _atom_site_fract_y
 _atom_site_fract_z
 _atom_site_occupancy
  Nd  Nd0  1  0.927319  0.072326  0.500962  1
  Nd  Nd1  1  0.072326  0.927319  0.000962  1
  Co  Co2  1  0.373304  0.513223  0.308218  1
  Co  Co3  1  0.513223  0.373304  0.808218  1
  C  C4  1  0.853855  0.488128  0.228472  1
  C  C5  1  0.488128  0.853855  0.728472  1
  C  C6  1  0.442288  0.594758  0.575848  1
  C  C7  1  0.594758  0.442288  0.075848  1
