# generated using pymatgen
data_LiMn2(P2O7)2
_symmetry_space_group_name_H-M   'P 1'
_cell_length_a   9.65879153
_cell_length_b   9.70381703
_cell_length_c   11.21858021
_cell_angle_alpha   89.10861095
_cell_angle_beta   99.88165201
_cell_angle_gamma   89.74967977
_symmetry_Int_Tables_number   1
_chemical_formula_structural   LiMn2(P2O7)2
_chemical_formula_sum   'Li4 Mn8 P16 O56'
_cell_volume   1035.73420937
_cell_formula_units_Z   4
loop_
 _symmetry_equiv_pos_site_id
 _symmetry_equiv_pos_as_xyz
  1  'x, y, z'
loop_
 _atom_site_type_symbol
 _atom_site_label
 _atom_site_symmetry_multiplicity
 _atom_site_fract_x
 _atom_site_fract_y
 _atom_site_fract_z
 _atom_site_occupancy
  Li  Li0  1  0.599179  0.029939  0.496130  1
  Li  Li1  1  0.914847  0.910581  0.985738  1
  Li  Li2  1  0.846470  0.574484  0.470292  1
  Li  Li3  1  0.899991  0.287123  0.547873  1
  Mn  Mn4  1  0.201471  0.929288  0.661500  1
  Mn  Mn5  1  0.280717  0.230819  0.839668  1
  Mn  Mn6  1  0.221275  0.726178  0.163148  1
  Mn  Mn7  1  0.304251  0.429609  0.340644  1
  Mn  Mn8  1  0.696421  0.575345  0.676368  1
  Mn  Mn9  1  0.770378  0.281242  0.831569  1
  Mn  Mn10  1  0.712366  0.768154  0.165633  1
  Mn  Mn11  1  0.806918  0.066566  0.329001  1
  P  P12  1  0.022411  0.446945  0.750641  1
  P  P13  1  0.119105  0.715290  0.878358  1
  P  P14  1  0.072972  0.928577  0.248124  1
  P  P15  1  0.132932  0.151789  0.427253  1
  P  P16  1  0.374701  0.650591  0.577480  1
  P  P17  1  0.427036  0.423694  0.754491  1
  P  P18  1  0.529220  0.063068  0.760375  1
  P  P19  1  0.381977  0.214867  0.123572  1
  P  P20  1  0.610692  0.791603  0.890930  1
  P  P21  1  0.474157  0.940616  0.251394  1
  P  P22  1  0.567120  0.566838  0.242236  1
  P  P23  1  0.628814  0.340541  0.415190  1
  P  P24  1  0.874197  0.851537  0.575939  1
  P  P25  1  0.933586  0.069512  0.756656  1
  P  P26  1  0.885968  0.289556  0.114282  1
  P  P27  1  0.973105  0.560267  0.238619  1
  O  O28  1  0.020645  0.429671  0.618363  1
  O  O29  1  0.027390  0.842404  0.563752  1
  O  O30  1  0.084843  0.073079  0.727897  1
  O  O31  1  0.096526  0.336309  0.837510  1
  O  O32  1  0.099004  0.589581  0.786845  1
  O  O33  1  0.195556  0.824661  0.812866  1
  O  O34  1  0.213056  0.666199  0.996844  1
  O  O35  1  0.030463  0.250334  0.088046  1
  O  O36  1  0.137749  0.070251  0.301635  1
  O  O37  1  0.078039  0.918801  0.114218  1
  O  O38  1  0.124915  0.552165  0.206745  1
  O  O39  1  0.187546  0.295887  0.405169  1
  O  O40  1  0.168310  0.808081  0.307437  1
  O  O41  1  0.219078  0.068250  0.530536  1
  O  O42  1  0.292873  0.573750  0.471019  1
  O  O43  1  0.332390  0.306643  0.691421  1
  O  O44  1  0.324467  0.795704  0.598691  1
  O  O45  1  0.378025  0.053320  0.791150  1
  O  O46  1  0.360944  0.566838  0.701856  1
  O  O47  1  0.408505  0.404530  0.885858  1
  O  O48  1  0.464521  0.759018  0.917314  1
  O  O49  1  0.289795  0.167194  0.005582  1
  O  O50  1  0.310996  0.326680  0.186974  1
  O  O51  1  0.399928  0.087897  0.216241  1
  O  O52  1  0.415476  0.570774  0.269173  1
  O  O53  1  0.390652  0.836157  0.166577  1
  O  O54  1  0.538646  0.090427  0.631813  1
  O  O55  1  0.479094  0.338551  0.437071  1
  O  O56  1  0.534926  0.650623  0.573137  1
  O  O57  1  0.478253  0.923610  0.384159  1
  O  O58  1  0.614954  0.162144  0.851831  1
  O  O59  1  0.581781  0.420628  0.731191  1
  O  O60  1  0.599842  0.912363  0.792182  1
  O  O61  1  0.675409  0.670676  0.835221  1
  O  O62  1  0.714075  0.844296  0.003656  1
  O  O63  1  0.526221  0.255550  0.097275  1
  O  O64  1  0.582316  0.596222  0.111905  1
  O  O65  1  0.631331  0.418409  0.285821  1
  O  O66  1  0.625823  0.946227  0.216367  1
  O  O67  1  0.680994  0.191701  0.397441  1
  O  O68  1  0.668110  0.676136  0.312805  1
  O  O69  1  0.731831  0.418264  0.508982  1
  O  O70  1  0.782959  0.936605  0.474492  1
  O  O71  1  0.841819  0.192005  0.692083  1
  O  O72  1  0.816213  0.705653  0.594862  1
  O  O73  1  0.864119  0.459583  0.778114  1
  O  O74  1  0.917310  0.075124  0.887358  1
  O  O75  1  0.861757  0.930283  0.700125  1
  O  O76  1  0.975479  0.760315  0.898849  1
  O  O77  1  0.791203  0.343087  0.997823  1
  O  O78  1  0.817898  0.171779  0.175680  1
  O  O79  1  0.901059  0.411646  0.209143  1
  O  O80  1  0.887224  0.665067  0.150962  1
  O  O81  1  0.919998  0.922567  0.275964  1
  O  O82  1  0.975865  0.163492  0.436403  1
  O  O83  1  0.972947  0.581509  0.369540  1
