# generated using pymatgen
data_PmIn3
_symmetry_space_group_name_H-M   'P 1'
_cell_length_a   4.70780446
_cell_length_b   4.70784119
_cell_length_c   4.70066578
_cell_angle_alpha   89.99439010
_cell_angle_beta   90.00628333
_cell_angle_gamma   90.00412431
_symmetry_Int_Tables_number   1
_chemical_formula_structural   PmIn3
_chemical_formula_sum   'Pm1 In3'
_cell_volume   104.18365475
_cell_formula_units_Z   1
loop_
 _symmetry_equiv_pos_site_id
 _symmetry_equiv_pos_as_xyz
  1  'x, y, z'
loop_
 _atom_site_type_symbol
 _atom_site_label
 _atom_site_symmetry_multiplicity
 _atom_site_fract_x
 _atom_site_fract_y
 _atom_site_fract_z
 _atom_site_occupancy
  Pm  Pm0  1  0.999993  0.999989  0.000016  1
  In  In1  1  0.000001  0.500005  0.500000  1
  In  In2  1  0.500005  0.000005  0.499987  1
  In  In3  1  0.500002  0.500002  0.999998  1
