# generated using pymatgen
data_Ni(PO3)3
_symmetry_space_group_name_H-M   'P 1'
_cell_length_a   13.69599617
_cell_length_b   10.63053077
_cell_length_c   10.00157427
_cell_angle_alpha   90.00000000
_cell_angle_beta   90.00000000
_cell_angle_gamma   90.00000000
_symmetry_Int_Tables_number   1
_chemical_formula_structural   Ni(PO3)3
_chemical_formula_sum   'Ni8 P24 O72'
_cell_volume   1456.18629407
_cell_formula_units_Z   8
loop_
 _symmetry_equiv_pos_site_id
 _symmetry_equiv_pos_as_xyz
  1  'x, y, z'
loop_
 _atom_site_type_symbol
 _atom_site_label
 _atom_site_symmetry_multiplicity
 _atom_site_fract_x
 _atom_site_fract_y
 _atom_site_fract_z
 _atom_site_occupancy
  Ni  Ni0  1  0.000000  0.000000  0.000000  1
  Ni  Ni1  1  0.000000  0.000000  0.500000  1
  Ni  Ni2  1  0.250000  0.500000  0.027670  1
  Ni  Ni3  1  0.250000  0.500000  0.527670  1
  Ni  Ni4  1  0.500000  0.000000  0.000000  1
  Ni  Ni5  1  0.500000  0.000000  0.500000  1
  Ni  Ni6  1  0.750000  0.500000  0.472330  1
  Ni  Ni7  1  0.750000  0.500000  0.972330  1
  P  P8  1  0.101945  0.476804  0.287040  1
  P  P9  1  0.101945  0.523196  0.787040  1
  P  P10  1  0.124943  0.253263  0.450924  1
  P  P11  1  0.124943  0.746737  0.950924  1
  P  P12  1  0.146415  0.047778  0.262602  1
  P  P13  1  0.146415  0.952222  0.762602  1
  P  P14  1  0.353585  0.047778  0.762602  1
  P  P15  1  0.353585  0.952222  0.262602  1
  P  P16  1  0.375057  0.253263  0.950924  1
  P  P17  1  0.375057  0.746737  0.450924  1
  P  P18  1  0.398055  0.523196  0.287040  1
  P  P19  1  0.398055  0.476804  0.787040  1
  P  P20  1  0.601945  0.476804  0.712960  1
  P  P21  1  0.601945  0.523196  0.212960  1
  P  P22  1  0.624943  0.253263  0.549076  1
  P  P23  1  0.624943  0.746737  0.049076  1
  P  P24  1  0.646415  0.047778  0.737398  1
  P  P25  1  0.646415  0.952222  0.237398  1
  P  P26  1  0.853585  0.047778  0.237398  1
  P  P27  1  0.853585  0.952222  0.737398  1
  P  P28  1  0.875057  0.253263  0.049076  1
  P  P29  1  0.875057  0.746737  0.549076  1
  P  P30  1  0.898055  0.476804  0.212960  1
  P  P31  1  0.898055  0.523196  0.712960  1
  O  O32  1  0.000000  0.543710  0.250000  1
  O  O33  1  0.000000  0.456290  0.750000  1
  O  O34  1  0.058736  0.169399  0.531322  1
  O  O35  1  0.058736  0.830601  0.031322  1
  O  O36  1  0.062378  0.351053  0.362487  1
  O  O37  1  0.062378  0.648947  0.862487  1
  O  O38  1  0.085542  0.082458  0.144080  1
  O  O39  1  0.085542  0.917542  0.644080  1
  O  O40  1  0.105713  0.042607  0.864401  1
  O  O41  1  0.105713  0.957393  0.364401  1
  O  O42  1  0.153393  0.435599  0.161994  1
  O  O43  1  0.153393  0.564401  0.661994  1
  O  O44  1  0.154716  0.439056  0.883969  1
  O  O45  1  0.154716  0.560944  0.383969  1
  O  O46  1  0.181928  0.175049  0.337555  1
  O  O47  1  0.181928  0.824951  0.837555  1
  O  O48  1  0.196478  0.323532  0.537059  1
  O  O49  1  0.196478  0.676468  0.037059  1
  O  O50  1  0.250000  0.000000  0.206773  1
  O  O51  1  0.250000  0.000000  0.706773  1
  O  O52  1  0.303522  0.323532  0.037059  1
  O  O53  1  0.303522  0.676468  0.537059  1
  O  O54  1  0.318072  0.175049  0.837555  1
  O  O55  1  0.318072  0.824951  0.337555  1
  O  O56  1  0.345284  0.439056  0.383969  1
  O  O57  1  0.345284  0.560944  0.883969  1
  O  O58  1  0.346607  0.435599  0.661994  1
  O  O59  1  0.346607  0.564401  0.161994  1
  O  O60  1  0.394287  0.042607  0.364401  1
  O  O61  1  0.394287  0.957393  0.864401  1
  O  O62  1  0.414458  0.082458  0.644080  1
  O  O63  1  0.414458  0.917542  0.144080  1
  O  O64  1  0.437622  0.648947  0.362487  1
  O  O65  1  0.437622  0.351053  0.862487  1
  O  O66  1  0.441264  0.169399  0.031322  1
  O  O67  1  0.441264  0.830601  0.531322  1
  O  O68  1  0.500000  0.456290  0.250000  1
  O  O69  1  0.500000  0.543710  0.750000  1
  O  O70  1  0.558736  0.169399  0.468678  1
  O  O71  1  0.558736  0.830601  0.968678  1
  O  O72  1  0.562378  0.351053  0.637513  1
  O  O73  1  0.562378  0.648947  0.137513  1
  O  O74  1  0.585542  0.082458  0.855920  1
  O  O75  1  0.585542  0.917542  0.355920  1
  O  O76  1  0.605713  0.042607  0.135599  1
  O  O77  1  0.605713  0.957393  0.635599  1
  O  O78  1  0.653393  0.435599  0.838006  1
  O  O79  1  0.653393  0.564401  0.338006  1
  O  O80  1  0.654716  0.439056  0.116031  1
  O  O81  1  0.654716  0.560944  0.616031  1
  O  O82  1  0.681928  0.175049  0.662445  1
  O  O83  1  0.681928  0.824951  0.162445  1
  O  O84  1  0.696478  0.323532  0.462941  1
  O  O85  1  0.696478  0.676468  0.962941  1
  O  O86  1  0.750000  0.000000  0.293227  1
  O  O87  1  0.750000  0.000000  0.793227  1
  O  O88  1  0.803522  0.323532  0.962941  1
  O  O89  1  0.803522  0.676468  0.462941  1
  O  O90  1  0.818072  0.175049  0.162445  1
  O  O91  1  0.818072  0.824951  0.662445  1
  O  O92  1  0.845284  0.439056  0.616031  1
  O  O93  1  0.845284  0.560944  0.116031  1
  O  O94  1  0.846607  0.435599  0.338006  1
  O  O95  1  0.846607  0.564401  0.838006  1
  O  O96  1  0.894287  0.042607  0.635599  1
  O  O97  1  0.894287  0.957393  0.135599  1
  O  O98  1  0.914458  0.082458  0.355920  1
  O  O99  1  0.914458  0.917542  0.855920  1
  O  O100  1  0.937622  0.351053  0.137513  1
  O  O101  1  0.937622  0.648947  0.637513  1
  O  O102  1  0.941264  0.169399  0.968678  1
  O  O103  1  0.941264  0.830601  0.468678  1
