# generated using pymatgen
data_Li2Mn3(BO3)3
_symmetry_space_group_name_H-M   'P 1'
_cell_length_a   7.85410263
_cell_length_b   5.29808263
_cell_length_c   9.61347478
_cell_angle_alpha   75.77573906
_cell_angle_beta   75.23667606
_cell_angle_gamma   87.42198587
_symmetry_Int_Tables_number   1
_chemical_formula_structural   Li2Mn3(BO3)3
_chemical_formula_sum   'Li4 Mn6 B6 O18'
_cell_volume   374.90054295
_cell_formula_units_Z   2
loop_
 _symmetry_equiv_pos_site_id
 _symmetry_equiv_pos_as_xyz
  1  'x, y, z'
loop_
 _atom_site_type_symbol
 _atom_site_label
 _atom_site_symmetry_multiplicity
 _atom_site_fract_x
 _atom_site_fract_y
 _atom_site_fract_z
 _atom_site_occupancy
  Li  Li0  1  0.230288  0.467152  0.917725  1
  Li  Li1  1  0.086960  0.873402  0.426522  1
  Li  Li2  1  0.438581  0.191286  0.751937  1
  Li  Li3  1  0.752134  0.541269  0.093691  1
  Mn  Mn4  1  0.366705  0.769393  0.611761  1
  Mn  Mn5  1  0.031341  0.433774  0.292276  1
  Mn  Mn6  1  0.300428  0.885206  0.059699  1
  Mn  Mn7  1  0.706740  0.107428  0.954937  1
  Mn  Mn8  1  0.960675  0.555818  0.715834  1
  Mn  Mn9  1  0.625395  0.222166  0.382717  1
  B  B10  1  0.080868  0.005480  0.835173  1
  B  B11  1  0.582181  0.650250  0.842196  1
  B  B12  1  0.252037  0.321564  0.505861  1
  B  B13  1  0.751524  0.684565  0.486278  1
  B  B14  1  0.418741  0.349653  0.151583  1
  B  B15  1  0.916683  0.986598  0.174273  1
  O  O16  1  0.120970  0.767939  0.798611  1
  O  O17  1  0.192339  0.121327  0.892076  1
  O  O18  1  0.053184  0.851283  0.228782  1
  O  O19  1  0.549957  0.895898  0.869832  1
  O  O20  1  0.201013  0.560008  0.539169  1
  O  O21  1  0.477345  0.537939  0.779120  1
  O  O22  1  0.166146  0.207079  0.429833  1
  O  O23  1  0.719398  0.507518  0.893464  1
  O  O24  1  0.392678  0.192368  0.557796  1
  O  O25  1  0.608066  0.824131  0.451437  1
  O  O26  1  0.265086  0.470448  0.115919  1
  O  O27  1  0.853050  0.777674  0.557940  1
  O  O28  1  0.513990  0.453811  0.222407  1
  O  O29  1  0.790937  0.456089  0.437363  1
  O  O30  1  0.473779  0.128138  0.096819  1
  O  O31  1  0.931606  0.142239  0.803081  1
  O  O32  1  0.831115  0.877056  0.094802  1
  O  O33  1  0.870259  0.228680  0.204255  1
