# generated using pymatgen
data_Ta2CrNO5
_symmetry_space_group_name_H-M   'P 1'
_cell_length_a   4.77430010
_cell_length_b   4.77430010
_cell_length_c   9.22186237
_cell_angle_alpha   89.72588997
_cell_angle_beta   90.27411003
_cell_angle_gamma   90.24127524
_symmetry_Int_Tables_number   1
_chemical_formula_structural   Ta2CrNO5
_chemical_formula_sum   'Ta4 Cr2 N2 O10'
_cell_volume   210.19593597
_cell_formula_units_Z   2
loop_
 _symmetry_equiv_pos_site_id
 _symmetry_equiv_pos_as_xyz
  1  'x, y, z'
loop_
 _atom_site_type_symbol
 _atom_site_label
 _atom_site_symmetry_multiplicity
 _atom_site_fract_x
 _atom_site_fract_y
 _atom_site_fract_z
 _atom_site_occupancy
  Ta  Ta0  1  0.008443  0.991557  0.326212  1
  Ta  Ta1  1  0.991557  0.008443  0.673788  1
  Ta  Ta2  1  0.485638  0.514362  0.168701  1
  Ta  Ta3  1  0.514362  0.485638  0.831299  1
  Cr  Cr4  1  0.000000  0.000000  0.000000  1
  Cr  Cr5  1  0.500000  0.500000  0.500000  1
  N  N6  1  0.198783  0.801217  0.169167  1
  N  N7  1  0.801217  0.198783  0.830833  1
  O  O8  1  0.194862  0.805138  0.497855  1
  O  O9  1  0.196167  0.803833  0.829226  1
  O  O10  1  0.307236  0.300753  0.332518  1
  O  O11  1  0.300753  0.307236  0.667482  1
  O  O12  1  0.307827  0.307827  0.000000  1
  O  O13  1  0.692173  0.692173  0.000000  1
  O  O14  1  0.699247  0.692764  0.332518  1
  O  O15  1  0.692764  0.699247  0.667482  1
  O  O16  1  0.803833  0.196167  0.170774  1
  O  O17  1  0.805138  0.194862  0.502145  1
