# generated using pymatgen
data_LiFeP2O7
_symmetry_space_group_name_H-M   'P 1'
_cell_length_a   9.67233599
_cell_length_b   9.79440914
_cell_length_c   11.19216939
_cell_angle_alpha   89.84025335
_cell_angle_beta   101.42779828
_cell_angle_gamma   89.97856425
_symmetry_Int_Tables_number   1
_chemical_formula_structural   LiFeP2O7
_chemical_formula_sum   'Li8 Fe8 P16 O56'
_cell_volume   1039.26356301
_cell_formula_units_Z   8
loop_
 _symmetry_equiv_pos_site_id
 _symmetry_equiv_pos_as_xyz
  1  'x, y, z'
loop_
 _atom_site_type_symbol
 _atom_site_label
 _atom_site_symmetry_multiplicity
 _atom_site_fract_x
 _atom_site_fract_y
 _atom_site_fract_z
 _atom_site_occupancy
  Li  Li0  1  0.404708  0.608737  0.972575  1
  Li  Li1  1  0.336303  0.914113  0.462721  1
  Li  Li2  1  0.384949  0.218174  0.549518  1
  Li  Li3  1  0.591682  0.395955  0.031087  1
  Li  Li4  1  0.651342  0.101369  0.048232  1
  Li  Li5  1  0.919465  0.900659  0.974712  1
  Li  Li6  1  0.845856  0.575645  0.474986  1
  Li  Li7  1  0.886488  0.284888  0.547100  1
  Fe  Fe8  1  0.206373  0.911065  0.678046  1
  Fe  Fe9  1  0.243037  0.201862  0.829620  1
  Fe  Fe10  1  0.241454  0.720710  0.172016  1
  Fe  Fe11  1  0.291365  0.428738  0.328530  1
  Fe  Fe12  1  0.706505  0.587524  0.681265  1
  Fe  Fe13  1  0.754255  0.289508  0.826482  1
  Fe  Fe14  1  0.753400  0.788429  0.174185  1
  Fe  Fe15  1  0.793656  0.073992  0.333883  1
  P  P16  1  0.021375  0.447325  0.749219  1
  P  P17  1  0.110590  0.709407  0.883634  1
  P  P18  1  0.067619  0.920020  0.241091  1
  P  P19  1  0.123989  0.147130  0.418167  1
  P  P20  1  0.377990  0.639937  0.574407  1
  P  P21  1  0.437547  0.423208  0.764057  1
  P  P22  1  0.521334  0.053666  0.752248  1
  P  P23  1  0.381705  0.212162  0.117638  1
  P  P24  1  0.613912  0.793540  0.884989  1
  P  P25  1  0.476299  0.946873  0.246795  1
  P  P26  1  0.559290  0.578407  0.236715  1
  P  P27  1  0.622593  0.353906  0.422005  1
  P  P28  1  0.876963  0.857902  0.573951  1
  P  P29  1  0.930616  0.075272  0.761504  1
  P  P30  1  0.893083  0.283486  0.115520  1
  P  P31  1  0.974243  0.551596  0.245394  1
  O  O32  1  0.015661  0.424623  0.616208  1
  O  O33  1  0.034229  0.851616  0.571170  1
  O  O34  1  0.085977  0.080101  0.738615  1
  O  O35  1  0.102982  0.587244  0.785871  1
  O  O36  1  0.103907  0.340712  0.836426  1
  O  O37  1  0.184185  0.821830  0.822535  1
  O  O38  1  0.214823  0.660138  0.001592  1
  O  O39  1  0.033466  0.256926  0.090529  1
  O  O40  1  0.118257  0.068267  0.290806  1
  O  O41  1  0.078138  0.903155  0.109164  1
  O  O42  1  0.129344  0.542800  0.221501  1
  O  O43  1  0.189006  0.286121  0.402121  1
  O  O44  1  0.173520  0.816598  0.312912  1
  O  O45  1  0.221233  0.064628  0.517797  1
  O  O46  1  0.292820  0.563412  0.467423  1
  O  O47  1  0.345497  0.300863  0.709851  1
  O  O48  1  0.321365  0.784044  0.594228  1
  O  O49  1  0.366779  0.035063  0.777398  1
  O  O50  1  0.367217  0.557711  0.698131  1
  O  O51  1  0.437345  0.437510  0.897397  1
  O  O52  1  0.472855  0.763074  0.909842  1
  O  O53  1  0.282481  0.166385  0.998483  1
  O  O54  1  0.324583  0.329686  0.183343  1
  O  O55  1  0.391017  0.086971  0.212638  1
  O  O56  1  0.407709  0.591421  0.263886  1
  O  O57  1  0.397572  0.840652  0.156573  1
  O  O58  1  0.469792  0.341831  0.438100  1
  O  O59  1  0.523488  0.089013  0.622957  1
  O  O60  1  0.479178  0.921667  0.377871  1
  O  O61  1  0.535829  0.647200  0.572697  1
  O  O62  1  0.605227  0.152010  0.850111  1
  O  O63  1  0.591050  0.412855  0.736453  1
  O  O64  1  0.601469  0.910678  0.781505  1
  O  O65  1  0.685720  0.677345  0.827812  1
  O  O66  1  0.717431  0.853430  0.001172  1
  O  O67  1  0.528123  0.234498  0.094216  1
  O  O68  1  0.562934  0.568063  0.103282  1
  O  O69  1  0.620309  0.436529  0.296872  1
  O  O70  1  0.629388  0.966881  0.215487  1
  O  O71  1  0.689258  0.215975  0.402354  1
  O  O72  1  0.663426  0.690909  0.294208  1
  O  O73  1  0.720696  0.433626  0.522244  1
  O  O74  1  0.792145  0.934589  0.465523  1
  O  O75  1  0.843111  0.198141  0.698490  1
  O  O76  1  0.820046  0.714065  0.594113  1
  O  O77  1  0.867503  0.462023  0.779035  1
  O  O78  1  0.913544  0.071624  0.891577  1
  O  O79  1  0.863025  0.939741  0.696020  1
  O  O80  1  0.967312  0.742330  0.902228  1
  O  O81  1  0.778297  0.329642  0.999128  1
  O  O82  1  0.817953  0.168155  0.176458  1
  O  O83  1  0.891779  0.655472  0.152629  1
  O  O84  1  0.895016  0.408399  0.211517  1
  O  O85  1  0.911703  0.911019  0.262266  1
  O  O86  1  0.970762  0.158644  0.435690  1
  O  O87  1  0.968691  0.579646  0.374514  1
