# generated using pymatgen
data_TaInO4
_symmetry_space_group_name_H-M   'P 1'
_cell_length_a   4.88890214
_cell_length_b   5.22774686
_cell_length_c   5.88188733
_cell_angle_alpha   90.00000000
_cell_angle_beta   90.00000000
_cell_angle_gamma   91.32183623
_symmetry_Int_Tables_number   1
_chemical_formula_structural   TaInO4
_chemical_formula_sum   'Ta2 In2 O8'
_cell_volume   150.28893590
_cell_formula_units_Z   2
loop_
 _symmetry_equiv_pos_site_id
 _symmetry_equiv_pos_as_xyz
  1  'x, y, z'
loop_
 _atom_site_type_symbol
 _atom_site_label
 _atom_site_symmetry_multiplicity
 _atom_site_fract_x
 _atom_site_fract_y
 _atom_site_fract_z
 _atom_site_occupancy
  O  O0  1  0.259318  0.399792  0.622347  1
  O  O1  1  0.740682  0.100208  0.622347  1
  O  O2  1  0.740682  0.600208  0.377653  1
  O  O3  1  0.259318  0.899792  0.377653  1
  O  O4  1  0.213120  0.436088  0.103602  1
  O  O5  1  0.786880  0.063912  0.103602  1
  O  O6  1  0.786880  0.563912  0.896398  1
  O  O7  1  0.213120  0.936088  0.896398  1
  In  In8  1  0.500000  0.250000  0.324411  1
  In  In9  1  0.500000  0.750000  0.675589  1
  Ta  Ta10  1  0.000000  0.250000  0.829039  1
  Ta  Ta11  1  0.000000  0.750000  0.170961  1
