# generated using pymatgen
data_LiFe8(BO3)8
_symmetry_space_group_name_H-M   'P 1'
_cell_length_a   5.25035330
_cell_length_b   5.22315818
_cell_length_c   20.19616675
_cell_angle_alpha   90.51626384
_cell_angle_beta   90.56706833
_cell_angle_gamma   61.10228623
_symmetry_Int_Tables_number   1
_chemical_formula_structural   LiFe8(BO3)8
_chemical_formula_sum   'Li1 Fe8 B8 O24'
_cell_volume   484.85562609
_cell_formula_units_Z   1
loop_
 _symmetry_equiv_pos_site_id
 _symmetry_equiv_pos_as_xyz
  1  'x, y, z'
loop_
 _atom_site_type_symbol
 _atom_site_label
 _atom_site_symmetry_multiplicity
 _atom_site_fract_x
 _atom_site_fract_y
 _atom_site_fract_z
 _atom_site_occupancy
  Li  Li0  1  0.356151  0.669189  0.921303  1
  Fe  Fe1  1  0.980737  0.678623  0.811655  1
  Fe  Fe2  1  0.993350  0.676562  0.311547  1
  Fe  Fe3  1  0.685051  0.007884  0.938791  1
  Fe  Fe4  1  0.672534  0.996937  0.436203  1
  Fe  Fe5  1  0.326330  0.003369  0.560644  1
  Fe  Fe6  1  0.326637  0.002177  0.060977  1
  Fe  Fe7  1  0.004316  0.326956  0.684901  1
  Fe  Fe8  1  0.001979  0.325554  0.185986  1
  B  B9  1  0.004174  0.339243  0.936164  1
  B  B10  1  0.002790  0.339491  0.436428  1
  B  B11  1  0.331527  0.010396  0.812213  1
  B  B12  1  0.336125  0.005224  0.311706  1
  B  B13  1  0.661458  0.999252  0.685689  1
  B  B14  1  0.656967  0.998034  0.186682  1
  B  B15  1  0.995518  0.661765  0.561102  1
  B  B16  1  0.995339  0.662690  0.062184  1
  O  O17  1  0.122265  0.271111  0.783225  1
  O  O18  1  0.125595  0.270380  0.284503  1
  O  O19  1  0.255129  0.091114  0.959684  1
  O  O20  1  0.033629  0.576878  0.912074  1
  O  O21  1  0.268852  0.128682  0.463382  1
  O  O22  1  0.989011  0.596359  0.411824  1
  O  O23  1  0.594363  0.986699  0.832776  1
  O  O24  1  0.228600  0.705507  0.563023  1
  O  O25  1  0.593212  0.992518  0.336407  1
  O  O26  1  0.236227  0.696435  0.058961  1
  O  O27  1  0.275659  0.784861  0.823018  1
  O  O28  1  0.292074  0.771793  0.314317  1
  O  O29  1  0.702263  0.235036  0.683555  1
  O  O30  1  0.702307  0.231122  0.184287  1
  O  O31  1  0.740222  0.353756  0.935337  1
  O  O32  1  0.405129  0.008826  0.661518  1
  O  O33  1  0.770095  0.295106  0.434985  1
  O  O34  1  0.400026  0.008554  0.162940  1
  O  O35  1  0.009616  0.404101  0.585607  1
  O  O36  1  0.015169  0.401137  0.085830  1
  O  O37  1  0.729937  0.872415  0.534288  1
  O  O38  1  0.727708  0.879954  0.039934  1
  O  O39  1  0.876809  0.733477  0.712190  1
  O  O40  1  0.869894  0.732362  0.213738  1
