# generated using pymatgen
data_V3(O2F)2
_symmetry_space_group_name_H-M   'P 1'
_cell_length_a   7.54967431
_cell_length_b   5.60694478
_cell_length_c   5.60694478
_cell_angle_alpha   69.76866812
_cell_angle_beta   70.01634497
_cell_angle_gamma   70.01634497
_symmetry_Int_Tables_number   1
_chemical_formula_structural   V3(O2F)2
_chemical_formula_sum   'V6 O8 F4'
_cell_volume   202.45480851
_cell_formula_units_Z   2
loop_
 _symmetry_equiv_pos_site_id
 _symmetry_equiv_pos_as_xyz
  1  'x, y, z'
loop_
 _atom_site_type_symbol
 _atom_site_label
 _atom_site_symmetry_multiplicity
 _atom_site_fract_x
 _atom_site_fract_y
 _atom_site_fract_z
 _atom_site_occupancy
  V  V0  1  0.855558  0.678900  0.678900  1
  V  V1  1  0.663153  0.333679  0.333679  1
  V  V2  1  0.322896  0.662063  0.662063  1
  V  V3  1  0.192066  0.344734  0.344734  1
  V  V4  1  0.496054  0.998004  0.998004  1
  V  V5  1  0.996266  0.995044  0.995044  1
  O  O6  1  0.668350  0.025713  0.633084  1
  O  O7  1  0.328625  0.365015  0.973832  1
  O  O8  1  0.028799  0.767815  0.767815  1
  O  O9  1  0.366930  0.431334  0.431334  1
  O  O10  1  0.998824  0.306538  0.692731  1
  O  O11  1  0.668350  0.633084  0.025713  1
  O  O12  1  0.328625  0.973832  0.365015  1
  O  O13  1  0.998824  0.692731  0.306538  1
  F  F14  1  0.963619  0.229279  0.229279  1
  F  F15  1  0.628666  0.566475  0.566475  1
  F  F16  1  0.294569  0.896370  0.896370  1
  F  F17  1  0.699829  0.099391  0.099391  1
