# generated using pymatgen
data_Li4Mn2(PO4)3
_symmetry_space_group_name_H-M   'P 1'
_cell_length_a   8.64876704
_cell_length_b   8.88844155
_cell_length_c   12.46496159
_cell_angle_alpha   90.03946206
_cell_angle_beta   88.10594771
_cell_angle_gamma   90.01655095
_symmetry_Int_Tables_number   1
_chemical_formula_structural   Li4Mn2(PO4)3
_chemical_formula_sum   'Li16 Mn8 P12 O48'
_cell_volume   957.70841952
_cell_formula_units_Z   4
loop_
 _symmetry_equiv_pos_site_id
 _symmetry_equiv_pos_as_xyz
  1  'x, y, z'
loop_
 _atom_site_type_symbol
 _atom_site_label
 _atom_site_symmetry_multiplicity
 _atom_site_fract_x
 _atom_site_fract_y
 _atom_site_fract_z
 _atom_site_occupancy
  Li  Li0  1  0.930137  0.526012  0.347056  1
  Li  Li1  1  0.923976  0.088129  0.692988  1
  Li  Li2  1  0.874722  0.718692  0.768097  1
  Li  Li3  1  0.797280  0.773630  0.178532  1
  Li  Li4  1  0.702809  0.273661  0.321806  1
  Li  Li5  1  0.623945  0.219067  0.731329  1
  Li  Li6  1  0.575665  0.587508  0.806224  1
  Li  Li7  1  0.569462  0.025724  0.153382  1
  Li  Li8  1  0.430050  0.973803  0.847060  1
  Li  Li9  1  0.423971  0.411829  0.192911  1
  Li  Li10  1  0.374490  0.781036  0.268421  1
  Li  Li11  1  0.297357  0.726176  0.678380  1
  Li  Li12  1  0.202813  0.226699  0.821672  1
  Li  Li13  1  0.123981  0.281077  0.231484  1
  Li  Li14  1  0.075380  0.912388  0.306439  1
  Li  Li15  1  0.068958  0.474705  0.653409  1
  Mn  Mn16  1  0.752300  0.048004  0.903979  1
  Mn  Mn17  1  0.746507  0.548214  0.594524  1
  Mn  Mn18  1  0.741144  0.955948  0.395636  1
  Mn  Mn19  1  0.759114  0.456331  0.104754  1
  Mn  Mn20  1  0.241232  0.543718  0.895522  1
  Mn  Mn21  1  0.258588  0.044235  0.604824  1
  Mn  Mn22  1  0.252331  0.452123  0.404444  1
  Mn  Mn23  1  0.247042  0.951746  0.095300  1
  P  P24  1  0.952971  0.251786  0.492822  1
  P  P25  1  0.892676  0.387202  0.853686  1
  P  P26  1  0.895207  0.099073  0.160358  1
  P  P27  1  0.607492  0.887259  0.647094  1
  P  P28  1  0.604471  0.598895  0.339426  1
  P  P29  1  0.548033  0.752237  0.007400  1
  P  P30  1  0.452635  0.247759  0.992737  1
  P  P31  1  0.395015  0.400632  0.660280  1
  P  P32  1  0.392331  0.112882  0.353863  1
  P  P33  1  0.104683  0.901086  0.839241  1
  P  P34  1  0.107374  0.612850  0.147014  1
  P  P35  1  0.048110  0.748166  0.507406  1
  O  O36  1  0.952573  0.857316  0.441009  1
  O  O37  1  0.928043  0.901131  0.867862  1
  O  O38  1  0.951404  0.672057  0.602212  1
  O  O39  1  0.935650  0.591118  0.188084  1
  O  O40  1  0.901359  0.374010  0.576224  1
  O  O41  1  0.880469  0.387750  0.976197  1
  O  O42  1  0.844850  0.224495  0.814193  1
  O  O43  1  0.870180  0.976359  0.249343  1
  O  O44  1  0.857138  0.259320  0.201126  1
  O  O45  1  0.813457  0.178743  0.441171  1
  O  O46  1  0.792823  0.508558  0.800536  1
  O  O47  1  0.785792  0.051239  0.070592  1
  O  O48  1  0.707285  0.009459  0.700047  1
  O  O49  1  0.713764  0.550053  0.428528  1
  O  O50  1  0.655499  0.725899  0.687385  1
  O  O51  1  0.687530  0.679088  0.058712  1
  O  O52  1  0.619911  0.887314  0.524572  1
  O  O53  1  0.642932  0.759110  0.299222  1
  O  O54  1  0.628963  0.476490  0.249879  1
  O  O55  1  0.600173  0.874843  0.923660  1
  O  O56  1  0.550142  0.171271  0.897632  1
  O  O57  1  0.571586  0.399795  0.632225  1
  O  O58  1  0.563848  0.091277  0.312632  1
  O  O59  1  0.548326  0.358039  0.058475  1
  O  O60  1  0.452562  0.642732  0.940963  1
  O  O61  1  0.435449  0.909309  0.687913  1
  O  O62  1  0.427679  0.599437  0.368080  1
  O  O63  1  0.450671  0.828529  0.102126  1
  O  O64  1  0.400879  0.125652  0.076283  1
  O  O65  1  0.370161  0.523545  0.749347  1
  O  O66  1  0.356294  0.240461  0.700822  1
  O  O67  1  0.380012  0.111860  0.476267  1
  O  O68  1  0.313322  0.320574  0.941102  1
  O  O69  1  0.344755  0.275186  0.314257  1
  O  O70  1  0.286023  0.448779  0.570532  1
  O  O71  1  0.292311  0.991412  0.300252  1
  O  O72  1  0.214053  0.949827  0.928611  1
  O  O73  1  0.207198  0.491020  0.199927  1
  O  O74  1  0.188234  0.821610  0.558351  1
  O  O75  1  0.142808  0.740835  0.799048  1
  O  O76  1  0.129667  0.023358  0.749646  1
  O  O77  1  0.155516  0.774870  0.186923  1
  O  O78  1  0.119689  0.612632  0.024463  1
  O  O79  1  0.100081  0.625368  0.423527  1
  O  O80  1  0.064120  0.408572  0.812375  1
  O  O81  1  0.050160  0.328280  0.397698  1
  O  O82  1  0.071843  0.099564  0.131900  1
  O  O83  1  0.048572  0.141570  0.558568  1
