# generated using pymatgen
data_Li4Ti2Ni3Sb3O16
_symmetry_space_group_name_H-M   'P 1'
_cell_length_a   6.09762725
_cell_length_b   6.12997776
_cell_length_c   9.69746521
_cell_angle_alpha   90.00063755
_cell_angle_beta   90.27617240
_cell_angle_gamma   120.17557652
_symmetry_Int_Tables_number   1
_chemical_formula_structural   Li4Ti2Ni3Sb3O16
_chemical_formula_sum   'Li4 Ti2 Ni3 Sb3 O16'
_cell_volume   313.35078027
_cell_formula_units_Z   1
loop_
 _symmetry_equiv_pos_site_id
 _symmetry_equiv_pos_as_xyz
  1  'x, y, z'
loop_
 _atom_site_type_symbol
 _atom_site_label
 _atom_site_symmetry_multiplicity
 _atom_site_fract_x
 _atom_site_fract_y
 _atom_site_fract_z
 _atom_site_occupancy
  Li  Li0  1  0.340922  0.670473  0.887545  1
  Li  Li1  1  0.971947  0.985982  0.985574  1
  Li  Li2  1  0.980808  0.990417  0.504678  1
  Li  Li3  1  0.653135  0.326578  0.402032  1
  Ti  Ti4  1  0.353012  0.676513  0.503949  1
  Ti  Ti5  1  0.715895  0.357960  0.974212  1
  Ni  Ni6  1  0.659611  0.829812  0.214438  1
  Ni  Ni7  1  0.833564  0.660672  0.712605  1
  Ni  Ni8  1  0.833563  0.172921  0.712601  1
  Sb  Sb9  1  0.167979  0.830166  0.215650  1
  Sb  Sb10  1  0.167978  0.337832  0.215649  1
  Sb  Sb11  1  0.346388  0.173203  0.715835  1
  O  O12  1  0.183294  0.844082  0.593315  1
  O  O13  1  0.022294  0.511151  0.338394  1
  O  O14  1  0.328087  0.664048  0.101042  1
  O  O15  1  0.998072  0.999055  0.316762  1
  O  O16  1  0.006846  0.003435  0.800808  1
  O  O17  1  0.183301  0.339236  0.593316  1
  O  O18  1  0.468530  0.953776  0.344049  1
  O  O19  1  0.468530  0.514776  0.344043  1
  O  O20  1  0.316519  0.158273  0.101891  1
  O  O21  1  0.652373  0.826197  0.591291  1
  O  O22  1  0.514457  0.471809  0.847326  1
  O  O23  1  0.514450  0.042669  0.847328  1
  O  O24  1  0.662935  0.331474  0.605980  1
  O  O25  1  0.843310  0.669907  0.093625  1
  O  O26  1  0.968882  0.484454  0.850279  1
  O  O27  1  0.843319  0.173427  0.093628  1
