# generated using pymatgen
data_ErH(SO4)2
_symmetry_space_group_name_H-M   'P 1'
_cell_length_a   5.50795208
_cell_length_b   10.86935351
_cell_length_c   10.61960958
_cell_angle_alpha   90.00000000
_cell_angle_beta   104.57676275
_cell_angle_gamma   90.00000000
_symmetry_Int_Tables_number   1
_chemical_formula_structural   ErH(SO4)2
_chemical_formula_sum   'Er4 H4 S8 O32'
_cell_volume   615.30878533
_cell_formula_units_Z   4
loop_
 _symmetry_equiv_pos_site_id
 _symmetry_equiv_pos_as_xyz
  1  'x, y, z'
loop_
 _atom_site_type_symbol
 _atom_site_label
 _atom_site_symmetry_multiplicity
 _atom_site_fract_x
 _atom_site_fract_y
 _atom_site_fract_z
 _atom_site_occupancy
  Er  Er0  1  0.112030  0.167082  0.847779  1
  Er  Er1  1  0.387970  0.667082  0.652221  1
  Er  Er2  1  0.612030  0.332918  0.347779  1
  Er  Er3  1  0.887970  0.832918  0.152221  1
  H  H4  1  0.244723  0.023845  0.395475  1
  H  H5  1  0.255277  0.523845  0.104525  1
  H  H6  1  0.744723  0.476155  0.895475  1
  H  H7  1  0.755277  0.976155  0.604525  1
  S  S8  1  0.318288  0.682440  0.994668  1
  S  S9  1  0.181712  0.182440  0.505332  1
  S  S10  1  0.109459  0.545357  0.319661  1
  S  S11  1  0.609459  0.954643  0.819661  1
  S  S12  1  0.390541  0.045357  0.180339  1
  S  S13  1  0.890541  0.454643  0.680339  1
  S  S14  1  0.818288  0.817560  0.494668  1
  S  S15  1  0.681712  0.317560  0.005332  1
  O  O16  1  0.044914  0.788720  0.597243  1
  O  O17  1  0.138552  0.509502  0.691307  1
  O  O18  1  0.136780  0.185349  0.634437  1
  O  O19  1  0.363220  0.685349  0.865563  1
  O  O20  1  0.361448  0.009502  0.808693  1
  O  O21  1  0.087952  0.654561  0.234790  1
  O  O22  1  0.232191  0.575037  0.456261  1
  O  O23  1  0.247514  0.043910  0.487709  1
  O  O24  1  0.455086  0.288720  0.902757  1
  O  O25  1  0.105852  0.759275  0.003241  1
  O  O26  1  0.225785  0.955364  0.230101  1
  O  O27  1  0.274215  0.455364  0.269899  1
  O  O28  1  0.394148  0.259275  0.496759  1
  O  O29  1  0.587952  0.845439  0.734790  1
  O  O30  1  0.252486  0.543910  0.012291  1
  O  O31  1  0.267809  0.075037  0.043739  1
  O  O32  1  0.732191  0.924963  0.956261  1
  O  O33  1  0.747514  0.456090  0.987709  1
  O  O34  1  0.412048  0.154561  0.265210  1
  O  O35  1  0.605852  0.740725  0.503241  1
  O  O36  1  0.725785  0.544636  0.730101  1
  O  O37  1  0.774215  0.044636  0.769899  1
  O  O38  1  0.894148  0.240725  0.996759  1
  O  O39  1  0.544914  0.711280  0.097243  1
  O  O40  1  0.752486  0.956090  0.512291  1
  O  O41  1  0.767809  0.424963  0.543739  1
  O  O42  1  0.912048  0.345439  0.765210  1
  O  O43  1  0.638552  0.990498  0.191307  1
  O  O44  1  0.636780  0.314651  0.134437  1
  O  O45  1  0.863220  0.814651  0.365563  1
  O  O46  1  0.861448  0.490498  0.308693  1
  O  O47  1  0.955086  0.211280  0.402757  1
