# generated using pymatgen
data_Li2FeSi3O8
_symmetry_space_group_name_H-M   'P 1'
_cell_length_a   6.72077036
_cell_length_b   10.09335981
_cell_length_c   6.48127119
_cell_angle_alpha   111.54242225
_cell_angle_beta   102.49293979
_cell_angle_gamma   103.11144076
_symmetry_Int_Tables_number   1
_chemical_formula_structural   Li2FeSi3O8
_chemical_formula_sum   'Li4 Fe2 Si6 O16'
_cell_volume   375.87073693
_cell_formula_units_Z   2
loop_
 _symmetry_equiv_pos_site_id
 _symmetry_equiv_pos_as_xyz
  1  'x, y, z'
loop_
 _atom_site_type_symbol
 _atom_site_label
 _atom_site_symmetry_multiplicity
 _atom_site_fract_x
 _atom_site_fract_y
 _atom_site_fract_z
 _atom_site_occupancy
  Li  Li0  1  0.163745  0.312276  0.126465  1
  Li  Li1  1  0.897804  0.769269  0.016452  1
  Li  Li2  1  0.425174  0.856078  0.504566  1
  Li  Li3  1  0.074696  0.623495  0.570213  1
  Fe  Fe4  1  0.230000  0.585069  0.012604  1
  Fe  Fe5  1  0.920343  0.904642  0.602794  1
  Si  Si6  1  0.702300  0.101374  0.976909  1
  Si  Si7  1  0.762102  0.410990  0.022360  1
  Si  Si8  1  0.084003  0.091343  0.295518  1
  Si  Si9  1  0.622697  0.595536  0.430568  1
  Si  Si10  1  0.395602  0.408931  0.623616  1
  Si  Si11  1  0.287708  0.909995  0.960883  1
  O  O12  1  0.936901  0.182108  0.197247  1
  O  O13  1  0.618097  0.243480  0.982162  1
  O  O14  1  0.716565  0.005876  0.722529  1
  O  O15  1  0.182460  0.043040  0.074920  1
  O  O16  1  0.791389  0.540413  0.285761  1
  O  O17  1  0.549863  0.994353  0.060386  1
  O  O18  1  0.002112  0.417025  0.013329  1
  O  O19  1  0.461687  0.430596  0.402168  1
  O  O20  1  0.961491  0.948763  0.329156  1
  O  O21  1  0.467527  0.669255  0.316846  1
  O  O22  1  0.621124  0.460227  0.839077  1
  O  O23  1  0.205767  0.784730  0.050577  1
  O  O24  1  0.274697  0.226769  0.533763  1
  O  O25  1  0.787291  0.715258  0.688843  1
  O  O26  1  0.241994  0.508763  0.686594  1
  O  O27  1  0.202832  0.848315  0.673693  1
