# generated using pymatgen
data_Li4Ti3Ni3(SnO8)2
_symmetry_space_group_name_H-M   'P 1'
_cell_length_a   5.96470850
_cell_length_b   5.95465996
_cell_length_c   9.75763101
_cell_angle_alpha   90.39598125
_cell_angle_beta   90.10658308
_cell_angle_gamma   120.44737475
_symmetry_Int_Tables_number   1
_chemical_formula_structural   Li4Ti3Ni3(SnO8)2
_chemical_formula_sum   'Li4 Ti3 Ni3 Sn2 O16'
_cell_volume   298.76307072
_cell_formula_units_Z   1
loop_
 _symmetry_equiv_pos_site_id
 _symmetry_equiv_pos_as_xyz
  1  'x, y, z'
loop_
 _atom_site_type_symbol
 _atom_site_label
 _atom_site_symmetry_multiplicity
 _atom_site_fract_x
 _atom_site_fract_y
 _atom_site_fract_z
 _atom_site_occupancy
  Li  Li0  1  0.333407  0.665466  0.892527  1
  Li  Li1  1  0.987202  0.989810  0.992620  1
  Li  Li2  1  0.997386  0.997308  0.494373  1
  Li  Li3  1  0.665152  0.337447  0.398895  1
  Ti  Ti4  1  0.176140  0.835690  0.216463  1
  Ti  Ti5  1  0.170393  0.340596  0.214317  1
  Ti  Ti6  1  0.338869  0.176121  0.714856  1
  Ni  Ni7  1  0.657379  0.828127  0.213084  1
  Ni  Ni8  1  0.829426  0.660850  0.711263  1
  Ni  Ni9  1  0.829186  0.169742  0.715493  1
  Sn  Sn10  1  0.341492  0.671983  0.494166  1
  Sn  Sn11  1  0.679759  0.339368  0.988499  1
  O  O12  1  0.179573  0.854452  0.597878  1
  O  O13  1  0.033409  0.515961  0.334854  1
  O  O14  1  0.308946  0.654226  0.103492  1
  O  O15  1  0.011908  0.005990  0.307292  1
  O  O16  1  0.004015  0.978976  0.807338  1
  O  O17  1  0.155187  0.322220  0.606015  1
  O  O18  1  0.470942  0.966964  0.341604  1
  O  O19  1  0.467120  0.505456  0.343435  1
  O  O20  1  0.331630  0.163879  0.103118  1
  O  O21  1  0.687304  0.843646  0.603600  1
  O  O22  1  0.496366  0.462405  0.844183  1
  O  O23  1  0.527653  0.035085  0.833620  1
  O  O24  1  0.655932  0.348444  0.606541  1
  O  O25  1  0.850118  0.677239  0.100559  1
  O  O26  1  0.963882  0.482642  0.829223  1
  O  O27  1  0.850226  0.170206  0.098530  1
