# generated using pymatgen
data_V4O5F7
_symmetry_space_group_name_H-M   'P 1'
_cell_length_a   5.24810990
_cell_length_b   7.48378529
_cell_length_c   5.38496864
_cell_angle_alpha   91.91191169
_cell_angle_beta   88.92295148
_cell_angle_gamma   89.96362935
_symmetry_Int_Tables_number   1
_chemical_formula_structural   V4O5F7
_chemical_formula_sum   'V4 O5 F7'
_cell_volume   211.34330617
_cell_formula_units_Z   1
loop_
 _symmetry_equiv_pos_site_id
 _symmetry_equiv_pos_as_xyz
  1  'x, y, z'
loop_
 _atom_site_type_symbol
 _atom_site_label
 _atom_site_symmetry_multiplicity
 _atom_site_fract_x
 _atom_site_fract_y
 _atom_site_fract_z
 _atom_site_occupancy
  V  V0  1  0.542715  0.485733  0.474394  1
  V  V1  1  0.474373  0.007966  0.535771  1
  V  V2  1  0.027620  0.495522  0.965924  1
  V  V3  1  0.964795  0.993684  0.027864  1
  O  O4  1  0.781581  0.534715  0.280455  1
  O  O5  1  0.714844  0.962625  0.216019  1
  O  O6  1  0.576322  0.262245  0.504628  1
  O  O7  1  0.281942  0.036390  0.783773  1
  O  O8  1  0.214093  0.469673  0.715905  1
  F  F9  1  0.900601  0.250338  0.982834  1
  F  F10  1  0.790521  0.949323  0.710263  1
  F  F11  1  0.709640  0.552667  0.783699  1
  F  F12  1  0.421731  0.745109  0.492311  1
  F  F13  1  0.286524  0.450776  0.219517  1
  F  F14  1  0.212156  0.053388  0.286339  1
  F  F15  1  0.100541  0.749845  0.020303  1
