# generated using pymatgen
data_Li2Mn3(BO3)3
_symmetry_space_group_name_H-M   'P 1'
_cell_length_a   5.85698669
_cell_length_b   5.27852081
_cell_length_c   12.42266866
_cell_angle_alpha   78.08235844
_cell_angle_beta   92.09053775
_cell_angle_gamma   89.65856176
_symmetry_Int_Tables_number   1
_chemical_formula_structural   Li2Mn3(BO3)3
_chemical_formula_sum   'Li4 Mn6 B6 O18'
_cell_volume   375.49788537
_cell_formula_units_Z   2
loop_
 _symmetry_equiv_pos_site_id
 _symmetry_equiv_pos_as_xyz
  1  'x, y, z'
loop_
 _atom_site_type_symbol
 _atom_site_label
 _atom_site_symmetry_multiplicity
 _atom_site_fract_x
 _atom_site_fract_y
 _atom_site_fract_z
 _atom_site_occupancy
  Li  Li0  1  0.148835  0.571935  0.181661  1
  Li  Li1  1  0.184499  0.094731  0.485006  1
  Li  Li2  1  0.462070  0.235114  0.849257  1
  Li  Li3  1  0.871263  0.431553  0.817410  1
  Mn  Mn4  1  0.032699  0.955517  0.715327  1
  Mn  Mn5  1  0.300634  0.711150  0.951340  1
  Mn  Mn6  1  0.375178  0.628787  0.380187  1
  Mn  Mn7  1  0.641655  0.380310  0.606546  1
  Mn  Mn8  1  0.691678  0.286356  0.060121  1
  Mn  Mn9  1  0.958155  0.037880  0.286480  1
  B  B10  1  0.148312  0.525075  0.604647  1
  B  B11  1  0.185021  0.141591  0.062020  1
  B  B12  1  0.466632  0.185085  0.277315  1
  B  B13  1  0.533833  0.806330  0.734129  1
  B  B14  1  0.799500  0.860337  0.932538  1
  B  B15  1  0.866702  0.481582  0.389352  1
  O  O16  1  0.018064  0.642746  0.321442  1
  O  O17  1  0.044647  0.258857  0.127671  1
  O  O18  1  0.148735  0.788051  0.594461  1
  O  O19  1  0.184598  0.878616  0.072206  1
  O  O20  1  0.288686  0.407810  0.538995  1
  O  O21  1  0.315270  0.023921  0.345225  1
  O  O22  1  0.327087  0.299486  0.988534  1
  O  O23  1  0.363803  0.918093  0.789308  1
  O  O24  1  0.441046  0.447643  0.258196  1
  O  O25  1  0.555482  0.543248  0.745557  1
  O  O26  1  0.633197  0.076416  0.222460  1
  O  O27  1  0.645430  0.687657  0.989383  1
  O  O28  1  0.687903  0.979009  0.677284  1
  O  O29  1  0.700137  0.590250  0.444207  1
  O  O30  1  0.777852  0.123419  0.921109  1
  O  O31  1  0.892287  0.219023  0.408471  1
  O  O32  1  0.969531  0.748573  0.877359  1
  O  O33  1  0.006246  0.367180  0.678132  1
