# generated using pymatgen
data_Li5Mn2(PO4)3
_symmetry_space_group_name_H-M   'P 1'
_cell_length_a   8.73199318
_cell_length_b   8.88905004
_cell_length_c   12.59241370
_cell_angle_alpha   90.00276316
_cell_angle_beta   88.97033021
_cell_angle_gamma   90.00013375
_symmetry_Int_Tables_number   1
_chemical_formula_structural   Li5Mn2(PO4)3
_chemical_formula_sum   'Li20 Mn8 P12 O48'
_cell_volume   977.25429475
_cell_formula_units_Z   4
loop_
 _symmetry_equiv_pos_site_id
 _symmetry_equiv_pos_as_xyz
  1  'x, y, z'
loop_
 _atom_site_type_symbol
 _atom_site_label
 _atom_site_symmetry_multiplicity
 _atom_site_fract_x
 _atom_site_fract_y
 _atom_site_fract_z
 _atom_site_occupancy
  Li  Li0  1  0.918164  0.098872  0.691490  1
  Li  Li1  1  0.878251  0.725041  0.746984  1
  Li  Li2  1  0.904101  0.675283  0.964390  1
  Li  Li3  1  0.926736  0.523467  0.351630  1
  Li  Li4  1  0.800296  0.774567  0.180838  1
  Li  Li5  1  0.699706  0.274563  0.319160  1
  Li  Li6  1  0.595896  0.175277  0.535606  1
  Li  Li7  1  0.621736  0.225037  0.753013  1
  Li  Li8  1  0.581825  0.598869  0.808512  1
  Li  Li9  1  0.573255  0.023459  0.148372  1
  Li  Li10  1  0.426745  0.976546  0.851625  1
  Li  Li11  1  0.418168  0.401128  0.191486  1
  Li  Li12  1  0.378262  0.774962  0.246988  1
  Li  Li13  1  0.404107  0.824733  0.464395  1
  Li  Li14  1  0.300295  0.725436  0.680841  1
  Li  Li15  1  0.199701  0.225441  0.819160  1
  Li  Li16  1  0.073258  0.476548  0.648375  1
  Li  Li17  1  0.095895  0.324721  0.035612  1
  Li  Li18  1  0.121734  0.274963  0.253016  1
  Li  Li19  1  0.081833  0.901129  0.308512  1
  Mn  Mn20  1  0.757597  0.042962  0.903679  1
  Mn  Mn21  1  0.742408  0.542957  0.596309  1
  Mn  Mn22  1  0.753510  0.949646  0.394031  1
  Mn  Mn23  1  0.746490  0.449646  0.105975  1
  Mn  Mn24  1  0.253510  0.550359  0.894032  1
  Mn  Mn25  1  0.246493  0.050352  0.605968  1
  Mn  Mn26  1  0.257587  0.457037  0.403672  1
  Mn  Mn27  1  0.242409  0.957041  0.096326  1
  P  P28  1  0.944222  0.251641  0.493535  1
  P  P29  1  0.897955  0.388980  0.847121  1
  P  P30  1  0.897069  0.107122  0.157377  1
  P  P31  1  0.602036  0.888971  0.652890  1
  P  P32  1  0.602934  0.607068  0.342615  1
  P  P33  1  0.555763  0.751587  0.006440  1
  P  P34  1  0.444255  0.248430  0.993583  1
  P  P35  1  0.397082  0.392906  0.657379  1
  P  P36  1  0.397968  0.111030  0.347094  1
  P  P37  1  0.102929  0.892904  0.842636  1
  P  P38  1  0.102031  0.611021  0.152892  1
  P  P39  1  0.055781  0.748354  0.506433  1
  O  O40  1  0.966129  0.866898  0.444162  1
  O  O41  1  0.929985  0.863701  0.873101  1
  O  O42  1  0.967315  0.684854  0.605194  1
  O  O43  1  0.933177  0.593288  0.194594  1
  O  O44  1  0.909894  0.379791  0.574085  1
  O  O45  1  0.895447  0.392275  0.970423  1
  O  O46  1  0.836056  0.233973  0.808478  1
  O  O47  1  0.890676  0.980455  0.242935  1
  O  O48  1  0.836228  0.259954  0.199632  1
  O  O49  1  0.788415  0.184631  0.454138  1
  O  O50  1  0.801656  0.521104  0.802195  1
  O  O51  1  0.797407  0.051972  0.065561  1
  O  O52  1  0.698334  0.021078  0.697812  1
  O  O53  1  0.702619  0.551984  0.434442  1
  O  O54  1  0.663911  0.733957  0.691517  1
  O  O55  1  0.604555  0.892269  0.529567  1
  O  O56  1  0.711589  0.684638  0.045867  1
  O  O57  1  0.663801  0.759975  0.300367  1
  O  O58  1  0.609328  0.480471  0.257091  1
  O  O59  1  0.590120  0.879806  0.925908  1
  O  O60  1  0.532689  0.184830  0.894803  1
  O  O61  1  0.569999  0.363699  0.626879  1
  O  O62  1  0.566830  0.093267  0.305402  1
  O  O63  1  0.533844  0.366875  0.055817  1
  O  O64  1  0.466144  0.633124  0.944170  1
  O  O65  1  0.433160  0.906731  0.694588  1
  O  O66  1  0.429998  0.636310  0.373121  1
  O  O67  1  0.467317  0.815168  0.105192  1
  O  O68  1  0.409883  0.120208  0.074091  1
  O  O69  1  0.390659  0.519526  0.742912  1
  O  O70  1  0.336217  0.240020  0.699630  1
  O  O71  1  0.288404  0.315368  0.954130  1
  O  O72  1  0.395453  0.107711  0.470434  1
  O  O73  1  0.336081  0.266031  0.308486  1
  O  O74  1  0.297387  0.448004  0.565545  1
  O  O75  1  0.301658  0.978917  0.302183  1
  O  O76  1  0.202571  0.948029  0.934446  1
  O  O77  1  0.198336  0.478903  0.197803  1
  O  O78  1  0.211594  0.815372  0.545866  1
  O  O79  1  0.163793  0.740046  0.800370  1
  O  O80  1  0.109331  0.019554  0.757073  1
  O  O81  1  0.163940  0.766031  0.191522  1
  O  O82  1  0.104555  0.607730  0.029567  1
  O  O83  1  0.090108  0.620218  0.425932  1
  O  O84  1  0.066826  0.406721  0.805401  1
  O  O85  1  0.032680  0.315139  0.394823  1
  O  O86  1  0.070014  0.136299  0.126891  1
  O  O87  1  0.033875  0.133077  0.555846  1
