# generated using pymatgen
data_Li8Mn3Fe5(BO3)8
_symmetry_space_group_name_H-M   'P 1'
_cell_length_a   6.06645439
_cell_length_b   5.23737881
_cell_length_c   16.14968777
_cell_angle_alpha   90.84268545
_cell_angle_beta   98.23758986
_cell_angle_gamma   88.69890280
_symmetry_Int_Tables_number   1
_chemical_formula_structural   Li8Mn3Fe5(BO3)8
_chemical_formula_sum   'Li8 Mn3 Fe5 B8 O24'
_cell_volume   507.65402238
_cell_formula_units_Z   1
loop_
 _symmetry_equiv_pos_site_id
 _symmetry_equiv_pos_as_xyz
  1  'x, y, z'
loop_
 _atom_site_type_symbol
 _atom_site_label
 _atom_site_symmetry_multiplicity
 _atom_site_fract_x
 _atom_site_fract_y
 _atom_site_fract_z
 _atom_site_occupancy
  Li  Li0  1  0.064219  0.846813  0.610531  1
  Li  Li1  1  0.435367  0.152047  0.888795  1
  Li  Li2  1  0.188150  0.652599  0.140058  1
  Li  Li3  1  0.312885  0.348317  0.360752  1
  Li  Li4  1  0.688293  0.652531  0.642766  1
  Li  Li5  1  0.811673  0.347492  0.857133  1
  Li  Li6  1  0.562547  0.846664  0.109167  1
  Li  Li7  1  0.936469  0.151682  0.391902  1
  Mn  Mn8  1  0.022782  0.167068  0.210298  1
  Mn  Mn9  1  0.772114  0.667774  0.458840  1
  Mn  Mn10  1  0.725069  0.332966  0.039334  1
  Fe  Fe11  1  0.270036  0.662958  0.957773  1
  Fe  Fe12  1  0.228803  0.337068  0.541792  1
  Fe  Fe13  1  0.521911  0.162654  0.706620  1
  Fe  Fe14  1  0.475487  0.838637  0.290005  1
  Fe  Fe15  1  0.977267  0.837361  0.792994  1
  B  B16  1  0.039379  0.328756  0.702977  1
  B  B17  1  0.287694  0.828303  0.452728  1
  B  B18  1  0.461251  0.670707  0.796982  1
  B  B19  1  0.213000  0.171942  0.046367  1
  B  B20  1  0.785747  0.830309  0.951529  1
  B  B21  1  0.537404  0.329072  0.203404  1
  B  B22  1  0.714183  0.169635  0.548450  1
  B  B23  1  0.963687  0.670430  0.297399  1
  O  O24  1  0.013500  0.588893  0.692546  1
  O  O25  1  0.169803  0.183060  0.654049  1
  O  O26  1  0.176422  0.703278  0.510021  1
  O  O27  1  0.326287  0.296301  0.989361  1
  O  O28  1  0.081375  0.785680  0.240556  1
  O  O29  1  0.329552  0.815463  0.845775  1
  O  O30  1  0.081968  0.318162  0.094456  1
  O  O31  1  0.262729  0.088994  0.442729  1
  O  O32  1  0.486858  0.410027  0.807295  1
  O  O33  1  0.238076  0.911934  0.057318  1
  O  O34  1  0.417536  0.683996  0.403364  1
  O  O35  1  0.423742  0.207220  0.260988  1
  O  O36  1  0.574899  0.796753  0.741021  1
  O  O37  1  0.581416  0.318120  0.596033  1
  O  O38  1  0.763369  0.090242  0.938153  1
  O  O39  1  0.513242  0.589026  0.191862  1
  O  O40  1  0.736703  0.909302  0.561106  1
  O  O41  1  0.917963  0.680586  0.904257  1
  O  O42  1  0.667500  0.181338  0.155568  1
  O  O43  1  0.926961  0.203255  0.759648  1
  O  O44  1  0.671747  0.714476  0.009144  1
  O  O45  1  0.827855  0.287603  0.491331  1
  O  O46  1  0.828862  0.821445  0.343148  1
  O  O47  1  0.986224  0.411057  0.311677  1
