# generated using pymatgen
data_Mg17Al11Pd
_symmetry_space_group_name_H-M   'P 1'
_cell_length_a   9.11846516
_cell_length_b   8.97777034
_cell_length_c   9.07796781
_cell_angle_alpha   109.26417152
_cell_angle_beta   109.90980738
_cell_angle_gamma   109.08734353
_symmetry_Int_Tables_number   1
_chemical_formula_structural   Mg17Al11Pd
_chemical_formula_sum   'Mg17 Al11 Pd1'
_cell_volume   573.12871704
_cell_formula_units_Z   1
loop_
 _symmetry_equiv_pos_site_id
 _symmetry_equiv_pos_as_xyz
  1  'x, y, z'
loop_
 _atom_site_type_symbol
 _atom_site_label
 _atom_site_symmetry_multiplicity
 _atom_site_fract_x
 _atom_site_fract_y
 _atom_site_fract_z
 _atom_site_occupancy
  Mg  Mg0  1  0.315230  0.605947  0.000034  1
  Mg  Mg1  1  0.609202  0.324533  0.000010  1
  Mg  Mg2  1  0.998694  0.347723  -0.000002  1
  Mg  Mg3  1  0.998135  0.994321  -0.000014  1
  Mg  Mg4  1  0.347497  0.002667  0.999983  1
  Mg  Mg5  1  0.683865  0.682444  0.278743  1
  Mg  Mg6  1  0.994966  0.603888  0.310385  1
  Mg  Mg7  1  0.600142  0.999745  0.316235  1
  Mg  Mg8  1  0.997373  0.993100  0.338518  1
  Mg  Mg9  1  0.714482  0.398618  0.397316  1
  Mg  Mg10  1  0.399335  0.714622  0.398654  1
  Mg  Mg11  1  0.000672  0.316005  0.601343  1
  Mg  Mg12  1  0.317170  0.001275  0.602707  1
  Mg  Mg13  1  0.658837  0.654592  0.661491  1
  Mg  Mg14  1  0.283928  0.683498  0.683758  1
  Mg  Mg15  1  0.684590  0.293506  0.689613  1
  Mg  Mg16  1  0.405144  0.403750  0.721261  1
  Al  Al17  1  0.638079  0.806523  0.999961  1
  Al  Al18  1  0.366451  0.367734  0.181112  1
  Al  Al19  1  0.175851  0.813878  0.181552  1
  Al  Al20  1  0.817216  0.182100  0.183789  1
  Al  Al21  1  0.179975  0.364037  0.364731  1
  Al  Al22  1  0.366839  0.178749  0.365242  1
  Al  Al23  1  0.001576  0.813463  0.634725  1
  Al  Al24  1  0.815171  0.999344  0.635229  1
  Al  Al25  1  0.633388  0.998288  0.816225  1
  Al  Al26  1  0.994318  0.632382  0.818490  1
  Al  Al27  1  0.185359  0.186556  0.818890  1
  Pd  Pd28  1  0.816522  0.636717  0.000020  1
