# generated using pymatgen
data_Na9Cr2(H9O7)3
_symmetry_space_group_name_H-M   'P 1'
_cell_length_a   8.80562181
_cell_length_b   11.50770186
_cell_length_c   11.73026518
_cell_angle_alpha   74.70237182
_cell_angle_beta   87.69260184
_cell_angle_gamma   70.06925781
_symmetry_Int_Tables_number   1
_chemical_formula_structural   Na9Cr2(H9O7)3
_chemical_formula_sum   'Na18 Cr4 H54 O42'
_cell_volume   1076.25046109
_cell_formula_units_Z   2
loop_
 _symmetry_equiv_pos_site_id
 _symmetry_equiv_pos_as_xyz
  1  'x, y, z'
loop_
 _atom_site_type_symbol
 _atom_site_label
 _atom_site_symmetry_multiplicity
 _atom_site_fract_x
 _atom_site_fract_y
 _atom_site_fract_z
 _atom_site_occupancy
  Na  Na0  1  0.005569  0.398832  0.622835  1
  Na  Na1  1  0.201601  0.328902  0.363137  1
  Na  Na2  1  0.202192  0.324401  0.866316  1
  Na  Na3  1  0.421216  0.029321  0.365286  1
  Na  Na4  1  0.402944  0.033762  0.867548  1
  Na  Na5  1  0.419749  0.511551  0.373042  1
  Na  Na6  1  0.404125  0.514872  0.881583  1
  Na  Na7  1  0.607828  0.223494  0.378906  1
  Na  Na8  1  0.597244  0.220952  0.879635  1
  Na  Na9  1  0.402756  0.779048  0.120365  1
  Na  Na10  1  0.392172  0.776506  0.621094  1
  Na  Na11  1  0.595875  0.485128  0.118417  1
  Na  Na12  1  0.580251  0.488449  0.626958  1
  Na  Na13  1  0.597056  0.966238  0.132452  1
  Na  Na14  1  0.578784  0.970679  0.634714  1
  Na  Na15  1  0.797808  0.675599  0.133684  1
  Na  Na16  1  0.798399  0.671098  0.636863  1
  Na  Na17  1  0.994431  0.601168  0.377165  1
  Cr  Cr18  1  0.409480  0.273725  0.125339  1
  Cr  Cr19  1  0.402130  0.277192  0.622231  1
  Cr  Cr20  1  0.597870  0.722808  0.377769  1
  Cr  Cr21  1  0.590520  0.726275  0.874661  1
  H  H22  1  0.005889  0.092064  0.189487  1
  H  H23  1  0.009212  0.061338  0.698308  1
  H  H24  1  0.111564  0.028969  0.035537  1
  H  H25  1  0.124867  0.056168  0.491913  1
  H  H26  1  0.031141  0.461842  0.189443  1
  H  H27  1  0.160357  0.209315  0.180884  1
  H  H28  1  0.198495  0.158596  0.695334  1
  H  H29  1  0.133817  0.406763  0.028423  1
  H  H30  1  0.124068  0.588784  0.028645  1
  H  H31  1  0.324508  0.120528  0.053613  1
  H  H32  1  0.289051  0.155201  0.528603  1
  H  H33  1  0.073166  0.725229  0.586441  1
  H  H34  1  0.046468  0.794132  0.445218  1
  H  H35  1  0.129119  0.687573  0.170197  1
  H  H36  1  0.118758  0.610779  0.740358  1
  H  H37  1  0.052183  0.745133  0.970583  1
  H  H38  1  0.216978  0.507949  0.538557  1
  H  H39  1  0.144779  0.763719  0.266788  1
  H  H40  1  0.149192  0.733768  0.778224  1
  H  H41  1  0.321025  0.465496  0.193342  1
  H  H42  1  0.303358  0.461322  0.713500  1
  H  H43  1  0.151745  0.945706  0.427778  1
  H  H44  1  0.141048  0.941594  0.945120  1
  H  H45  1  0.320033  0.720555  0.438320  1
  H  H46  1  0.317989  0.721462  0.948067  1
  H  H47  1  0.318912  0.882208  0.286033  1
  H  H48  1  0.305233  0.873002  0.794930  1
  H  H49  1  0.694767  0.126998  0.205070  1
  H  H50  1  0.681088  0.117792  0.713967  1
  H  H51  1  0.682011  0.278538  0.051933  1
  H  H52  1  0.679967  0.279445  0.561680  1
  H  H53  1  0.858952  0.058406  0.054880  1
  H  H54  1  0.848255  0.054294  0.572222  1
  H  H55  1  0.696642  0.538678  0.286500  1
  H  H56  1  0.678975  0.534504  0.806658  1
  H  H57  1  0.850808  0.266232  0.221776  1
  H  H58  1  0.855221  0.236281  0.733212  1
  H  H59  1  0.783022  0.492051  0.461443  1
  H  H60  1  0.947817  0.254867  0.029417  1
  H  H61  1  0.881242  0.389221  0.259642  1
  H  H62  1  0.870881  0.312427  0.829803  1
  H  H63  1  0.953532  0.205868  0.554782  1
  H  H64  1  0.926834  0.274770  0.413559  1
  H  H65  1  0.710949  0.844799  0.471397  1
  H  H66  1  0.675492  0.879472  0.946387  1
  H  H67  1  0.875932  0.411216  0.971355  1
  H  H68  1  0.866183  0.593237  0.971577  1
  H  H69  1  0.801505  0.841404  0.304666  1
  H  H70  1  0.839643  0.790685  0.819116  1
  H  H71  1  0.968859  0.538158  0.810557  1
  H  H72  1  0.875133  0.943832  0.508087  1
  H  H73  1  0.888436  0.971031  0.964463  1
  H  H74  1  0.990788  0.938662  0.301692  1
  H  H75  1  0.994111  0.907936  0.810513  1
  O  O76  1  0.036693  0.527214  0.743885  1
  O  O77  1  0.043806  0.671169  0.039189  1
  O  O78  1  0.249739  0.209302  0.226643  1
  O  O79  1  0.003666  0.740510  0.515566  1
  O  O80  1  0.228981  0.221459  0.721170  1
  O  O81  1  0.230130  0.431396  0.023207  1
  O  O82  1  0.227329  0.433897  0.509355  1
  O  O83  1  0.397943  0.163217  0.013558  1
  O  O84  1  0.077575  0.860363  0.873529  1
  O  O85  1  0.095801  0.878630  0.336475  1
  O  O86  1  0.391931  0.168572  0.510934  1
  O  O87  1  0.187538  0.679320  0.244450  1
  O  O88  1  0.193848  0.673301  0.729186  1
  O  O89  1  0.408056  0.388589  0.234888  1
  O  O90  1  0.402824  0.387461  0.734322  1
  O  O91  1  0.202048  0.972973  0.488165  1
  O  O92  1  0.588387  0.125079  0.231616  1
  O  O93  1  0.568864  0.127297  0.733949  1
  O  O94  1  0.197103  0.977167  0.994943  1
  O  O95  1  0.572886  0.334092  0.020990  1
  O  O96  1  0.426572  0.666409  0.474868  1
  O  O97  1  0.573428  0.333591  0.525132  1
  O  O98  1  0.427114  0.665908  0.979010  1
  O  O99  1  0.802897  0.022833  0.005057  1
  O  O100  1  0.431136  0.872703  0.266051  1
  O  O101  1  0.411613  0.874921  0.768384  1
  O  O102  1  0.797952  0.027027  0.511835  1
  O  O103  1  0.597176  0.612539  0.265678  1
  O  O104  1  0.591944  0.611411  0.765112  1
  O  O105  1  0.806152  0.326699  0.270814  1
  O  O106  1  0.812462  0.320680  0.755550  1
  O  O107  1  0.608069  0.831428  0.489066  1
  O  O108  1  0.904199  0.121370  0.663525  1
  O  O109  1  0.922425  0.139637  0.126471  1
  O  O110  1  0.602057  0.836783  0.986442  1
  O  O111  1  0.772671  0.566103  0.490645  1
  O  O112  1  0.769870  0.568604  0.976793  1
  O  O113  1  0.771019  0.778541  0.278830  1
  O  O114  1  0.996334  0.259490  0.484434  1
  O  O115  1  0.750261  0.790698  0.773357  1
  O  O116  1  0.956194  0.328831  0.960811  1
  O  O117  1  0.963307  0.472786  0.256115  1
