# generated using pymatgen
data_LiFe4(BO3)4
_symmetry_space_group_name_H-M   'P 1'
_cell_length_a   5.25391282
_cell_length_b   5.25114433
_cell_length_c   20.11854378
_cell_angle_alpha   90.30036770
_cell_angle_beta   90.89540373
_cell_angle_gamma   61.11830122
_symmetry_Int_Tables_number   1
_chemical_formula_structural   LiFe4(BO3)4
_chemical_formula_sum   'Li2 Fe8 B8 O24'
_cell_volume   485.95261219
_cell_formula_units_Z   2
loop_
 _symmetry_equiv_pos_site_id
 _symmetry_equiv_pos_as_xyz
  1  'x, y, z'
loop_
 _atom_site_type_symbol
 _atom_site_label
 _atom_site_symmetry_multiplicity
 _atom_site_fract_x
 _atom_site_fract_y
 _atom_site_fract_z
 _atom_site_occupancy
  Li  Li0  1  0.355595  0.667476  0.922327  1
  Li  Li1  1  0.656069  0.343526  0.550219  1
  Fe  Fe2  1  0.978364  0.680136  0.811854  1
  Fe  Fe3  1  0.998015  0.675253  0.310621  1
  Fe  Fe4  1  0.684653  0.008687  0.938593  1
  Fe  Fe5  1  0.673333  0.992494  0.435731  1
  Fe  Fe6  1  0.318446  0.994357  0.560684  1
  Fe  Fe7  1  0.325880  0.003293  0.060449  1
  Fe  Fe8  1  0.008299  0.331480  0.683994  1
  Fe  Fe9  1  0.003536  0.324334  0.185224  1
  B  B10  1  0.002629  0.340126  0.936396  1
  B  B11  1  0.002420  0.334406  0.436769  1
  B  B12  1  0.326310  0.014006  0.812779  1
  B  B13  1  0.340441  0.005735  0.311496  1
  B  B14  1  0.662657  0.000266  0.685076  1
  B  B15  1  0.659651  0.996078  0.186059  1
  B  B16  1  0.999578  0.662510  0.559626  1
  B  B17  1  0.996121  0.663869  0.061949  1
  O  O18  1  0.114879  0.275471  0.784796  1
  O  O19  1  0.127064  0.270497  0.284697  1
  O  O20  1  0.254740  0.091657  0.959501  1
  O  O21  1  0.031124  0.578244  0.913134  1
  O  O22  1  0.273406  0.116594  0.456589  1
  O  O23  1  0.976934  0.594112  0.411737  1
  O  O24  1  0.591915  0.987232  0.832672  1
  O  O25  1  0.261773  0.650039  0.559011  1
  O  O26  1  0.600376  0.992826  0.334412  1
  O  O27  1  0.234504  0.699579  0.058527  1
  O  O28  1  0.271033  0.789252  0.823818  1
  O  O29  1  0.294006  0.774493  0.315033  1
  O  O30  1  0.714589  0.227358  0.676795  1
  O  O31  1  0.706739  0.226625  0.183654  1
  O  O32  1  0.740218  0.352764  0.935533  1
  O  O33  1  0.398544  0.022299  0.665311  1
  O  O34  1  0.762457  0.301503  0.445441  1
  O  O35  1  0.400859  0.009202  0.163080  1
  O  O36  1  0.969990  0.424467  0.582601  1
  O  O37  1  0.018373  0.401779  0.085059  1
  O  O38  1  0.744819  0.909259  0.537070  1
  O  O39  1  0.726794  0.880842  0.040294  1
  O  O40  1  0.877832  0.735384  0.711856  1
  O  O41  1  0.873699  0.729388  0.212571  1
