# generated using pymatgen
data_PaNi3
_symmetry_space_group_name_H-M   'P 1'
_cell_length_a   5.27696628
_cell_length_b   5.27696599
_cell_length_c   4.70336137
_cell_angle_alpha   90.00000000
_cell_angle_beta   90.00000000
_cell_angle_gamma   120.00000181
_symmetry_Int_Tables_number   1
_chemical_formula_structural   PaNi3
_chemical_formula_sum   'Pa2 Ni6'
_cell_volume   113.42468607
_cell_formula_units_Z   2
loop_
 _symmetry_equiv_pos_site_id
 _symmetry_equiv_pos_as_xyz
  1  'x, y, z'
loop_
 _atom_site_type_symbol
 _atom_site_label
 _atom_site_symmetry_multiplicity
 _atom_site_fract_x
 _atom_site_fract_y
 _atom_site_fract_z
 _atom_site_occupancy
  Pa  Pa0  1  0.333333  0.666667  0.750000  1
  Pa  Pa1  1  0.666666  0.333332  0.249999  1
  Ni  Ni2  1  0.159333  0.318667  0.249999  1
  Ni  Ni3  1  0.681333  0.840666  0.249999  1
  Ni  Ni4  1  0.159333  0.840666  0.249999  1
  Ni  Ni5  1  0.840666  0.681332  0.750000  1
  Ni  Ni6  1  0.318666  0.159332  0.750000  1
  Ni  Ni7  1  0.840664  0.159332  0.750000  1
