# generated using pymatgen
data_LiNi(PO3)3
_symmetry_space_group_name_H-M   'P 1'
_cell_length_a   10.68633464
_cell_length_b   11.78919677
_cell_length_c   5.27134525
_cell_angle_alpha   90.00000000
_cell_angle_beta   90.00000000
_cell_angle_gamma   90.00000000
_symmetry_Int_Tables_number   1
_chemical_formula_structural   LiNi(PO3)3
_chemical_formula_sum   'Li4 Ni4 P12 O36'
_cell_volume   664.10147963
_cell_formula_units_Z   4
loop_
 _symmetry_equiv_pos_site_id
 _symmetry_equiv_pos_as_xyz
  1  'x, y, z'
loop_
 _atom_site_type_symbol
 _atom_site_label
 _atom_site_symmetry_multiplicity
 _atom_site_fract_x
 _atom_site_fract_y
 _atom_site_fract_z
 _atom_site_occupancy
  Li  Li0  1  0.115912  0.081447  0.100868  1
  Li  Li1  1  0.384088  0.918553  0.600868  1
  Li  Li2  1  0.615912  0.418553  0.899132  1
  Li  Li3  1  0.884088  0.581447  0.399132  1
  Ni  Ni4  1  0.034416  0.867835  0.596973  1
  Ni  Ni5  1  0.465584  0.132165  0.096973  1
  Ni  Ni6  1  0.534416  0.632165  0.403027  1
  Ni  Ni7  1  0.965584  0.367835  0.903027  1
  P  P8  1  0.074776  0.622753  0.875103  1
  P  P9  1  0.150518  0.360596  0.390783  1
  P  P10  1  0.190364  0.820707  0.082639  1
  P  P11  1  0.309636  0.179293  0.582639  1
  P  P12  1  0.349482  0.639404  0.890783  1
  P  P13  1  0.425224  0.377247  0.375103  1
  P  P14  1  0.574776  0.877247  0.124897  1
  P  P15  1  0.650518  0.139404  0.609217  1
  P  P16  1  0.690364  0.679293  0.917361  1
  P  P17  1  0.809636  0.320707  0.417361  1
  P  P18  1  0.849482  0.860596  0.109217  1
  P  P19  1  0.925224  0.122753  0.624897  1
  O  O20  1  0.011984  0.037034  0.506771  1
  O  O21  1  0.038986  0.679786  0.629949  1
  O  O22  1  0.060205  0.427274  0.549299  1
  O  O23  1  0.087785  0.720808  0.089340  1
  O  O24  1  0.114487  0.322981  0.128744  1
  O  O25  1  0.183349  0.890869  0.842721  1
  O  O26  1  0.182421  0.881253  0.331780  1
  O  O27  1  0.182534  0.251102  0.567725  1
  O  O28  1  0.216364  0.573482  0.873834  1
  O  O29  1  0.283636  0.426518  0.373834  1
  O  O30  1  0.317466  0.748898  0.067725  1
  O  O31  1  0.317579  0.118747  0.831780  1
  O  O32  1  0.316651  0.109131  0.342721  1
  O  O33  1  0.385514  0.677019  0.628744  1
  O  O34  1  0.412215  0.279192  0.589340  1
  O  O35  1  0.439795  0.572726  0.049299  1
  O  O36  1  0.461014  0.320214  0.129949  1
  O  O37  1  0.488016  0.962966  0.006771  1
  O  O38  1  0.511984  0.462966  0.493229  1
  O  O39  1  0.538986  0.820214  0.370051  1
  O  O40  1  0.560205  0.072726  0.450701  1
  O  O41  1  0.587785  0.779192  0.910660  1
  O  O42  1  0.614487  0.177019  0.871256  1
  O  O43  1  0.683349  0.609131  0.157279  1
  O  O44  1  0.682421  0.618747  0.668220  1
  O  O45  1  0.682534  0.248898  0.432275  1
  O  O46  1  0.716364  0.926518  0.126166  1
  O  O47  1  0.783636  0.073482  0.626166  1
  O  O48  1  0.817466  0.751102  0.932275  1
  O  O49  1  0.817579  0.381253  0.168220  1
  O  O50  1  0.816651  0.390869  0.657279  1
  O  O51  1  0.885513  0.822981  0.371256  1
  O  O52  1  0.912215  0.220808  0.410660  1
  O  O53  1  0.939795  0.927274  0.950701  1
  O  O54  1  0.961014  0.179786  0.870051  1
  O  O55  1  0.988016  0.537034  0.993229  1
