# generated using pymatgen
data_Mn12O5F19
_symmetry_space_group_name_H-M   'P 1'
_cell_length_a   4.89529907
_cell_length_b   5.85148820
_cell_length_c   15.96797700
_cell_angle_alpha   90.53419671
_cell_angle_beta   89.82393046
_cell_angle_gamma   87.71335450
_symmetry_Int_Tables_number   1
_chemical_formula_structural   Mn12O5F19
_chemical_formula_sum   'Mn12 O5 F19'
_cell_volume   457.01246561
_cell_formula_units_Z   1
loop_
 _symmetry_equiv_pos_site_id
 _symmetry_equiv_pos_as_xyz
  1  'x, y, z'
loop_
 _atom_site_type_symbol
 _atom_site_label
 _atom_site_symmetry_multiplicity
 _atom_site_fract_x
 _atom_site_fract_y
 _atom_site_fract_z
 _atom_site_occupancy
  Mn  Mn0  1  0.024650  0.193786  0.426588  1
  Mn  Mn1  1  0.989158  0.855322  0.249893  1
  Mn  Mn2  1  0.970905  0.162157  0.084683  1
  Mn  Mn3  1  0.017040  0.145640  0.749965  1
  Mn  Mn4  1  0.012881  0.823968  0.586400  1
  Mn  Mn5  1  0.010605  0.830578  0.906860  1
  Mn  Mn6  1  0.484173  0.361627  0.583544  1
  Mn  Mn7  1  0.508016  0.331771  0.924466  1
  Mn  Mn8  1  0.509751  0.319325  0.245498  1
  Mn  Mn9  1  0.519123  0.647872  0.082731  1
  Mn  Mn10  1  0.494062  0.652871  0.417393  1
  Mn  Mn11  1  0.472554  0.658150  0.747628  1
  O  O12  1  0.223047  0.873294  0.800152  1
  O  O13  1  0.297305  0.407590  0.478140  1
  O  O14  1  0.282357  0.605351  0.642722  1
  O  O15  1  0.717707  0.379690  0.032625  1
  O  O16  1  0.786843  0.109428  0.187350  1
  F  F17  1  0.235761  0.106502  0.308959  1
  F  F18  1  0.231875  0.110756  0.636992  1
  F  F19  1  0.200962  0.123072  0.977989  1
  F  F20  1  0.239063  0.891050  0.130824  1
  F  F21  1  0.233192  0.899017  0.473195  1
  F  F22  1  0.262756  0.397593  0.139338  1
  F  F23  1  0.265919  0.610167  0.302395  1
  F  F24  1  0.266360  0.374260  0.814946  1
  F  F25  1  0.274906  0.619335  0.974323  1
  F  F26  1  0.727442  0.617894  0.195750  1
  F  F27  1  0.740654  0.389667  0.357229  1
  F  F28  1  0.752816  0.613324  0.523636  1
  F  F29  1  0.706241  0.617022  0.853228  1
  F  F30  1  0.717941  0.383031  0.694487  1
  F  F31  1  0.760020  0.125674  0.534600  1
  F  F32  1  0.762127  0.886928  0.365663  1
  F  F33  1  0.767453  0.871402  0.017122  1
  F  F34  1  0.771561  0.116739  0.859039  1
  F  F35  1  0.762776  0.888149  0.693646  1
