# generated using pymatgen
data_KGeBiS4
_symmetry_space_group_name_H-M   'P 1'
_cell_length_a   6.65127116
_cell_length_b   6.80733226
_cell_length_c   17.38548326
_cell_angle_alpha   90.00000000
_cell_angle_beta   108.04384073
_cell_angle_gamma   90.00000000
_symmetry_Int_Tables_number   1
_chemical_formula_structural   KGeBiS4
_chemical_formula_sum   'K4 Ge4 Bi4 S16'
_cell_volume   748.45652932
_cell_formula_units_Z   4
loop_
 _symmetry_equiv_pos_site_id
 _symmetry_equiv_pos_as_xyz
  1  'x, y, z'
loop_
 _atom_site_type_symbol
 _atom_site_label
 _atom_site_symmetry_multiplicity
 _atom_site_fract_x
 _atom_site_fract_y
 _atom_site_fract_z
 _atom_site_occupancy
  K  K0  1  0.280658  0.741246  0.036166  1
  K  K1  1  0.719348  0.241253  0.463835  1
  K  K2  1  0.719348  0.258746  0.963834  1
  K  K3  1  0.280658  0.758755  0.536165  1
  Ge  Ge4  1  0.206339  0.260039  0.155862  1
  Ge  Ge5  1  0.793661  0.760041  0.344139  1
  Ge  Ge6  1  0.793660  0.739961  0.844139  1
  Ge  Ge7  1  0.206340  0.239960  0.655861  1
  Bi  Bi8  1  0.239583  0.704710  0.281611  1
  Bi  Bi9  1  0.760417  0.204711  0.218389  1
  Bi  Bi10  1  0.760417  0.295290  0.718389  1
  Bi  Bi11  1  0.239582  0.795289  0.781611  1
  S  S12  1  0.998917  0.495183  0.359673  1
  S  S13  1  0.001084  0.995186  0.140326  1
  S  S14  1  0.001085  0.504816  0.640327  1
  S  S15  1  0.998917  0.004816  0.859673  1
  S  S16  1  0.415632  0.246226  0.078368  1
  S  S17  1  0.584367  0.746226  0.421633  1
  S  S18  1  0.584367  0.753775  0.921632  1
  S  S19  1  0.415632  0.253773  0.578368  1
  S  S20  1  0.024912  0.003867  0.367675  1
  S  S21  1  0.975087  0.503867  0.132324  1
  S  S22  1  0.975086  0.996134  0.632324  1
  S  S23  1  0.024913  0.496134  0.867676  1
  S  S24  1  0.415687  0.321039  0.282755  1
  S  S25  1  0.584313  0.821040  0.217244  1
  S  S26  1  0.584314  0.678960  0.717244  1
  S  S27  1  0.415688  0.178961  0.782755  1
