# generated using pymatgen
data_K3InAu5
_symmetry_space_group_name_H-M   'P 1'
_cell_length_a   5.70993924
_cell_length_b   8.59220601
_cell_length_c   11.23788015
_cell_angle_alpha   112.47546103
_cell_angle_beta   104.71722757
_cell_angle_gamma   90.00000000
_symmetry_Int_Tables_number   1
_chemical_formula_structural   K3InAu5
_chemical_formula_sum   'K6 In2 Au10'
_cell_volume   489.83051004
_cell_formula_units_Z   2
loop_
 _symmetry_equiv_pos_site_id
 _symmetry_equiv_pos_as_xyz
  1  'x, y, z'
loop_
 _atom_site_type_symbol
 _atom_site_label
 _atom_site_symmetry_multiplicity
 _atom_site_fract_x
 _atom_site_fract_y
 _atom_site_fract_z
 _atom_site_occupancy
  K  K0  1  0.085696  0.706455  0.171392  1
  K  K1  1  0.585696  0.964938  0.171392  1
  K  K2  1  0.750001  0.369134  0.500001  1
  K  K3  1  0.250000  0.630866  0.500001  1
  K  K4  1  0.414305  0.035062  0.828609  1
  K  K5  1  0.914306  0.293546  0.828609  1
  In  In6  1  0.250000  0.084847  0.500001  1
  In  In7  1  0.750001  0.915153  0.500001  1
  Au  Au8  1  0.000000  0.000000  0.000000  1
  Au  Au9  1  0.500001  0.500000  0.000000  1
  Au  Au10  1  0.313903  0.313904  0.127810  1
  Au  Au11  1  0.813904  0.313904  0.127810  1
  Au  Au12  1  0.145275  0.180671  0.290551  1
  Au  Au13  1  0.645276  0.609881  0.290551  1
  Au  Au14  1  0.354725  0.390120  0.709449  1
  Au  Au15  1  0.854726  0.819329  0.709449  1
  Au  Au16  1  0.186097  0.686095  0.872191  1
  Au  Au17  1  0.686094  0.686095  0.872191  1
