# generated using pymatgen
data_Li9V12Fe7O48
_symmetry_space_group_name_H-M   'P 1'
_cell_length_a   5.12459103
_cell_length_b   10.21292860
_cell_length_c   17.44121860
_cell_angle_alpha   90.25433484
_cell_angle_beta   90.42840470
_cell_angle_gamma   89.81094546
_symmetry_Int_Tables_number   1
_chemical_formula_structural   Li9V12Fe7O48
_chemical_formula_sum   'Li9 V12 Fe7 O48'
_cell_volume   912.78311359
_cell_formula_units_Z   1
loop_
 _symmetry_equiv_pos_site_id
 _symmetry_equiv_pos_as_xyz
  1  'x, y, z'
loop_
 _atom_site_type_symbol
 _atom_site_label
 _atom_site_symmetry_multiplicity
 _atom_site_fract_x
 _atom_site_fract_y
 _atom_site_fract_z
 _atom_site_occupancy
  Li  Li0  1  0.242343  0.418836  0.969829  1
  Li  Li1  1  0.266253  0.748103  0.302082  1
  Li  Li2  1  0.248475  0.253218  0.798793  1
  Li  Li3  1  0.252747  0.584841  0.470639  1
  Li  Li4  1  0.400639  0.748630  0.752043  1
  Li  Li5  1  0.597243  0.248931  0.247984  1
  Li  Li6  1  0.746874  0.085644  0.529503  1
  Li  Li7  1  0.756969  0.747748  0.202218  1
  Li  Li8  1  0.740473  0.249349  0.698903  1
  V  V9  1  0.213412  0.746679  0.943475  1
  V  V10  1  0.214531  0.025255  0.656235  1
  V  V11  1  0.210117  0.472883  0.651018  1
  V  V12  1  0.279478  0.526909  0.152466  1
  V  V13  1  0.282125  0.970477  0.156365  1
  V  V14  1  0.277005  0.253118  0.443100  1
  V  V15  1  0.722496  0.754261  0.555746  1
  V  V16  1  0.715878  0.028579  0.846332  1
  V  V17  1  0.724885  0.475750  0.844266  1
  V  V18  1  0.787025  0.525725  0.344081  1
  V  V19  1  0.791497  0.973648  0.348474  1
  V  V20  1  0.781996  0.247347  0.057938  1
  Fe  Fe21  1  0.095728  0.249068  0.251602  1
  Fe  Fe22  1  0.243242  0.075739  0.972805  1
  Fe  Fe23  1  0.264315  0.932163  0.475610  1
  Fe  Fe24  1  0.735352  0.431990  0.523834  1
  Fe  Fe25  1  0.751071  0.567529  0.026251  1
  Fe  Fe26  1  0.746559  0.921436  0.029768  1
  Fe  Fe27  1  0.901338  0.749975  0.746725  1
  O  O28  1  0.054953  0.239363  0.996039  1
  O  O29  1  0.056106  0.612703  0.369836  1
  O  O30  1  0.081698  0.888613  0.379964  1
  O  O31  1  0.103744  0.631117  0.209843  1
  O  O32  1  0.105320  0.871821  0.213327  1
  O  O33  1  0.102267  0.110183  0.466380  1
  O  O34  1  0.063569  0.378591  0.464122  1
  O  O35  1  0.077068  0.000905  0.073487  1
  O  O36  1  0.074228  0.495761  0.074279  1
  O  O37  1  0.141540  0.748039  0.847795  1
  O  O38  1  0.142588  0.613767  0.704673  1
  O  O39  1  0.144471  0.883601  0.708276  1
  O  O40  1  0.334725  0.116378  0.204838  1
  O  O41  1  0.330303  0.381770  0.203799  1
  O  O42  1  0.332255  0.252616  0.344500  1
  O  O43  1  0.412108  0.989863  0.573342  1
  O  O44  1  0.414366  0.509460  0.573858  1
  O  O45  1  0.411151  0.886205  0.966995  1
  O  O46  1  0.420981  0.620861  0.966086  1
  O  O47  1  0.411232  0.126997  0.712249  1
  O  O48  1  0.387602  0.366744  0.706602  1
  O  O49  1  0.428547  0.110784  0.876614  1
  O  O50  1  0.448014  0.393490  0.868749  1
  O  O51  1  0.442429  0.764393  0.493502  1
  O  O52  1  0.557334  0.264346  0.504905  1
  O  O53  1  0.570266  0.608486  0.122807  1
  O  O54  1  0.570286  0.886739  0.126544  1
  O  O55  1  0.594307  0.627818  0.287250  1
  O  O56  1  0.615859  0.868940  0.291783  1
  O  O57  1  0.575310  0.109281  0.035832  1
  O  O58  1  0.596396  0.383554  0.035343  1
  O  O59  1  0.585245  0.009799  0.425625  1
  O  O60  1  0.588114  0.490779  0.425873  1
  O  O61  1  0.665790  0.753916  0.653958  1
  O  O62  1  0.665333  0.617816  0.791282  1
  O  O63  1  0.666306  0.883840  0.796173  1
  O  O64  1  0.857547  0.115364  0.295939  1
  O  O65  1  0.855526  0.383564  0.291157  1
  O  O66  1  0.859035  0.245684  0.154090  1
  O  O67  1  0.909339  0.514614  0.927344  1
  O  O68  1  0.914744  0.990255  0.929893  1
  O  O69  1  0.897259  0.610389  0.532883  1
  O  O70  1  0.936385  0.879065  0.535067  1
  O  O71  1  0.904268  0.129563  0.793722  1
  O  O72  1  0.910632  0.367275  0.787993  1
  O  O73  1  0.946401  0.112996  0.630192  1
  O  O74  1  0.919420  0.389060  0.619511  1
  O  O75  1  0.927566  0.748999  0.007585  1
