# generated using pymatgen
data_Li2Mn3VO8
_symmetry_space_group_name_H-M   'P 1'
_cell_length_a   8.77373909
_cell_length_b   8.25653109
_cell_length_c   8.35979002
_cell_angle_alpha   89.99515457
_cell_angle_beta   89.89910784
_cell_angle_gamma   89.97639283
_symmetry_Int_Tables_number   1
_chemical_formula_structural   Li2Mn3VO8
_chemical_formula_sum   'Li8 Mn12 V4 O32'
_cell_volume   605.58762675
_cell_formula_units_Z   4
loop_
 _symmetry_equiv_pos_site_id
 _symmetry_equiv_pos_as_xyz
  1  'x, y, z'
loop_
 _atom_site_type_symbol
 _atom_site_label
 _atom_site_symmetry_multiplicity
 _atom_site_fract_x
 _atom_site_fract_y
 _atom_site_fract_z
 _atom_site_occupancy
  Li  Li0  1  0.003824  0.001040  0.997678  1
  Li  Li1  1  0.247851  0.252794  0.248791  1
  Li  Li2  1  0.254716  0.744365  0.751486  1
  Li  Li3  1  0.496869  0.001978  0.495937  1
  Li  Li4  1  0.503423  0.501958  0.004216  1
  Li  Li5  1  0.745151  0.244281  0.748530  1
  Li  Li6  1  0.751975  0.752741  0.251150  1
  Li  Li7  1  0.996274  0.501027  0.502365  1
  Mn  Mn8  1  0.127717  0.130152  0.624716  1
  Mn  Mn9  1  0.126835  0.376638  0.874101  1
  Mn  Mn10  1  0.122437  0.626148  0.123073  1
  Mn  Mn11  1  0.381089  0.372069  0.623031  1
  Mn  Mn12  1  0.379289  0.621411  0.369675  1
  Mn  Mn13  1  0.367334  0.877440  0.124445  1
  Mn  Mn14  1  0.632787  0.377345  0.375713  1
  Mn  Mn15  1  0.620860  0.121370  0.130407  1
  Mn  Mn16  1  0.619122  0.872074  0.877087  1
  Mn  Mn17  1  0.877514  0.126100  0.376823  1
  Mn  Mn18  1  0.873003  0.876493  0.625711  1
  Mn  Mn19  1  0.872049  0.629924  0.875098  1
  V  V20  1  0.125940  0.873027  0.382484  1
  V  V21  1  0.374767  0.129818  0.876212  1
  V  V22  1  0.625342  0.629685  0.623778  1
  V  V23  1  0.873929  0.373187  0.117584  1
  O  O24  1  0.103682  0.117420  0.387227  1
  O  O25  1  0.132564  0.886822  0.600622  1
  O  O26  1  0.117851  0.611148  0.891640  1
  O  O27  1  0.143333  0.137590  0.859332  1
  O  O28  1  0.104840  0.391031  0.113708  1
  O  O29  1  0.138894  0.367322  0.640345  1
  O  O30  1  0.124351  0.638935  0.354184  1
  O  O31  1  0.141689  0.862890  0.138125  1
  O  O32  1  0.374629  0.140137  0.637291  1
  O  O33  1  0.379565  0.351196  0.871955  1
  O  O34  1  0.350334  0.637574  0.134114  1
  O  O35  1  0.394929  0.607775  0.606165  1
  O  O36  1  0.355266  0.861387  0.357755  1
  O  O37  1  0.409507  0.383470  0.375946  1
  O  O38  1  0.370854  0.107096  0.115960  1
  O  O39  1  0.374782  0.892402  0.893599  1
  O  O40  1  0.625404  0.392357  0.606538  1
  O  O41  1  0.629165  0.606971  0.384161  1
  O  O42  1  0.590623  0.883507  0.124234  1
  O  O43  1  0.644667  0.361357  0.142439  1
  O  O44  1  0.605113  0.107755  0.893985  1
  O  O45  1  0.650105  0.137415  0.365894  1
  O  O46  1  0.620310  0.850977  0.628083  1
  O  O47  1  0.626020  0.640062  0.862912  1
  O  O48  1  0.858340  0.362933  0.361942  1
  O  O49  1  0.875713  0.139060  0.145745  1
  O  O50  1  0.861119  0.867200  0.859467  1
  O  O51  1  0.895131  0.890933  0.386111  1
  O  O52  1  0.856795  0.637444  0.640435  1
  O  O53  1  0.881239  0.110937  0.608125  1
  O  O54  1  0.867354  0.386694  0.899374  1
  O  O55  1  0.895733  0.617281  0.112635  1
