# generated using pymatgen
data_Cd(PO3)2
_symmetry_space_group_name_H-M   'P 1'
_cell_length_a   7.50418364
_cell_length_b   7.50418364
_cell_length_c   10.45860485
_cell_angle_alpha   68.04067335
_cell_angle_beta   111.95932665
_cell_angle_gamma   108.56353548
_symmetry_Int_Tables_number   1
_chemical_formula_structural   Cd(PO3)2
_chemical_formula_sum   'Cd4 P8 O24'
_cell_volume   495.56499979
_cell_formula_units_Z   4
loop_
 _symmetry_equiv_pos_site_id
 _symmetry_equiv_pos_as_xyz
  1  'x, y, z'
loop_
 _atom_site_type_symbol
 _atom_site_label
 _atom_site_symmetry_multiplicity
 _atom_site_fract_x
 _atom_site_fract_y
 _atom_site_fract_z
 _atom_site_occupancy
  Cd  Cd0  1  0.968025  0.968027  0.249999  1
  Cd  Cd1  1  0.031974  0.031975  0.750000  1
  Cd  Cd2  1  0.500000  1.000000  1.000000  1
  Cd  Cd3  1  1.000000  0.500001  0.500000  1
  P  P4  1  0.676871  0.311870  0.197137  1
  P  P5  1  0.311871  0.676870  0.302864  1
  P  P6  1  0.323132  0.688129  0.802863  1
  P  P7  1  0.688128  0.323133  0.697136  1
  P  P8  1  0.247956  0.288733  0.019291  1
  P  P9  1  0.288731  0.247957  0.480708  1
  P  P10  1  0.752042  0.711266  0.980706  1
  P  P11  1  0.711266  0.752041  0.519293  1
  O  O12  1  0.709321  0.124847  0.191869  1
  O  O13  1  0.124848  0.709320  0.308131  1
  O  O14  1  0.290679  0.875154  0.808131  1
  O  O15  1  0.875154  0.290679  0.691869  1
  O  O16  1  0.766432  0.364220  0.334131  1
  O  O17  1  0.364221  0.766431  0.165870  1
  O  O18  1  0.233569  0.635780  0.665869  1
  O  O19  1  0.635780  0.233569  0.834131  1
  O  O20  1  0.443074  0.293202  0.154649  1
  O  O21  1  0.293201  0.443076  0.345350  1
  O  O22  1  0.556926  0.706798  0.845351  1
  O  O23  1  0.706798  0.556926  0.654649  1
  O  O24  1  0.743689  0.481854  0.064166  1
  O  O25  1  0.481853  0.743690  0.435832  1
  O  O26  1  0.256310  0.518144  0.935833  1
  O  O27  1  0.518144  0.256311  0.564166  1
  O  O28  1  0.267332  0.184956  0.926334  1
  O  O29  1  0.184956  0.267332  0.573669  1
  O  O30  1  0.732668  0.815045  0.073670  1
  O  O31  1  0.815045  0.732668  0.426332  1
  O  O32  1  0.074919  0.214872  0.076158  1
  O  O33  1  0.214872  0.074919  0.423841  1
  O  O34  1  0.925082  0.785131  0.923841  1
  O  O35  1  0.785129  0.925083  0.576160  1
