# generated using pymatgen
data_Li4VF6
_symmetry_space_group_name_H-M   'P 1'
_cell_length_a   7.59751947
_cell_length_b   14.15209236
_cell_length_c   3.25838892
_cell_angle_alpha   90.00000000
_cell_angle_beta   90.00000000
_cell_angle_gamma   90.00000000
_symmetry_Int_Tables_number   1
_chemical_formula_structural   Li4VF6
_chemical_formula_sum   'Li8 V2 F12'
_cell_volume   350.34457442
_cell_formula_units_Z   2
loop_
 _symmetry_equiv_pos_site_id
 _symmetry_equiv_pos_as_xyz
  1  'x, y, z'
loop_
 _atom_site_type_symbol
 _atom_site_label
 _atom_site_symmetry_multiplicity
 _atom_site_fract_x
 _atom_site_fract_y
 _atom_site_fract_z
 _atom_site_occupancy
  Li  Li0  1  0.001353  0.243583  0.500000  1
  Li  Li1  1  0.248368  0.617127  0.000000  1
  Li  Li2  1  0.251632  0.117127  0.000000  1
  Li  Li3  1  0.498647  0.743583  0.500000  1
  Li  Li4  1  0.501353  0.256417  0.500000  1
  Li  Li5  1  0.748368  0.882873  0.000000  1
  Li  Li6  1  0.751632  0.382873  0.000000  1
  Li  Li7  1  0.998647  0.756417  0.500000  1
  V  V8  1  0.000000  0.500000  0.500000  1
  V  V9  1  0.500000  0.000000  0.500000  1
  F  F10  1  0.062673  0.197707  0.000000  1
  F  F11  1  0.113712  0.639756  0.500000  1
  F  F12  1  0.177313  0.486139  0.000000  1
  F  F13  1  0.322687  0.986139  0.000000  1
  F  F14  1  0.386288  0.139756  0.500000  1
  F  F15  1  0.437327  0.697707  0.000000  1
  F  F16  1  0.562673  0.302293  0.000000  1
  F  F17  1  0.613712  0.860244  0.500000  1
  F  F18  1  0.677313  0.013861  0.000000  1
  F  F19  1  0.822687  0.513861  0.000000  1
  F  F20  1  0.886288  0.360244  0.500000  1
  F  F21  1  0.937327  0.802293  0.000000  1
