# generated using pymatgen
data_LiCrPO5
_symmetry_space_group_name_H-M   'P 1'
_cell_length_a   8.59179799
_cell_length_b   9.13723205
_cell_length_c   10.29829248
_cell_angle_alpha   90.00000000
_cell_angle_beta   90.00000000
_cell_angle_gamma   89.99634291
_symmetry_Int_Tables_number   1
_chemical_formula_structural   LiCrPO5
_chemical_formula_sum   'Li8 Cr8 P8 O40'
_cell_volume   808.47004456
_cell_formula_units_Z   8
loop_
 _symmetry_equiv_pos_site_id
 _symmetry_equiv_pos_as_xyz
  1  'x, y, z'
loop_
 _atom_site_type_symbol
 _atom_site_label
 _atom_site_symmetry_multiplicity
 _atom_site_fract_x
 _atom_site_fract_y
 _atom_site_fract_z
 _atom_site_occupancy
  Li  Li0  1  0.002715  0.818785  0.997934  1
  Li  Li1  1  0.229898  0.165710  0.117198  1
  Li  Li2  1  0.270102  0.834290  0.617198  1
  Li  Li3  1  0.497285  0.181215  0.497934  1
  Li  Li4  1  0.553534  0.525279  0.047503  1
  Li  Li5  1  0.716279  0.836774  0.389599  1
  Li  Li6  1  0.783721  0.163226  0.889599  1
  Li  Li7  1  0.946466  0.474721  0.547503  1
  Cr  Cr8  1  0.138663  0.157759  0.610254  1
  Cr  Cr9  1  0.146347  0.358605  0.887500  1
  Cr  Cr10  1  0.353653  0.641395  0.387500  1
  Cr  Cr11  1  0.361337  0.842241  0.110254  1
  Cr  Cr12  1  0.638990  0.846756  0.884464  1
  Cr  Cr13  1  0.641557  0.645681  0.607572  1
  Cr  Cr14  1  0.858443  0.354319  0.107572  1
  Cr  Cr15  1  0.861010  0.153244  0.384464  1
  P  P16  1  0.153006  0.552852  0.143565  1
  P  P17  1  0.172243  0.953160  0.371092  1
  P  P18  1  0.327757  0.046840  0.871092  1
  P  P19  1  0.346994  0.447148  0.643565  1
  P  P20  1  0.652010  0.443183  0.355056  1
  P  P21  1  0.669290  0.045816  0.130059  1
  P  P22  1  0.830710  0.954184  0.630059  1
  P  P23  1  0.847990  0.556817  0.855056  1
  O  O24  1  0.987899  0.264132  0.995633  1
  O  O25  1  0.995863  0.252923  0.509092  1
  O  O26  1  0.006983  0.982467  0.631004  1
  O  O27  1  0.024505  0.532849  0.867583  1
  O  O28  1  0.058062  0.259912  0.756250  1
  O  O29  1  0.180263  0.712277  0.093655  1
  O  O30  1  0.201023  0.798013  0.426802  1
  O  O31  1  0.200704  0.535667  0.285855  1
  O  O32  1  0.256778  0.558105  0.556345  1
  O  O33  1  0.266754  0.025360  0.731353  1
  O  O34  1  0.242270  0.939730  0.965629  1
  O  O35  1  0.257730  0.060270  0.465629  1
  O  O36  1  0.233246  0.974641  0.231353  1
  O  O37  1  0.243222  0.441895  0.056345  1
  O  O38  1  0.299296  0.464333  0.785855  1
  O  O39  1  0.298977  0.201987  0.926802  1
  O  O40  1  0.319737  0.287723  0.593655  1
  O  O41  1  0.441938  0.740088  0.256250  1
  O  O42  1  0.475495  0.467151  0.367583  1
  O  O43  1  0.493017  0.017533  0.131004  1
  O  O44  1  0.512101  0.735868  0.495633  1
  O  O45  1  0.504137  0.747077  0.009092  1
  O  O46  1  0.503852  0.018594  0.868615  1
  O  O47  1  0.524564  0.468877  0.634689  1
  O  O48  1  0.557081  0.745218  0.750278  1
  O  O49  1  0.676692  0.282833  0.399763  1
  O  O50  1  0.697020  0.202400  0.077653  1
  O  O51  1  0.694441  0.465063  0.210476  1
  O  O52  1  0.750779  0.452669  0.945359  1
  O  O53  1  0.769446  0.980311  0.769045  1
  O  O54  1  0.744681  0.057424  0.532023  1
  O  O55  1  0.755319  0.942576  0.032023  1
  O  O56  1  0.730554  0.019689  0.269045  1
  O  O57  1  0.749221  0.547331  0.445359  1
  O  O58  1  0.805559  0.534937  0.710476  1
  O  O59  1  0.802980  0.797600  0.577653  1
  O  O60  1  0.823308  0.717167  0.899763  1
  O  O61  1  0.942919  0.254782  0.250278  1
  O  O62  1  0.975436  0.531123  0.134689  1
  O  O63  1  0.996148  0.981406  0.368615  1
