# generated using pymatgen
data_Ce4MgRu
_symmetry_space_group_name_H-M   'P 1'
_cell_length_a   9.75521251
_cell_length_b   9.75521251
_cell_length_c   9.75521251
_cell_angle_alpha   120.00000000
_cell_angle_beta   90.00000000
_cell_angle_gamma   120.00000000
_symmetry_Int_Tables_number   1
_chemical_formula_structural   Ce4MgRu
_chemical_formula_sum   'Ce16 Mg4 Ru4'
_cell_volume   656.44025639
_cell_formula_units_Z   4
loop_
 _symmetry_equiv_pos_site_id
 _symmetry_equiv_pos_as_xyz
  1  'x, y, z'
loop_
 _atom_site_type_symbol
 _atom_site_label
 _atom_site_symmetry_multiplicity
 _atom_site_fract_x
 _atom_site_fract_y
 _atom_site_fract_z
 _atom_site_occupancy
  Ce  Ce0  1  0.345227  0.690455  0.035681  1
  Ce  Ce1  1  0.559593  0.500000  0.059593  1
  Ce  Ce2  1  0.940406  0.500000  0.059593  1
  Ce  Ce3  1  0.559593  0.119186  0.059593  1
  Ce  Ce4  1  0.188753  0.000000  0.188753  1
  Ce  Ce5  1  0.811247  0.000000  0.188753  1
  Ce  Ce6  1  0.188753  0.377504  0.188753  1
  Ce  Ce7  1  0.559593  0.500000  0.440406  1
  Ce  Ce8  1  0.940406  0.500000  0.440406  1
  Ce  Ce9  1  0.940406  0.880814  0.440406  1
  Ce  Ce10  1  0.964320  0.309547  0.654773  1
  Ce  Ce11  1  0.345227  0.309547  0.654774  1
  Ce  Ce12  1  0.345227  0.690455  0.654774  1
  Ce  Ce13  1  0.188753  0.000000  0.811247  1
  Ce  Ce14  1  0.811247  0.000000  0.811247  1
  Ce  Ce15  1  0.811247  0.622496  0.811247  1
  Mg  Mg16  1  0.579151  0.158301  0.420850  1
  Mg  Mg17  1  0.262549  0.841700  0.420850  1
  Mg  Mg18  1  0.579151  0.841700  0.420850  1
  Mg  Mg19  1  0.579151  0.158301  0.737451  1
  Ru  Ru20  1  0.136853  0.273706  0.410559  1
  Ru  Ru21  1  0.136853  0.273706  0.863147  1
  Ru  Ru22  1  0.136853  0.726294  0.863147  1
  Ru  Ru23  1  0.589441  0.726294  0.863147  1
