# generated using pymatgen
data_Li5Mn6(BO3)6
_symmetry_space_group_name_H-M   'P 1'
_cell_length_a   6.36321599
_cell_length_b   14.28378689
_cell_length_c   8.90657303
_cell_angle_alpha   90.13412335
_cell_angle_beta   110.92957818
_cell_angle_gamma   90.00000000
_symmetry_Int_Tables_number   1
_chemical_formula_structural   Li5Mn6(BO3)6
_chemical_formula_sum   'Li10 Mn12 B12 O36'
_cell_volume   756.11100638
_cell_formula_units_Z   2
loop_
 _symmetry_equiv_pos_site_id
 _symmetry_equiv_pos_as_xyz
  1  'x, y, z'
loop_
 _atom_site_type_symbol
 _atom_site_label
 _atom_site_symmetry_multiplicity
 _atom_site_fract_x
 _atom_site_fract_y
 _atom_site_fract_z
 _atom_site_occupancy
  Li  Li0  1  0.894939  0.990808  0.289878  1
  Li  Li1  1  0.920252  0.359255  0.340504  1
  Li  Li2  1  0.420613  0.359676  0.341225  1
  Li  Li3  1  0.433849  0.649113  0.367699  1
  Li  Li4  1  0.933893  0.649872  0.367785  1
  Li  Li5  1  0.144504  0.491191  0.789008  1
  Li  Li6  1  0.170248  0.859101  0.840497  1
  Li  Li7  1  0.670614  0.859900  0.841228  1
  Li  Li8  1  0.183473  0.148716  0.866947  1
  Li  Li9  1  0.684243  0.150385  0.868488  1
  Mn  Mn10  1  0.060440  0.505717  0.125852  1
  Mn  Mn11  1  0.565412  0.505717  0.125852  1
  Mn  Mn12  1  0.091667  0.818132  0.179463  1
  Mn  Mn13  1  0.587794  0.818132  0.179463  1
  Mn  Mn14  1  0.594003  0.175366  0.194329  1
  Mn  Mn15  1  0.100325  0.175366  0.194329  1
  Mn  Mn16  1  0.315195  0.005739  0.626013  1
  Mn  Mn17  1  0.810816  0.005739  0.626013  1
  Mn  Mn18  1  0.342047  0.318175  0.679797  1
  Mn  Mn19  1  0.837749  0.318175  0.679797  1
  Mn  Mn20  1  0.350519  0.675391  0.694420  1
  Mn  Mn21  1  0.843902  0.675391  0.694420  1
  B  B22  1  0.994156  0.999780  0.995692  1
  B  B23  1  0.501536  0.999780  0.995692  1
  B  B24  1  0.250200  0.332596  0.000399  1
  B  B25  1  0.753397  0.330605  0.006793  1
  B  B26  1  0.250420  0.667061  0.000839  1
  B  B27  1  0.751163  0.670028  0.002327  1
  B  B28  1  0.243689  0.499859  0.495607  1
  B  B29  1  0.751917  0.499859  0.495607  1
  B  B30  1  0.000779  0.166823  0.501558  1
  B  B31  1  0.500742  0.170215  0.501485  1
  B  B32  1  0.001286  0.831343  0.502572  1
  B  B33  1  0.502110  0.831917  0.504220  1
  O  O34  1  0.766141  0.426023  0.032281  1
  O  O35  1  0.255846  0.429901  0.011694  1
  O  O36  1  0.761961  0.766986  0.023922  1
  O  O37  1  0.259853  0.763620  0.019705  1
  O  O38  1  0.317750  0.608588  0.135500  1
  O  O39  1  0.818307  0.610769  0.136613  1
  O  O40  1  0.319033  0.278392  0.138067  1
  O  O41  1  0.820163  0.271836  0.140327  1
  O  O42  1  0.054058  0.958438  0.143666  1
  O  O43  1  0.589608  0.958438  0.143666  1
  O  O44  1  0.424508  0.132948  0.349016  1
  O  O45  1  0.924614  0.125868  0.349228  1
  O  O46  1  0.425597  0.792632  0.351194  1
  O  O47  1  0.925711  0.790410  0.351423  1
  O  O48  1  0.180021  0.445292  0.355234  1
  O  O49  1  0.675213  0.445292  0.355234  1
  O  O50  1  0.741440  0.597744  0.481905  1
  O  O51  1  0.240465  0.597744  0.481905  1
  O  O52  1  0.514607  0.927252  0.529213  1
  O  O53  1  0.007232  0.928762  0.514464  1
  O  O54  1  0.010017  0.263215  0.520034  1
  O  O55  1  0.511810  0.267328  0.523619  1
  O  O56  1  0.068194  0.108166  0.636389  1
  O  O57  1  0.567911  0.111121  0.635822  1
  O  O58  1  0.069999  0.776481  0.639997  1
  O  O59  1  0.569066  0.773797  0.638131  1
  O  O60  1  0.303302  0.458457  0.643434  1
  O  O61  1  0.840133  0.458457  0.643434  1
  O  O62  1  0.173935  0.626807  0.847869  1
  O  O63  1  0.675154  0.632180  0.850309  1
  O  O64  1  0.174749  0.290814  0.849499  1
  O  O65  1  0.676734  0.292157  0.853467  1
  O  O66  1  0.930168  0.945125  0.855373  1
  O  O67  1  0.425205  0.945125  0.855373  1
  O  O68  1  0.490741  0.097619  0.981817  1
  O  O69  1  0.991075  0.097619  0.981817  1
