# generated using pymatgen
data_KFe3(PO6)2
_symmetry_space_group_name_H-M   'P 1'
_cell_length_a   6.37976904
_cell_length_b   7.41814082
_cell_length_c   10.06227192
_cell_angle_alpha   90.03474012
_cell_angle_beta   90.02904024
_cell_angle_gamma   89.99134498
_symmetry_Int_Tables_number   1
_chemical_formula_structural   KFe3(PO6)2
_chemical_formula_sum   'K2 Fe6 P4 O24'
_cell_volume   476.20717973
_cell_formula_units_Z   2
loop_
 _symmetry_equiv_pos_site_id
 _symmetry_equiv_pos_as_xyz
  1  'x, y, z'
loop_
 _atom_site_type_symbol
 _atom_site_label
 _atom_site_symmetry_multiplicity
 _atom_site_fract_x
 _atom_site_fract_y
 _atom_site_fract_z
 _atom_site_occupancy
  K  K0  1  0.500155  0.532011  0.033153  1
  K  K1  1  0.500504  0.468091  0.533254  1
  Fe  Fe2  1  0.238483  0.962144  0.494900  1
  Fe  Fe3  1  0.769664  0.969008  0.497753  1
  Fe  Fe4  1  0.766086  0.031052  0.996965  1
  Fe  Fe5  1  0.233565  0.038485  0.996014  1
  Fe  Fe6  1  0.998708  0.301502  0.264408  1
  Fe  Fe7  1  0.000400  0.701025  0.764236  1
  P  P8  1  0.498026  0.181809  0.257845  1
  P  P9  1  0.501122  0.818420  0.757616  1
  P  P10  1  0.000798  0.309009  0.579716  1
  P  P11  1  0.000672  0.690751  0.079190  1
  O  O12  1  0.280643  0.753738  0.422386  1
  O  O13  1  0.723322  0.756924  0.421535  1
  O  O14  1  0.722199  0.244561  0.922313  1
  O  O15  1  0.282998  0.245415  0.921994  1
  O  O16  1  0.501175  0.928756  0.625066  1
  O  O17  1  0.498228  0.071471  0.125419  1
  O  O18  1  0.498142  0.058304  0.384896  1
  O  O19  1  0.500315  0.941648  0.884852  1
  O  O20  1  0.201591  0.188507  0.590562  1
  O  O21  1  0.796531  0.191631  0.592730  1
  O  O22  1  0.795998  0.807028  0.092281  1
  O  O23  1  0.201034  0.812197  0.091660  1
  O  O24  1  0.994563  0.045814  0.378368  1
  O  O25  1  0.997408  0.952339  0.879134  1
  O  O26  1  0.998964  0.855127  0.600126  1
  O  O27  1  0.997075  0.143583  0.100339  1
  O  O28  1  0.306679  0.304308  0.262840  1
  O  O29  1  0.691200  0.303701  0.263038  1
  O  O30  1  0.692819  0.696278  0.761819  1
  O  O31  1  0.308531  0.695963  0.762506  1
  O  O32  1  0.999404  0.406202  0.444019  1
  O  O33  1  0.002255  0.593368  0.943909  1
  O  O34  1  0.001211  0.449428  0.689027  1
  O  O35  1  0.999536  0.550401  0.188929  1
