# generated using pymatgen
data_Fe4O5F3
_symmetry_space_group_name_H-M   'P 1'
_cell_length_a   5.61608090
_cell_length_b   9.40071479
_cell_length_c   5.61608090
_cell_angle_alpha   91.50401421
_cell_angle_beta   66.10214594
_cell_angle_gamma   91.50401421
_symmetry_Int_Tables_number   1
_chemical_formula_structural   Fe4O5F3
_chemical_formula_sum   'Fe8 O10 F6'
_cell_volume   270.94965998
_cell_formula_units_Z   2
loop_
 _symmetry_equiv_pos_site_id
 _symmetry_equiv_pos_as_xyz
  1  'x, y, z'
loop_
 _atom_site_type_symbol
 _atom_site_label
 _atom_site_symmetry_multiplicity
 _atom_site_fract_x
 _atom_site_fract_y
 _atom_site_fract_z
 _atom_site_occupancy
  Fe  Fe0  1  0.967142  0.005091  0.967142  1
  Fe  Fe1  1  0.032858  0.494909  0.032858  1
  Fe  Fe2  1  0.500000  0.250000  0.000000  1
  Fe  Fe3  1  0.000000  0.250000  0.500000  1
  Fe  Fe4  1  0.500000  0.750000  0.000000  1
  Fe  Fe5  1  0.000000  0.750000  0.500000  1
  Fe  Fe6  1  0.514478  0.480718  0.514478  1
  Fe  Fe7  1  0.485522  0.019282  0.485522  1
  O  O8  1  0.161756  0.656630  0.161756  1
  O  O9  1  0.342368  0.850886  0.342368  1
  O  O10  1  0.347275  0.343631  0.347275  1
  O  O11  1  0.643299  0.102745  0.141900  1
  O  O12  1  0.141900  0.102745  0.643299  1
  O  O13  1  0.858100  0.397255  0.356701  1
  O  O14  1  0.356701  0.397255  0.858100  1
  O  O15  1  0.652725  0.156369  0.652725  1
  O  O16  1  0.657632  0.649114  0.657632  1
  O  O17  1  0.838244  0.843370  0.838244  1
  F  F18  1  0.142880  0.144339  0.142880  1
  F  F19  1  0.161749  0.593242  0.665222  1
  F  F20  1  0.665222  0.593242  0.161749  1
  F  F21  1  0.838251  0.906758  0.334778  1
  F  F22  1  0.334778  0.906758  0.838251  1
  F  F23  1  0.857120  0.355661  0.857120  1
