# generated using pymatgen
data_Li15Mn15SiO32
_symmetry_space_group_name_H-M   'P 1'
_cell_length_a   8.47213679
_cell_length_b   8.42799452
_cell_length_c   8.34371399
_cell_angle_alpha   89.32946169
_cell_angle_beta   90.19460715
_cell_angle_gamma   89.97606170
_symmetry_Int_Tables_number   1
_chemical_formula_structural   Li15Mn15SiO32
_chemical_formula_sum   'Li15 Mn15 Si1 O32'
_cell_volume   595.72293498
_cell_formula_units_Z   1
loop_
 _symmetry_equiv_pos_site_id
 _symmetry_equiv_pos_as_xyz
  1  'x, y, z'
loop_
 _atom_site_type_symbol
 _atom_site_label
 _atom_site_symmetry_multiplicity
 _atom_site_fract_x
 _atom_site_fract_y
 _atom_site_fract_z
 _atom_site_occupancy
  Li  Li0  1  0.127210  0.872423  0.740281  1
  Li  Li1  1  0.127438  0.608232  0.018111  1
  Li  Li2  1  0.123379  0.382637  0.744770  1
  Li  Li3  1  0.369374  0.614018  0.255238  1
  Li  Li4  1  0.369538  0.881382  0.500272  1
  Li  Li5  1  0.380553  0.128638  0.251422  1
  Li  Li6  1  0.367582  0.377110  0.485963  1
  Li  Li7  1  0.620640  0.620620  0.999887  1
  Li  Li8  1  0.625095  0.877445  0.747069  1
  Li  Li9  1  0.635797  0.125692  0.000837  1
  Li  Li10  1  0.627585  0.371727  0.749412  1
  Li  Li11  1  0.881867  0.877697  0.500277  1
  Li  Li12  1  0.878277  0.618661  0.256897  1
  Li  Li13  1  0.884313  0.379369  0.485727  1
  Li  Li14  1  0.871721  0.125587  0.252758  1
  Mn  Mn15  1  0.126257  0.870492  0.250004  1
  Mn  Mn16  1  0.126056  0.619852  0.491894  1
  Mn  Mn17  1  0.126768  0.158089  0.466848  1
  Mn  Mn18  1  0.374578  0.621761  0.745189  1
  Mn  Mn19  1  0.371393  0.128409  0.749218  1
  Mn  Mn20  1  0.370740  0.376249  0.005398  1
  Mn  Mn21  1  0.378768  0.870417  0.002011  1
  Mn  Mn22  1  0.627527  0.126285  0.496818  1
  Mn  Mn23  1  0.623702  0.624144  0.504018  1
  Mn  Mn24  1  0.624307  0.874966  0.251414  1
  Mn  Mn25  1  0.626738  0.374542  0.246850  1
  Mn  Mn26  1  0.873710  0.865269  0.998696  1
  Mn  Mn27  1  0.874630  0.379070  0.011161  1
  Mn  Mn28  1  0.880200  0.126886  0.746764  1
  Mn  Mn29  1  0.876354  0.623474  0.752912  1
  Si  Si30  1  0.120655  0.132266  0.004949  1
  O  O31  1  0.125578  0.393340  0.505144  1
  O  O32  1  0.122058  0.103180  0.215745  1
  O  O33  1  0.113519  0.119333  0.787930  1
  O  O34  1  0.108030  0.339321  0.004826  1
  O  O35  1  0.139557  0.894044  0.010730  1
  O  O36  1  0.141366  0.628755  0.733007  1
  O  O37  1  0.124671  0.646259  0.257006  1
  O  O38  1  0.125290  0.867724  0.479831  1
  O  O39  1  0.377104  0.361055  0.769766  1
  O  O40  1  0.338192  0.136941  0.993758  1
  O  O41  1  0.365367  0.128952  0.516881  1
  O  O42  1  0.400077  0.373588  0.233182  1
  O  O43  1  0.385421  0.874078  0.235667  1
  O  O44  1  0.389401  0.626563  0.511272  1
  O  O45  1  0.370973  0.609785  0.984138  1
  O  O46  1  0.378252  0.891572  0.768049  1
  O  O47  1  0.625670  0.112450  0.255675  1
  O  O48  1  0.625251  0.359625  0.482896  1
  O  O49  1  0.638642  0.371281  0.012079  1
  O  O50  1  0.644943  0.124439  0.740164  1
  O  O51  1  0.609825  0.624667  0.739228  1
  O  O52  1  0.612544  0.876535  0.015242  1
  O  O53  1  0.626467  0.890814  0.484163  1
  O  O54  1  0.625042  0.637083  0.267118  1
  O  O55  1  0.901206  0.106866  0.991869  1
  O  O56  1  0.873835  0.390399  0.774598  1
  O  O57  1  0.853102  0.373118  0.239594  1
  O  O58  1  0.890125  0.128529  0.516158  1
  O  O59  1  0.858908  0.625471  0.518912  1
  O  O60  1  0.863455  0.872253  0.232679  1
  O  O61  1  0.875290  0.859289  0.765614  1
  O  O62  1  0.878888  0.634080  0.989817  1
