# generated using pymatgen
data_Ta7BiO19
_symmetry_space_group_name_H-M   'P 1'
_cell_length_a   6.29948029
_cell_length_b   6.29949916
_cell_length_c   20.28602834
_cell_angle_alpha   89.99989571
_cell_angle_beta   89.99930202
_cell_angle_gamma   120.00003084
_symmetry_Int_Tables_number   1
_chemical_formula_structural   Ta7BiO19
_chemical_formula_sum   'Ta14 Bi2 O38'
_cell_volume   697.16932167
_cell_formula_units_Z   2
loop_
 _symmetry_equiv_pos_site_id
 _symmetry_equiv_pos_as_xyz
  1  'x, y, z'
loop_
 _atom_site_type_symbol
 _atom_site_label
 _atom_site_symmetry_multiplicity
 _atom_site_fract_x
 _atom_site_fract_y
 _atom_site_fract_z
 _atom_site_occupancy
  Ta  Ta0  1  0.997115  0.641462  0.155732  1
  Ta  Ta1  1  0.002888  0.644379  0.344367  1
  Ta  Ta2  1  0.997109  0.355641  0.844268  1
  Ta  Ta3  1  0.002850  0.358498  0.655630  1
  Ta  Ta4  1  0.333386  0.666704  0.500014  1
  Ta  Ta5  1  0.358532  0.355653  0.155729  1
  Ta  Ta6  1  0.355647  0.358526  0.344369  1
  Ta  Ta7  1  0.641470  0.644326  0.655637  1
  Ta  Ta8  1  0.644344  0.641458  0.844278  1
  Ta  Ta9  1  0.355639  0.997124  0.655620  1
  Ta  Ta10  1  0.358533  0.002877  0.844259  1
  Ta  Ta11  1  0.666603  0.333321  0.000002  1
  Ta  Ta12  1  0.644345  0.002883  0.155725  1
  Ta  Ta13  1  0.641497  0.997135  0.344365  1
  Bi  Bi14  1  0.333201  0.666662  0.999990  1
  Bi  Bi15  1  0.666783  0.333448  0.499954  1
  O  O16  1  0.002434  0.757113  0.846827  1
  O  O17  1  0.997551  0.754662  0.653185  1
  O  O18  1  0.999992  0.608858  0.249944  1
  O  O19  1  0.952559  0.571538  0.056197  1
  O  O20  1  0.047413  0.618993  0.443792  1
  O  O21  1  0.047438  0.428459  0.556211  1
  O  O22  1  0.952551  0.381035  0.943804  1
  O  O23  1  0.999978  0.391122  0.750059  1
  O  O24  1  0.002438  0.245327  0.153178  1
  O  O25  1  0.997569  0.242894  0.346816  1
  O  O26  1  0.333326  0.666666  0.139010  1
  O  O27  1  0.333328  0.666656  0.659475  1
  O  O28  1  0.333324  0.666662  0.860998  1
  O  O29  1  0.333340  0.666675  0.340528  1
  O  O30  1  0.242882  0.245320  0.846821  1
  O  O31  1  0.245320  0.242882  0.653189  1
  O  O32  1  0.391143  0.391132  0.249944  1
  O  O33  1  0.428455  0.381015  0.056202  1
  O  O34  1  0.381047  0.428469  0.443785  1
  O  O35  1  0.242880  0.997561  0.153180  1
  O  O36  1  0.245337  0.002446  0.346814  1
  O  O37  1  0.571588  0.618995  0.556207  1
  O  O38  1  0.618960  0.571517  0.943802  1
  O  O39  1  0.608872  0.608858  0.750063  1
  O  O40  1  0.754676  0.757119  0.153180  1
  O  O41  1  0.757124  0.754681  0.346812  1
  O  O42  1  0.391135  0.999998  0.750055  1
  O  O43  1  0.428441  0.047432  0.943805  1
  O  O44  1  0.381032  0.952561  0.556213  1
  O  O45  1  0.666657  0.333324  0.639002  1
  O  O46  1  0.666660  0.333324  0.840525  1
  O  O47  1  0.666669  0.333340  0.159482  1
  O  O48  1  0.666677  0.333344  0.361013  1
  O  O49  1  0.618947  0.047453  0.056203  1
  O  O50  1  0.571564  0.952577  0.443784  1
  O  O51  1  0.608876  0.000020  0.249942  1
  O  O52  1  0.754666  0.997555  0.846825  1
  O  O53  1  0.757111  0.002426  0.653189  1
