# generated using pymatgen
data_Hg
_symmetry_space_group_name_H-M   'P 1'
_cell_length_a   10.52227860
_cell_length_b   10.52227860
_cell_length_c   10.52227860
_cell_angle_alpha   109.47122063
_cell_angle_beta   109.47122063
_cell_angle_gamma   109.47122063
_symmetry_Int_Tables_number   1
_chemical_formula_structural   Hg
_chemical_formula_sum   Hg29
_cell_volume   896.82457061
_cell_formula_units_Z   29
loop_
 _symmetry_equiv_pos_site_id
 _symmetry_equiv_pos_as_xyz
  1  'x, y, z'
loop_
 _atom_site_type_symbol
 _atom_site_label
 _atom_site_symmetry_multiplicity
 _atom_site_fract_x
 _atom_site_fract_y
 _atom_site_fract_z
 _atom_site_occupancy
  Hg  Hg0  1  0.000000  0.000000  0.000000  1
  Hg  Hg1  1  0.345721  0.000000  0.000000  1
  Hg  Hg2  1  0.587768  0.308745  0.000000  1
  Hg  Hg3  1  0.000000  0.345721  0.000000  1
  Hg  Hg4  1  0.308745  0.587768  0.000000  1
  Hg  Hg5  1  0.807056  0.621251  0.000000  1
  Hg  Hg6  1  0.621251  0.807056  0.000000  1
  Hg  Hg7  1  0.378749  0.378749  0.185805  1
  Hg  Hg8  1  0.814196  0.192944  0.192944  1
  Hg  Hg9  1  0.192944  0.814196  0.192944  1
  Hg  Hg10  1  0.691254  0.691254  0.279023  1
  Hg  Hg11  1  0.587768  0.000000  0.308745  1
  Hg  Hg12  1  0.000000  0.587768  0.308745  1
  Hg  Hg13  1  0.000000  0.000000  0.345721  1
  Hg  Hg14  1  0.378749  0.185805  0.378749  1
  Hg  Hg15  1  0.185805  0.378749  0.378749  1
  Hg  Hg16  1  0.720977  0.412231  0.412231  1
  Hg  Hg17  1  0.412231  0.720977  0.412231  1
  Hg  Hg18  1  0.308745  0.000000  0.587768  1
  Hg  Hg19  1  0.000000  0.308745  0.587768  1
  Hg  Hg20  1  0.807056  0.000000  0.621251  1
  Hg  Hg21  1  0.000000  0.807056  0.621251  1
  Hg  Hg22  1  0.654279  0.654279  0.654279  1
  Hg  Hg23  1  0.691254  0.279023  0.691254  1
  Hg  Hg24  1  0.279023  0.691254  0.691254  1
  Hg  Hg25  1  0.412231  0.412231  0.720977  1
  Hg  Hg26  1  0.621251  0.000000  0.807056  1
  Hg  Hg27  1  0.000000  0.621251  0.807056  1
  Hg  Hg28  1  0.192944  0.192944  0.814196  1
