# generated using pymatgen
data_Li4Mn5(CuO6)2
_symmetry_space_group_name_H-M   'P 1'
_cell_length_a   5.35359482
_cell_length_b   8.80647976
_cell_length_c   9.75844751
_cell_angle_alpha   89.99999928
_cell_angle_beta   97.42877476
_cell_angle_gamma   89.99999947
_symmetry_Int_Tables_number   1
_chemical_formula_structural   Li4Mn5(CuO6)2
_chemical_formula_sum   'Li8 Mn10 Cu4 O24'
_cell_volume   456.21322603
_cell_formula_units_Z   2
loop_
 _symmetry_equiv_pos_site_id
 _symmetry_equiv_pos_as_xyz
  1  'x, y, z'
loop_
 _atom_site_type_symbol
 _atom_site_label
 _atom_site_symmetry_multiplicity
 _atom_site_fract_x
 _atom_site_fract_y
 _atom_site_fract_z
 _atom_site_occupancy
  Li  Li0  1  0.237514  0.097085  0.987976  1
  Li  Li1  1  0.772885  0.084902  0.511140  1
  Li  Li2  1  0.489740  0.421178  0.756292  1
  Li  Li3  1  0.262486  0.597085  0.512024  1
  Li  Li4  1  0.758725  0.406130  0.513685  1
  Li  Li5  1  0.727115  0.584902  0.988860  1
  Li  Li6  1  0.010260  0.921178  0.743708  1
  Li  Li7  1  0.741275  0.906130  0.986315  1
  Mn  Mn8  1  0.985810  0.074067  0.246191  1
  Mn  Mn9  1  0.507308  0.084036  0.747657  1
  Mn  Mn10  1  0.258713  0.246006  0.505133  1
  Mn  Mn11  1  0.018269  0.411512  0.257186  1
  Mn  Mn12  1  0.742214  0.255182  0.994857  1
  Mn  Mn13  1  0.992692  0.584036  0.752343  1
  Mn  Mn14  1  0.514190  0.574067  0.253809  1
  Mn  Mn15  1  0.241287  0.746006  0.994867  1
  Mn  Mn16  1  0.757786  0.755182  0.505143  1
  Mn  Mn17  1  0.481731  0.911512  0.242814  1
  Cu  Cu18  1  0.006058  0.261996  0.756907  1
  Cu  Cu19  1  0.496834  0.247626  0.244931  1
  Cu  Cu20  1  0.003166  0.747626  0.255069  1
  Cu  Cu21  1  0.493942  0.761996  0.743093  1
  O  O22  1  0.154399  0.110778  0.646802  1
  O  O23  1  0.344544  0.076510  0.343059  1
  O  O24  1  0.065148  0.234079  0.119963  1
  O  O25  1  0.645279  0.081332  0.134790  1
  O  O26  1  0.426237  0.237698  0.878892  1
  O  O27  1  0.852261  0.102169  0.858530  1
  O  O28  1  0.108932  0.424077  0.640774  1
  O  O29  1  0.585611  0.237785  0.613644  1
  O  O30  1  0.371817  0.399346  0.379668  1
  O  O31  1  0.928774  0.256381  0.389170  1
  O  O32  1  0.155456  0.576510  0.156941  1
  O  O33  1  0.651427  0.415720  0.138279  1
  O  O34  1  0.345601  0.610778  0.853198  1
  O  O35  1  0.866072  0.421395  0.860767  1
  O  O36  1  0.073763  0.737698  0.621108  1
  O  O37  1  0.647739  0.602169  0.641470  1
  O  O38  1  0.434852  0.734079  0.380037  1
  O  O39  1  0.854721  0.581332  0.365210  1
  O  O40  1  0.128183  0.899346  0.120332  1
  O  O41  1  0.571226  0.756381  0.110830  1
  O  O42  1  0.391068  0.924077  0.859226  1
  O  O43  1  0.914389  0.737785  0.886356  1
  O  O44  1  0.633928  0.921395  0.639233  1
  O  O45  1  0.848573  0.915720  0.361721  1
