# generated using pymatgen
data_Rb2VAgS4
_symmetry_space_group_name_H-M   'P 1'
_cell_length_a   5.85069107
_cell_length_b   7.46734355
_cell_length_c   12.22083833
_cell_angle_alpha   84.61918055
_cell_angle_beta   76.15042988
_cell_angle_gamma   66.93645237
_symmetry_Int_Tables_number   1
_chemical_formula_structural   Rb2VAgS4
_chemical_formula_sum   'Rb4 V2 Ag2 S8'
_cell_volume   476.96051338
_cell_formula_units_Z   2
loop_
 _symmetry_equiv_pos_site_id
 _symmetry_equiv_pos_as_xyz
  1  'x, y, z'
loop_
 _atom_site_type_symbol
 _atom_site_label
 _atom_site_symmetry_multiplicity
 _atom_site_fract_x
 _atom_site_fract_y
 _atom_site_fract_z
 _atom_site_occupancy
  S  S0  1  0.868902  0.559343  0.858495  1
  S  S1  1  0.272603  0.940657  0.858495  1
  S  S2  1  0.571755  0.559343  0.641505  1
  S  S3  1  0.786740  0.940657  0.641505  1
  S  S4  1  0.428245  0.440657  0.358495  1
  S  S5  1  0.213260  0.059343  0.358495  1
  S  S6  1  0.727397  0.059343  0.141505  1
  S  S7  1  0.131098  0.440657  0.141505  1
  V  V8  1  0.625000  0.750000  0.750000  1
  V  V9  1  0.375000  0.250000  0.250000  1
  Rb  Rb10  1  0.445802  0.750000  0.108396  1
  Rb  Rb11  1  0.195802  0.250000  0.608396  1
  Rb  Rb12  1  0.804198  0.750000  0.391604  1
  Rb  Rb13  1  0.554198  0.250000  0.891604  1
  Ag  Ag14  1  0.125000  0.750000  0.750000  1
  Ag  Ag15  1  0.875000  0.250000  0.250000  1
