# generated using pymatgen
data_PaPt3
_symmetry_space_group_name_H-M   'P 1'
_cell_length_a   5.77003763
_cell_length_b   5.77003748
_cell_length_c   5.08597537
_cell_angle_alpha   90.00000000
_cell_angle_beta   90.00000000
_cell_angle_gamma   120.00000653
_symmetry_Int_Tables_number   1
_chemical_formula_structural   PaPt3
_chemical_formula_sum   'Pa2 Pt6'
_cell_volume   146.64326969
_cell_formula_units_Z   2
loop_
 _symmetry_equiv_pos_site_id
 _symmetry_equiv_pos_as_xyz
  1  'x, y, z'
loop_
 _atom_site_type_symbol
 _atom_site_label
 _atom_site_symmetry_multiplicity
 _atom_site_fract_x
 _atom_site_fract_y
 _atom_site_fract_z
 _atom_site_occupancy
  Pa  Pa0  1  0.666667  0.333333  0.250002  1
  Pa  Pa1  1  0.333334  0.666668  0.750000  1
  Pt  Pt2  1  0.834651  0.165348  0.750000  1
  Pt  Pt3  1  0.330696  0.165348  0.750000  1
  Pt  Pt4  1  0.834652  0.669303  0.750000  1
  Pt  Pt5  1  0.165348  0.834653  0.250002  1
  Pt  Pt6  1  0.669303  0.834653  0.250002  1
  Pt  Pt7  1  0.165349  0.330697  0.250002  1
