# generated using pymatgen
data_KSiBiS4
_symmetry_space_group_name_H-M   'P 1'
_cell_length_a   6.55843348
_cell_length_b   6.80900244
_cell_length_c   17.55955502
_cell_angle_alpha   90.00000000
_cell_angle_beta   107.45101881
_cell_angle_gamma   90.00000000
_symmetry_Int_Tables_number   1
_chemical_formula_structural   KSiBiS4
_chemical_formula_sum   'K4 Si4 Bi4 S16'
_cell_volume   748.05495249
_cell_formula_units_Z   4
loop_
 _symmetry_equiv_pos_site_id
 _symmetry_equiv_pos_as_xyz
  1  'x, y, z'
loop_
 _atom_site_type_symbol
 _atom_site_label
 _atom_site_symmetry_multiplicity
 _atom_site_fract_x
 _atom_site_fract_y
 _atom_site_fract_z
 _atom_site_occupancy
  K  K0  1  0.218332  0.750219  0.964430  1
  K  K1  1  0.781666  0.250219  0.535571  1
  K  K2  1  0.781665  0.249781  0.035571  1
  K  K3  1  0.218333  0.749782  0.464430  1
  Si  Si4  1  0.294302  0.264830  0.842189  1
  Si  Si5  1  0.705699  0.764832  0.657811  1
  Si  Si6  1  0.705698  0.735167  0.157811  1
  Si  Si7  1  0.294301  0.235169  0.342189  1
  Bi  Bi8  1  0.741222  0.199763  0.779274  1
  Bi  Bi9  1  0.258777  0.699765  0.720726  1
  Bi  Bi10  1  0.258778  0.800237  0.220726  1
  Bi  Bi11  1  0.741223  0.300237  0.279274  1
  S  S12  1  0.516945  0.499026  0.866023  1
  S  S13  1  0.483055  0.999027  0.633977  1
  S  S14  1  0.483054  0.500973  0.133976  1
  S  S15  1  0.516947  0.000975  0.366024  1
  S  S16  1  0.088936  0.250853  0.915769  1
  S  S17  1  0.911065  0.750852  0.584231  1
  S  S18  1  0.911064  0.749148  0.084230  1
  S  S19  1  0.088935  0.249147  0.415769  1
  S  S20  1  0.486977  0.006505  0.857165  1
  S  S21  1  0.513023  0.506508  0.642835  1
  S  S22  1  0.513022  0.993492  0.142835  1
  S  S23  1  0.486976  0.493495  0.357165  1
  S  S24  1  0.097345  0.312788  0.720795  1
  S  S25  1  0.902656  0.812789  0.779205  1
  S  S26  1  0.902655  0.687211  0.279205  1
  S  S27  1  0.097345  0.187212  0.220795  1
