# generated using pymatgen
data_Li4Mn3Fe(PO4)4
_symmetry_space_group_name_H-M   'P 1'
_cell_length_a   7.79073915
_cell_length_b   10.53411700
_cell_length_c   7.79356259
_cell_angle_alpha   89.96382390
_cell_angle_beta   104.26216188
_cell_angle_gamma   89.92562920
_symmetry_Int_Tables_number   1
_chemical_formula_structural   Li4Mn3Fe(PO4)4
_chemical_formula_sum   'Li8 Mn6 Fe2 P8 O32'
_cell_volume   619.89207854
_cell_formula_units_Z   2
loop_
 _symmetry_equiv_pos_site_id
 _symmetry_equiv_pos_as_xyz
  1  'x, y, z'
loop_
 _atom_site_type_symbol
 _atom_site_label
 _atom_site_symmetry_multiplicity
 _atom_site_fract_x
 _atom_site_fract_y
 _atom_site_fract_z
 _atom_site_occupancy
  Li  Li0  1  0.000000  0.000000  0.000000  1
  Li  Li1  1  0.000000  0.500000  0.500000  1
  Li  Li2  1  0.500000  0.500000  0.000000  1
  Li  Li3  1  0.250136  0.499666  0.249604  1
  Li  Li4  1  0.749907  0.000341  0.249578  1
  Li  Li5  1  0.500000  0.000000  0.500000  1
  Li  Li6  1  0.250094  0.999659  0.750422  1
  Li  Li7  1  0.749864  0.500334  0.750396  1
  Mn  Mn8  1  0.361453  0.218547  0.111691  1
  Mn  Mn9  1  0.137931  0.781422  0.388151  1
  Mn  Mn10  1  0.361422  0.281197  0.611690  1
  Mn  Mn11  1  0.638578  0.718803  0.388310  1
  Mn  Mn12  1  0.862069  0.218578  0.611849  1
  Mn  Mn13  1  0.638547  0.781453  0.888309  1
  Fe  Fe14  1  0.860583  0.281804  0.110283  1
  Fe  Fe15  1  0.139417  0.718196  0.889717  1
  P  P16  1  0.079002  0.093514  0.329071  1
  P  P17  1  0.418544  0.906995  0.168632  1
  P  P18  1  0.582357  0.407388  0.330545  1
  P  P19  1  0.080820  0.408324  0.832563  1
  P  P20  1  0.919180  0.591676  0.167437  1
  P  P21  1  0.417643  0.592612  0.669455  1
  P  P22  1  0.581456  0.093005  0.831368  1
  P  P23  1  0.920998  0.906486  0.670929  1
  O  O24  1  0.085171  0.661754  0.130623  1
  O  O25  1  0.257959  0.902962  0.008041  1
  O  O26  1  0.112616  0.162959  0.161989  1
  O  O27  1  0.019133  0.956187  0.269333  1
  O  O28  1  0.479611  0.043973  0.229891  1
  O  O29  1  0.385253  0.837949  0.336446  1
  O  O30  1  0.586476  0.837987  0.135364  1
  O  O31  1  0.088132  0.836972  0.637194  1
  O  O32  1  0.240193  0.096739  0.490182  1
  O  O33  1  0.258203  0.595643  0.507581  1
  O  O34  1  0.757219  0.595903  0.007890  1
  O  O35  1  0.415038  0.337768  0.363586  1
  O  O36  1  0.619664  0.337524  0.164827  1
  O  O37  1  0.113355  0.338479  0.664995  1
  O  O38  1  0.019630  0.545210  0.771013  1
  O  O39  1  0.520022  0.544028  0.268602  1
  O  O40  1  0.479978  0.455972  0.731398  1
  O  O41  1  0.980370  0.454790  0.228987  1
  O  O42  1  0.886645  0.661521  0.335005  1
  O  O43  1  0.380336  0.662476  0.835173  1
  O  O44  1  0.584962  0.662232  0.636414  1
  O  O45  1  0.741797  0.404357  0.492419  1
  O  O46  1  0.242781  0.404097  0.992110  1
  O  O47  1  0.759807  0.903261  0.509818  1
  O  O48  1  0.911868  0.163028  0.362806  1
  O  O49  1  0.413524  0.162013  0.864636  1
  O  O50  1  0.614747  0.162051  0.663554  1
  O  O51  1  0.520389  0.956027  0.770109  1
  O  O52  1  0.980867  0.043813  0.730667  1
  O  O53  1  0.887384  0.837041  0.838011  1
  O  O54  1  0.742041  0.097038  0.991959  1
  O  O55  1  0.914829  0.338246  0.869377  1
