# generated using pymatgen
data_Li2Si2NiO6
_symmetry_space_group_name_H-M   'P 1'
_cell_length_a   12.23259111
_cell_length_b   10.99656723
_cell_length_c   6.28268982
_cell_angle_alpha   73.40134233
_cell_angle_beta   75.11965774
_cell_angle_gamma   85.79303940
_symmetry_Int_Tables_number   1
_chemical_formula_structural   Li2Si2NiO6
_chemical_formula_sum   'Li12 Si12 Ni6 O36'
_cell_volume   782.74761648
_cell_formula_units_Z   6
loop_
 _symmetry_equiv_pos_site_id
 _symmetry_equiv_pos_as_xyz
  1  'x, y, z'
loop_
 _atom_site_type_symbol
 _atom_site_label
 _atom_site_symmetry_multiplicity
 _atom_site_fract_x
 _atom_site_fract_y
 _atom_site_fract_z
 _atom_site_occupancy
  Li  Li0  1  0.694770  0.000000  0.152614  1
  Li  Li1  1  0.023827  0.000000  0.488086  1
  Li  Li2  1  0.455761  0.135002  0.954038  1
  Li  Li3  1  0.133792  0.217475  0.569764  1
  Li  Li4  1  0.633792  0.282525  0.537239  1
  Li  Li5  1  0.955761  0.364998  0.839040  1
  Li  Li6  1  0.523827  0.500000  0.238086  1
  Li  Li7  1  0.194770  0.500000  0.902614  1
  Li  Li8  1  0.955761  0.635002  0.205198  1
  Li  Li9  1  0.633792  0.717476  0.828968  1
  Li  Li10  1  0.133792  0.782524  0.296444  1
  Li  Li11  1  0.455761  0.864998  0.590200  1
  Si  Si12  1  0.673592  0.000000  0.663203  1
  Si  Si13  1  0.027047  0.000000  0.986476  1
  Si  Si14  1  0.481693  0.114408  0.455284  1
  Si  Si15  1  0.136708  0.217979  0.075745  1
  Si  Si16  1  0.636708  0.282021  0.043724  1
  Si  Si17  1  0.981693  0.385592  0.319691  1
  Si  Si18  1  0.173592  0.500000  0.413203  1
  Si  Si19  1  0.527047  0.500000  0.736476  1
  Si  Si20  1  0.981693  0.614408  0.698616  1
  Si  Si21  1  0.636708  0.717979  0.319568  1
  Si  Si22  1  0.136708  0.782021  0.787548  1
  Si  Si23  1  0.481693  0.885592  0.063023  1
  Ni  Ni24  1  0.263161  0.000000  0.368420  1
  Ni  Ni25  1  0.851995  0.166270  0.723034  1
  Ni  Ni26  1  0.351995  0.333730  0.639304  1
  Ni  Ni27  1  0.763161  0.500000  0.118420  1
  Ni  Ni28  1  0.351995  0.666270  0.008700  1
  Ni  Ni29  1  0.851995  0.833730  0.424971  1
  O  O30  1  0.589913  0.011765  0.482477  1
  O  O31  1  0.957893  0.025435  0.790624  1
  O  O32  1  0.373695  0.024731  0.520763  1
  O  O33  1  0.145713  0.130743  0.327938  1
  O  O34  1  0.112490  0.127842  0.917586  1
  O  O35  1  0.739408  0.133178  0.580273  1
  O  O36  1  0.515713  0.196117  0.177494  1
  O  O37  1  0.740464  0.185519  0.999675  1
  O  O38  1  0.477131  0.204231  0.623307  1
  O  O39  1  0.977131  0.295769  0.577538  1
  O  O40  1  0.240464  0.314481  0.935194  1
  O  O41  1  0.015713  0.303883  0.123611  1
  O  O42  1  0.239408  0.366822  0.463451  1
  O  O43  1  0.612490  0.372158  0.795428  1
  O  O44  1  0.645713  0.369257  0.208681  1
  O  O45  1  0.873695  0.475269  0.295494  1
  O  O46  1  0.457893  0.474565  0.566058  1
  O  O47  1  0.089913  0.488235  0.244242  1
  O  O48  1  0.089913  0.511765  0.665845  1
  O  O49  1  0.457893  0.525435  0.976049  1
  O  O50  1  0.873695  0.524731  0.830813  1
  O  O51  1  0.645713  0.630743  0.145605  1
  O  O52  1  0.612490  0.627842  0.592081  1
  O  O53  1  0.239408  0.633178  0.297140  1
  O  O54  1  0.015713  0.696117  0.860675  1
  O  O55  1  0.240464  0.685519  0.824343  1
  O  O56  1  0.977131  0.704231  0.445333  1
  O  O57  1  0.477131  0.795769  0.899562  1
  O  O58  1  0.740464  0.814481  0.259862  1
  O  O59  1  0.515713  0.803883  0.306792  1
  O  O60  1  0.739408  0.866822  0.680318  1
  O  O61  1  0.112490  0.872158  0.969924  1
  O  O62  1  0.145713  0.869257  0.526349  1
  O  O63  1  0.373695  0.975269  0.105544  1
  O  O64  1  0.957893  0.974565  0.251484  1
  O  O65  1  0.589913  0.988235  0.927610  1
