# generated using pymatgen
data_Li4V3P8O29
_symmetry_space_group_name_H-M   'P 1'
_cell_length_a   9.75417069
_cell_length_b   9.80095727
_cell_length_c   14.20400362
_cell_angle_alpha   89.84267889
_cell_angle_beta   89.98778064
_cell_angle_gamma   59.97635356
_symmetry_Int_Tables_number   1
_chemical_formula_structural   Li4V3P8O29
_chemical_formula_sum   'Li8 V6 P16 O58'
_cell_volume   1175.69506129
_cell_formula_units_Z   2
loop_
 _symmetry_equiv_pos_site_id
 _symmetry_equiv_pos_as_xyz
  1  'x, y, z'
loop_
 _atom_site_type_symbol
 _atom_site_label
 _atom_site_symmetry_multiplicity
 _atom_site_fract_x
 _atom_site_fract_y
 _atom_site_fract_z
 _atom_site_occupancy
  Li  Li0  1  0.765898  0.903145  0.555351  1
  Li  Li1  1  0.770803  0.321924  0.057296  1
  Li  Li2  1  0.307674  0.916463  0.060569  1
  Li  Li3  1  0.322983  0.768484  0.556670  1
  Li  Li4  1  0.694899  0.082484  0.941970  1
  Li  Li5  1  0.224895  0.686822  0.950168  1
  Li  Li6  1  0.231422  0.100426  0.441845  1
  Li  Li7  1  0.945998  0.045277  0.490144  1
  V  V8  1  0.566849  0.430928  0.259786  1
  V  V9  1  0.437483  0.561782  0.743780  1
  V  V10  1  0.569127  0.997139  0.753141  1
  V  V11  1  0.433212  0.001893  0.246563  1
  V  V12  1  0.002859  0.564544  0.249606  1
  V  V13  1  0.996979  0.435862  0.747137  1
  P  P14  1  0.919016  0.766407  0.844226  1
  P  P15  1  0.775998  0.910493  0.339677  1
  P  P16  1  0.921163  0.304736  0.340950  1
  P  P17  1  0.665786  0.660495  0.133198  1
  P  P18  1  0.666253  0.668652  0.629769  1
  P  P19  1  0.772051  0.318085  0.839484  1
  P  P20  1  0.695503  0.218601  0.658402  1
  P  P21  1  0.320544  0.905012  0.840914  1
  P  P22  1  0.682568  0.092767  0.160417  1
  P  P23  1  0.313926  0.775842  0.342839  1
  P  P24  1  0.230978  0.679974  0.163281  1
  P  P25  1  0.328723  0.333875  0.370360  1
  P  P26  1  0.332802  0.336528  0.865989  1
  P  P27  1  0.080444  0.694485  0.657932  1
  P  P28  1  0.227151  0.087653  0.661774  1
  P  P29  1  0.083081  0.231545  0.155023  1
  O  O30  1  0.991593  0.797550  0.576535  1
  O  O31  1  0.915953  0.739196  0.328007  1
  O  O32  1  0.752857  0.016456  0.069334  1
  O  O33  1  0.750239  0.913953  0.842344  1
  O  O34  1  0.907078  0.617315  0.822251  1
  O  O35  1  0.814137  0.655523  0.180996  1
  O  O36  1  0.926374  0.458587  0.333175  1
  O  O37  1  0.990174  0.240802  0.070538  1
  O  O38  1  0.915857  0.341811  0.833798  1
  O  O39  1  0.675930  0.812822  0.667226  1
  O  O40  1  0.618148  0.914041  0.328820  1
  O  O41  1  0.809578  0.518612  0.676589  1
  O  O42  1  0.672618  0.648803  0.028766  1
  O  O43  1  0.659979  0.664412  0.525330  1
  O  O44  1  0.662805  0.513968  0.177868  1
  O  O45  1  0.481327  0.897338  0.820471  1
  O  O46  1  0.513984  0.814291  0.168340  1
  O  O47  1  0.745667  0.342023  0.336304  1
  O  O48  1  0.791214  0.201474  0.755057  1
  O  O49  1  0.792800  0.202727  0.575024  1
  O  O50  1  0.754454  0.249247  0.930011  1
  O  O51  1  0.619364  0.477939  0.816908  1
  O  O52  1  0.508902  0.676879  0.671112  1
  O  O53  1  0.661039  0.260893  0.166531  1
  O  O54  1  0.472990  0.618798  0.329162  1
  O  O55  1  0.341199  0.918744  0.334671  1
  O  O56  1  0.793665  0.002311  0.249452  1
  O  O57  1  0.794904  0.979896  0.428920  1
  O  O58  1  0.221445  0.005753  0.573472  1
  O  O59  1  0.658677  0.081646  0.665046  1
  O  O60  1  0.537873  0.379923  0.669126  1
  O  O61  1  0.340614  0.737045  0.833758  1
  O  O62  1  0.482652  0.330006  0.326934  1
  O  O63  1  0.383102  0.521974  0.182774  1
  O  O64  1  0.242817  0.757823  0.074923  1
  O  O65  1  0.232317  0.783102  0.432691  1
  O  O66  1  0.207289  0.792741  0.252129  1
  O  O67  1  0.256146  0.659418  0.658299  1
  O  O68  1  0.486574  0.184089  0.833270  1
  O  O69  1  0.520607  0.101875  0.179881  1
  O  O70  1  0.338037  0.481828  0.817157  1
  O  O71  1  0.324188  0.358208  0.969680  1
  O  O72  1  0.326962  0.343829  0.474509  1
  O  O73  1  0.187744  0.482303  0.321130  1
  O  O74  1  0.381898  0.089559  0.674053  1
  O  O75  1  0.322890  0.187285  0.333308  1
  O  O76  1  0.085941  0.656926  0.164781  1
  O  O77  1  0.005872  0.790520  0.753532  1
  O  O78  1  0.010798  0.755076  0.929630  1
  O  O79  1  0.077566  0.538342  0.668253  1
  O  O80  1  0.186296  0.340425  0.817946  1
  O  O81  1  0.093391  0.381424  0.175575  1
  O  O82  1  0.252829  0.085119  0.156535  1
  O  O83  1  0.251121  0.979472  0.932592  1
  O  O84  1  0.207241  0.998720  0.752895  1
  O  O85  1  0.083919  0.257723  0.667916  1
  O  O86  1  0.004443  0.199155  0.423175  1
  O  O87  1  0.000444  0.205295  0.247128  1
