# generated using pymatgen
data_Li6TiNi3(PO4)6
_symmetry_space_group_name_H-M   'P 1'
_cell_length_a   8.60191050
_cell_length_b   8.65884532
_cell_length_c   8.63950311
_cell_angle_alpha   61.41137990
_cell_angle_beta   61.18166037
_cell_angle_gamma   61.28443174
_symmetry_Int_Tables_number   1
_chemical_formula_structural   Li6TiNi3(PO4)6
_chemical_formula_sum   'Li6 Ti1 Ni3 P6 O24'
_cell_volume   468.23501995
_cell_formula_units_Z   1
loop_
 _symmetry_equiv_pos_site_id
 _symmetry_equiv_pos_as_xyz
  1  'x, y, z'
loop_
 _atom_site_type_symbol
 _atom_site_label
 _atom_site_symmetry_multiplicity
 _atom_site_fract_x
 _atom_site_fract_y
 _atom_site_fract_z
 _atom_site_occupancy
  Li  Li0  1  0.022964  0.015852  0.001111  1
  Li  Li1  1  0.743905  0.157565  0.351490  1
  Li  Li2  1  0.479140  0.503459  0.487703  1
  Li  Li3  1  0.294144  0.849886  0.642488  1
  Li  Li4  1  0.650508  0.299925  0.839850  1
  Li  Li5  1  0.843583  0.646812  0.298469  1
  Ti  Ti6  1  0.851343  0.851976  0.853555  1
  Ni  Ni7  1  0.142669  0.146195  0.141393  1
  Ni  Ni8  1  0.357551  0.358819  0.355953  1
  Ni  Ni9  1  0.646048  0.647553  0.646921  1
  P  P10  1  0.046384  0.750111  0.447921  1
  P  P11  1  0.449906  0.044486  0.749030  1
  P  P12  1  0.750019  0.451241  0.041823  1
  P  P13  1  0.247494  0.547577  0.953102  1
  P  P14  1  0.549311  0.962213  0.248894  1
  P  P15  1  0.954006  0.244850  0.539362  1
  O  O16  1  0.134789  0.262471  0.507180  1
  O  O17  1  0.276010  0.520439  0.126462  1
  O  O18  1  0.058605  0.913695  0.263017  1
  O  O19  1  0.553195  0.119543  0.281231  1
  O  O20  1  0.233910  0.591719  0.445303  1
  O  O21  1  0.987047  0.816030  0.614844  1
  O  O22  1  0.258882  0.082034  0.899963  1
  O  O23  1  0.473590  0.220232  0.577679  1
  O  O24  1  0.594441  0.446734  0.234540  1
  O  O25  1  0.180143  0.392100  0.000531  1
  O  O26  1  0.102544  0.747780  0.898651  1
  O  O27  1  0.384649  0.017777  0.191025  1
  O  O28  1  0.614602  0.978711  0.821677  1
  O  O29  1  0.902396  0.258118  0.071850  1
  O  O30  1  0.821147  0.613254  0.981936  1
  O  O31  1  0.421204  0.543514  0.772203  1
  O  O32  1  0.543731  0.780304  0.421749  1
  O  O33  1  0.746099  0.897850  0.099321  1
  O  O34  1  0.962115  0.187188  0.391919  1
  O  O35  1  0.777582  0.424835  0.544078  1
  O  O36  1  0.467949  0.884770  0.701676  1
  O  O37  1  0.898782  0.100824  0.741989  1
  O  O38  1  0.689988  0.476328  0.888605  1
  O  O39  1  0.887621  0.694231  0.474506  1
