# generated using pymatgen
data_CsCaCO3F
_symmetry_space_group_name_H-M   'P 1'
_cell_length_a   9.39267909
_cell_length_b   9.39108689
_cell_length_c   4.60276179
_cell_angle_alpha   90.00000000
_cell_angle_beta   90.00000000
_cell_angle_gamma   120.00560858
_symmetry_Int_Tables_number   1
_chemical_formula_structural   CsCaCO3F
_chemical_formula_sum   'Cs3 Ca3 C3 O9 F3'
_cell_volume   351.58466717
_cell_formula_units_Z   3
loop_
 _symmetry_equiv_pos_site_id
 _symmetry_equiv_pos_as_xyz
  1  'x, y, z'
loop_
 _atom_site_type_symbol
 _atom_site_label
 _atom_site_symmetry_multiplicity
 _atom_site_fract_x
 _atom_site_fract_y
 _atom_site_fract_z
 _atom_site_occupancy
  Cs  Cs0  1  0.276424  0.000000  0.500000  1
  Cs  Cs1  1  0.000009  0.276471  0.500000  1
  Cs  Cs2  1  0.723538  0.723530  0.500000  1
  Ca  Ca3  1  0.000034  0.610517  0.000000  1
  Ca  Ca4  1  0.389516  0.389484  0.000000  1
  Ca  Ca5  1  0.610511  0.000000  0.000000  1
  C  C6  1  0.000025  0.000000  0.000000  1
  C  C7  1  0.666634  0.333331  0.000000  1
  C  C8  1  0.333302  0.666669  0.000000  1
  O  O9  1  0.691153  0.482557  0.000000  1
  O  O10  1  0.517484  0.208586  0.000000  1
  O  O11  1  0.791441  0.308868  0.000000  1
  O  O12  1  0.208596  0.517442  0.000000  1
  O  O13  1  0.308898  0.791413  0.000000  1
  O  O14  1  0.482572  0.691131  0.000000  1
  O  O15  1  0.999963  0.861786  0.000000  1
  O  O16  1  0.138177  0.138214  0.000000  1
  O  O17  1  0.861748  0.000000  0.000000  1
  F  F18  1  0.000078  0.611367  0.500000  1
  F  F19  1  0.388712  0.388633  0.500000  1
  F  F20  1  0.611284  0.000000  0.500000  1
