# generated using pymatgen
data_LiFe4(BO3)4
_symmetry_space_group_name_H-M   'P 1'
_cell_length_a   5.22650428
_cell_length_b   9.15915541
_cell_length_c   11.37299138
_cell_angle_alpha   66.21105220
_cell_angle_beta   76.73858693
_cell_angle_gamma   89.13152601
_symmetry_Int_Tables_number   1
_chemical_formula_structural   LiFe4(BO3)4
_chemical_formula_sum   'Li2 Fe8 B8 O24'
_cell_volume   483.05545733
_cell_formula_units_Z   2
loop_
 _symmetry_equiv_pos_site_id
 _symmetry_equiv_pos_as_xyz
  1  'x, y, z'
loop_
 _atom_site_type_symbol
 _atom_site_label
 _atom_site_symmetry_multiplicity
 _atom_site_fract_x
 _atom_site_fract_y
 _atom_site_fract_z
 _atom_site_occupancy
  Li  Li0  1  0.715269  0.727844  0.898608  1
  Li  Li1  1  0.516027  0.495551  0.653245  1
  Fe  Fe2  1  0.980742  0.646187  0.378645  1
  Fe  Fe3  1  0.740030  0.073969  0.876765  1
  Fe  Fe4  1  0.510890  0.851610  0.629515  1
  Fe  Fe5  1  0.762006  0.433038  0.129150  1
  Fe  Fe6  1  0.235623  0.551387  0.882944  1
  Fe  Fe7  1  0.470481  0.149219  0.378650  1
  Fe  Fe8  1  0.037229  0.339801  0.626141  1
  Fe  Fe9  1  0.265783  0.936160  0.128717  1
  B  B10  1  0.968863  0.315466  0.373257  1
  B  B11  1  0.737687  0.396502  0.873255  1
  B  B12  1  0.536675  0.186993  0.628032  1
  B  B13  1  0.765375  0.105926  0.128310  1
  B  B14  1  0.473090  0.812387  0.380512  1
  B  B15  1  0.232356  0.892971  0.880144  1
  B  B16  1  0.014326  0.681932  0.628133  1
  B  B17  1  0.266364  0.607326  0.126971  1
  O  O18  1  0.970700  0.903805  0.882182  1
  O  O19  1  0.894015  0.284872  0.843061  1
  O  O20  1  0.835833  0.490957  0.928470  1
  O  O21  1  0.849903  0.789848  0.651475  1
  O  O22  1  0.933546  0.577324  0.579184  1
  O  O23  1  0.750992  0.151389  0.686293  1
  O  O24  1  0.733896  0.330906  0.329479  1
  O  O25  1  0.500812  0.417925  0.843927  1
  O  O26  1  0.380717  0.792575  0.829691  1
  O  O27  1  0.532999  0.922240  0.430197  1
  O  O28  1  0.629508  0.693803  0.380466  1
  O  O29  1  0.364527  0.976011  0.931269  1
  O  O30  1  0.632983  0.022757  0.076952  1
  O  O31  1  0.411130  0.318704  0.619121  1
  O  O32  1  0.462354  0.080988  0.576913  1
  O  O33  1  0.623606  0.210986  0.174801  1
  O  O34  1  0.534376  0.602621  0.107476  1
  O  O35  1  0.261402  0.668680  0.659000  1
  O  O36  1  0.245232  0.829261  0.332731  1
  O  O37  1  0.034507  0.424374  0.419752  1
  O  O38  1  0.124411  0.195252  0.372811  1
  O  O39  1  0.126095  0.513960  0.088536  1
  O  O40  1  0.132315  0.712168  0.176041  1
  O  O41  1  0.019709  0.083652  0.133105  1
