# generated using pymatgen
data_Li5Mn6(BO3)6
_symmetry_space_group_name_H-M   'P 1'
_cell_length_a   6.36852283
_cell_length_b   14.35294043
_cell_length_c   8.85952480
_cell_angle_alpha   89.53438915
_cell_angle_beta   111.06437611
_cell_angle_gamma   90.00000000
_symmetry_Int_Tables_number   1
_chemical_formula_structural   Li5Mn6(BO3)6
_chemical_formula_sum   'Li10 Mn12 B12 O36'
_cell_volume   755.67954186
_cell_formula_units_Z   2
loop_
 _symmetry_equiv_pos_site_id
 _symmetry_equiv_pos_as_xyz
  1  'x, y, z'
loop_
 _atom_site_type_symbol
 _atom_site_label
 _atom_site_symmetry_multiplicity
 _atom_site_fract_x
 _atom_site_fract_y
 _atom_site_fract_z
 _atom_site_occupancy
  Li  Li0  1  0.894962  0.992017  0.289924  1
  Li  Li1  1  0.395103  0.990961  0.290205  1
  Li  Li2  1  0.421160  0.359659  0.342320  1
  Li  Li3  1  0.434209  0.649826  0.368418  1
  Li  Li4  1  0.934358  0.649364  0.368715  1
  Li  Li5  1  0.144696  0.492174  0.789392  1
  Li  Li6  1  0.645376  0.490846  0.790751  1
  Li  Li7  1  0.171124  0.859668  0.842248  1
  Li  Li8  1  0.184054  0.148514  0.868109  1
  Li  Li9  1  0.684514  0.150911  0.869027  1
  Mn  Mn10  1  0.066620  0.501130  0.137438  1
  Mn  Mn11  1  0.570819  0.501130  0.137438  1
  Mn  Mn12  1  0.079813  0.815097  0.166097  1
  Mn  Mn13  1  0.586284  0.815097  0.166097  1
  Mn  Mn14  1  0.600517  0.183989  0.195464  1
  Mn  Mn15  1  0.094945  0.183989  0.195464  1
  Mn  Mn16  1  0.321047  0.001264  0.637597  1
  Mn  Mn17  1  0.816550  0.001264  0.637597  1
  Mn  Mn18  1  0.329607  0.315219  0.665881  1
  Mn  Mn19  1  0.836274  0.315219  0.665881  1
  Mn  Mn20  1  0.349918  0.684010  0.695625  1
  Mn  Mn21  1  0.845707  0.684010  0.695625  1
  B  B22  1  0.005292  0.002263  0.001783  1
  B  B23  1  0.496491  0.002263  0.001783  1
  B  B24  1  0.249400  0.333394  0.998801  1
  B  B25  1  0.746351  0.331622  0.992700  1
  B  B26  1  0.249889  0.665747  0.999779  1
  B  B27  1  0.752291  0.664125  0.004582  1
  B  B28  1  0.255108  0.502330  0.501802  1
  B  B29  1  0.746693  0.502330  0.501802  1
  B  B30  1  0.002366  0.164039  0.504732  1
  B  B31  1  0.499699  0.165668  0.499398  1
  B  B32  1  0.999104  0.833281  0.498206  1
  B  B33  1  0.496701  0.831733  0.493402  1
  O  O34  1  0.755256  0.427687  0.010511  1
  O  O35  1  0.255400  0.429893  0.010801  1
  O  O36  1  0.761698  0.759296  0.023398  1
  O  O37  1  0.256893  0.762480  0.013786  1
  O  O38  1  0.318004  0.608841  0.136008  1
  O  O39  1  0.820049  0.605099  0.140097  1
  O  O40  1  0.319791  0.279390  0.139583  1
  O  O41  1  0.812168  0.271880  0.124335  1
  O  O42  1  0.077648  0.960782  0.155907  1
  O  O43  1  0.578259  0.960782  0.155907  1
  O  O44  1  0.422470  0.126561  0.344939  1
  O  O45  1  0.924503  0.126233  0.349006  1
  O  O46  1  0.419247  0.794084  0.338495  1
  O  O47  1  0.924197  0.790659  0.348394  1
  O  O48  1  0.202362  0.448420  0.366313  1
  O  O49  1  0.663951  0.448420  0.366313  1
  O  O50  1  0.746623  0.599790  0.488791  1
  O  O51  1  0.242168  0.599790  0.488791  1
  O  O52  1  0.505961  0.927981  0.511921  1
  O  O53  1  0.004756  0.929562  0.509512  1
  O  O54  1  0.011813  0.259334  0.523628  1
  O  O55  1  0.506778  0.262252  0.513555  1
  O  O56  1  0.069852  0.105060  0.639703  1
  O  O57  1  0.568109  0.108712  0.636217  1
  O  O58  1  0.069672  0.779484  0.639345  1
  O  O59  1  0.562201  0.771649  0.624403  1
  O  O60  1  0.327714  0.460844  0.655960  1
  O  O61  1  0.828247  0.460844  0.655960  1
  O  O62  1  0.172438  0.626993  0.844877  1
  O  O63  1  0.674596  0.625924  0.849193  1
  O  O64  1  0.174414  0.291153  0.848829  1
  O  O65  1  0.669013  0.293527  0.838026  1
  O  O66  1  0.951711  0.948296  0.866254  1
  O  O67  1  0.414544  0.948296  0.866254  1
  O  O68  1  0.495528  0.099732  0.988636  1
  O  O69  1  0.993109  0.099732  0.988636  1
