# generated using pymatgen
data_Li4Ti3Fe3(NiO8)2
_symmetry_space_group_name_H-M   'P 1'
_cell_length_a   5.91582981
_cell_length_b   5.92028401
_cell_length_c   9.65407981
_cell_angle_alpha   89.97748084
_cell_angle_beta   89.55843011
_cell_angle_gamma   120.02509980
_symmetry_Int_Tables_number   1
_chemical_formula_structural   Li4Ti3Fe3(NiO8)2
_chemical_formula_sum   'Li4 Ti3 Fe3 Ni2 O16'
_cell_volume   292.73301259
_cell_formula_units_Z   1
loop_
 _symmetry_equiv_pos_site_id
 _symmetry_equiv_pos_as_xyz
  1  'x, y, z'
loop_
 _atom_site_type_symbol
 _atom_site_label
 _atom_site_symmetry_multiplicity
 _atom_site_fract_x
 _atom_site_fract_y
 _atom_site_fract_z
 _atom_site_occupancy
  Li  Li0  1  0.339118  0.669440  0.890189  1
  Li  Li1  1  0.991399  0.995948  0.997857  1
  Li  Li2  1  0.990504  0.995410  0.498917  1
  Li  Li3  1  0.670950  0.335396  0.392885  1
  Ti  Ti4  1  0.173042  0.833456  0.215185  1
  Ti  Ti5  1  0.173400  0.339567  0.215236  1
  Ti  Ti6  1  0.341717  0.170860  0.715468  1
  Fe  Fe7  1  0.663863  0.832030  0.214357  1
  Fe  Fe8  1  0.832345  0.662462  0.714167  1
  Fe  Fe9  1  0.832267  0.169825  0.714189  1
  Ni  Ni10  1  0.330998  0.665547  0.489702  1
  Ni  Ni11  1  0.668758  0.334422  0.989460  1
  O  O12  1  0.153956  0.834947  0.604742  1
  O  O13  1  0.038323  0.519133  0.332819  1
  O  O14  1  0.317520  0.658819  0.100514  1
  O  O15  1  0.010520  0.005174  0.314546  1
  O  O16  1  0.012321  0.006043  0.814382  1
  O  O17  1  0.153847  0.319105  0.604777  1
  O  O18  1  0.484048  0.962768  0.332795  1
  O  O19  1  0.483979  0.521170  0.332842  1
  O  O20  1  0.322096  0.161133  0.103819  1
  O  O21  1  0.676648  0.838380  0.608249  1
  O  O22  1  0.525184  0.486151  0.833072  1
  O  O23  1  0.525233  0.038899  0.833076  1
  O  O24  1  0.650387  0.325282  0.599245  1
  O  O25  1  0.836831  0.680295  0.107015  1
  O  O26  1  0.963846  0.481844  0.831300  1
  O  O27  1  0.836900  0.156789  0.107032  1
