# generated using pymatgen
data_Li3V3P8O29
_symmetry_space_group_name_H-M   'P 1'
_cell_length_a   9.75351871
_cell_length_b   9.75490523
_cell_length_c   14.37281018
_cell_angle_alpha   90.61993156
_cell_angle_beta   90.21504956
_cell_angle_gamma   60.13319130
_symmetry_Int_Tables_number   1
_chemical_formula_structural   Li3V3P8O29
_chemical_formula_sum   'Li6 V6 P16 O58'
_cell_volume   1185.80101527
_cell_formula_units_Z   2
loop_
 _symmetry_equiv_pos_site_id
 _symmetry_equiv_pos_as_xyz
  1  'x, y, z'
loop_
 _atom_site_type_symbol
 _atom_site_label
 _atom_site_symmetry_multiplicity
 _atom_site_fract_x
 _atom_site_fract_y
 _atom_site_fract_z
 _atom_site_occupancy
  Li  Li0  1  0.917800  0.303962  0.560456  1
  Li  Li1  1  0.769033  0.323685  0.056134  1
  Li  Li2  1  0.320836  0.908723  0.055955  1
  Li  Li3  1  0.318751  0.771607  0.559420  1
  Li  Li4  1  0.079440  0.697776  0.440069  1
  Li  Li5  1  0.981022  0.958775  0.000211  1
  V  V6  1  0.568033  0.432426  0.251265  1
  V  V7  1  0.432912  0.562938  0.754286  1
  V  V8  1  0.567160  0.000353  0.746901  1
  V  V9  1  0.438937  0.000688  0.251147  1
  V  V10  1  0.992145  0.570120  0.241729  1
  V  V11  1  0.004802  0.435176  0.754758  1
  P  P12  1  0.915097  0.783145  0.834735  1
  P  P13  1  0.775103  0.916523  0.341960  1
  P  P14  1  0.912204  0.322157  0.343735  1
  P  P15  1  0.661836  0.665278  0.130292  1
  P  P16  1  0.666948  0.661905  0.633218  1
  P  P17  1  0.774625  0.313423  0.842704  1
  P  P18  1  0.686932  0.224778  0.662930  1
  P  P19  1  0.313008  0.916138  0.843257  1
  P  P20  1  0.696816  0.081580  0.158668  1
  P  P21  1  0.321099  0.771769  0.341906  1
  P  P22  1  0.224499  0.691878  0.162458  1
  P  P23  1  0.326781  0.341146  0.364706  1
  P  P24  1  0.336723  0.330528  0.867246  1
  P  P25  1  0.091285  0.679634  0.655517  1
  P  P26  1  0.224263  0.086182  0.663671  1
  P  P27  1  0.086053  0.219948  0.164785  1
  O  O28  1  0.019037  0.743600  0.563884  1
  O  O29  1  0.918401  0.744206  0.332536  1
  O  O30  1  0.794760  0.004109  0.075626  1
  O  O31  1  0.740412  0.915921  0.828346  1
  O  O32  1  0.920957  0.619606  0.827224  1
  O  O33  1  0.809381  0.672094  0.173794  1
  O  O34  1  0.900974  0.481877  0.317849  1
  O  O35  1  0.989150  0.212095  0.087201  1
  O  O36  1  0.913431  0.346748  0.828543  1
  O  O37  1  0.657428  0.815185  0.677852  1
  O  O38  1  0.620544  0.906996  0.319307  1
  O  O39  1  0.820437  0.519630  0.674791  1
  O  O40  1  0.664055  0.659590  0.027007  1
  O  O41  1  0.662078  0.661790  0.529839  1
  O  O42  1  0.673608  0.511008  0.171846  1
  O  O43  1  0.468591  0.917812  0.827773  1
  O  O44  1  0.510300  0.813144  0.170991  1
  O  O45  1  0.745065  0.340920  0.327602  1
  O  O46  1  0.789111  0.199434  0.758071  1
  O  O47  1  0.775495  0.230815  0.581425  1
  O  O48  1  0.786700  0.237197  0.933657  1
  O  O49  1  0.616591  0.471171  0.828154  1
  O  O50  1  0.520053  0.657299  0.674835  1
  O  O51  1  0.654807  0.259095  0.164403  1
  O  O52  1  0.482143  0.620196  0.321323  1
  O  O53  1  0.343167  0.917294  0.331561  1
  O  O54  1  0.795034  0.003716  0.252263  1
  O  O55  1  0.769740  0.996508  0.429877  1
  O  O56  1  0.226691  0.990097  0.582388  1
  O  O57  1  0.657614  0.082479  0.664740  1
  O  O58  1  0.525828  0.377816  0.680630  1
  O  O59  1  0.343827  0.744117  0.827135  1
  O  O60  1  0.472576  0.346093  0.318341  1
  O  O61  1  0.384871  0.537537  0.170599  1
  O  O62  1  0.205634  0.797872  0.083764  1
  O  O63  1  0.250272  0.761679  0.431872  1
  O  O64  1  0.202371  0.786766  0.260042  1
  O  O65  1  0.260453  0.658117  0.663140  1
  O  O66  1  0.483126  0.187168  0.821101  1
  O  O67  1  0.540334  0.076067  0.170785  1
  O  O68  1  0.330339  0.482894  0.823548  1
  O  O69  1  0.333489  0.334141  0.970083  1
  O  O70  1  0.332040  0.340905  0.467446  1
  O  O71  1  0.176773  0.486121  0.323940  1
  O  O72  1  0.379160  0.092264  0.677081  1
  O  O73  1  0.338715  0.187296  0.317812  1
  O  O74  1  0.087618  0.653410  0.166167  1
  O  O75  1  0.992777  0.798988  0.738902  1
  O  O76  1  0.998259  0.800307  0.916218  1
  O  O77  1  0.098608  0.521328  0.679870  1
  O  O78  1  0.187284  0.329307  0.823097  1
  O  O79  1  0.084397  0.381203  0.172589  1
  O  O80  1  0.259747  0.081977  0.161674  1
  O  O81  1  0.235007  0.978256  0.934854  1
  O  O82  1  0.197268  0.015276  0.759554  1
  O  O83  1  0.081545  0.257820  0.662564  1
  O  O84  1  0.979884  0.262363  0.436223  1
  O  O85  1  0.020620  0.199051  0.263835  1
