# generated using pymatgen
data_Li2Mn3(BO3)3
_symmetry_space_group_name_H-M   'P 1'
_cell_length_a   8.28046805
_cell_length_b   8.26885100
_cell_length_c   12.71407818
_cell_angle_alpha   90.00000000
_cell_angle_beta   90.00000000
_cell_angle_gamma   60.19065774
_symmetry_Int_Tables_number   1
_chemical_formula_structural   Li2Mn3(BO3)3
_chemical_formula_sum   'Li8 Mn12 B12 O36'
_cell_volume   755.34737331
_cell_formula_units_Z   4
loop_
 _symmetry_equiv_pos_site_id
 _symmetry_equiv_pos_as_xyz
  1  'x, y, z'
loop_
 _atom_site_type_symbol
 _atom_site_label
 _atom_site_symmetry_multiplicity
 _atom_site_fract_x
 _atom_site_fract_y
 _atom_site_fract_z
 _atom_site_occupancy
  Li  Li0  1  0.277987  0.703013  0.125000  1
  Li  Li1  1  0.277201  0.699946  0.625000  1
  Li  Li2  1  0.021862  0.279282  0.125000  1
  Li  Li3  1  0.018219  0.279785  0.373449  1
  Li  Li4  1  0.018219  0.279785  0.876551  1
  Li  Li5  1  0.700267  0.021617  0.376211  1
  Li  Li6  1  0.701015  0.017050  0.625000  1
  Li  Li7  1  0.700267  0.021617  0.873789  1
  Mn  Mn8  1  0.382678  0.980838  0.000153  1
  Mn  Mn9  1  0.382678  0.980838  0.249847  1
  Mn  Mn10  1  0.360229  0.988733  0.499468  1
  Mn  Mn11  1  0.360229  0.988733  0.750532  1
  Mn  Mn12  1  0.631452  0.370613  0.999439  1
  Mn  Mn13  1  0.631452  0.370613  0.250561  1
  Mn  Mn14  1  0.639103  0.379457  0.499640  1
  Mn  Mn15  1  0.639103  0.379457  0.750360  1
  Mn  Mn16  1  0.996731  0.630464  0.500171  1
  Mn  Mn17  1  0.989922  0.649732  0.000956  1
  Mn  Mn18  1  0.989922  0.649732  0.249044  1
  Mn  Mn19  1  0.996731  0.630464  0.749829  1
  B  B20  1  0.991686  0.000577  0.499619  1
  B  B21  1  0.002464  0.006238  0.999025  1
  B  B22  1  0.002464  0.006238  0.250975  1
  B  B23  1  0.991686  0.000577  0.750381  1
  B  B24  1  0.337688  0.327409  0.875079  1
  B  B25  1  0.336720  0.334814  0.625000  1
  B  B26  1  0.337688  0.327409  0.374921  1
  B  B27  1  0.324400  0.332291  0.125000  1
  B  B28  1  0.673554  0.669390  0.375264  1
  B  B29  1  0.668870  0.657723  0.125000  1
  B  B30  1  0.660325  0.669563  0.625000  1
  B  B31  1  0.673554  0.669390  0.874736  1
  O  O32  1  0.102458  0.816028  0.240611  1
  O  O33  1  0.093546  0.809584  0.739597  1
  O  O34  1  0.102458  0.816028  0.009389  1
  O  O35  1  0.093546  0.809584  0.510403  1
  O  O36  1  0.473874  0.776540  0.125000  1
  O  O37  1  0.466871  0.784713  0.625000  1
  O  O38  1  0.483917  0.784981  0.369404  1
  O  O39  1  0.483917  0.784981  0.880596  1
  O  O40  1  0.133757  0.449531  0.125000  1
  O  O41  1  0.146707  0.441371  0.875791  1
  O  O42  1  0.146707  0.441371  0.374209  1
  O  O43  1  0.147037  0.459020  0.625000  1
  O  O44  1  0.081742  0.100564  0.486366  1
  O  O45  1  0.091918  0.111760  0.002630  1
  O  O46  1  0.091918  0.111760  0.247370  1
  O  O47  1  0.081742  0.100564  0.763634  1
  O  O48  1  0.460137  0.395078  0.871784  1
  O  O49  1  0.453008  0.411780  0.625000  1
  O  O50  1  0.460137  0.395078  0.378216  1
  O  O51  1  0.439434  0.409405  0.125000  1
  O  O52  1  0.783182  0.731486  0.125000  1
  O  O53  1  0.791717  0.745160  0.378777  1
  O  O54  1  0.791717  0.745160  0.871223  1
  O  O55  1  0.777357  0.744070  0.625000  1
  O  O56  1  0.740540  0.464311  0.125000  1
  O  O57  1  0.748537  0.476947  0.377678  1
  O  O58  1  0.733693  0.477883  0.625000  1
  O  O59  1  0.748537  0.476947  0.872322  1
  O  O60  1  0.392899  0.140963  0.125000  1
  O  O61  1  0.410236  0.144549  0.625000  1
  O  O62  1  0.413864  0.134317  0.877551  1
  O  O63  1  0.413864  0.134317  0.372449  1
  O  O64  1  0.812084  0.095439  0.984904  1
  O  O65  1  0.812084  0.095439  0.265096  1
  O  O66  1  0.797468  0.089892  0.502273  1
  O  O67  1  0.797468  0.089892  0.747727  1
