# generated using pymatgen
data_U2Ni12As7
_symmetry_space_group_name_H-M   'P 1'
_cell_length_a   9.38260742
_cell_length_b   9.37716064
_cell_length_c   3.80553501
_cell_angle_alpha   90.00000000
_cell_angle_beta   90.00000000
_cell_angle_gamma   119.89137011
_symmetry_Int_Tables_number   1
_chemical_formula_structural   U2Ni12As7
_chemical_formula_sum   'U2 Ni12 As7'
_cell_volume   290.27899118
_cell_formula_units_Z   1
loop_
 _symmetry_equiv_pos_site_id
 _symmetry_equiv_pos_as_xyz
  1  'x, y, z'
loop_
 _atom_site_type_symbol
 _atom_site_label
 _atom_site_symmetry_multiplicity
 _atom_site_fract_x
 _atom_site_fract_y
 _atom_site_fract_z
 _atom_site_occupancy
  U  U0  1  0.333520  0.666915  0.499999  1
  U  U1  1  0.666116  0.333201  0.000000  1
  Ni  Ni2  1  0.425895  0.384155  0.499999  1
  Ni  Ni3  1  0.615948  0.041812  0.499999  1
  Ni  Ni4  1  0.957797  0.573719  0.499999  1
  Ni  Ni5  1  0.389102  0.947630  0.000000  1
  Ni  Ni6  1  0.051603  0.441240  0.000000  1
  Ni  Ni7  1  0.558394  0.610163  0.000000  1
  Ni  Ni8  1  0.116202  0.903137  0.499999  1
  Ni  Ni9  1  0.097238  0.213103  0.499999  1
  Ni  Ni10  1  0.787895  0.884589  0.499999  1
  Ni  Ni11  1  0.281524  0.153288  0.000000  1
  Ni  Ni12  1  0.846752  0.127862  0.000000  1
  Ni  Ni13  1  0.871499  0.718877  0.000000  1
  As  As14  1  0.000770  0.000378  0.000000  1
  As  As15  1  0.280557  0.403362  0.000000  1
  As  As16  1  0.597181  0.877359  0.000000  1
  As  As17  1  0.122384  0.719659  0.000000  1
  As  As18  1  0.408500  0.114138  0.499999  1
  As  As19  1  0.885759  0.293929  0.499999  1
  As  As20  1  0.705365  0.591485  0.499999  1
