# generated using pymatgen
data_CsVGa(PO5)2
_symmetry_space_group_name_H-M   'P 1'
_cell_length_a   8.09472380
_cell_length_b   8.20560696
_cell_length_c   14.46262769
_cell_angle_alpha   90.03006716
_cell_angle_beta   106.68171670
_cell_angle_gamma   89.98886722
_symmetry_Int_Tables_number   1
_chemical_formula_structural   CsVGa(PO5)2
_chemical_formula_sum   'Cs4 V4 Ga4 P8 O40'
_cell_volume   920.20900193
_cell_formula_units_Z   4
loop_
 _symmetry_equiv_pos_site_id
 _symmetry_equiv_pos_as_xyz
  1  'x, y, z'
loop_
 _atom_site_type_symbol
 _atom_site_label
 _atom_site_symmetry_multiplicity
 _atom_site_fract_x
 _atom_site_fract_y
 _atom_site_fract_z
 _atom_site_occupancy
  Cs  Cs0  1  0.320355  0.972617  0.204534  1
  Cs  Cs1  1  0.679633  0.472362  0.295378  1
  Cs  Cs2  1  0.679723  0.027346  0.795471  1
  Cs  Cs3  1  0.320352  0.527697  0.704608  1
  V  V4  1  0.799443  0.952293  0.132986  1
  V  V5  1  0.200568  0.452350  0.367015  1
  V  V6  1  0.200614  0.047676  0.867016  1
  V  V7  1  0.799435  0.547665  0.633000  1
  Ga  Ga8  1  0.723768  0.039779  0.473034  1
  Ga  Ga9  1  0.276184  0.539908  0.026952  1
  Ga  Ga10  1  0.276215  0.960226  0.526964  1
  Ga  Ga11  1  0.723815  0.460080  0.973046  1
  P  P12  1  0.001063  0.102923  0.350717  1
  P  P13  1  0.999002  0.602825  0.149292  1
  P  P14  1  0.998940  0.897065  0.649253  1
  P  P15  1  0.000994  0.397203  0.850680  1
  P  P16  1  0.496656  0.776613  0.961022  1
  P  P17  1  0.503248  0.276831  0.538996  1
  P  P18  1  0.503437  0.223364  0.039020  1
  P  P19  1  0.496781  0.723175  0.461042  1
  O  O20  1  0.958712  0.071631  0.241791  1
  O  O21  1  0.041382  0.571633  0.258255  1
  O  O22  1  0.041299  0.928369  0.758231  1
  O  O23  1  0.958623  0.428355  0.741770  1
  O  O24  1  0.655851  0.884689  0.007854  1
  O  O25  1  0.344124  0.384963  0.492105  1
  O  O26  1  0.344156  0.115285  0.992148  1
  O  O27  1  0.655839  0.615060  0.507883  1
  O  O28  1  0.928962  0.095053  0.071531  1
  O  O29  1  0.070904  0.595484  0.428279  1
  O  O30  1  0.070995  0.904927  0.928456  1
  O  O31  1  0.929092  0.404520  0.571718  1
  O  O32  1  0.974591  0.786439  0.126533  1
  O  O33  1  0.025480  0.286559  0.373591  1
  O  O34  1  0.025442  0.213523  0.873488  1
  O  O35  1  0.974504  0.713476  0.626405  1
  O  O36  1  0.622151  0.134096  0.125868  1
  O  O37  1  0.377956  0.633790  0.374194  1
  O  O38  1  0.377853  0.865929  0.874124  1
  O  O39  1  0.622008  0.366206  0.625781  1
  O  O40  1  0.853467  0.038917  0.389077  1
  O  O41  1  0.146513  0.538675  0.110951  1
  O  O42  1  0.146500  0.961093  0.610931  1
  O  O43  1  0.853495  0.461333  0.889055  1
  O  O44  1  0.170526  0.007399  0.399466  1
  O  O45  1  0.829493  0.507324  0.100558  1
  O  O46  1  0.829445  0.992623  0.600526  1
  O  O47  1  0.170506  0.492672  0.899439  1
  O  O48  1  0.557820  0.618673  0.920832  1
  O  O49  1  0.441892  0.119084  0.579246  1
  O  O50  1  0.442182  0.381315  0.079169  1
  O  O51  1  0.558095  0.880935  0.420746  1
  O  O52  1  0.718101  0.839543  0.204033  1
  O  O53  1  0.281541  0.339303  0.295900  1
  O  O54  1  0.281854  0.160431  0.795962  1
  O  O55  1  0.718450  0.660705  0.704094  1
  O  O56  1  0.404971  0.729589  0.038792  1
  O  O57  1  0.594768  0.229356  0.461158  1
  O  O58  1  0.595017  0.270403  0.961205  1
  O  O59  1  0.405216  0.770643  0.538826  1
