# generated using pymatgen
data_LiVF3
_symmetry_space_group_name_H-M   'P 1'
_cell_length_a   7.03015805
_cell_length_b   8.06741750
_cell_length_c   21.04280069
_cell_angle_alpha   96.44679251
_cell_angle_beta   82.90640915
_cell_angle_gamma   93.81448596
_symmetry_Int_Tables_number   1
_chemical_formula_structural   LiVF3
_chemical_formula_sum   'Li18 V18 F54'
_cell_volume   1175.14383168
_cell_formula_units_Z   18
loop_
 _symmetry_equiv_pos_site_id
 _symmetry_equiv_pos_as_xyz
  1  'x, y, z'
loop_
 _atom_site_type_symbol
 _atom_site_label
 _atom_site_symmetry_multiplicity
 _atom_site_fract_x
 _atom_site_fract_y
 _atom_site_fract_z
 _atom_site_occupancy
  Li  Li0  1  0.269406  0.698304  0.140171  1
  Li  Li1  1  0.131745  0.310912  0.706335  1
  Li  Li2  1  0.353612  0.403107  0.345290  1
  Li  Li3  1  0.268792  0.335812  0.555665  1
  Li  Li4  1  0.183879  0.998835  0.910174  1
  Li  Li5  1  0.466749  0.434954  0.201696  1
  Li  Li6  1  0.618465  0.279929  0.017394  1
  Li  Li7  1  0.309036  0.042316  0.768632  1
  Li  Li8  1  0.502514  0.863678  0.587491  1
  Li  Li9  1  0.497486  0.136322  0.412509  1
  Li  Li10  1  0.690964  0.957684  0.231368  1
  Li  Li11  1  0.381535  0.720071  0.982606  1
  Li  Li12  1  0.533251  0.565046  0.798304  1
  Li  Li13  1  0.816121  0.001165  0.089826  1
  Li  Li14  1  0.731208  0.664188  0.444335  1
  Li  Li15  1  0.646388  0.596893  0.654710  1
  Li  Li16  1  0.868255  0.689088  0.293665  1
  Li  Li17  1  0.730594  0.301696  0.859829  1
  V  V18  1  0.106851  0.350915  0.034766  1
  V  V19  1  0.054840  0.014653  0.420669  1
  V  V20  1  0.200257  0.049591  0.265398  1
  V  V21  1  0.006372  0.677580  0.807142  1
  V  V22  1  0.250819  0.728108  0.493720  1
  V  V23  1  0.400051  0.029970  0.098230  1
  V  V24  1  0.139721  0.701945  0.650421  1
  V  V25  1  0.395068  0.760361  0.343208  1
  V  V26  1  0.212762  0.394293  0.871895  1
  V  V27  1  0.787238  0.605707  0.128105  1
  V  V28  1  0.604932  0.239639  0.656792  1
  V  V29  1  0.860279  0.298055  0.349579  1
  V  V30  1  0.599949  0.970030  0.901770  1
  V  V31  1  0.749181  0.271892  0.506280  1
  V  V32  1  0.993628  0.322420  0.192858  1
  V  V33  1  0.799743  0.950409  0.734602  1
  V  V34  1  0.945160  0.985347  0.579331  1
  V  V35  1  0.893149  0.649085  0.965234  1
  F  F36  1  0.007620  0.175540  0.102603  1
  F  F37  1  0.077737  0.514000  0.127618  1
  F  F38  1  0.097662  0.856124  0.331857  1
  F  F39  1  0.204263  0.918946  0.177836  1
  F  F40  1  0.034028  0.170772  0.514007  1
  F  F41  1  0.151364  0.208726  0.359162  1
  F  F42  1  0.343690  0.785493  0.066537  1
  F  F43  1  0.041571  0.528747  0.714347  1
  F  F44  1  0.269093  0.257449  0.212275  1
  F  F45  1  0.164051  0.551482  0.559862  1
  F  F46  1  0.091708  0.868959  0.738818  1
  F  F47  1  0.365483  0.280148  0.058642  1
  F  F48  1  0.276205  0.583412  0.407019  1
  F  F49  1  0.217553  0.893251  0.582812  1
  F  F50  1  0.329510  0.938716  0.429962  1
  F  F51  1  0.492041  0.602916  0.147302  1
  F  F52  1  0.461928  0.969263  0.291968  1
  F  F53  1  0.405889  0.548066  0.281790  1
  F  F54  1  0.124437  0.219832  0.940753  1
  F  F55  1  0.188006  0.244958  0.782549  1
  F  F56  1  0.323267  0.268390  0.634528  1
  F  F57  1  0.177850  0.547530  0.968256  1
  F  F58  1  0.273682  0.608190  0.820248  1
  F  F59  1  0.610101  0.010891  0.159151  1
  F  F60  1  0.464646  0.270093  0.491990  1
  F  F61  1  0.347034  0.931099  0.961715  1
  F  F62  1  0.566699  0.293745  0.354296  1
  F  F63  1  0.433301  0.706255  0.645704  1
  F  F64  1  0.652966  0.068901  0.038285  1
  F  F65  1  0.535354  0.729907  0.508010  1
  F  F66  1  0.389899  0.989109  0.840849  1
  F  F67  1  0.726318  0.391810  0.179752  1
  F  F68  1  0.822150  0.452470  0.031744  1
  F  F69  1  0.676733  0.731610  0.365472  1
  F  F70  1  0.811994  0.755042  0.217451  1
  F  F71  1  0.875563  0.780168  0.059247  1
  F  F72  1  0.594111  0.451934  0.718210  1
  F  F73  1  0.538072  0.030737  0.708032  1
  F  F74  1  0.507959  0.397084  0.852698  1
  F  F75  1  0.670490  0.061284  0.570038  1
  F  F76  1  0.782447  0.106749  0.417188  1
  F  F77  1  0.723795  0.416588  0.592981  1
  F  F78  1  0.634517  0.719852  0.941358  1
  F  F79  1  0.908292  0.131041  0.261182  1
  F  F80  1  0.835949  0.448518  0.440138  1
  F  F81  1  0.730907  0.742551  0.787725  1
  F  F82  1  0.958429  0.471253  0.285653  1
  F  F83  1  0.656310  0.214507  0.933463  1
  F  F84  1  0.848636  0.791274  0.640838  1
  F  F85  1  0.965972  0.829228  0.485993  1
  F  F86  1  0.795737  0.081054  0.822164  1
  F  F87  1  0.902338  0.143876  0.668143  1
  F  F88  1  0.922263  0.486000  0.872382  1
  F  F89  1  0.992380  0.824460  0.897397  1
