# generated using pymatgen
data_LiLaNb2O7
_symmetry_space_group_name_H-M   'P 1'
_cell_length_a   3.91942726
_cell_length_b   10.69014696
_cell_length_c   3.91942726
_cell_angle_alpha   79.43682466
_cell_angle_beta   90.00000000
_cell_angle_gamma   100.56317534
_symmetry_Int_Tables_number   1
_chemical_formula_structural   LiLaNb2O7
_chemical_formula_sum   'Li1 La1 Nb2 O7'
_cell_volume   158.60626514
_cell_formula_units_Z   1
loop_
 _symmetry_equiv_pos_site_id
 _symmetry_equiv_pos_as_xyz
  1  'x, y, z'
loop_
 _atom_site_type_symbol
 _atom_site_label
 _atom_site_symmetry_multiplicity
 _atom_site_fract_x
 _atom_site_fract_y
 _atom_site_fract_z
 _atom_site_occupancy
  Li  Li0  1  0.250000  0.500000  0.250000  1
  La  La1  1  0.000000  0.000000  0.000000  1
  Nb  Nb2  1  0.611340  0.222681  0.388660  1
  Nb  Nb3  1  0.388660  0.777319  0.611340  1
  O  O4  1  0.410088  0.820176  0.089912  1
  O  O5  1  0.500000  0.000000  0.500000  1
  O  O6  1  0.089912  0.179824  0.410088  1
  O  O7  1  0.699139  0.398278  0.300861  1
  O  O8  1  0.911173  0.822347  0.588827  1
  O  O9  1  0.300861  0.601722  0.699139  1
  O  O10  1  0.588827  0.177653  0.911173  1
