# generated using pymatgen
data_LiV4OF11
_symmetry_space_group_name_H-M   'P 1'
_cell_length_a   5.23672122
_cell_length_b   5.56655080
_cell_length_c   17.22778801
_cell_angle_alpha   88.97395097
_cell_angle_beta   97.83908458
_cell_angle_gamma   118.37002919
_symmetry_Int_Tables_number   1
_chemical_formula_structural   LiV4OF11
_chemical_formula_sum   'Li2 V8 O2 F22'
_cell_volume   437.11930518
_cell_formula_units_Z   2
loop_
 _symmetry_equiv_pos_site_id
 _symmetry_equiv_pos_as_xyz
  1  'x, y, z'
loop_
 _atom_site_type_symbol
 _atom_site_label
 _atom_site_symmetry_multiplicity
 _atom_site_fract_x
 _atom_site_fract_y
 _atom_site_fract_z
 _atom_site_occupancy
  Li  Li0  1  0.673176  0.406605  0.958010  1
  Li  Li1  1  0.327342  0.094116  0.542153  1
  V  V2  1  0.986289  0.018169  0.004824  1
  V  V3  1  0.755103  0.364168  0.123526  1
  V  V4  1  0.749735  0.871211  0.626455  1
  V  V5  1  0.500051  0.250036  0.750090  1
  V  V6  1  0.499868  0.749913  0.249923  1
  V  V7  1  0.244681  0.135544  0.376327  1
  V  V8  1  0.013598  0.481836  0.495163  1
  V  V9  1  0.250489  0.628847  0.873659  1
  O  O10  1  0.816996  0.219464  0.033766  1
  O  O11  1  0.182727  0.280568  0.466296  1
  F  F12  1  0.739687  0.066636  0.190385  1
  F  F13  1  0.744630  0.174345  0.565012  1
  F  F14  1  0.741886  0.655441  0.051732  1
  F  F15  1  0.690162  0.047053  0.715657  1
  F  F16  1  0.686528  0.358395  0.411049  1
  F  F17  1  0.679713  0.543135  0.210555  1
  F  F18  1  0.806057  0.404363  0.847359  1
  F  F19  1  0.836472  0.711665  0.540952  1
  F  F20  1  0.816524  0.902526  0.340252  1
  F  F21  1  0.313687  0.141715  0.088957  1
  F  F22  1  0.735939  0.572654  0.691998  1
  F  F23  1  0.260005  0.433107  0.309706  1
  F  F24  1  0.681568  0.834179  0.907017  1
  F  F25  1  0.193998  0.095637  0.652549  1
  F  F26  1  0.183631  0.597584  0.159878  1
  F  F27  1  0.309854  0.452793  0.784228  1
  F  F28  1  0.318372  0.665818  0.592894  1
  F  F29  1  0.320064  0.956904  0.289513  1
  F  F30  1  0.255547  0.325790  0.934933  1
  F  F31  1  0.258060  0.844244  0.448262  1
  F  F32  1  0.264192  0.927617  0.807937  1
  F  F33  1  0.163482  0.788126  0.959001  1
