# generated using pymatgen
data_Li2Mn3(BO3)3
_symmetry_space_group_name_H-M   'P 1'
_cell_length_a   8.30294027
_cell_length_b   9.51408796
_cell_length_c   8.80610272
_cell_angle_alpha   69.71027694
_cell_angle_beta   62.16251458
_cell_angle_gamma   90.40216836
_symmetry_Int_Tables_number   1
_chemical_formula_structural   Li2Mn3(BO3)3
_chemical_formula_sum   'Li6 Mn9 B9 O27'
_cell_volume   564.87000587
_cell_formula_units_Z   3
loop_
 _symmetry_equiv_pos_site_id
 _symmetry_equiv_pos_as_xyz
  1  'x, y, z'
loop_
 _atom_site_type_symbol
 _atom_site_label
 _atom_site_symmetry_multiplicity
 _atom_site_fract_x
 _atom_site_fract_y
 _atom_site_fract_z
 _atom_site_occupancy
  Li  Li0  1  0.011694  0.740263  0.282394  1
  Li  Li1  1  0.024002  0.411406  0.278860  1
  Li  Li2  1  0.279864  0.263704  0.693160  1
  Li  Li3  1  0.282446  0.601903  0.706589  1
  Li  Li4  1  0.707447  0.826340  0.019402  1
  Li  Li5  1  0.698960  0.154375  0.016956  1
  Mn  Mn6  1  0.634965  0.543123  0.365528  1
  Mn  Mn7  1  0.620732  0.874519  0.395081  1
  Mn  Mn8  1  0.660635  0.218195  0.347722  1
  Mn  Mn9  1  0.353314  0.002099  0.985393  1
  Mn  Mn10  1  0.367780  0.331843  0.991761  1
  Mn  Mn11  1  0.392381  0.667068  0.990221  1
  Mn  Mn12  1  0.976580  0.447349  0.657744  1
  Mn  Mn13  1  0.993427  0.118813  0.633315  1
  Mn  Mn14  1  0.998919  0.786055  0.642856  1
  B  B15  1  0.011463  0.669402  0.003446  1
  B  B16  1  0.324770  0.391983  0.334824  1
  B  B17  1  0.332279  0.720264  0.334410  1
  B  B18  1  0.013174  0.338457  0.986568  1
  B  B19  1  0.341120  0.050426  0.328086  1
  B  B20  1  0.980743  0.998784  0.011905  1
  B  B21  1  0.667827  0.624150  0.663587  1
  B  B22  1  0.663769  0.276847  0.662535  1
  B  B23  1  0.662036  0.930433  0.678692  1
  O  O24  1  0.075488  0.948228  0.106556  1
  O  O25  1  0.090718  0.318047  0.099009  1
  O  O26  1  0.103924  0.632310  0.106761  1
  O  O27  1  0.134075  0.350927  0.449680  1
  O  O28  1  0.142559  0.684028  0.438334  1
  O  O29  1  0.156359  0.009465  0.458231  1
  O  O30  1  0.395698  0.461913  0.141551  1
  O  O31  1  0.408239  0.114444  0.137275  1
  O  O32  1  0.424819  0.772188  0.139774  1
  O  O33  1  0.078479  0.084365  0.821080  1
  O  O34  1  0.107209  0.714513  0.812655  1
  O  O35  1  0.129010  0.403853  0.791854  1
  O  O36  1  0.442657  0.362097  0.407224  1
  O  O37  1  0.440880  0.706403  0.420298  1
  O  O38  1  0.474069  0.032231  0.385881  1
  O  O39  1  0.785826  0.964406  0.105557  1
  O  O40  1  0.821608  0.659556  0.095145  1
  O  O41  1  0.823588  0.296242  0.064192  1
  O  O42  1  0.470150  0.238418  0.773390  1
  O  O43  1  0.474416  0.584118  0.785675  1
  O  O44  1  0.469869  0.877313  0.802799  1
  O  O45  1  0.724151  0.994554  0.488518  1
  O  O46  1  0.733262  0.695754  0.469835  1
  O  O47  1  0.746770  0.348226  0.467824  1
  O  O48  1  0.773420  0.245806  0.745236  1
  O  O49  1  0.788623  0.595772  0.728406  1
  O  O50  1  0.783743  0.917021  0.746226  1
