# generated using pymatgen
data_Ag2Cl3
_symmetry_space_group_name_H-M   'P 1'
_cell_length_a   6.70290525
_cell_length_b   6.70290397
_cell_length_c   7.22932491
_cell_angle_alpha   117.61908797
_cell_angle_beta   62.38091315
_cell_angle_gamma   119.99999639
_symmetry_Int_Tables_number   1
_chemical_formula_structural   Ag2Cl3
_chemical_formula_sum   'Ag4 Cl6'
_cell_volume   237.59345772
_cell_formula_units_Z   2
loop_
 _symmetry_equiv_pos_site_id
 _symmetry_equiv_pos_as_xyz
  1  'x, y, z'
loop_
 _atom_site_type_symbol
 _atom_site_label
 _atom_site_symmetry_multiplicity
 _atom_site_fract_x
 _atom_site_fract_y
 _atom_site_fract_z
 _atom_site_occupancy
  Ag  Ag0  1  0.657001  0.343000  0.029000  1
  Ag  Ag1  1  0.842999  0.157001  0.471001  1
  Ag  Ag2  1  0.157000  0.842999  0.528999  1
  Ag  Ag3  1  0.343000  0.657001  0.971001  1
  Cl  Cl4  1  0.932366  0.432365  0.250000  1
  Cl  Cl5  1  0.567635  0.749999  0.250000  1
  Cl  Cl6  1  0.250000  0.067635  0.250000  1
  Cl  Cl7  1  0.750001  0.932366  0.749999  1
  Cl  Cl8  1  0.432365  0.250000  0.749999  1
  Cl  Cl9  1  0.067634  0.567634  0.749999  1
