# generated using pymatgen
data_Li4CoNi3O8
_symmetry_space_group_name_H-M   'P 1'
_cell_length_a   5.79486044
_cell_length_b   5.82533201
_cell_length_c   5.78361745
_cell_angle_alpha   59.78889097
_cell_angle_beta   60.45125037
_cell_angle_gamma   59.83457455
_symmetry_Int_Tables_number   1
_chemical_formula_structural   Li4CoNi3O8
_chemical_formula_sum   'Li4 Co1 Ni3 O8'
_cell_volume   138.12014047
_cell_formula_units_Z   1
loop_
 _symmetry_equiv_pos_site_id
 _symmetry_equiv_pos_as_xyz
  1  'x, y, z'
loop_
 _atom_site_type_symbol
 _atom_site_label
 _atom_site_symmetry_multiplicity
 _atom_site_fract_x
 _atom_site_fract_y
 _atom_site_fract_z
 _atom_site_occupancy
  Li  Li0  1  0.499982  0.500006  0.499999  1
  Li  Li1  1  0.000017  0.499995  0.499997  1
  Li  Li2  1  0.499990  0.000007  0.500011  1
  Li  Li3  1  -0.000001  0.999993  0.499993  1
  Co  Co4  1  0.999998  0.000005  -0.000006  1
  Ni  Ni5  1  0.000010  0.499987  -0.000004  1
  Ni  Ni6  1  0.500000  0.499994  0.000001  1
  Ni  Ni7  1  0.499997  -0.000002  0.000013  1
  O  O8  1  0.758885  0.779611  0.219341  1
  O  O9  1  0.231058  0.760756  0.245365  1
  O  O10  1  0.760933  0.240924  0.220404  1
  O  O11  1  0.282676  0.253536  0.211230  1
  O  O12  1  0.717336  0.746466  0.788765  1
  O  O13  1  0.239065  0.759084  0.779582  1
  O  O14  1  0.768953  0.239244  0.754619  1
  O  O15  1  0.241117  0.220389  0.780670  1
