# generated using pymatgen
data_Li2Mn5(CuO6)2
_symmetry_space_group_name_H-M   'P 1'
_cell_length_a   5.37320541
_cell_length_b   8.76543350
_cell_length_c   9.73039045
_cell_angle_alpha   90.00000081
_cell_angle_beta   98.11040277
_cell_angle_gamma   90.00000109
_symmetry_Int_Tables_number   1
_chemical_formula_structural   Li2Mn5(CuO6)2
_chemical_formula_sum   'Li4 Mn10 Cu4 O24'
_cell_volume   453.70279330
_cell_formula_units_Z   2
loop_
 _symmetry_equiv_pos_site_id
 _symmetry_equiv_pos_as_xyz
  1  'x, y, z'
loop_
 _atom_site_type_symbol
 _atom_site_label
 _atom_site_symmetry_multiplicity
 _atom_site_fract_x
 _atom_site_fract_y
 _atom_site_fract_z
 _atom_site_occupancy
  Li  Li0  1  0.779334  0.094470  0.515675  1
  Li  Li1  1  0.502868  0.420866  0.742484  1
  Li  Li2  1  0.720666  0.594470  0.984325  1
  Li  Li3  1  0.997132  0.920866  0.757516  1
  Mn  Mn4  1  0.003788  0.075486  0.248236  1
  Mn  Mn5  1  0.494352  0.085713  0.749819  1
  Mn  Mn6  1  0.252809  0.256643  0.505674  1
  Mn  Mn7  1  0.992435  0.412976  0.249803  1
  Mn  Mn8  1  0.741935  0.246488  0.993164  1
  Mn  Mn9  1  0.005648  0.585713  0.750181  1
  Mn  Mn10  1  0.496212  0.575486  0.251764  1
  Mn  Mn11  1  0.247191  0.756643  0.994326  1
  Mn  Mn12  1  0.758065  0.746488  0.506836  1
  Mn  Mn13  1  0.507565  0.912976  0.250197  1
  Cu  Cu14  1  0.002418  0.260360  0.756768  1
  Cu  Cu15  1  0.491638  0.246668  0.240958  1
  Cu  Cu16  1  0.008362  0.746668  0.259042  1
  Cu  Cu17  1  0.497582  0.760360  0.743232  1
  O  O18  1  0.139613  0.110947  0.647442  1
  O  O19  1  0.349769  0.085620  0.349008  1
  O  O20  1  0.061623  0.249236  0.123739  1
  O  O21  1  0.659423  0.080509  0.150458  1
  O  O22  1  0.428542  0.238240  0.878100  1
  O  O23  1  0.841098  0.105445  0.849266  1
  O  O24  1  0.128318  0.412149  0.650937  1
  O  O25  1  0.573265  0.233136  0.615295  1
  O  O26  1  0.335164  0.401193  0.351513  1
  O  O27  1  0.929679  0.242230  0.383661  1
  O  O28  1  0.150231  0.585620  0.150992  1
  O  O29  1  0.654481  0.409304  0.137537  1
  O  O30  1  0.360387  0.610947  0.852558  1
  O  O31  1  0.874623  0.417655  0.859054  1
  O  O32  1  0.071458  0.738240  0.621900  1
  O  O33  1  0.658902  0.605445  0.650734  1
  O  O34  1  0.438377  0.749236  0.376261  1
  O  O35  1  0.840577  0.580509  0.349542  1
  O  O36  1  0.164836  0.901193  0.148487  1
  O  O37  1  0.570321  0.742230  0.116339  1
  O  O38  1  0.371682  0.912149  0.849063  1
  O  O39  1  0.926735  0.733136  0.884705  1
  O  O40  1  0.625377  0.917655  0.640946  1
  O  O41  1  0.845519  0.909304  0.362463  1
