# generated using pymatgen
data_LiCr(Si2O5)2
_symmetry_space_group_name_H-M   'P 1'
_cell_length_a   9.62853379
_cell_length_b   7.41969316
_cell_length_c   7.09060696
_cell_angle_alpha   63.31011888
_cell_angle_beta   76.49545075
_cell_angle_gamma   99.07230823
_symmetry_Int_Tables_number   1
_chemical_formula_structural   LiCr(Si2O5)2
_chemical_formula_sum   'Li2 Cr2 Si8 O20'
_cell_volume   419.49033717
_cell_formula_units_Z   2
loop_
 _symmetry_equiv_pos_site_id
 _symmetry_equiv_pos_as_xyz
  1  'x, y, z'
loop_
 _atom_site_type_symbol
 _atom_site_label
 _atom_site_symmetry_multiplicity
 _atom_site_fract_x
 _atom_site_fract_y
 _atom_site_fract_z
 _atom_site_occupancy
  Li  Li0  1  0.430591  0.332455  0.173992  1
  Li  Li1  1  0.956021  0.738202  0.395540  1
  Cr  Cr2  1  0.429759  0.320242  0.746714  1
  Cr  Cr3  1  0.572764  0.685040  0.253931  1
  Si  Si4  1  0.138331  0.281077  0.093897  1
  Si  Si5  1  0.192713  0.951219  0.760272  1
  Si  Si6  1  0.234172  0.605677  0.208210  1
  Si  Si7  1  0.246197  0.643001  0.605503  1
  Si  Si8  1  0.752083  0.359188  0.390617  1
  Si  Si9  1  0.759597  0.385110  0.804295  1
  Si  Si10  1  0.810077  0.049190  0.241099  1
  Si  Si11  1  0.858662  0.727065  0.903827  1
  O  O12  1  0.014847  0.919087  0.785935  1
  O  O13  1  0.204017  0.796898  0.005350  1
  O  O14  1  0.129779  0.378465  0.261808  1
  O  O15  1  0.168700  0.643195  0.421445  1
  O  O16  1  0.131810  0.459433  0.854813  1
  O  O17  1  0.266939  0.875334  0.583318  1
  O  O18  1  0.294534  0.227175  0.048573  1
  O  O19  1  0.281519  0.192792  0.664431  1
  O  O20  1  0.406049  0.605190  0.160587  1
  O  O21  1  0.411865  0.603681  0.556463  1
  O  O22  1  0.584103  0.395003  0.436152  1
  O  O23  1  0.580809  0.342403  0.887080  1
  O  O24  1  0.734657  0.803710  0.332899  1
  O  O25  1  0.707055  0.787050  0.959204  1
  O  O26  1  0.737732  0.127272  0.415486  1
  O  O27  1  0.865744  0.538831  0.139239  1
  O  O28  1  0.824697  0.389105  0.565500  1
  O  O29  1  0.857858  0.624428  0.736801  1
  O  O30  1  0.802113  0.204420  0.996125  1
  O  O31  1  0.989786  0.070459  0.216599  1
