# generated using pymatgen
data_Li5Mn6(BO3)6
_symmetry_space_group_name_H-M   'P 1'
_cell_length_a   8.29394610
_cell_length_b   10.41850428
_cell_length_c   10.41850376
_cell_angle_alpha   104.52305964
_cell_angle_beta   113.19058722
_cell_angle_gamma   66.80941954
_symmetry_Int_Tables_number   1
_chemical_formula_structural   Li5Mn6(BO3)6
_chemical_formula_sum   'Li10 Mn12 B12 O36'
_cell_volume   755.76779185
_cell_formula_units_Z   2
loop_
 _symmetry_equiv_pos_site_id
 _symmetry_equiv_pos_as_xyz
  1  'x, y, z'
loop_
 _atom_site_type_symbol
 _atom_site_label
 _atom_site_symmetry_multiplicity
 _atom_site_fract_x
 _atom_site_fract_y
 _atom_site_fract_z
 _atom_site_occupancy
  Li  Li0  1  0.297803  0.486991  0.768144  1
  Li  Li1  1  0.982198  0.024974  0.725026  1
  Li  Li2  1  0.983928  0.273709  0.974904  1
  Li  Li3  1  0.297803  0.981856  0.263009  1
  Li  Li4  1  0.297496  0.735493  0.014507  1
  Li  Li5  1  0.719739  0.115665  0.133773  1
  Li  Li6  1  0.719739  0.616227  0.634335  1
  Li  Li7  1  0.712833  0.366324  0.383676  1
  Li  Li8  1  0.976268  0.525670  0.224330  1
  Li  Li9  1  0.983928  0.775096  0.476291  1
  Mn  Mn10  1  0.002992  0.567804  0.934362  1
  Mn  Mn11  1  0.018774  0.068997  0.432307  1
  Mn  Mn12  1  0.018774  0.317693  0.681003  1
  Mn  Mn13  1  0.373927  0.005330  0.993900  1
  Mn  Mn14  1  0.629255  0.175753  0.819491  1
  Mn  Mn15  1  0.002992  0.815638  0.182196  1
  Mn  Mn16  1  0.357440  0.251862  0.251344  1
  Mn  Mn17  1  0.357440  0.498656  0.498138  1
  Mn  Mn18  1  0.373927  0.756100  0.744670  1
  Mn  Mn19  1  0.629255  0.930509  0.574247  1
  Mn  Mn20  1  0.621508  0.429758  0.069431  1
  Mn  Mn21  1  0.621508  0.680569  0.320242  1
  B  B22  1  0.332468  0.043169  0.706831  1
  B  B23  1  0.334043  0.288803  0.957111  1
  B  B24  1  0.009859  0.003625  0.005213  1
  B  B25  1  0.009859  0.744787  0.746375  1
  B  B26  1  0.326007  0.540971  0.209029  1
  B  B27  1  0.334043  0.792889  0.461197  1
  B  B28  1  0.669036  0.455416  0.791479  1
  B  B29  1  0.678074  0.204903  0.545097  1
  B  B30  1  0.659750  0.707152  0.042848  1
  B  B31  1  0.990188  0.250371  0.241342  1
  B  B32  1  0.990188  0.508658  0.499629  1
  B  B33  1  0.669036  0.958521  0.294584  1
  O  O34  1  0.214322  0.138296  0.611704  1
  O  O35  1  0.220906  0.388984  0.864559  1
  O  O36  1  0.178753  0.182822  0.283479  1
  O  O37  1  0.178753  0.466521  0.567178  1
  O  O38  1  0.203984  0.698434  0.807964  1
  O  O39  1  0.523107  0.006113  0.743887  1
  O  O40  1  0.527274  0.246982  0.994747  1
  O  O41  1  0.247208  0.483394  0.266606  1
  O  O42  1  0.259798  0.981685  0.768315  1
  O  O43  1  0.583346  0.400004  0.844346  1
  O  O44  1  0.256893  0.228606  0.013606  1
  O  O45  1  0.256893  0.736394  0.521394  1
  O  O46  1  0.616769  0.140865  0.609135  1
  O  O47  1  0.541697  0.803343  0.946657  1
  O  O48  1  0.220906  0.885441  0.361016  1
  O  O49  1  0.213721  0.638105  0.111895  1
  O  O50  1  0.557122  0.300994  0.449006  1
  O  O51  1  0.559354  0.052732  0.193995  1
  O  O52  1  0.559354  0.556005  0.697268  1
  O  O53  1  0.922871  0.098336  0.904219  1
  O  O54  1  0.203984  0.942036  0.051566  1
  O  O55  1  0.518804  0.501003  0.248997  1
  O  O56  1  0.527274  0.755253  0.503018  1
  O  O57  1  0.860995  0.412579  0.830872  1
  O  O58  1  0.868740  0.170356  0.579644  1
  O  O59  1  0.875664  0.217164  0.287804  1
  O  O60  1  0.875664  0.462196  0.532836  1
  O  O61  1  0.905686  0.689196  0.777003  1
  O  O62  1  0.578932  0.650731  0.099269  1
  O  O63  1  0.583346  0.905654  0.349996  1
  O  O64  1  0.909361  0.352554  0.148042  1
  O  O65  1  0.909361  0.601958  0.397446  1
  O  O66  1  0.922871  0.845781  0.651664  1
  O  O67  1  0.851145  0.667396  0.082604  1
  O  O68  1  0.860995  0.919128  0.337421  1
  O  O69  1  0.905686  0.972997  0.060804  1
