# generated using pymatgen
data_Li3Mn2(PO4)3
_symmetry_space_group_name_H-M   'P 1'
_cell_length_a   8.71180597
_cell_length_b   8.56196798
_cell_length_c   8.56196766
_cell_angle_alpha   61.53145333
_cell_angle_beta   61.79418438
_cell_angle_gamma   61.79418344
_symmetry_Int_Tables_number   1
_chemical_formula_structural   Li3Mn2(PO4)3
_chemical_formula_sum   'Li6 Mn4 P6 O24'
_cell_volume   468.85424350
_cell_formula_units_Z   2
loop_
 _symmetry_equiv_pos_site_id
 _symmetry_equiv_pos_as_xyz
  1  'x, y, z'
loop_
 _atom_site_type_symbol
 _atom_site_label
 _atom_site_symmetry_multiplicity
 _atom_site_fract_x
 _atom_site_fract_y
 _atom_site_fract_z
 _atom_site_occupancy
  Li  Li0  1  0.026801  0.011609  0.985940  1
  Li  Li1  1  0.750000  0.154642  0.345358  1
  Li  Li2  1  0.473199  0.514060  0.488391  1
  Li  Li3  1  0.250000  0.832749  0.667251  1
  Li  Li4  1  0.646912  0.260741  0.842800  1
  Li  Li5  1  0.853088  0.657200  0.239259  1
  Mn  Mn6  1  0.142593  0.143397  0.143305  1
  Mn  Mn7  1  0.357407  0.356695  0.356603  1
  Mn  Mn8  1  0.648255  0.650460  0.642950  1
  Mn  Mn9  1  0.851745  0.857050  0.849540  1
  P  P10  1  0.054664  0.753802  0.448909  1
  P  P11  1  0.445336  0.051091  0.746198  1
  P  P12  1  0.750000  0.455078  0.044922  1
  P  P13  1  0.250000  0.533676  0.966324  1
  P  P14  1  0.545235  0.957096  0.248636  1
  P  P15  1  0.954765  0.251364  0.542904  1
  O  O16  1  0.126807  0.285718  0.504964  1
  O  O17  1  0.308265  0.498326  0.126897  1
  O  O18  1  0.054705  0.930197  0.265196  1
  O  O19  1  0.540918  0.113121  0.291995  1
  O  O20  1  0.241701  0.600304  0.430341  1
  O  O21  1  0.020689  0.806602  0.617186  1
  O  O22  1  0.258299  0.069659  0.899696  1
  O  O23  1  0.445295  0.234804  0.569803  1
  O  O24  1  0.596888  0.433882  0.238435  1
  O  O25  1  0.191735  0.373103  0.001674  1
  O  O26  1  0.093925  0.726394  0.948603  1
  O  O27  1  0.373193  0.995036  0.214282  1
  O  O28  1  0.603270  0.028189  0.797101  1
  O  O29  1  0.903112  0.261565  0.066118  1
  O  O30  1  0.809632  0.615637  0.011158  1
  O  O31  1  0.406075  0.551397  0.773606  1
  O  O32  1  0.571405  0.761033  0.410103  1
  O  O33  1  0.730267  0.931205  0.080339  1
  O  O34  1  0.959082  0.208005  0.386879  1
  O  O35  1  0.769733  0.419660  0.568795  1
  O  O36  1  0.479311  0.882814  0.693398  1
  O  O37  1  0.928595  0.089897  0.738967  1
  O  O38  1  0.690368  0.488842  0.884363  1
  O  O39  1  0.896730  0.702899  0.471811  1
