# generated using pymatgen
data_Mn12O7F17
_symmetry_space_group_name_H-M   'P 1'
_cell_length_a   5.43547269
_cell_length_b   5.39463384
_cell_length_c   15.09591198
_cell_angle_alpha   84.40747192
_cell_angle_beta   95.43513134
_cell_angle_gamma   91.59915337
_symmetry_Int_Tables_number   1
_chemical_formula_structural   Mn12O7F17
_chemical_formula_sum   'Mn12 O7 F17'
_cell_volume   438.48262311
_cell_formula_units_Z   1
loop_
 _symmetry_equiv_pos_site_id
 _symmetry_equiv_pos_as_xyz
  1  'x, y, z'
loop_
 _atom_site_type_symbol
 _atom_site_label
 _atom_site_symmetry_multiplicity
 _atom_site_fract_x
 _atom_site_fract_y
 _atom_site_fract_z
 _atom_site_occupancy
  Mn  Mn0  1  0.906861  0.013070  0.001034  1
  Mn  Mn1  1  0.094564  0.537435  0.162942  1
  Mn  Mn2  1  0.896392  0.980629  0.327584  1
  Mn  Mn3  1  0.016292  0.523210  0.508458  1
  Mn  Mn4  1  0.978770  0.062037  0.662772  1
  Mn  Mn5  1  0.045396  0.568226  0.827686  1
  Mn  Mn6  1  0.409991  0.985978  0.168327  1
  Mn  Mn7  1  0.576573  0.485722  0.996040  1
  Mn  Mn8  1  0.511186  0.405899  0.656973  1
  Mn  Mn9  1  0.480549  0.036401  0.510401  1
  Mn  Mn10  1  0.542329  0.441707  0.326099  1
  Mn  Mn11  1  0.423510  0.038255  0.838871  1
  O  O12  1  0.154142  0.843753  0.085355  1
  O  O13  1  0.246301  0.221551  0.598727  1
  O  O14  1  0.179029  0.892427  0.758494  1
  O  O15  1  0.359178  0.670590  0.234029  1
  O  O16  1  0.642212  0.180610  0.929037  1
  O  O17  1  0.748711  0.287772  0.585852  1
  O  O18  1  0.626759  0.129789  0.258233  1
  F  F19  1  0.126131  0.210406  0.244312  1
  F  F20  1  0.173532  0.872470  0.412725  1
  F  F21  1  0.133725  0.203925  0.917106  1
  F  F22  1  0.379828  0.316206  0.098624  1
  F  F23  1  0.340934  0.705854  0.580053  1
  F  F24  1  0.347543  0.715633  0.912857  1
  F  F25  1  0.311826  0.376570  0.766240  1
  F  F26  1  0.297498  0.359787  0.425467  1
  F  F27  1  0.662025  0.821249  0.074267  1
  F  F28  1  0.710196  0.701823  0.409228  1
  F  F29  1  0.757678  0.575253  0.730603  1
  F  F30  1  0.783625  0.208236  0.416006  1
  F  F31  1  0.888361  0.341131  0.078472  1
  F  F32  1  0.693509  0.075979  0.748915  1
  F  F33  1  0.840421  0.819654  0.571830  1
  F  F34  1  0.844002  0.709130  0.922208  1
  F  F35  1  0.870421  0.681638  0.254175  1
