# generated using pymatgen
data_FeO3
_symmetry_space_group_name_H-M   'P 1'
_cell_length_a   18.47547472
_cell_length_b   11.43104948
_cell_length_c   11.43104945
_cell_angle_alpha   14.35758425
_cell_angle_beta   13.82873733
_cell_angle_gamma   13.82873709
_symmetry_Int_Tables_number   1
_chemical_formula_structural   FeO3
_chemical_formula_sum   'Fe2 O6'
_cell_volume   122.93867936
_cell_formula_units_Z   2
loop_
 _symmetry_equiv_pos_site_id
 _symmetry_equiv_pos_as_xyz
  1  'x, y, z'
loop_
 _atom_site_type_symbol
 _atom_site_label
 _atom_site_symmetry_multiplicity
 _atom_site_fract_x
 _atom_site_fract_y
 _atom_site_fract_z
 _atom_site_occupancy
  Fe  Fe0  1  0.009967  0.969201  0.969201  1
  Fe  Fe1  1  0.323366  0.030799  0.030799  1
  O  O2  1  0.232517  0.255409  0.255409  1
  O  O3  1  0.501302  0.340160  0.340160  1
  O  O4  1  0.100817  0.744591  0.744591  1
  O  O5  1  0.813939  0.371075  0.371075  1
  O  O6  1  0.519394  0.628925  0.628925  1
  O  O7  1  0.832032  0.659840  0.659840  1
