# generated using pymatgen
data_Li2SiNiO4
_symmetry_space_group_name_H-M   'P 1'
_cell_length_a   6.20398408
_cell_length_b   10.88820782
_cell_length_c   4.94995501
_cell_angle_alpha   89.99276530
_cell_angle_beta   90.00427399
_cell_angle_gamma   90.02090440
_symmetry_Int_Tables_number   1
_chemical_formula_structural   Li2SiNiO4
_chemical_formula_sum   'Li8 Si4 Ni4 O16'
_cell_volume   334.37076172
_cell_formula_units_Z   4
loop_
 _symmetry_equiv_pos_site_id
 _symmetry_equiv_pos_as_xyz
  1  'x, y, z'
loop_
 _atom_site_type_symbol
 _atom_site_label
 _atom_site_symmetry_multiplicity
 _atom_site_fract_x
 _atom_site_fract_y
 _atom_site_fract_z
 _atom_site_occupancy
  Li  Li0  1  0.994220  0.824163  0.756056  1
  Li  Li1  1  0.260450  0.089480  0.757106  1
  Li  Li2  1  0.239400  0.589500  0.756994  1
  Li  Li3  1  0.505738  0.324182  0.755969  1
  Li  Li4  1  0.494264  0.675809  0.256030  1
  Li  Li5  1  0.760606  0.410516  0.256981  1
  Li  Li6  1  0.739698  0.910577  0.257206  1
  Li  Li7  1  0.005828  0.175837  0.256092  1
  Si  Si8  1  0.993663  0.664501  0.264567  1
  Si  Si9  1  0.506178  0.164484  0.264658  1
  Si  Si10  1  0.493848  0.835478  0.764602  1
  Si  Si11  1  0.006249  0.335568  0.764565  1
  Ni  Ni12  1  0.260495  0.418971  0.252994  1
  Ni  Ni13  1  0.239851  0.918754  0.253116  1
  Ni  Ni14  1  0.760261  0.081133  0.753260  1
  Ni  Ni15  1  0.739501  0.581089  0.753016  1
  O  O16  1  0.008677  0.336080  0.097501  1
  O  O17  1  0.996450  0.808772  0.158440  1
  O  O18  1  0.284814  0.093468  0.159755  1
  O  O19  1  0.226731  0.407507  0.656567  1
  O  O20  1  0.273352  0.907490  0.656830  1
  O  O21  1  0.214943  0.593711  0.159454  1
  O  O22  1  0.503560  0.308743  0.158445  1
  O  O23  1  0.491563  0.835910  0.097601  1
  O  O24  1  0.508488  0.164049  0.597645  1
  O  O25  1  0.496293  0.691186  0.658401  1
  O  O26  1  0.784894  0.406390  0.659623  1
  O  O27  1  0.726665  0.092486  0.156918  1
  O  O28  1  0.773270  0.592485  0.156565  1
  O  O29  1  0.715220  0.906435  0.659527  1
  O  O30  1  0.003518  0.191217  0.658468  1
  O  O31  1  0.991309  0.664033  0.597548  1
