# generated using pymatgen
data_Dy2Ge5Rh3
_symmetry_space_group_name_H-M   'P 1'
_cell_length_a   8.37766593
_cell_length_b   8.37768154
_cell_length_c   5.90790167
_cell_angle_alpha   71.11672176
_cell_angle_beta   108.88329495
_cell_angle_gamma   85.87338585
_symmetry_Int_Tables_number   1
_chemical_formula_structural   Dy2Ge5Rh3
_chemical_formula_sum   'Dy4 Ge10 Rh6'
_cell_volume   363.91386066
_cell_formula_units_Z   2
loop_
 _symmetry_equiv_pos_site_id
 _symmetry_equiv_pos_as_xyz
  1  'x, y, z'
loop_
 _atom_site_type_symbol
 _atom_site_label
 _atom_site_symmetry_multiplicity
 _atom_site_fract_x
 _atom_site_fract_y
 _atom_site_fract_z
 _atom_site_occupancy
  Dy  Dy0  1  0.407983  0.869899  0.263096  1
  Dy  Dy1  1  0.869899  0.407984  0.236903  1
  Dy  Dy2  1  0.592017  0.130100  0.736903  1
  Dy  Dy3  1  0.130100  0.592018  0.763097  1
  Ge  Ge4  1  0.512577  0.512577  0.249998  1
  Ge  Ge5  1  0.487422  0.487423  0.750001  1
  Ge  Ge6  1  0.206948  0.206948  0.250000  1
  Ge  Ge7  1  0.793051  0.793052  0.749999  1
  Ge  Ge8  1  0.734964  0.075125  0.331098  1
  Ge  Ge9  1  0.075125  0.734963  0.168902  1
  Ge  Ge10  1  0.265036  0.924875  0.668901  1
  Ge  Ge11  1  0.924876  0.265035  0.831098  1
  Ge  Ge12  1  0.778275  0.778274  0.249999  1
  Ge  Ge13  1  0.221725  0.221725  0.750000  1
  Rh  Rh14  1  0.454301  0.261273  0.124593  1
  Rh  Rh15  1  0.261272  0.454302  0.375407  1
  Rh  Rh16  1  0.545700  0.738727  0.875409  1
  Rh  Rh17  1  0.738728  0.545699  0.624590  1
  Rh  Rh18  1  0.001273  0.001273  0.250000  1
  Rh  Rh19  1  0.998725  0.998726  0.749999  1
