# generated using pymatgen
data_LiCoOF2
_symmetry_space_group_name_H-M   'P 1'
_cell_length_a   5.16181417
_cell_length_b   9.84681072
_cell_length_c   5.08302417
_cell_angle_alpha   105.34123684
_cell_angle_beta   60.32980510
_cell_angle_gamma   90.75988402
_symmetry_Int_Tables_number   1
_chemical_formula_structural   LiCoOF2
_chemical_formula_sum   'Li4 Co4 O4 F8'
_cell_volume   214.33823503
_cell_formula_units_Z   4
loop_
 _symmetry_equiv_pos_site_id
 _symmetry_equiv_pos_as_xyz
  1  'x, y, z'
loop_
 _atom_site_type_symbol
 _atom_site_label
 _atom_site_symmetry_multiplicity
 _atom_site_fract_x
 _atom_site_fract_y
 _atom_site_fract_z
 _atom_site_occupancy
  Li  Li0  1  0.053975  0.790439  0.868546  1
  Li  Li1  1  0.446025  0.709561  0.131454  1
  Li  Li2  1  0.575013  0.290946  0.867247  1
  Li  Li3  1  0.924987  0.209054  0.132753  1
  Co  Co4  1  0.363608  0.022651  0.318794  1
  Co  Co5  1  0.136392  0.477349  0.681206  1
  Co  Co6  1  0.821316  0.522502  0.365606  1
  Co  Co7  1  0.678684  0.977498  0.634394  1
  O  O8  1  0.608209  0.109781  0.044278  1
  O  O9  1  0.665408  0.885248  0.289769  1
  O  O10  1  0.834592  0.614752  0.710231  1
  O  O11  1  0.891791  0.390219  0.955722  1
  F  F12  1  0.121983  0.627403  0.061025  1
  F  F13  1  0.188722  0.374691  0.259920  1
  F  F14  1  0.062819  0.885645  0.558237  1
  F  F15  1  0.437181  0.614355  0.441763  1
  F  F16  1  0.311278  0.125309  0.740080  1
  F  F17  1  0.550033  0.378667  0.561694  1
  F  F18  1  0.378017  0.872597  0.938975  1
  F  F19  1  0.949967  0.121333  0.438306  1
