# generated using pymatgen
data_LiV4OF11
_symmetry_space_group_name_H-M   'P 1'
_cell_length_a   5.27439974
_cell_length_b   5.56832654
_cell_length_c   7.49783336
_cell_angle_alpha   86.23244070
_cell_angle_beta   90.01136506
_cell_angle_gamma   89.98855739
_symmetry_Int_Tables_number   1
_chemical_formula_structural   LiV4OF11
_chemical_formula_sum   'Li1 V4 O1 F11'
_cell_volume   219.73230078
_cell_formula_units_Z   1
loop_
 _symmetry_equiv_pos_site_id
 _symmetry_equiv_pos_as_xyz
  1  'x, y, z'
loop_
 _atom_site_type_symbol
 _atom_site_label
 _atom_site_symmetry_multiplicity
 _atom_site_fract_x
 _atom_site_fract_y
 _atom_site_fract_z
 _atom_site_occupancy
  Li  Li0  1  0.982823  0.500069  0.750000  1
  V  V1  1  0.999190  0.000038  0.496438  1
  V  V2  1  0.999232  0.000009  0.003561  1
  V  V3  1  0.508006  0.501200  0.989956  1
  V  V4  1  0.507955  0.498802  0.510090  1
  O  O5  1  0.589150  0.500028  0.749941  1
  F  F6  1  0.116364  0.000022  0.250029  1
  F  F7  1  0.175447  0.316274  0.935478  1
  F  F8  1  0.175318  0.683728  0.564495  1
  F  F9  1  0.293174  0.805697  0.944035  1
  F  F10  1  0.293261  0.194223  0.556001  1
  F  F11  1  0.407882  0.499965  0.249903  1
  F  F12  1  0.700892  0.191253  0.054919  1
  F  F13  1  0.700795  0.808746  0.445061  1
  F  F14  1  0.817502  0.690949  0.047514  1
  F  F15  1  0.817530  0.309022  0.452586  1
  F  F16  1  0.890030  0.999941  0.749985  1
