# generated using pymatgen
data_FeH4Br3N
_symmetry_space_group_name_H-M   'P 1'
_cell_length_a   7.49219206
_cell_length_b   7.49444338
_cell_length_c   6.14191590
_cell_angle_alpha   90.00000000
_cell_angle_beta   90.00000000
_cell_angle_gamma   119.70024737
_symmetry_Int_Tables_number   1
_chemical_formula_structural   FeH4Br3N
_chemical_formula_sum   'Fe2 H8 Br6 N2'
_cell_volume   299.56195925
_cell_formula_units_Z   2
loop_
 _symmetry_equiv_pos_site_id
 _symmetry_equiv_pos_as_xyz
  1  'x, y, z'
loop_
 _atom_site_type_symbol
 _atom_site_label
 _atom_site_symmetry_multiplicity
 _atom_site_fract_x
 _atom_site_fract_y
 _atom_site_fract_z
 _atom_site_occupancy
  Fe  Fe0  1  0.999850  0.999645  0.010566  1
  Fe  Fe1  1  0.000150  0.000355  0.510567  1
  H  H2  1  0.334974  0.667922  0.069336  1
  H  H3  1  0.333359  0.534286  0.289132  1
  H  H4  1  0.201796  0.667123  0.289651  1
  H  H5  1  0.465029  0.797076  0.291492  1
  H  H6  1  0.665025  0.332077  0.569337  1
  H  H7  1  0.666640  0.465714  0.789133  1
  H  H8  1  0.798204  0.332876  0.789652  1
  H  H9  1  0.534970  0.202923  0.791492  1
  Br  Br10  1  0.795919  0.120636  0.262744  1
  Br  Br11  1  0.326496  0.202806  0.262959  1
  Br  Br12  1  0.877811  0.674210  0.263139  1
  Br  Br13  1  0.204080  0.879364  0.762743  1
  Br  Br14  1  0.673502  0.797194  0.762958  1
  Br  Br15  1  0.122189  0.325789  0.763138  1
  N  N16  1  0.333948  0.666363  0.237983  1
  N  N17  1  0.666052  0.333638  0.737982  1
