# generated using pymatgen
data_Li4MnV3(P2O7)4
_symmetry_space_group_name_H-M   'P 1'
_cell_length_a   9.74684780
_cell_length_b   8.29770007
_cell_length_c   7.16518128
_cell_angle_alpha   90.37689725
_cell_angle_beta   68.82513047
_cell_angle_gamma   89.68798287
_symmetry_Int_Tables_number   1
_chemical_formula_structural   Li4MnV3(P2O7)4
_chemical_formula_sum   'Li4 Mn1 V3 P8 O28'
_cell_volume   540.33740330
_cell_formula_units_Z   1
loop_
 _symmetry_equiv_pos_site_id
 _symmetry_equiv_pos_as_xyz
  1  'x, y, z'
loop_
 _atom_site_type_symbol
 _atom_site_label
 _atom_site_symmetry_multiplicity
 _atom_site_fract_x
 _atom_site_fract_y
 _atom_site_fract_z
 _atom_site_occupancy
  Li  Li0  1  0.248324  0.360905  0.325378  1
  Li  Li1  1  0.251399  0.861660  0.674518  1
  Li  Li2  1  0.749261  0.360458  0.324779  1
  Li  Li3  1  0.749702  0.862214  0.674459  1
  Mn  Mn4  1  0.758295  0.999071  0.268156  1
  V  V5  1  0.256527  0.999711  0.271606  1
  V  V6  1  0.244043  0.499680  0.728000  1
  V  V7  1  0.743284  0.499457  0.727297  1
  P  P8  1  0.063076  0.784314  0.086763  1
  P  P9  1  0.060935  0.680869  0.478029  1
  P  P10  1  0.439657  0.178857  0.521692  1
  P  P11  1  0.563674  0.783068  0.087950  1
  P  P12  1  0.436667  0.283925  0.914140  1
  P  P13  1  0.559841  0.680193  0.481877  1
  P  P14  1  0.938987  0.178941  0.522712  1
  P  P15  1  0.937895  0.287715  0.913196  1
  O  O16  1  0.078715  0.653659  0.246482  1
  O  O17  1  0.155356  0.933476  0.085267  1
  O  O18  1  0.104195  0.176458  0.395583  1
  O  O19  1  0.129238  0.843716  0.493928  1
  O  O20  1  0.148379  0.538865  0.516586  1
  O  O21  1  0.100952  0.326774  0.846040  1
  O  O22  1  0.123952  0.696572  0.885926  1
  O  O23  1  0.376334  0.196614  0.113752  1
  O  O24  1  0.400827  0.824752  0.148914  1
  O  O25  1  0.352479  0.038155  0.481661  1
  O  O26  1  0.371112  0.342300  0.506280  1
  O  O27  1  0.394039  0.674676  0.604800  1
  O  O28  1  0.342030  0.433441  0.916918  1
  O  O29  1  0.421811  0.152431  0.752155  1
  O  O30  1  0.579051  0.654574  0.249103  1
  O  O31  1  0.656984  0.933653  0.084915  1
  O  O32  1  0.604996  0.176327  0.391943  1
  O  O33  1  0.624154  0.841999  0.505481  1
  O  O34  1  0.647038  0.536126  0.517821  1
  O  O35  1  0.599193  0.324406  0.851447  1
  O  O36  1  0.622369  0.695000  0.887324  1
  O  O37  1  0.880110  0.204815  0.114611  1
  O  O38  1  0.898963  0.824217  0.144497  1
  O  O39  1  0.853579  0.036075  0.481276  1
  O  O40  1  0.870976  0.342228  0.505889  1
  O  O41  1  0.895995  0.678012  0.604805  1
  O  O42  1  0.843491  0.436886  0.912832  1
  O  O43  1  0.922118  0.153914  0.753214  1
