# generated using pymatgen
data_Li9Nb10Cr6(PO4)24
_symmetry_space_group_name_H-M   'P 1'
_cell_length_a   8.76177740
_cell_length_b   8.84414090
_cell_length_c   24.52532467
_cell_angle_alpha   89.95293101
_cell_angle_beta   90.04225667
_cell_angle_gamma   89.99422967
_symmetry_Int_Tables_number   1
_chemical_formula_structural   Li9Nb10Cr6(PO4)24
_chemical_formula_sum   'Li9 Nb10 Cr6 P24 O96'
_cell_volume   1900.47590021
_cell_formula_units_Z   1
loop_
 _symmetry_equiv_pos_site_id
 _symmetry_equiv_pos_as_xyz
  1  'x, y, z'
loop_
 _atom_site_type_symbol
 _atom_site_label
 _atom_site_symmetry_multiplicity
 _atom_site_fract_x
 _atom_site_fract_y
 _atom_site_fract_z
 _atom_site_occupancy
  Li  Li0  1  0.999105  0.974343  0.993504  1
  Li  Li1  1  0.998721  0.526151  0.494444  1
  Li  Li2  1  0.467615  0.966912  0.713745  1
  Li  Li3  1  0.499384  0.503854  0.998338  1
  Li  Li4  1  0.499738  0.996459  0.497633  1
  Li  Li5  1  0.535161  0.035022  0.287232  1
  Li  Li6  1  0.533743  0.467114  0.786811  1
  Li  Li7  1  0.964664  0.534070  0.287601  1
  Li  Li8  1  0.963454  0.962222  0.787415  1
  Nb  Nb9  1  0.004952  0.210087  0.320073  1
  Nb  Nb10  1  0.004832  0.288915  0.819988  1
  Nb  Nb11  1  0.495973  0.785270  0.823437  1
  Nb  Nb12  1  0.495292  0.710937  0.321105  1
  Nb  Nb13  1  0.500908  0.222866  0.179055  1
  Nb  Nb14  1  0.501278  0.286221  0.678221  1
  Nb  Nb15  1  0.002046  0.725705  0.179886  1
  Nb  Nb16  1  0.000937  0.774248  0.679121  1
  Nb  Nb17  1  0.000436  0.212016  0.566129  1
  Nb  Nb18  1  0.001362  0.288231  0.065685  1
  Cr  Cr19  1  0.998825  0.787089  0.431913  1
  Cr  Cr20  1  0.999265  0.713769  0.932257  1
  Cr  Cr21  1  0.500334  0.286530  0.432607  1
  Cr  Cr22  1  0.500283  0.211722  0.932866  1
  Cr  Cr23  1  0.500402  0.714403  0.565452  1
  Cr  Cr24  1  0.499742  0.785392  0.066251  1
  P  P25  1  0.139408  0.353851  0.199239  1
  P  P26  1  0.140295  0.142418  0.699777  1
  P  P27  1  0.157203  0.643494  0.050271  1
  P  P28  1  0.157671  0.857367  0.550026  1
  P  P29  1  0.208915  0.501425  0.381100  1
  P  P30  1  0.208117  0.998042  0.880689  1
  P  P31  1  0.291756  0.002625  0.381005  1
  P  P32  1  0.289690  0.496830  0.881538  1
  P  P33  1  0.353340  0.130312  0.050188  1
  P  P34  1  0.351449  0.368524  0.549500  1
  P  P35  1  0.365397  0.651487  0.697495  1
  P  P36  1  0.365791  0.853693  0.196980  1
  P  P37  1  0.640844  0.148855  0.802317  1
  P  P38  1  0.641550  0.354340  0.303257  1
  P  P39  1  0.654125  0.631948  0.449803  1
  P  P40  1  0.655793  0.866928  0.951019  1
  P  P41  1  0.709213  0.509843  0.120901  1
  P  P42  1  0.707512  0.990171  0.620939  1
  P  P43  1  0.782811  -0.000010  0.120374  1
  P  P44  1  0.785230  0.499477  0.619926  1
  P  P45  1  0.840919  0.129785  0.447312  1
  P  P46  1  0.841991  0.371263  0.947175  1
  P  P47  1  0.857527  0.645399  0.803669  1
  P  P48  1  0.856944  0.852823  0.303006  1
  O  O49  1  0.071973  0.743760  0.009618  1
  O  O50  1  0.071216  0.757074  0.509623  1
  O  O51  1  0.076652  0.242899  0.242294  1
  O  O52  1  0.080139  0.253786  0.743443  1
  O  O53  1  0.083235  0.305140  0.142654  1
  O  O54  1  0.084981  0.196425  0.643757  1
  O  O55  1  0.086542  0.517165  0.213230  1
  O  O56  1  0.078730  0.981709  0.713971  1
  O  O57  1  0.103805  0.692890  0.108345  1
  O  O58  1  0.105963  0.807742  0.608325  1
  O  O59  1  0.100622  0.421014  0.338883  1
  O  O60  1  0.096232  0.085077  0.840337  1
  O  O61  1  0.109825  0.589249  0.421393  1
  O  O62  1  0.106015  0.913647  0.921020  1
  O  O63  1  0.109163  0.473516  0.044006  1
  O  O64  1  0.109197  0.027024  0.544178  1
  O  O65  1  0.175798  0.151897  0.046585  1
  O  O66  1  0.174290  0.348924  0.545424  1
  O  O67  1  0.188241  0.846910  0.200901  1
  O  O68  1  0.188340  0.657069  0.701582  1
  O  O69  1  0.187181  0.606886  0.910552  1
  O  O70  1  0.187088  0.893790  0.410437  1
  O  O71  1  0.201845  0.111995  0.342294  1
  O  O72  1  0.192768  0.386283  0.844627  1
  O  O73  1  0.305698  0.612828  0.344380  1
  O  O74  1  0.296820  0.889367  0.842209  1
  O  O75  1  0.311046  0.107145  0.910704  1
  O  O76  1  0.311764  0.392332  0.410586  1
  O  O77  1  0.315642  0.343904  0.200738  1
  O  O78  1  0.317018  0.138202  0.702016  1
  O  O79  1  0.330793  0.644010  0.044576  1
  O  O80  1  0.331285  0.856571  0.544153  1
  O  O81  1  0.382446  0.535830  0.543451  1
  O  O82  1  0.382027  0.963300  0.043367  1
  O  O83  1  0.392309  0.087104  0.421564  1
  O  O84  1  0.388733  0.409291  0.921859  1
  O  O85  1  0.398372  0.576519  0.839049  1
  O  O86  1  0.402848  0.915831  0.340663  1
  O  O87  1  0.402029  0.183469  0.109157  1
  O  O88  1  0.398061  0.312883  0.608813  1
  O  O89  1  0.417970  0.019528  0.211361  1
  O  O90  1  0.418409  0.489820  0.714114  1
  O  O91  1  0.423618  0.704816  0.642794  1
  O  O92  1  0.424437  0.800168  0.142925  1
  O  O93  1  0.425977  0.752845  0.244414  1
  O  O94  1  0.424866  0.764293  0.742193  1
  O  O95  1  0.431176  0.238870  0.010444  1
  O  O96  1  0.429845  0.260644  0.510009  1
  O  O97  1  0.570784  0.740681  0.488581  1
  O  O98  1  0.572114  0.758047  0.989552  1
  O  O99  1  0.579366  0.244711  0.257734  1
  O  O100  1  0.582325  0.264409  0.758202  1
  O  O101  1  0.584799  0.203560  0.857052  1
  O  O102  1  0.583321  0.290505  0.356419  1
  O  O103  1  0.585564  0.517930  0.291421  1
  O  O104  1  0.584523  0.988332  0.785995  1
  O  O105  1  0.597226  0.683493  0.390431  1
  O  O106  1  0.601084  0.813207  0.891408  1
  O  O107  1  0.605371  0.411016  0.158616  1
  O  O108  1  0.599545  0.076635  0.661016  1
  O  O109  1  0.610176  0.589431  0.079216  1
  O  O110  1  0.612754  0.910063  0.577826  1
  O  O111  1  0.614842  0.465713  0.456214  1
  O  O112  1  0.614810  0.033099  0.956960  1
  O  O113  1  0.668880  0.145618  0.454175  1
  O  O114  1  0.669608  0.353545  0.953501  1
  O  O115  1  0.680612  0.638561  0.799325  1
  O  O116  1  0.678938  0.851408  0.298877  1
  O  O117  1  0.684499  0.601765  0.586457  1
  O  O118  1  0.684942  0.897855  0.086186  1
  O  O119  1  0.686956  0.110007  0.156313  1
  O  O120  1  0.697438  0.387651  0.656710  1
  O  O121  1  0.805632  0.612597  0.158236  1
  O  O122  1  0.805731  0.884276  0.656933  1
  O  O123  1  0.813465  0.103759  0.591306  1
  O  O124  1  0.816529  0.400323  0.089808  1
  O  O125  1  0.819184  0.146961  0.798228  1
  O  O126  1  0.818397  0.357876  0.298024  1
  O  O127  1  0.829019  0.646754  0.453585  1
  O  O128  1  0.830182  0.853467  0.954972  1
  O  O129  1  0.885897  0.965926  0.455733  1
  O  O130  1  0.885990  0.534505  0.956085  1
  O  O131  1  0.887336  0.093164  0.082007  1
  O  O132  1  0.890624  0.410551  0.580594  1
  O  O133  1  0.894402  0.586570  0.658927  1
  O  O134  1  0.890164  0.914751  0.160333  1
  O  O135  1  0.899643  0.188939  0.390437  1
  O  O136  1  0.900985  0.315076  0.890162  1
  O  O137  1  0.905105  0.016736  0.289643  1
  O  O138  1  0.914140  0.481640  0.791838  1
  O  O139  1  0.914135  0.706688  0.857408  1
  O  O140  1  0.914361  0.792694  0.357068  1
  O  O141  1  0.917130  0.738903  0.258811  1
  O  O142  1  0.917957  0.756403  0.758900  1
  O  O143  1  0.923737  0.235396  0.489362  1
  O  O144  1  0.925602  0.264122  0.988771  1
