# generated using pymatgen
data_Li2Mn3(BO3)3
_symmetry_space_group_name_H-M   'P 1'
_cell_length_a   8.26135162
_cell_length_b   8.57343817
_cell_length_c   6.34770797
_cell_angle_alpha   72.42521306
_cell_angle_beta   91.19952654
_cell_angle_gamma   62.66289501
_symmetry_Int_Tables_number   1
_chemical_formula_structural   Li2Mn3(BO3)3
_chemical_formula_sum   'Li4 Mn6 B6 O18'
_cell_volume   373.92134105
_cell_formula_units_Z   2
loop_
 _symmetry_equiv_pos_site_id
 _symmetry_equiv_pos_as_xyz
  1  'x, y, z'
loop_
 _atom_site_type_symbol
 _atom_site_label
 _atom_site_symmetry_multiplicity
 _atom_site_fract_x
 _atom_site_fract_y
 _atom_site_fract_z
 _atom_site_occupancy
  Li  Li0  1  0.979068  0.723130  0.897856  1
  Li  Li1  1  0.970626  0.724654  0.384816  1
  Li  Li2  1  0.726893  0.297031  0.613097  1
  Li  Li3  1  0.300215  0.982894  0.759091  1
  Mn  Mn4  1  0.370682  0.621806  0.666455  1
  Mn  Mn5  1  0.370764  0.626191  0.164920  1
  Mn  Mn6  1  0.626438  0.026874  0.012897  1
  Mn  Mn7  1  0.624507  0.019054  0.504436  1
  Mn  Mn8  1  0.008907  0.336962  0.313185  1
  Mn  Mn9  1  0.010872  0.369127  0.812037  1
  B  B10  1  0.678971  0.656550  0.420307  1
  B  B11  1  0.660084  0.680300  0.896045  1
  B  B12  1  0.331615  0.343292  0.587402  1
  B  B13  1  0.314686  0.340536  0.077312  1
  B  B14  1  0.003504  0.978997  0.523951  1
  B  B15  1  0.010550  0.999273  0.997792  1
  O  O16  1  0.914606  0.872475  0.580258  1
  O  O17  1  0.914828  0.898835  0.068018  1
  O  O18  1  0.870742  0.531421  0.499999  1
  O  O19  1  0.850355  0.564702  0.971730  1
  O  O20  1  0.624172  0.841780  0.325013  1
  O  O21  1  0.581502  0.873431  0.816319  1
  O  O22  1  0.899074  0.170807  0.438277  1
  O  O23  1  0.909062  0.193503  0.892739  1
  O  O24  1  0.562757  0.578339  0.442226  1
  O  O25  1  0.542658  0.603453  0.902887  1
  O  O26  1  0.196400  0.893177  0.559083  1
  O  O27  1  0.199543  0.905955  0.020160  1
  O  O28  1  0.519914  0.241790  0.676859  1
  O  O29  1  0.494881  0.228051  0.188272  1
  O  O30  1  0.246732  0.530051  0.956553  1
  O  O31  1  0.250394  0.539215  0.475584  1
  O  O32  1  0.221424  0.259273  0.610476  1
  O  O33  1  0.196261  0.263445  0.085762  1
