# generated using pymatgen
data_Li5Fe5Si7O24
_symmetry_space_group_name_H-M   'P 1'
_cell_length_a   7.94578762
_cell_length_b   7.83555007
_cell_length_c   9.27076177
_cell_angle_alpha   90.08235908
_cell_angle_beta   90.02507995
_cell_angle_gamma   89.91203356
_symmetry_Int_Tables_number   1
_chemical_formula_structural   Li5Fe5Si7O24
_chemical_formula_sum   'Li5 Fe5 Si7 O24'
_cell_volume   577.19274303
_cell_formula_units_Z   1
loop_
 _symmetry_equiv_pos_site_id
 _symmetry_equiv_pos_as_xyz
  1  'x, y, z'
loop_
 _atom_site_type_symbol
 _atom_site_label
 _atom_site_symmetry_multiplicity
 _atom_site_fract_x
 _atom_site_fract_y
 _atom_site_fract_z
 _atom_site_occupancy
  Li  Li0  1  0.425272  0.694392  0.254550  1
  Li  Li1  1  0.489210  0.246280  0.741370  1
  Li  Li2  1  0.742199  0.459912  0.726955  1
  Li  Li3  1  0.756460  0.982061  0.041023  1
  Li  Li4  1  0.000018  0.764615  0.000001  1
  Fe  Fe5  1  0.386294  0.823054  0.995043  1
  Fe  Fe6  1  0.567951  0.581720  0.495549  1
  Fe  Fe7  1  0.678404  0.887819  0.738634  1
  Fe  Fe8  1  0.822673  0.374050  0.007058  1
  Fe  Fe9  1  0.939405  0.088513  0.280907  1
  Si  Si10  1  0.089107  0.930783  0.746218  1
  Si  Si11  1  0.120491  0.331815  0.747565  1
  Si  Si12  1  0.150736  0.631162  0.510801  1
  Si  Si13  1  0.347579  0.118794  0.237060  1
  Si  Si14  1  0.414580  0.403116  0.987683  1
  Si  Si15  1  0.620803  0.164986  0.491993  1
  Si  Si16  1  0.868201  0.671790  0.258844  1
  O  O17  1  0.006525  0.624567  0.384772  1
  O  O18  1  0.138108  0.129027  0.703140  1
  O  O19  1  0.133032  0.456047  0.607068  1
  O  O20  1  0.162109  0.148779  0.301811  1
  O  O21  1  0.117566  0.804512  0.607127  1
  O  O22  1  0.193903  0.855511  0.884317  1
  O  O23  1  0.292201  0.368370  0.844331  1
  O  O24  1  0.380104  0.250029  0.101112  1
  O  O25  1  0.340791  0.634410  0.442824  1
  O  O26  1  0.372291  0.921054  0.181742  1
  O  O27  1  0.384910  0.589494  0.060089  1
  O  O28  1  0.491683  0.161518  0.356556  1
  O  O29  1  0.583886  0.905789  0.923331  1
  O  O30  1  0.607923  0.356763  0.566905  1
  O  O31  1  0.557304  0.048882  0.628791  1
  O  O32  1  0.602340  0.382984  0.912334  1
  O  O33  1  0.666755  0.671943  0.658948  1
  O  O34  1  0.676057  0.643338  0.319618  1
  O  O35  1  0.810040  0.113925  0.446980  1
  O  O36  1  0.831801  0.185396  0.118857  1
  O  O37  1  0.898954  0.922546  0.811858  1
  O  O38  1  0.902597  0.565016  0.108409  1
  O  O39  1  0.901616  0.864652  0.194427  1
  O  O40  1  0.945498  0.377115  0.828985  1
