# generated using pymatgen
data_Na3CoO3
_symmetry_space_group_name_H-M   'P 1'
_cell_length_a   8.25605156
_cell_length_b   8.25605156
_cell_length_c   16.34831331
_cell_angle_alpha   90.00000000
_cell_angle_beta   90.00000000
_cell_angle_gamma   83.21846675
_symmetry_Int_Tables_number   1
_chemical_formula_structural   Na3CoO3
_chemical_formula_sum   'Na36 Co12 O36'
_cell_volume   1106.54371774
_cell_formula_units_Z   12
loop_
 _symmetry_equiv_pos_site_id
 _symmetry_equiv_pos_as_xyz
  1  'x, y, z'
loop_
 _atom_site_type_symbol
 _atom_site_label
 _atom_site_symmetry_multiplicity
 _atom_site_fract_x
 _atom_site_fract_y
 _atom_site_fract_z
 _atom_site_occupancy
  Na  Na0  1  0.374039  0.980808  0.568986  1
  Na  Na1  1  0.019192  0.625961  0.431014  1
  Na  Na2  1  0.228916  0.824178  0.086167  1
  Na  Na3  1  0.175822  0.771084  0.913833  1
  Na  Na4  1  0.168169  0.668169  0.250000  1
  Na  Na5  1  0.331831  0.831831  0.750000  1
  Na  Na6  1  0.271084  0.675822  0.586167  1
  Na  Na7  1  0.324178  0.728916  0.413833  1
  Na  Na8  1  0.125961  0.519192  0.068986  1
  Na  Na9  1  0.480808  0.874039  0.931014  1
  Na  Na10  1  0.017031  0.337976  0.314867  1
  Na  Na11  1  0.662024  0.982969  0.685133  1
  Na  Na12  1  0.517031  0.837976  0.185133  1
  Na  Na13  1  0.162024  0.482969  0.814867  1
  Na  Na14  1  0.025042  0.025042  0.219240  1
  Na  Na15  1  0.327253  0.327253  0.218799  1
  Na  Na16  1  0.974958  0.974958  0.780760  1
  Na  Na17  1  0.172747  0.172747  0.718799  1
  Na  Na18  1  0.525042  0.525042  0.280760  1
  Na  Na19  1  0.672747  0.672747  0.781201  1
  Na  Na20  1  0.474958  0.474958  0.719240  1
  Na  Na21  1  0.827253  0.827253  0.281201  1
  Na  Na22  1  0.337976  0.017031  0.314867  1
  Na  Na23  1  0.482969  0.162024  0.814867  1
  Na  Na24  1  0.837976  0.517031  0.185133  1
  Na  Na25  1  0.982969  0.662024  0.685133  1
  Na  Na26  1  0.519192  0.125961  0.068986  1
  Na  Na27  1  0.874039  0.480808  0.931014  1
  Na  Na28  1  0.728916  0.324178  0.413833  1
  Na  Na29  1  0.675822  0.271084  0.586167  1
  Na  Na30  1  0.668169  0.168169  0.250000  1
  Na  Na31  1  0.831831  0.331831  0.750000  1
  Na  Na32  1  0.824178  0.228916  0.086167  1
  Na  Na33  1  0.771084  0.175822  0.913833  1
  Na  Na34  1  0.980808  0.374039  0.568986  1
  Na  Na35  1  0.625961  0.019192  0.431014  1
  Co  Co36  1  0.999784  0.999784  0.413669  1
  Co  Co37  1  0.172104  0.172104  0.092618  1
  Co  Co38  1  0.347931  0.347931  0.419772  1
  Co  Co39  1  0.000216  0.000216  0.586331  1
  Co  Co40  1  0.327896  0.327896  0.592618  1
  Co  Co41  1  0.152069  0.152069  0.919772  1
  Co  Co42  1  0.672104  0.672104  0.407382  1
  Co  Co43  1  0.500216  0.500216  0.913669  1
  Co  Co44  1  0.499784  0.499784  0.086331  1
  Co  Co45  1  0.652069  0.652069  0.580228  1
  Co  Co46  1  0.827896  0.827896  0.907382  1
  Co  Co47  1  0.847931  0.847931  0.080228  1
  O  O48  1  0.116109  0.883891  0.500000  1
  O  O49  1  0.113640  0.871488  0.338805  1
  O  O50  1  0.128512  0.886360  0.661195  1
  O  O51  1  0.554910  0.802482  0.332197  1
  O  O52  1  0.697518  0.945090  0.832197  1
  O  O53  1  0.054910  0.302482  0.167803  1
  O  O54  1  0.197518  0.445090  0.667803  1
  O  O55  1  0.240122  0.480416  0.346351  1
  O  O56  1  0.019584  0.259878  0.846351  1
  O  O57  1  0.519584  0.759878  0.653649  1
  O  O58  1  0.740122  0.980416  0.153649  1
  O  O59  1  0.371488  0.613640  0.161195  1
  O  O60  1  0.386360  0.628512  0.838805  1
  O  O61  1  0.383891  0.616109  0.000000  1
  O  O62  1  0.727837  0.947532  0.994302  1
  O  O63  1  0.552468  0.772163  0.494302  1
  O  O64  1  0.052468  0.272163  0.005698  1
  O  O65  1  0.227837  0.447532  0.505698  1
  O  O66  1  0.772163  0.552468  0.494302  1
  O  O67  1  0.447532  0.227837  0.505698  1
  O  O68  1  0.272163  0.052468  0.005698  1
  O  O69  1  0.947532  0.727837  0.994302  1
  O  O70  1  0.616109  0.383891  0.000000  1
  O  O71  1  0.628512  0.386360  0.838805  1
  O  O72  1  0.613640  0.371488  0.161195  1
  O  O73  1  0.259878  0.019584  0.846351  1
  O  O74  1  0.480416  0.240122  0.346351  1
  O  O75  1  0.980416  0.740122  0.153649  1
  O  O76  1  0.759878  0.519584  0.653649  1
  O  O77  1  0.802482  0.554910  0.332197  1
  O  O78  1  0.302482  0.054910  0.167803  1
  O  O79  1  0.445090  0.197518  0.667803  1
  O  O80  1  0.945090  0.697518  0.832197  1
  O  O81  1  0.871488  0.113640  0.338805  1
  O  O82  1  0.886360  0.128512  0.661195  1
  O  O83  1  0.883891  0.116109  0.500000  1
