# generated using pymatgen
data_Li5(Cu2P3)2
_symmetry_space_group_name_H-M   'P 1'
_cell_length_a   3.86469800
_cell_length_b   7.90338188
_cell_length_c   7.90338188
_cell_angle_alpha   105.59362641
_cell_angle_beta   104.15207511
_cell_angle_gamma   104.15207511
_symmetry_Int_Tables_number   1
_chemical_formula_structural   Li5(Cu2P3)2
_chemical_formula_sum   'Li5 Cu4 P6'
_cell_volume   212.65948569
_cell_formula_units_Z   1
loop_
 _symmetry_equiv_pos_site_id
 _symmetry_equiv_pos_as_xyz
  1  'x, y, z'
loop_
 _atom_site_type_symbol
 _atom_site_label
 _atom_site_symmetry_multiplicity
 _atom_site_fract_x
 _atom_site_fract_y
 _atom_site_fract_z
 _atom_site_occupancy
  Li  Li0  1  0.000000  0.000000  0.000000  1
  Li  Li1  1  0.000001  0.724004  0.275996  1
  Li  Li2  1  0.828805  0.328806  0.328806  1
  Li  Li3  1  0.171195  0.671194  0.671194  1
  Li  Li4  1  0.000001  0.275996  0.724004  1
  Cu  Cu5  1  0.267390  0.440542  0.094239  1
  Cu  Cu6  1  0.267390  0.094239  0.440542  1
  Cu  Cu7  1  0.732610  0.905761  0.559458  1
  Cu  Cu8  1  0.732610  0.559458  0.905761  1
  P  P9  1  0.376028  0.729196  0.022861  1
  P  P10  1  0.623972  0.977140  0.270805  1
  P  P11  1  0.500000  0.586174  0.413827  1
  P  P12  1  0.500000  0.413827  0.586174  1
  P  P13  1  0.376028  0.022861  0.729196  1
  P  P14  1  0.623972  0.270805  0.977140  1
