# generated using pymatgen
data_TlAg3Te2
_symmetry_space_group_name_H-M   'P 1'
_cell_length_a   4.11286732
_cell_length_b   4.37294876
_cell_length_c   8.57015739
_cell_angle_alpha   90.00000000
_cell_angle_beta   103.88375731
_cell_angle_gamma   90.00000000
_symmetry_Int_Tables_number   1
_chemical_formula_structural   TlAg3Te2
_chemical_formula_sum   'Tl1 Ag3 Te2'
_cell_volume   149.63415642
_cell_formula_units_Z   1
loop_
 _symmetry_equiv_pos_site_id
 _symmetry_equiv_pos_as_xyz
  1  'x, y, z'
loop_
 _atom_site_type_symbol
 _atom_site_label
 _atom_site_symmetry_multiplicity
 _atom_site_fract_x
 _atom_site_fract_y
 _atom_site_fract_z
 _atom_site_occupancy
  Ag  Ag0  1  0.314709  0.000000  0.629418  1
  Ag  Ag1  1  0.500000  0.500000  0.000000  1
  Ag  Ag2  1  0.685291  0.000000  0.370582  1
  Te  Te3  1  0.151035  0.500000  0.302071  1
  Te  Te4  1  0.848965  0.500000  0.697929  1
  Tl  Tl5  1  0.000000  0.000000  0.000000  1
