# generated using pymatgen
data_CaSnS3
_symmetry_space_group_name_H-M   'P 1'
_cell_length_a   6.73063769
_cell_length_b   7.06358033
_cell_length_c   9.63491778
_cell_angle_alpha   90.00005095
_cell_angle_beta   90.00008776
_cell_angle_gamma   90.00028938
_symmetry_Int_Tables_number   1
_chemical_formula_structural   CaSnS3
_chemical_formula_sum   'Ca4 Sn4 S12'
_cell_volume   458.06711502
_cell_formula_units_Z   4
loop_
 _symmetry_equiv_pos_site_id
 _symmetry_equiv_pos_as_xyz
  1  'x, y, z'
loop_
 _atom_site_type_symbol
 _atom_site_label
 _atom_site_symmetry_multiplicity
 _atom_site_fract_x
 _atom_site_fract_y
 _atom_site_fract_z
 _atom_site_occupancy
  Ca  Ca0  1  0.468575  0.411956  0.749999  1
  Ca  Ca1  1  0.031432  0.911978  0.750001  1
  Ca  Ca2  1  0.531432  0.588036  0.250002  1
  Ca  Ca3  1  0.968569  0.088029  0.249998  1
  Sn  Sn4  1  0.500000  0.000001  0.500000  1
  Sn  Sn5  1  -0.000000  0.500000  0.000000  1
  Sn  Sn6  1  0.500002  0.000001  -0.000001  1
  Sn  Sn7  1  -0.000001  0.500001  0.500000  1
  S  S8  1  0.633136  0.048379  0.750000  1
  S  S9  1  0.866871  0.548386  0.750001  1
  S  S10  1  0.366859  0.951620  0.250001  1
  S  S11  1  0.133128  0.451611  0.250000  1
  S  S12  1  0.185981  0.191045  0.935075  1
  S  S13  1  0.314022  0.691042  0.564922  1
  S  S14  1  0.814018  0.808956  0.435079  1
  S  S15  1  0.685976  0.308956  0.064919  1
  S  S16  1  0.814021  0.808958  0.064924  1
  S  S17  1  0.685977  0.308956  0.435080  1
  S  S18  1  0.185980  0.191045  0.564922  1
  S  S19  1  0.314022  0.691042  0.935078  1
