# generated using pymatgen
data_LiMnPO4
_symmetry_space_group_name_H-M   'P 1'
_cell_length_a   5.88452916
_cell_length_b   11.01167890
_cell_length_c   10.00689513
_cell_angle_alpha   90.00000000
_cell_angle_beta   91.27279456
_cell_angle_gamma   90.00000000
_symmetry_Int_Tables_number   1
_chemical_formula_structural   LiMnPO4
_chemical_formula_sum   'Li8 Mn8 P8 O32'
_cell_volume   648.27226226
_cell_formula_units_Z   8
loop_
 _symmetry_equiv_pos_site_id
 _symmetry_equiv_pos_as_xyz
  1  'x, y, z'
loop_
 _atom_site_type_symbol
 _atom_site_label
 _atom_site_symmetry_multiplicity
 _atom_site_fract_x
 _atom_site_fract_y
 _atom_site_fract_z
 _atom_site_occupancy
  Li  Li0  1  0.112155  0.843838  0.862227  1
  Li  Li1  1  0.112155  0.656162  0.362227  1
  Li  Li2  1  0.383751  0.347170  0.605064  1
  Li  Li3  1  0.383751  0.152830  0.105064  1
  Li  Li4  1  0.616249  0.847170  0.894936  1
  Li  Li5  1  0.616249  0.652830  0.394936  1
  Li  Li6  1  0.887845  0.343838  0.637773  1
  Li  Li7  1  0.887845  0.156162  0.137773  1
  Mn  Mn8  1  0.150727  0.126057  0.511244  1
  Mn  Mn9  1  0.150727  0.373943  0.011244  1
  Mn  Mn10  1  0.377998  0.595630  0.763809  1
  Mn  Mn11  1  0.377998  0.904370  0.263809  1
  Mn  Mn12  1  0.622002  0.095630  0.736191  1
  Mn  Mn13  1  0.622002  0.404370  0.236191  1
  Mn  Mn14  1  0.849274  0.626057  0.988756  1
  Mn  Mn15  1  0.849274  0.873943  0.488756  1
  P  P16  1  0.129045  0.107897  0.842620  1
  P  P17  1  0.129045  0.392103  0.342620  1
  P  P18  1  0.372730  0.855612  0.595268  1
  P  P19  1  0.372730  0.644388  0.095268  1
  P  P20  1  0.627270  0.355612  0.904732  1
  P  P21  1  0.627270  0.144388  0.404732  1
  P  P22  1  0.870955  0.607897  0.657380  1
  P  P23  1  0.870955  0.892103  0.157380  1
  O  O24  1  0.107330  0.186387  0.972593  1
  O  O25  1  0.079061  0.521276  0.670784  1
  O  O26  1  0.107330  0.313613  0.472593  1
  O  O27  1  0.079061  0.978724  0.170784  1
  O  O28  1  0.144029  0.192285  0.716387  1
  O  O29  1  0.162198  0.938716  0.571378  1
  O  O30  1  0.144029  0.307715  0.216387  1
  O  O31  1  0.162198  0.561284  0.071378  1
  O  O32  1  0.328799  0.777281  0.718926  1
  O  O33  1  0.350820  0.030457  0.857031  1
  O  O34  1  0.328799  0.722719  0.218926  1
  O  O35  1  0.350820  0.469543  0.357031  1
  O  O36  1  0.408974  0.433205  0.875711  1
  O  O37  1  0.415729  0.718251  0.966356  1
  O  O38  1  0.408974  0.066795  0.375711  1
  O  O39  1  0.415729  0.781749  0.466356  1
  O  O40  1  0.584271  0.218251  0.533644  1
  O  O41  1  0.591026  0.933205  0.624289  1
  O  O42  1  0.584271  0.281749  0.033644  1
  O  O43  1  0.591026  0.566795  0.124289  1
  O  O44  1  0.649180  0.530457  0.642969  1
  O  O45  1  0.671201  0.277281  0.781074  1
  O  O46  1  0.649180  0.969543  0.142969  1
  O  O47  1  0.671201  0.222719  0.281074  1
  O  O48  1  0.837802  0.438716  0.928622  1
  O  O49  1  0.855971  0.692285  0.783613  1
  O  O50  1  0.837802  0.061284  0.428622  1
  O  O51  1  0.855971  0.807715  0.283613  1
  O  O52  1  0.920939  0.021276  0.829216  1
  O  O53  1  0.892670  0.686387  0.527407  1
  O  O54  1  0.920939  0.478724  0.329216  1
  O  O55  1  0.892670  0.813613  0.027407  1
