# generated using pymatgen
data_SmH32C8N4Cl7
_symmetry_space_group_name_H-M   'P 1'
_cell_length_a   8.84378960
_cell_length_b   10.55512265
_cell_length_c   13.52336426
_cell_angle_alpha   90.00000000
_cell_angle_beta   90.00000000
_cell_angle_gamma   90.00000000
_symmetry_Int_Tables_number   1
_chemical_formula_structural   SmH32C8N4Cl7
_chemical_formula_sum   'Sm2 H64 C16 N8 Cl14'
_cell_volume   1262.36932312
_cell_formula_units_Z   2
loop_
 _symmetry_equiv_pos_site_id
 _symmetry_equiv_pos_as_xyz
  1  'x, y, z'
loop_
 _atom_site_type_symbol
 _atom_site_label
 _atom_site_symmetry_multiplicity
 _atom_site_fract_x
 _atom_site_fract_y
 _atom_site_fract_z
 _atom_site_occupancy
  Sm  Sm0  1  0.070865  0.500000  0.000000  1
  Sm  Sm1  1  0.929135  0.000000  0.500000  1
  H  H2  1  0.021658  0.226884  0.825245  1
  H  H3  1  0.021658  0.773116  0.174755  1
  H  H4  1  0.978342  0.273116  0.325245  1
  H  H5  1  0.978342  0.726884  0.674755  1
  H  H6  1  0.037374  0.109348  0.743787  1
  H  H7  1  0.037374  0.890652  0.256213  1
  H  H8  1  0.962626  0.390652  0.243787  1
  H  H9  1  0.962626  0.609348  0.756213  1
  H  H10  1  0.457785  0.177711  0.057290  1
  H  H11  1  0.457785  0.822289  0.942710  1
  H  H12  1  0.542215  0.322289  0.557290  1
  H  H13  1  0.542215  0.677711  0.442710  1
  H  H14  1  0.375537  0.321847  0.066062  1
  H  H15  1  0.375537  0.678153  0.933938  1
  H  H16  1  0.624463  0.178153  0.566062  1
  H  H17  1  0.624463  0.821847  0.433938  1
  H  H18  1  0.536231  0.185396  0.227514  1
  H  H19  1  0.536231  0.814604  0.772486  1
  H  H20  1  0.463769  0.314604  0.727514  1
  H  H21  1  0.463769  0.685396  0.272486  1
  H  H22  1  0.336879  0.208410  0.216669  1
  H  H23  1  0.336879  0.791590  0.783331  1
  H  H24  1  0.663121  0.291590  0.716669  1
  H  H25  1  0.663121  0.708410  0.283331  1
  H  H26  1  0.457804  0.341556  0.237643  1
  H  H27  1  0.457804  0.658444  0.762357  1
  H  H28  1  0.542196  0.158444  0.737643  1
  H  H29  1  0.542196  0.841556  0.262357  1
  H  H30  1  0.173803  0.115306  0.944640  1
  H  H31  1  0.173803  0.884694  0.055360  1
  H  H32  1  0.826197  0.384694  0.444640  1
  H  H33  1  0.826197  0.615306  0.555360  1
  H  H34  1  0.270868  0.132447  0.829922  1
  H  H35  1  0.270868  0.867553  0.170078  1
  H  H36  1  0.729132  0.367553  0.329922  1
  H  H37  1  0.729132  0.632447  0.670078  1
  H  H38  1  0.184585  0.984083  0.860700  1
  H  H39  1  0.184585  0.015917  0.139300  1
  H  H40  1  0.815415  0.515917  0.360700  1
  H  H41  1  0.815415  0.484083  0.639300  1
  H  H42  1  0.904724  0.966530  0.857483  1
  H  H43  1  0.904724  0.033470  0.142517  1
  H  H44  1  0.095276  0.533470  0.357483  1
  H  H45  1  0.095276  0.466530  0.642517  1
  H  H46  1  0.795316  0.098691  0.816384  1
  H  H47  1  0.795316  0.901309  0.183616  1
  H  H48  1  0.204684  0.401309  0.316384  1
  H  H49  1  0.204684  0.598691  0.683616  1
  H  H50  1  0.877993  0.100706  0.936890  1
  H  H51  1  0.877993  0.899294  0.063110  1
  H  H52  1  0.122007  0.399294  0.436890  1
  H  H53  1  0.122007  0.600706  0.563110  1
  H  H54  1  0.616166  0.422216  0.095440  1
  H  H55  1  0.616166  0.577784  0.904560  1
  H  H56  1  0.383834  0.077784  0.595440  1
  H  H57  1  0.383834  0.922216  0.404560  1
  H  H58  1  0.613116  0.335858  0.981784  1
  H  H59  1  0.613116  0.664142  0.018216  1
  H  H60  1  0.386884  0.164142  0.481784  1
  H  H61  1  0.386884  0.835858  0.518216  1
  H  H62  1  0.703401  0.269358  0.087840  1
  H  H63  1  0.703401  0.730642  0.912160  1
  H  H64  1  0.296599  0.230642  0.587840  1
  H  H65  1  0.296599  0.769358  0.412160  1
  C  C66  1  0.448066  0.249624  0.201012  1
  C  C67  1  0.448066  0.750376  0.798988  1
  C  C68  1  0.551934  0.250376  0.701012  1
  C  C69  1  0.551934  0.749624  0.298988  1
  C  C70  1  0.175501  0.086566  0.867105  1
  C  C71  1  0.175501  0.913434  0.132895  1
  C  C72  1  0.824499  0.413434  0.367105  1
  C  C73  1  0.824499  0.586566  0.632895  1
  C  C74  1  0.892875  0.069219  0.860599  1
  C  C75  1  0.892875  0.930781  0.139401  1
  C  C76  1  0.107125  0.430781  0.360599  1
  C  C77  1  0.107125  0.569219  0.639401  1
  C  C78  1  0.609203  0.327997  0.062534  1
  C  C79  1  0.609203  0.672003  0.937466  1
  C  C80  1  0.390797  0.172003  0.562534  1
  C  C81  1  0.390797  0.827997  0.437466  1
  N  N82  1  0.032254  0.129225  0.819041  1
  N  N83  1  0.032254  0.870775  0.180959  1
  N  N84  1  0.967746  0.370775  0.319041  1
  N  N85  1  0.967746  0.629225  0.680959  1
  N  N86  1  0.464042  0.267540  0.092265  1
  N  N87  1  0.464042  0.732460  0.907735  1
  N  N88  1  0.535958  0.232460  0.592265  1
  N  N89  1  0.535958  0.767540  0.407735  1
  Cl  Cl90  1  0.061539  0.269827  0.092880  1
  Cl  Cl91  1  0.061539  0.730173  0.907120  1
  Cl  Cl92  1  0.938461  0.230173  0.592880  1
  Cl  Cl93  1  0.938461  0.769827  0.407120  1
  Cl  Cl94  1  0.873566  0.414172  0.858879  1
  Cl  Cl95  1  0.873566  0.585828  0.141121  1
  Cl  Cl96  1  0.126434  0.085828  0.358879  1
  Cl  Cl97  1  0.126434  0.914172  0.641121  1
  Cl  Cl98  1  0.299203  0.578999  0.120122  1
  Cl  Cl99  1  0.299203  0.421001  0.879878  1
  Cl  Cl100  1  0.700797  0.921001  0.620122  1
  Cl  Cl101  1  0.700797  0.078999  0.379878  1
  Cl  Cl102  1  0.518071  0.000000  0.000000  1
  Cl  Cl103  1  0.481929  0.500000  0.500000  1
