# generated using pymatgen
data_Mn6O7F5
_symmetry_space_group_name_H-M   'P 1'
_cell_length_a   4.67392691
_cell_length_b   5.69043474
_cell_length_c   15.19510299
_cell_angle_alpha   90.26996798
_cell_angle_beta   90.13499667
_cell_angle_gamma   85.61255721
_symmetry_Int_Tables_number   1
_chemical_formula_structural   Mn6O7F5
_chemical_formula_sum   'Mn12 O14 F10'
_cell_volume   402.94963836
_cell_formula_units_Z   2
loop_
 _symmetry_equiv_pos_site_id
 _symmetry_equiv_pos_as_xyz
  1  'x, y, z'
loop_
 _atom_site_type_symbol
 _atom_site_label
 _atom_site_symmetry_multiplicity
 _atom_site_fract_x
 _atom_site_fract_y
 _atom_site_fract_z
 _atom_site_occupancy
  Mn  Mn0  1  0.018043  0.168905  0.421718  1
  Mn  Mn1  1  0.025802  0.853586  0.245212  1
  Mn  Mn2  1  0.986649  0.149289  0.083606  1
  Mn  Mn3  1  0.019866  0.168467  0.747670  1
  Mn  Mn4  1  0.021212  0.841971  0.583179  1
  Mn  Mn5  1  0.033237  0.855831  0.912232  1
  Mn  Mn6  1  0.468301  0.342391  0.590376  1
  Mn  Mn7  1  0.467353  0.341586  0.923456  1
  Mn  Mn8  1  0.532850  0.351807  0.255366  1
  Mn  Mn9  1  0.482114  0.648828  0.078395  1
  Mn  Mn10  1  0.477871  0.639996  0.416294  1
  Mn  Mn11  1  0.487040  0.631014  0.751910  1
  O  O12  1  0.210939  0.111085  0.638288  1
  O  O13  1  0.206028  0.108791  0.972289  1
  O  O14  1  0.228784  0.884780  0.134937  1
  O  O15  1  0.224709  0.887119  0.473336  1
  O  O16  1  0.236728  0.888156  0.805436  1
  O  O17  1  0.284318  0.613889  0.304472  1
  O  O18  1  0.272152  0.391729  0.480291  1
  O  O19  1  0.269567  0.608303  0.645427  1
  O  O20  1  0.285039  0.396507  0.811126  1
  O  O21  1  0.259548  0.615471  0.972611  1
  O  O22  1  0.704561  0.377234  0.026581  1
  O  O23  1  0.739724  0.395954  0.364233  1
  O  O24  1  0.717552  0.378271  0.693381  1
  O  O25  1  0.782743  0.114905  0.194762  1
  F  F26  1  0.256492  0.113501  0.309797  1
  F  F27  1  0.274266  0.380495  0.149943  1
  F  F28  1  0.735695  0.621567  0.182955  1
  F  F29  1  0.729851  0.622828  0.525983  1
  F  F30  1  0.747800  0.629721  0.856871  1
  F  F31  1  0.741687  0.113250  0.531018  1
  F  F32  1  0.784879  0.891894  0.356881  1
  F  F33  1  0.765043  0.873668  0.011475  1
  F  F34  1  0.766099  0.124868  0.856674  1
  F  F35  1  0.755456  0.862345  0.691816  1
