# generated using pymatgen
data_Mn3VNi2(PO4)6
_symmetry_space_group_name_H-M   'P 1'
_cell_length_a   8.47032864
_cell_length_b   8.58563139
_cell_length_c   8.58563181
_cell_angle_alpha   60.00000087
_cell_angle_beta   59.54867004
_cell_angle_gamma   59.54866628
_symmetry_Int_Tables_number   1
_chemical_formula_structural   Mn3VNi2(PO4)6
_chemical_formula_sum   'Mn3 V1 Ni2 P6 O24'
_cell_volume   438.46317801
_cell_formula_units_Z   1
loop_
 _symmetry_equiv_pos_site_id
 _symmetry_equiv_pos_as_xyz
  1  'x, y, z'
loop_
 _atom_site_type_symbol
 _atom_site_label
 _atom_site_symmetry_multiplicity
 _atom_site_fract_x
 _atom_site_fract_y
 _atom_site_fract_z
 _atom_site_occupancy
  Mn  Mn0  1  0.074428  0.641857  0.641857  1
  Mn  Mn1  1  0.427572  0.857476  0.857476  1
  Mn  Mn2  1  0.927046  0.357652  0.357652  1
  V  V3  1  0.573119  0.142294  0.142294  1
  Ni  Ni4  1  0.000119  0.999960  0.999960  1
  Ni  Ni5  1  0.501831  0.499390  0.499390  1
  P  P6  1  0.250034  0.249087  0.544062  1
  P  P7  1  0.250034  0.956817  0.249087  1
  P  P8  1  0.250034  0.544062  0.956817  1
  P  P9  1  0.749806  0.457986  0.043241  1
  P  P10  1  0.749806  0.043241  0.748966  1
  P  P11  1  0.749806  0.748966  0.457986  1
  O  O12  1  0.062828  0.114932  0.310272  1
  O  O13  1  0.062828  0.511968  0.114932  1
  O  O14  1  0.062828  0.310272  0.511968  1
  O  O15  1  0.228598  0.086521  0.742442  1
  O  O16  1  0.434126  0.180796  0.383482  1
  O  O17  1  0.279935  0.409386  0.551590  1
  O  O18  1  0.228598  0.942439  0.086521  1
  O  O19  1  0.279935  0.759089  0.409386  1
  O  O20  1  0.562924  0.617210  0.009547  1
  O  O21  1  0.279935  0.551590  0.759089  1
  O  O22  1  0.767090  0.258234  0.060963  1
  O  O23  1  0.562924  0.009547  0.810318  1
  O  O24  1  0.434126  0.001595  0.180796  1
  O  O25  1  0.228598  0.742442  0.942439  1
  O  O26  1  0.725678  0.441178  0.243403  1
  O  O27  1  0.434126  0.383482  0.001595  1
  O  O28  1  0.725678  0.243403  0.589741  1
  O  O29  1  0.767090  0.060963  0.913713  1
  O  O30  1  0.725678  0.589741  0.441178  1
  O  O31  1  0.562924  0.810318  0.617210  1
  O  O32  1  0.767090  0.913713  0.258234  1
  O  O33  1  0.937610  0.688570  0.487891  1
  O  O34  1  0.937610  0.487891  0.885929  1
  O  O35  1  0.937610  0.885929  0.688570  1
