# generated using pymatgen
data_FeOF
_symmetry_space_group_name_H-M   'P 1'
_cell_length_a   4.75922549
_cell_length_b   14.30328871
_cell_length_c   3.09064058
_cell_angle_alpha   90.00000000
_cell_angle_beta   90.00000000
_cell_angle_gamma   92.14168332
_symmetry_Int_Tables_number   1
_chemical_formula_structural   FeOF
_chemical_formula_sum   'Fe6 O6 F6'
_cell_volume   210.24090439
_cell_formula_units_Z   6
loop_
 _symmetry_equiv_pos_site_id
 _symmetry_equiv_pos_as_xyz
  1  'x, y, z'
loop_
 _atom_site_type_symbol
 _atom_site_label
 _atom_site_symmetry_multiplicity
 _atom_site_fract_x
 _atom_site_fract_y
 _atom_site_fract_z
 _atom_site_occupancy
  Fe  Fe0  1  0.063099  0.000351  0.000000  1
  Fe  Fe1  1  0.983064  0.331827  0.000000  1
  Fe  Fe2  1  0.032509  0.665313  0.000000  1
  Fe  Fe3  1  0.518916  0.165150  0.500000  1
  Fe  Fe4  1  0.433957  0.498213  0.500000  1
  Fe  Fe5  1  0.464908  0.833991  0.500000  1
  O  O6  1  0.181132  0.600576  0.500000  1
  O  O7  1  0.211207  0.936463  0.500000  1
  O  O8  1  0.323030  0.106082  0.000000  1
  O  O9  1  0.307770  0.769072  0.000000  1
  O  O10  1  0.284170  0.430159  0.000000  1
  O  O11  1  0.703369  0.235747  0.000000  1
  F  F12  1  0.186226  0.270209  0.500000  1
  F  F13  1  0.680516  0.563593  0.000000  1
  F  F14  1  0.708931  0.898751  0.000000  1
  F  F15  1  0.822777  0.062626  0.500000  1
  F  F16  1  0.791022  0.401661  0.500000  1
  F  F17  1  0.803397  0.730215  0.500000  1
