# generated using pymatgen
data_Mg2PbO4
_symmetry_space_group_name_H-M   'P 1'
_cell_length_a   5.36328947
_cell_length_b   9.77307149
_cell_length_c   3.18650334
_cell_angle_alpha   90.00128631
_cell_angle_beta   90.00506799
_cell_angle_gamma   89.99259824
_symmetry_Int_Tables_number   1
_chemical_formula_structural   Mg2PbO4
_chemical_formula_sum   'Mg4 Pb2 O8'
_cell_volume   167.02315612
_cell_formula_units_Z   2
loop_
 _symmetry_equiv_pos_site_id
 _symmetry_equiv_pos_as_xyz
  1  'x, y, z'
loop_
 _atom_site_type_symbol
 _atom_site_label
 _atom_site_symmetry_multiplicity
 _atom_site_fract_x
 _atom_site_fract_y
 _atom_site_fract_z
 _atom_site_occupancy
  Mg  Mg0  1  0.054195  0.317238  0.500019  1
  Mg  Mg1  1  0.445793  0.817203  0.500047  1
  Mg  Mg2  1  0.554199  0.182805  0.500033  1
  Mg  Mg3  1  0.945837  0.682792  0.500023  1
  Pb  Pb4  1  0.000017  0.000015  0.000125  1
  Pb  Pb5  1  0.499955  0.500060  0.999864  1
  O  O6  1  0.173894  0.796703  0.000019  1
  O  O7  1  0.265163  0.047476  0.500239  1
  O  O8  1  0.234837  0.547468  0.499858  1
  O  O9  1  0.326097  0.296745  0.000151  1
  O  O10  1  0.673962  0.703247  0.000052  1
  O  O11  1  0.765003  0.452521  0.499852  1
  O  O12  1  0.734980  0.952443  0.499980  1
  O  O13  1  0.826068  0.203284  0.999739  1
