# generated using pymatgen
data_Li3Mn2(PO4)3
_symmetry_space_group_name_H-M   'P 1'
_cell_length_a   9.89590485
_cell_length_b   9.74116319
_cell_length_c   9.74116336
_cell_angle_alpha   88.98325890
_cell_angle_beta   85.16108915
_cell_angle_gamma   85.16109025
_symmetry_Int_Tables_number   1
_chemical_formula_structural   Li3Mn2(PO4)3
_chemical_formula_sum   'Li12 Mn8 P12 O48'
_cell_volume   932.28976811
_cell_formula_units_Z   4
loop_
 _symmetry_equiv_pos_site_id
 _symmetry_equiv_pos_as_xyz
  1  'x, y, z'
loop_
 _atom_site_type_symbol
 _atom_site_label
 _atom_site_symmetry_multiplicity
 _atom_site_fract_x
 _atom_site_fract_y
 _atom_site_fract_z
 _atom_site_occupancy
  Li  Li0  1  0.164159  0.031997  0.710180  1
  Li  Li1  1  0.272905  0.809981  0.994213  1
  Li  Li2  1  0.335841  0.789820  0.468003  1
  Li  Li3  1  0.227095  0.505787  0.690019  1
  Li  Li4  1  0.007226  0.037360  0.971854  1
  Li  Li5  1  0.492774  0.528146  0.462640  1
  Li  Li6  1  0.496132  0.345470  0.755429  1
  Li  Li7  1  0.003868  0.744571  0.154530  1
  Li  Li8  1  0.753088  0.511821  0.305106  1
  Li  Li9  1  0.662644  0.230668  0.499963  1
  Li  Li10  1  0.746912  0.194894  0.988179  1
  Li  Li11  1  0.837356  0.000037  0.269332  1
  Mn  Mn12  1  0.528110  0.967178  0.741328  1
  Mn  Mn13  1  0.027250  0.245129  0.473845  1
  Mn  Mn14  1  0.250000  0.469204  0.030796  1
  Mn  Mn15  1  0.250000  0.257392  0.242608  1
  Mn  Mn16  1  0.750000  0.740393  0.759607  1
  Mn  Mn17  1  0.971890  0.758672  0.532822  1
  Mn  Mn18  1  0.750000  0.528551  0.971449  1
  Mn  Mn19  1  0.472750  0.026155  0.254871  1
  P  P20  1  0.154558  0.953454  0.333154  1
  P  P21  1  0.050797  0.675003  0.846573  1
  P  P22  1  0.181748  0.557707  0.343859  1
  P  P23  1  0.449203  0.653427  0.824997  1
  P  P24  1  0.658715  0.821785  0.452262  1
  P  P25  1  0.684828  0.838689  0.058774  1
  P  P26  1  0.318252  0.156141  0.942293  1
  P  P27  1  0.345442  0.166846  0.546546  1
  P  P28  1  0.551963  0.336777  0.179437  1
  P  P29  1  0.815172  0.441226  0.661311  1
  P  P30  1  0.948037  0.320563  0.163223  1
  P  P31  1  0.841285  0.047738  0.678215  1
  O  O32  1  0.069229  0.904496  0.224618  1
  O  O33  1  0.123277  0.894134  0.479902  1
  O  O34  1  0.090681  0.793444  0.931713  1
  O  O35  1  0.085873  0.688079  0.687190  1
  O  O36  1  0.310716  0.915872  0.300494  1
  O  O37  1  0.039065  0.623484  0.397696  1
  O  O38  1  0.125242  0.534310  0.882231  1
  O  O39  1  0.414127  0.812810  0.811921  1
  O  O40  1  0.183526  0.592633  0.184264  1
  O  O41  1  0.618113  0.965229  0.390583  1
  O  O42  1  0.541434  0.896892  0.118382  1
  O  O43  1  0.297179  0.605867  0.418419  1
  O  O44  1  0.374758  0.617769  0.965690  1
  O  O45  1  0.105466  0.329439  0.121058  1
  O  O46  1  0.179326  0.397148  0.370695  1
  O  O47  1  0.680404  0.868349  0.897931  1
  O  O48  1  0.624400  0.831990  0.616352  1
  O  O49  1  0.409319  0.568287  0.706556  1
  O  O50  1  0.582762  0.703224  0.408866  1
  O  O51  1  0.803649  0.906996  0.108017  1
  O  O52  1  0.606627  0.618793  0.836356  1
  O  O53  1  0.875600  0.883648  0.668010  1
  O  O54  1  0.316474  0.315736  0.907367  1
  O  O55  1  0.189284  0.199506  0.584128  1
  O  O56  1  0.816411  0.799974  0.416474  1
  O  O57  1  0.694822  0.680422  0.093417  1
  O  O58  1  0.121735  0.116857  0.337102  1
  O  O59  1  0.394534  0.378942  0.170561  1
  O  O60  1  0.202821  0.081581  0.894133  1
  O  O61  1  0.430771  0.275382  0.595504  1
  O  O62  1  0.596775  0.401360  0.308255  1
  O  O63  1  0.320674  0.129305  0.102852  1
  O  O64  1  0.378265  0.162898  0.383143  1
  O  O65  1  0.819596  0.602069  0.631651  1
  O  O66  1  0.893373  0.663644  0.881207  1
  O  O67  1  0.624969  0.380118  0.040420  1
  O  O68  1  0.696351  0.391983  0.593004  1
  O  O69  1  0.376723  0.020098  0.605866  1
  O  O70  1  0.460935  0.102304  0.876516  1
  O  O71  1  0.805178  0.406583  0.819578  1
  O  O72  1  0.584575  0.176404  0.180921  1
  O  O73  1  0.875031  0.459580  0.119882  1
  O  O74  1  0.958566  0.381618  0.603108  1
  O  O75  1  0.683589  0.083526  0.700026  1
  O  O76  1  0.915425  0.319079  0.323596  1
  O  O77  1  0.903225  0.191745  0.098640  1
  O  O78  1  0.881887  0.109417  0.534771  1
  O  O79  1  0.917238  0.091134  0.796776  1
