# generated using pymatgen
data_Cs2Mn(PSe3)2
_symmetry_space_group_name_H-M   'P 1'
_cell_length_a   6.53897811
_cell_length_b   13.28770449
_cell_length_c   8.23091911
_cell_angle_alpha   90.00020983
_cell_angle_beta   93.20609058
_cell_angle_gamma   90.00012402
_symmetry_Int_Tables_number   1
_chemical_formula_structural   Cs2Mn(PSe3)2
_chemical_formula_sum   'Cs4 Mn2 P4 Se12'
_cell_volume   714.04880768
_cell_formula_units_Z   2
loop_
 _symmetry_equiv_pos_site_id
 _symmetry_equiv_pos_as_xyz
  1  'x, y, z'
loop_
 _atom_site_type_symbol
 _atom_site_label
 _atom_site_symmetry_multiplicity
 _atom_site_fract_x
 _atom_site_fract_y
 _atom_site_fract_z
 _atom_site_occupancy
  Cs  Cs0  1  0.746808  0.670424  0.524085  1
  Cs  Cs1  1  0.753194  0.170426  0.975917  1
  Cs  Cs2  1  0.253193  0.329576  0.475916  1
  Cs  Cs3  1  0.246808  0.829575  0.024084  1
  Mn  Mn4  1  0.000000  0.000000  0.499999  1
  Mn  Mn5  1  0.499999  0.500000  0.000001  1
  P  P6  1  0.543783  0.039066  0.383566  1
  P  P7  1  0.956217  0.539067  0.116434  1
  P  P8  1  0.456218  0.960934  0.616433  1
  P  P9  1  0.043782  0.460934  0.883565  1
  Se  Se10  1  0.740866  0.166839  0.464375  1
  Se  Se11  1  0.759135  0.666840  0.035625  1
  Se  Se12  1  0.259133  0.833161  0.535625  1
  Se  Se13  1  0.240865  0.333160  0.964374  1
  Se  Se14  1  0.733082  0.927264  0.258944  1
  Se  Se15  1  0.766923  0.427263  0.241059  1
  Se  Se16  1  0.266919  0.072736  0.741056  1
  Se  Se17  1  0.233078  0.572737  0.758942  1
  Se  Se18  1  0.247024  0.077574  0.261036  1
  Se  Se19  1  0.252975  0.577575  0.238966  1
  Se  Se20  1  0.752977  0.922426  0.738963  1
  Se  Se21  1  0.747025  0.422426  0.761033  1
