# generated using pymatgen
data_Mn12O7F17
_symmetry_space_group_name_H-M   'P 1'
_cell_length_a   4.81562881
_cell_length_b   5.78655506
_cell_length_c   15.90945732
_cell_angle_alpha   90.79702708
_cell_angle_beta   91.22760144
_cell_angle_gamma   86.24775308
_symmetry_Int_Tables_number   1
_chemical_formula_structural   Mn12O7F17
_chemical_formula_sum   'Mn12 O7 F17'
_cell_volume   442.24472253
_cell_formula_units_Z   1
loop_
 _symmetry_equiv_pos_site_id
 _symmetry_equiv_pos_as_xyz
  1  'x, y, z'
loop_
 _atom_site_type_symbol
 _atom_site_label
 _atom_site_symmetry_multiplicity
 _atom_site_fract_x
 _atom_site_fract_y
 _atom_site_fract_z
 _atom_site_occupancy
  Mn  Mn0  1  0.994498  0.148761  0.417565  1
  Mn  Mn1  1  0.018982  0.835534  0.238083  1
  Mn  Mn2  1  0.995665  0.155033  0.078841  1
  Mn  Mn3  1  0.046624  0.157882  0.755098  1
  Mn  Mn4  1  0.037910  0.839242  0.580901  1
  Mn  Mn5  1  0.997036  0.834392  0.908382  1
  Mn  Mn6  1  0.502059  0.352637  0.587038  1
  Mn  Mn7  1  0.495462  0.340726  0.919461  1
  Mn  Mn8  1  0.513708  0.331422  0.260185  1
  Mn  Mn9  1  0.494555  0.652032  0.083125  1
  Mn  Mn10  1  0.505202  0.657529  0.419465  1
  Mn  Mn11  1  0.454986  0.646954  0.751703  1
  O  O12  1  0.228026  0.886268  0.128675  1
  O  O13  1  0.223691  0.882946  0.469665  1
  O  O14  1  0.231054  0.888352  0.804259  1
  O  O15  1  0.290065  0.620829  0.643460  1
  O  O16  1  0.278265  0.373694  0.813264  1
  O  O17  1  0.706715  0.382964  0.027148  1
  O  O18  1  0.723783  0.383830  0.370637  1
  F  F19  1  0.214967  0.114943  0.306544  1
  F  F20  1  0.247801  0.122625  0.637761  1
  F  F21  1  0.217779  0.117064  0.971089  1
  F  F22  1  0.259174  0.390600  0.147032  1
  F  F23  1  0.273195  0.617664  0.312089  1
  F  F24  1  0.254255  0.385457  0.475189  1
  F  F25  1  0.258676  0.605755  0.975228  1
  F  F26  1  0.715870  0.612146  0.193552  1
  F  F27  1  0.730644  0.614997  0.528485  1
  F  F28  1  0.701823  0.619263  0.856386  1
  F  F29  1  0.758668  0.395228  0.702362  1
  F  F30  1  0.768779  0.118070  0.185862  1
  F  F31  1  0.773192  0.108422  0.529146  1
  F  F32  1  0.762274  0.890810  0.352284  1
  F  F33  1  0.752861  0.878121  0.019736  1
  F  F34  1  0.762954  0.123089  0.860693  1
  F  F35  1  0.808800  0.914722  0.689606  1
