# generated using pymatgen
data_KB6(HO)6
_symmetry_space_group_name_H-M   'P 1'
_cell_length_a   7.98054680
_cell_length_b   10.98397483
_cell_length_c   10.07218205
_cell_angle_alpha   90.00000000
_cell_angle_beta   94.09536875
_cell_angle_gamma   90.00000000
_symmetry_Int_Tables_number   1
_chemical_formula_structural   KB6(HO)6
_chemical_formula_sum   'K4 B24 H24 O24'
_cell_volume   880.65413976
_cell_formula_units_Z   4
loop_
 _symmetry_equiv_pos_site_id
 _symmetry_equiv_pos_as_xyz
  1  'x, y, z'
loop_
 _atom_site_type_symbol
 _atom_site_label
 _atom_site_symmetry_multiplicity
 _atom_site_fract_x
 _atom_site_fract_y
 _atom_site_fract_z
 _atom_site_occupancy
  K  K0  1  0.742499  0.044085  0.014181  1
  K  K1  1  0.242499  0.455915  0.514181  1
  K  K2  1  0.257501  0.955915  0.985819  1
  K  K3  1  0.757501  0.544085  0.485819  1
  B  B4  1  0.881155  0.111399  0.338626  1
  B  B5  1  0.381155  0.388601  0.838626  1
  B  B6  1  0.118845  0.888601  0.661374  1
  B  B7  1  0.618845  0.611399  0.161374  1
  B  B8  1  0.029356  0.048764  0.435139  1
  B  B9  1  0.529356  0.451236  0.935139  1
  B  B10  1  0.970644  0.951236  0.564861  1
  B  B11  1  0.470644  0.548764  0.064861  1
  B  B12  1  0.859564  0.249202  0.591803  1
  B  B13  1  0.359564  0.250798  0.091803  1
  B  B14  1  0.140436  0.750798  0.408197  1
  B  B15  1  0.640436  0.749202  0.908197  1
  B  B16  1  0.861243  0.087043  0.551794  1
  B  B17  1  0.361243  0.412957  0.051794  1
  B  B18  1  0.138757  0.912957  0.448206  1
  B  B19  1  0.638757  0.587043  0.948206  1
  B  B20  1  0.826807  0.852268  0.497675  1
  B  B21  1  0.326807  0.647732  -0.002325  1
  B  B22  1  0.173193  0.147732  0.502325  1
  B  B23  1  0.673193  0.352268  0.002325  1
  B  B24  1  0.995593  0.909398  0.301189  1
  B  B25  1  0.495593  0.590602  0.801189  1
  B  B26  1  0.004407  0.090602  0.698811  1
  B  B27  1  0.504407  0.409398  0.198811  1
  H  H28  1  0.304710  0.638136  0.330008  1
  H  H29  1  0.804710  0.861864  0.830008  1
  H  H30  1  0.695290  0.361864  0.669992  1
  H  H31  1  0.195290  0.138136  0.169992  1
  H  H32  1  0.042321  0.371810  0.215774  1
  H  H33  1  0.542321  0.128190  0.715774  1
  H  H34  1  0.957679  0.628190  0.784226  1
  H  H35  1  0.457679  0.871810  0.284226  1
  H  H36  1  0.723095  0.282165  0.198789  1
  H  H37  1  0.223095  0.217835  0.698789  1
  H  H38  1  0.276905  0.717835  0.801211  1
  H  H39  1  0.776905  0.782165  0.301211  1
  H  H40  1  0.018921  0.582632  0.760166  1
  H  H41  1  0.518921  0.917368  0.260166  1
  H  H42  1  -0.018921  0.417368  0.239834  1
  H  H43  1  0.481079  0.082632  0.739834  1
  H  H44  1  0.285200  0.934362  0.477179  1
  H  H45  1  0.785200  0.565638  0.977179  1
  H  H46  1  0.714800  0.065638  0.522821  1
  H  H47  1  0.214800  0.434362  0.022821  1
  H  H48  1  0.212456  0.719108  0.146326  1
  H  H49  1  0.712456  0.780892  0.646326  1
  H  H50  1  0.787544  0.280892  0.853674  1
  H  H51  1  0.287544  0.219108  0.353674  1
  O  O52  1  0.712676  0.661691  0.247295  1
  O  O53  1  0.212676  0.838309  0.747295  1
  O  O54  1  0.287324  0.338309  0.752705  1
  O  O55  1  0.787324  0.161691  0.252705  1
  O  O56  1  0.019064  0.922931  0.176724  1
  O  O57  1  0.519064  0.577069  0.676724  1
  O  O58  1  0.980936  0.077069  0.823276  1
  O  O59  1  0.480936  0.422931  0.323276  1
  O  O60  1  0.940496  0.324163  0.519573  1
  O  O61  1  0.440496  0.175837  0.019573  1
  O  O62  1  0.059504  0.675837  0.480427  1
  O  O63  1  0.559504  0.824163  -0.019573  1
  O  O64  1  0.260643  0.720400  0.315599  1
  O  O65  1  0.760643  0.779600  0.815599  1
  O  O66  1  0.739357  0.279600  0.684401  1
  O  O67  1  0.239357  0.220400  0.184401  1
  O  O68  1  0.705940  0.784626  0.546975  1
  O  O69  1  0.205940  0.715374  0.046975  1
  O  O70  1  0.294060  0.215374  0.453025  1
  O  O71  1  0.794060  0.284626  0.953025  1
  O  O72  1  0.828902  0.855809  0.354355  1
  O  O73  1  0.328902  0.644191  0.854355  1
  O  O74  1  0.171098  0.144191  0.645645  1
  O  O75  1  0.671098  0.355809  0.145645  1
