# generated using pymatgen
data_LiNi4(PO4)3
_symmetry_space_group_name_H-M   'P 1'
_cell_length_a   6.13742939
_cell_length_b   16.16092949
_cell_length_c   9.53058671
_cell_angle_alpha   90.00000000
_cell_angle_beta   90.00000000
_cell_angle_gamma   90.00000000
_symmetry_Int_Tables_number   1
_chemical_formula_structural   LiNi4(PO4)3
_chemical_formula_sum   'Li4 Ni16 P12 O48'
_cell_volume   945.30614506
_cell_formula_units_Z   4
loop_
 _symmetry_equiv_pos_site_id
 _symmetry_equiv_pos_as_xyz
  1  'x, y, z'
loop_
 _atom_site_type_symbol
 _atom_site_label
 _atom_site_symmetry_multiplicity
 _atom_site_fract_x
 _atom_site_fract_y
 _atom_site_fract_z
 _atom_site_occupancy
  Li  Li0  1  0.000000  0.452349  0.248934  1
  Li  Li1  1  0.000000  0.547651  0.751066  1
  Li  Li2  1  0.500000  0.952349  0.251066  1
  Li  Li3  1  0.500000  0.047651  0.748934  1
  Ni  Ni4  1  0.000000  0.092086  0.538910  1
  Ni  Ni5  1  0.000000  0.140731  0.993332  1
  Ni  Ni6  1  0.000000  0.859269  0.006668  1
  Ni  Ni7  1  0.000000  0.907914  0.461090  1
  Ni  Ni8  1  0.248686  0.299018  0.754711  1
  Ni  Ni9  1  0.248686  0.700982  0.245289  1
  Ni  Ni10  1  0.251314  0.200982  0.254711  1
  Ni  Ni11  1  0.251314  0.799018  0.745289  1
  Ni  Ni12  1  0.500000  0.592086  0.961090  1
  Ni  Ni13  1  0.500000  0.640731  0.506668  1
  Ni  Ni14  1  0.500000  0.407914  0.038910  1
  Ni  Ni15  1  0.500000  0.359269  0.493332  1
  Ni  Ni16  1  0.748686  0.799018  0.745289  1
  Ni  Ni17  1  0.748686  0.200982  0.254711  1
  Ni  Ni18  1  0.751314  0.299018  0.754711  1
  Ni  Ni19  1  0.751314  0.700982  0.245289  1
  P  P20  1  0.000000  0.033694  0.207863  1
  P  P21  1  0.000000  0.339639  0.050106  1
  P  P22  1  0.000000  0.282170  0.456656  1
  P  P23  1  0.000000  0.717830  0.543344  1
  P  P24  1  0.000000  0.660361  0.949894  1
  P  P25  1  0.000000  0.966306  0.792137  1
  P  P26  1  0.500000  0.217830  0.956656  1
  P  P27  1  0.500000  0.533694  0.292137  1
  P  P28  1  0.500000  0.160361  0.550106  1
  P  P29  1  0.500000  0.466306  0.707863  1
  P  P30  1  0.500000  0.782170  0.043344  1
  P  P31  1  0.500000  0.839639  0.449894  1
  O  O32  1  0.000000  0.020257  0.369199  1
  O  O33  1  0.000000  0.248436  0.118168  1
  O  O34  1  0.000000  0.188903  0.398457  1
  O  O35  1  0.000000  0.050109  0.859810  1
  O  O36  1  0.000000  0.277615  0.619056  1
  O  O37  1  0.000000  0.669262  0.112370  1
  O  O38  1  0.000000  0.330738  0.887630  1
  O  O39  1  0.000000  0.722385  0.380944  1
  O  O40  1  0.000000  0.949891  0.140190  1
  O  O41  1  0.000000  0.811097  0.601543  1
  O  O42  1  0.000000  0.751564  0.881832  1
  O  O43  1  0.000000  0.979743  0.630801  1
  O  O44  1  0.202872  0.087313  0.162575  1
  O  O45  1  0.202872  0.912687  0.837425  1
  O  O46  1  0.197757  0.611785  0.896120  1
  O  O47  1  0.197757  0.388215  0.103880  1
  O  O48  1  0.210686  0.318500  0.393839  1
  O  O49  1  0.210686  0.681500  0.606161  1
  O  O50  1  0.289314  0.181500  0.893839  1
  O  O51  1  0.289314  0.818500  0.106161  1
  O  O52  1  0.302243  0.888215  0.396120  1
  O  O53  1  0.302243  0.111785  0.603880  1
  O  O54  1  0.297128  0.587313  0.337425  1
  O  O55  1  0.297128  0.412687  0.662575  1
  O  O56  1  0.500000  0.169262  0.387630  1
  O  O57  1  0.500000  0.449891  0.359810  1
  O  O58  1  0.500000  0.520257  0.130801  1
  O  O59  1  0.500000  0.550109  0.640190  1
  O  O60  1  0.500000  0.222385  0.119056  1
  O  O61  1  0.500000  0.479743  0.869199  1
  O  O62  1  0.500000  0.777615  0.880944  1
  O  O63  1  0.500000  0.251564  0.618168  1
  O  O64  1  0.500000  0.311097  0.898457  1
  O  O65  1  0.500000  0.688903  0.101543  1
  O  O66  1  0.500000  0.830738  0.612370  1
  O  O67  1  0.500000  0.748436  0.381832  1
  O  O68  1  0.702872  0.412687  0.662575  1
  O  O69  1  0.702872  0.587313  0.337425  1
  O  O70  1  0.697757  0.111785  0.603880  1
  O  O71  1  0.697757  0.888215  0.396120  1
  O  O72  1  0.710686  0.181500  0.893839  1
  O  O73  1  0.710686  0.818500  0.106161  1
  O  O74  1  0.789314  0.318500  0.393839  1
  O  O75  1  0.789314  0.681500  0.606161  1
  O  O76  1  0.802243  0.388215  0.103880  1
  O  O77  1  0.802243  0.611785  0.896120  1
  O  O78  1  0.797128  0.087313  0.162575  1
  O  O79  1  0.797128  0.912687  0.837425  1
