# generated using pymatgen
data_Li14Sn9(P2O7)8
_symmetry_space_group_name_H-M   'P 1'
_cell_length_a   11.49156540
_cell_length_b   10.25821441
_cell_length_c   13.50328714
_cell_angle_alpha   69.98241024
_cell_angle_beta   117.20147075
_cell_angle_gamma   103.10821770
_symmetry_Int_Tables_number   1
_chemical_formula_structural   Li14Sn9(P2O7)8
_chemical_formula_sum   'Li14 Sn9 P16 O56'
_cell_volume   1325.51396546
_cell_formula_units_Z   1
loop_
 _symmetry_equiv_pos_site_id
 _symmetry_equiv_pos_as_xyz
  1  'x, y, z'
loop_
 _atom_site_type_symbol
 _atom_site_label
 _atom_site_symmetry_multiplicity
 _atom_site_fract_x
 _atom_site_fract_y
 _atom_site_fract_z
 _atom_site_occupancy
  Li  Li0  1  0.022939  0.171916  0.875053  1
  Li  Li1  1  0.206074  0.937058  0.635432  1
  Li  Li2  1  0.382806  0.044062  0.912080  1
  Li  Li3  1  0.207895  0.432638  0.134585  1
  Li  Li4  1  0.378533  0.543960  0.412524  1
  Li  Li5  1  0.465503  0.347697  0.825902  1
  Li  Li6  1  0.458630  0.848347  0.322984  1
  Li  Li7  1  0.541370  0.151653  0.677016  1
  Li  Li8  1  0.534497  0.652303  0.174098  1
  Li  Li9  1  0.621467  0.456040  0.587476  1
  Li  Li10  1  0.792105  0.567362  0.865415  1
  Li  Li11  1  0.617194  0.955938  0.087920  1
  Li  Li12  1  0.793926  0.062942  0.364568  1
  Li  Li13  1  0.977061  0.828084  0.124947  1
  Sn  Sn14  1  0.187169  0.691043  0.898762  1
  Sn  Sn15  1  0.000000  0.500000  0.500000  1
  Sn  Sn16  1  0.283766  0.576606  0.724594  1
  Sn  Sn17  1  0.196177  0.175959  0.402207  1
  Sn  Sn18  1  0.755557  0.945515  0.800802  1
  Sn  Sn19  1  0.244443  0.054485  0.199198  1
  Sn  Sn20  1  0.803823  0.824041  0.597793  1
  Sn  Sn21  1  0.716234  0.423394  0.275406  1
  Sn  Sn22  1  0.812831  0.308957  0.101238  1
  P  P23  1  0.081169  0.995948  0.776215  1
  P  P24  1  0.308090  0.341480  0.988120  1
  P  P25  1  0.078020  0.477219  0.271969  1
  P  P26  1  0.485362  0.857235  0.856886  1
  P  P27  1  0.225354  0.226079  0.665682  1
  P  P28  1  0.298643  0.832073  0.487879  1
  P  P29  1  0.210038  0.724891  0.164714  1
  P  P30  1  0.522275  0.651843  0.642405  1
  P  P31  1  0.477725  0.348157  0.357595  1
  P  P32  1  0.789962  0.275109  0.835286  1
  P  P33  1  0.701357  0.167927  0.512121  1
  P  P34  1  0.774646  0.773921  0.334318  1
  P  P35  1  0.514638  0.142765  0.143114  1
  P  P36  1  0.921980  0.522781  0.728031  1
  P  P37  1  0.691910  0.658520  0.011880  1
  P  P38  1  0.918831  0.004052  0.223785  1
  O  O39  1  0.957335  0.598204  0.821817  1
  O  O40  1  0.208833  0.938970  0.877362  1
  O  O41  1  0.032717  0.536839  0.691085  1
  O  O42  1  0.115345  0.157787  0.717082  1
  O  O43  1  0.345237  0.823251  0.772526  1
  O  O44  1  0.489416  0.878390  0.965034  1
  O  O45  1  0.202216  0.702308  0.491523  1
  O  O46  1  0.264708  0.948252  0.516586  1
  O  O47  1  0.356407  0.400068  0.889590  1
  O  O48  1  0.199280  0.379964  0.617238  1
  O  O49  1  0.095904  0.644308  0.211224  1
  O  O50  1  0.967079  0.086791  0.314553  1
  O  O51  1  0.194566  0.148648  0.574836  1
  O  O52  1  0.328287  0.888971  0.379261  1
  O  O53  1  0.209315  0.436178  0.372744  1
  O  O54  1  0.166825  0.873168  0.118607  1
  O  O55  1  0.558991  0.978591  0.796340  1
  O  O56  1  0.561096  0.719003  0.896145  1
  O  O57  1  0.361743  0.196612  0.764111  1
  O  O58  1  0.020396  0.991022  0.185532  1
  O  O59  1  0.188997  0.657271  0.070803  1
  O  O60  1  0.441552  0.788152  0.597454  1
  O  O61  1  0.456008  0.531842  0.712838  1
  O  O62  1  0.345476  0.700079  0.263433  1
  O  O63  1  0.725785  0.543528  0.982670  1
  O  O64  1  0.798726  0.778437  0.028923  1
  O  O65  1  0.337971  0.310289  0.277726  1
  O  O66  1  0.488899  0.380020  0.464231  1
  O  O67  1  0.511101  0.619980  0.535769  1
  O  O68  1  0.662029  0.689711  0.722274  1
  O  O69  1  0.201274  0.221563  0.971077  1
  O  O70  1  0.274215  0.456472  0.017330  1
  O  O71  1  0.654524  0.299921  0.736567  1
  O  O72  1  0.543992  0.468158  0.287162  1
  O  O73  1  0.558448  0.211848  0.402546  1
  O  O74  1  0.811003  0.342729  0.929197  1
  O  O75  1  0.979604  0.008978  0.814468  1
  O  O76  1  0.638257  0.803388  0.235889  1
  O  O77  1  0.438904  0.280997  0.103855  1
  O  O78  1  0.441009  0.021409  0.203660  1
  O  O79  1  0.833175  0.126832  0.881393  1
  O  O80  1  0.790685  0.563822  0.627256  1
  O  O81  1  0.671713  0.111029  0.620739  1
  O  O82  1  0.805434  0.851352  0.425164  1
  O  O83  1  0.032921  0.913209  0.685447  1
  O  O84  1  0.904096  0.355692  0.788776  1
  O  O85  1  0.800720  0.620036  0.382762  1
  O  O86  1  0.643593  0.599932  0.110410  1
  O  O87  1  0.735292  0.051748  0.483414  1
  O  O88  1  0.797784  0.297692  0.508477  1
  O  O89  1  0.510584  0.121610  0.034966  1
  O  O90  1  0.654763  0.176749  0.227474  1
  O  O91  1  0.884655  0.842213  0.282918  1
  O  O92  1  0.967283  0.463161  0.308915  1
  O  O93  1  0.791167  0.061030  0.122638  1
  O  O94  1  0.042665  0.401796  0.178183  1
