# generated using pymatgen
data_Li4V3P8O29
_symmetry_space_group_name_H-M   'P 1'
_cell_length_a   9.80035883
_cell_length_b   9.81637153
_cell_length_c   14.13035123
_cell_angle_alpha   89.76818455
_cell_angle_beta   90.04648699
_cell_angle_gamma   59.73913039
_symmetry_Int_Tables_number   1
_chemical_formula_structural   Li4V3P8O29
_chemical_formula_sum   'Li8 V6 P16 O58'
_cell_volume   1174.14840757
_cell_formula_units_Z   2
loop_
 _symmetry_equiv_pos_site_id
 _symmetry_equiv_pos_as_xyz
  1  'x, y, z'
loop_
 _atom_site_type_symbol
 _atom_site_label
 _atom_site_symmetry_multiplicity
 _atom_site_fract_x
 _atom_site_fract_y
 _atom_site_fract_z
 _atom_site_occupancy
  Li  Li0  1  0.769482  0.906764  0.559461  1
  Li  Li1  1  0.765063  0.326631  0.054628  1
  Li  Li2  1  0.330809  0.899554  0.057402  1
  Li  Li3  1  0.694073  0.222936  0.443222  1
  Li  Li4  1  0.315064  0.772553  0.563198  1
  Li  Li5  1  0.225249  0.090592  0.443510  1
  Li  Li6  1  0.098250  0.236688  0.938217  1
  Li  Li7  1  0.968097  0.960659  0.998071  1
  V  V8  1  0.563940  0.438130  0.248803  1
  V  V9  1  0.430709  0.566214  0.752498  1
  V  V10  1  0.566675  0.005699  0.757613  1
  V  V11  1  0.434905  0.000538  0.247585  1
  V  V12  1  0.998537  0.569715  0.250241  1
  V  V13  1  0.997245  0.437225  0.745211  1
  P  P14  1  0.919509  0.770435  0.842383  1
  P  P15  1  0.768879  0.912603  0.340274  1
  P  P16  1  0.914663  0.314995  0.340549  1
  P  P17  1  0.668922  0.662876  0.129346  1
  P  P18  1  0.661220  0.676266  0.630468  1
  P  P19  1  0.776110  0.313318  0.841020  1
  P  P20  1  0.682618  0.229945  0.659629  1
  P  P21  1  0.315261  0.911848  0.840642  1
  P  P22  1  0.689857  0.087765  0.157504  1
  P  P23  1  0.317884  0.771892  0.344898  1
  P  P24  1  0.220497  0.694124  0.162303  1
  P  P25  1  0.333132  0.334117  0.368015  1
  P  P26  1  0.326806  0.335049  0.871425  1
  P  P27  1  0.084441  0.686962  0.657130  1
  P  P28  1  0.231442  0.090075  0.659994  1
  P  P29  1  0.084857  0.231879  0.156792  1
  O  O30  1  0.989856  0.767403  0.571937  1
  O  O31  1  0.914085  0.744613  0.333529  1
  O  O32  1  0.790984  0.009925  0.074943  1
  O  O33  1  0.744262  0.909119  0.832230  1
  O  O34  1  0.921754  0.612656  0.829476  1
  O  O35  1  0.813048  0.666019  0.176220  1
  O  O36  1  0.908327  0.474279  0.323583  1
  O  O37  1  0.001656  0.235277  0.066456  1
  O  O38  1  0.921364  0.339059  0.833289  1
  O  O39  1  0.663558  0.823509  0.672109  1
  O  O40  1  0.618309  0.901986  0.320122  1
  O  O41  1  0.812902  0.528440  0.679307  1
  O  O42  1  0.677018  0.644103  0.024355  1
  O  O43  1  0.674137  0.672048  0.525353  1
  O  O44  1  0.675253  0.508214  0.173590  1
  O  O45  1  0.473660  0.909371  0.827582  1
  O  O46  1  0.513398  0.809572  0.164452  1
  O  O47  1  0.743873  0.340069  0.339617  1
  O  O48  1  0.794866  0.205942  0.749580  1
  O  O49  1  0.756013  0.233243  0.568629  1
  O  O50  1  0.791949  0.224994  0.930795  1
  O  O51  1  0.622215  0.470586  0.828565  1
  O  O52  1  0.512236  0.673779  0.667790  1
  O  O53  1  0.656556  0.262781  0.164116  1
  O  O54  1  0.479251  0.620488  0.319116  1
  O  O55  1  0.336256  0.919278  0.337860  1
  O  O56  1  0.788826  0.009275  0.255051  1
  O  O57  1  0.755278  0.996605  0.431115  1
  O  O58  1  0.241324  0.002831  0.570958  1
  O  O59  1  0.659373  0.083676  0.665289  1
  O  O60  1  0.522951  0.382596  0.679121  1
  O  O61  1  0.343081  0.743602  0.835780  1
  O  O62  1  0.483450  0.335373  0.324653  1
  O  O63  1  0.381469  0.535023  0.173000  1
  O  O64  1  0.212545  0.791956  0.079283  1
  O  O65  1  0.256213  0.755551  0.437195  1
  O  O66  1  0.201780  0.789909  0.258911  1
  O  O67  1  0.252707  0.663440  0.658790  1
  O  O68  1  0.481198  0.184664  0.826409  1
  O  O69  1  0.535073  0.086099  0.167407  1
  O  O70  1  0.324911  0.481296  0.829134  1
  O  O71  1  0.329344  0.316840  0.976110  1
  O  O72  1  0.339286  0.333526  0.473244  1
  O  O73  1  0.184376  0.480358  0.322445  1
  O  O74  1  0.383233  0.095423  0.679162  1
  O  O75  1  0.331781  0.185291  0.328158  1
  O  O76  1  0.084385  0.658100  0.165803  1
  O  O77  1  0.003118  0.791837  0.750235  1
  O  O78  1  0.994523  0.786686  0.928970  1
  O  O79  1  0.095134  0.524226  0.677009  1
  O  O80  1  0.182979  0.324884  0.828057  1
  O  O81  1  0.090384  0.384106  0.173962  1
  O  O82  1  0.254004  0.085243  0.159867  1
  O  O83  1  0.231447  0.997789  0.929539  1
  O  O84  1  0.206941  0.000852  0.749422  1
  O  O85  1  0.086652  0.258825  0.663500  1
  O  O86  1  0.006896  0.226580  0.424833  1
  O  O87  1  0.992410  0.212088  0.244840  1
