# generated using pymatgen
data_LiVP3HO10
_symmetry_space_group_name_H-M   'P 1'
_cell_length_a   6.51199309
_cell_length_b   8.55310111
_cell_length_c   8.30144059
_cell_angle_alpha   101.67729375
_cell_angle_beta   116.81720819
_cell_angle_gamma   82.68509571
_symmetry_Int_Tables_number   1
_chemical_formula_structural   LiVP3HO10
_chemical_formula_sum   'Li2 V2 P6 H2 O20'
_cell_volume   403.75994024
_cell_formula_units_Z   2
loop_
 _symmetry_equiv_pos_site_id
 _symmetry_equiv_pos_as_xyz
  1  'x, y, z'
loop_
 _atom_site_type_symbol
 _atom_site_label
 _atom_site_symmetry_multiplicity
 _atom_site_fract_x
 _atom_site_fract_y
 _atom_site_fract_z
 _atom_site_occupancy
  Li  Li0  1  0.261937  0.699695  0.968635  1
  Li  Li1  1  0.738063  0.300305  0.031365  1
  V  V2  1  0.208047  0.664285  0.337558  1
  V  V3  1  0.791953  0.335715  0.662442  1
  P  P4  1  0.168669  0.078471  0.902671  1
  P  P5  1  0.298273  0.228564  0.669836  1
  P  P6  1  0.405635  0.329659  0.214061  1
  P  P7  1  0.594365  0.670341  0.785939  1
  P  P8  1  0.701727  0.771436  0.330164  1
  P  P9  1  0.831331  0.921529  0.097329  1
  H  H10  1  0.279953  0.128920  0.399139  1
  H  H11  1  0.720047  0.871080  0.600861  1
  O  O12  1  0.154351  0.904193  0.884501  1
  O  O13  1  0.093373  0.344236  0.645446  1
  O  O14  1  0.328341  0.113107  0.812003  1
  O  O15  1  0.247974  0.097483  0.492416  1
  O  O16  1  0.057168  0.822722  0.176258  1
  O  O17  1  0.198347  0.439540  0.225272  1
  O  O18  1  0.296597  0.153435  0.115719  1
  O  O19  1  0.495026  0.619866  0.895908  1
  O  O20  1  0.527920  0.301500  0.736702  1
  O  O21  1  0.569508  0.296489  0.407958  1
  O  O22  1  0.430492  0.703511  0.592042  1
  O  O23  1  0.472080  0.698500  0.263298  1
  O  O24  1  0.504974  0.380134  0.104092  1
  O  O25  1  0.703403  0.846565  0.884281  1
  O  O26  1  0.801653  0.560460  0.774728  1
  O  O27  1  0.942832  0.177278  0.823742  1
  O  O28  1  0.752026  0.902517  0.507584  1
  O  O29  1  0.671659  0.886893  0.187997  1
  O  O30  1  0.906627  0.655764  0.354554  1
  O  O31  1  0.845649  0.095807  0.115499  1
