# generated using pymatgen
data_Li3FePCO7
_symmetry_space_group_name_H-M   'P 1'
_cell_length_a   5.28731284
_cell_length_b   6.53186500
_cell_length_c   8.33234467
_cell_angle_alpha   89.90792836
_cell_angle_beta   90.12406192
_cell_angle_gamma   90.01213670
_symmetry_Int_Tables_number   1
_chemical_formula_structural   Li3FePCO7
_chemical_formula_sum   'Li6 Fe2 P2 C2 O14'
_cell_volume   287.76491697
_cell_formula_units_Z   2
loop_
 _symmetry_equiv_pos_site_id
 _symmetry_equiv_pos_as_xyz
  1  'x, y, z'
loop_
 _atom_site_type_symbol
 _atom_site_label
 _atom_site_symmetry_multiplicity
 _atom_site_fract_x
 _atom_site_fract_y
 _atom_site_fract_z
 _atom_site_occupancy
  Li  Li0  1  0.399842  0.267775  0.034491  1
  Li  Li1  1  0.400255  0.732495  0.035206  1
  Li  Li2  1  0.968276  0.499483  0.239198  1
  Li  Li3  1  0.469074  0.000436  0.393539  1
  Li  Li4  1  0.899619  0.767425  0.598102  1
  Li  Li5  1  0.899022  0.232036  0.598662  1
  Fe  Fe6  1  0.478052  0.500047  0.639748  1
  Fe  Fe7  1  0.978511  0.000082  0.993093  1
  P  P8  1  0.531487  -0.000034  0.726413  1
  P  P9  1  0.032681  0.500078  0.906188  1
  C  C10  1  0.989858  0.000142  0.303879  1
  C  C11  1  0.491783  0.499836  0.329077  1
  O  O12  1  0.988468  0.312199  0.018342  1
  O  O13  1  0.986230  0.687823  0.017816  1
  O  O14  1  0.200999  0.999284  0.220587  1
  O  O15  1  0.774334  0.001122  0.227999  1
  O  O16  1  0.503234  0.499859  0.174771  1
  O  O17  1  0.999475  0.000045  0.457992  1
  O  O18  1  0.275682  0.499044  0.403432  1
  O  O19  1  0.702376  0.500605  0.413545  1
  O  O20  1  0.487189  0.187857  0.614374  1
  O  O21  1  0.484260  0.812318  0.614840  1
  O  O22  1  0.320469  0.501219  0.865038  1
  O  O23  1  0.874819  0.498962  0.750522  1
  O  O24  1  0.374419  0.001145  0.882148  1
  O  O25  1  0.819613  0.998707  0.767850  1
