# generated using pymatgen
data_Pr10C4Br15
_symmetry_space_group_name_H-M   'P 1'
_cell_length_a   9.27883386
_cell_length_b   10.28464107
_cell_length_c   11.21885843
_cell_angle_alpha   70.12670332
_cell_angle_beta   66.24927366
_cell_angle_gamma   70.74448866
_symmetry_Int_Tables_number   1
_chemical_formula_structural   Pr10C4Br15
_chemical_formula_sum   'Pr10 C4 Br15'
_cell_volume   898.14741460
_cell_formula_units_Z   1
loop_
 _symmetry_equiv_pos_site_id
 _symmetry_equiv_pos_as_xyz
  1  'x, y, z'
loop_
 _atom_site_type_symbol
 _atom_site_label
 _atom_site_symmetry_multiplicity
 _atom_site_fract_x
 _atom_site_fract_y
 _atom_site_fract_z
 _atom_site_occupancy
  Pr  Pr0  1  0.333192  0.751467  0.830534  1
  Pr  Pr1  1  0.666807  0.248535  0.169465  1
  Pr  Pr2  1  0.170111  0.429627  0.046139  1
  Pr  Pr3  1  0.829886  0.570373  0.953859  1
  Pr  Pr4  1  0.078835  0.181090  0.887648  1
  Pr  Pr5  1  0.921166  0.818910  0.112352  1
  Pr  Pr6  1  0.247135  0.540021  0.645425  1
  Pr  Pr7  1  0.752865  0.459979  0.354576  1
  Pr  Pr8  1  0.027769  0.104637  0.265533  1
  Pr  Pr9  1  0.972231  0.895362  0.734467  1
  C  C10  1  0.879996  0.359772  0.170801  1
  C  C11  1  0.120004  0.640228  0.829201  1
  C  C12  1  0.955738  0.296129  0.061936  1
  C  C13  1  0.044264  0.703870  0.938063  1
  Br  Br14  1  0.500000  0.500000  1.000000  1
  Br  Br15  1  0.135184  0.813631  0.467119  1
  Br  Br16  1  0.864815  0.186369  0.532882  1
  Br  Br17  1  0.254205  0.028182  0.645556  1
  Br  Br18  1  0.745794  0.971819  0.354444  1
  Br  Br19  1  0.335591  0.167737  0.221755  1
  Br  Br20  1  0.664411  0.832263  0.778245  1
  Br  Br21  1  0.453486  0.366905  0.413904  1
  Br  Br22  1  0.546515  0.633094  0.586096  1
  Br  Br23  1  0.946908  0.444602  0.703154  1
  Br  Br24  1  0.053092  0.555398  0.296845  1
  Br  Br25  1  0.231105  0.908522  0.060994  1
  Br  Br26  1  0.768896  0.091479  0.939008  1
  Br  Br27  1  0.387134  0.271352  0.818101  1
  Br  Br28  1  0.612867  0.728649  0.181898  1
