# generated using pymatgen
data_Li2Si5Ni2O13
_symmetry_space_group_name_H-M   'P 1'
_cell_length_a   7.67464596
_cell_length_b   7.75017783
_cell_length_c   9.75808571
_cell_angle_alpha   83.41094910
_cell_angle_beta   68.57937272
_cell_angle_gamma   69.56174868
_symmetry_Int_Tables_number   1
_chemical_formula_structural   Li2Si5Ni2O13
_chemical_formula_sum   'Li4 Si10 Ni4 O26'
_cell_volume   506.24966588
_cell_formula_units_Z   2
loop_
 _symmetry_equiv_pos_site_id
 _symmetry_equiv_pos_as_xyz
  1  'x, y, z'
loop_
 _atom_site_type_symbol
 _atom_site_label
 _atom_site_symmetry_multiplicity
 _atom_site_fract_x
 _atom_site_fract_y
 _atom_site_fract_z
 _atom_site_occupancy
  Li  Li0  1  0.225062  0.062922  0.821633  1
  Li  Li1  1  0.163987  0.391401  0.738409  1
  Li  Li2  1  0.836013  0.608599  0.261591  1
  Li  Li3  1  0.774938  0.937078  0.178367  1
  Si  Si4  1  0.166320  0.220526  0.263902  1
  Si  Si5  1  0.201589  0.696669  0.051158  1
  Si  Si6  1  0.331475  0.451078  0.404273  1
  Si  Si7  1  0.231186  0.753017  0.741088  1
  Si  Si8  1  0.613444  0.715617  0.046897  1
  Si  Si9  1  0.386556  0.284383  0.953103  1
  Si  Si10  1  0.768814  0.246983  0.258912  1
  Si  Si11  1  0.668525  0.548922  0.595727  1
  Si  Si12  1  0.798411  0.303331  0.948842  1
  Si  Si13  1  0.833680  0.779474  0.736098  1
  Ni  Ni14  1  0.005789  0.129579  0.609035  1
  Ni  Ni15  1  0.412456  0.822275  0.407375  1
  Ni  Ni16  1  0.587544  0.177725  0.592625  1
  Ni  Ni17  1  0.994211  0.870421  0.390965  1
  O  O18  1  0.011867  0.767195  0.199229  1
  O  O19  1  0.161083  0.046580  0.376691  1
  O  O20  1  0.321031  0.153678  0.096682  1
  O  O21  1  0.215780  0.380257  0.320906  1
  O  O22  1  0.056381  0.672594  0.748269  1
  O  O23  1  0.398751  0.702160  0.071039  1
  O  O24  1  0.230800  0.674156  0.424851  1
  O  O25  1  0.340757  0.325261  0.546804  1
  O  O26  1  0.563076  0.417893  0.292090  1
  O  O27  1  0.383066  0.207171  0.807885  1
  O  O28  1  0.222212  0.492865  0.001750  1
  O  O29  1  0.250743  0.922685  0.629147  1
  O  O30  1  0.174105  0.833377  0.908823  1
  O  O31  1  0.825895  0.166623  0.091177  1
  O  O32  1  0.749257  0.077314  0.370853  1
  O  O33  1  0.777788  0.507135  0.998250  1
  O  O34  1  0.616934  0.792829  0.192115  1
  O  O35  1  0.436924  0.582107  0.707910  1
  O  O36  1  0.659243  0.674739  0.453196  1
  O  O37  1  0.769200  0.325844  0.575149  1
  O  O38  1  0.601249  0.297840  0.928961  1
  O  O39  1  0.943619  0.327406  0.251731  1
  O  O40  1  0.784220  0.619743  0.679094  1
  O  O41  1  0.678969  0.846322  0.903318  1
  O  O42  1  0.838917  0.953420  0.623309  1
  O  O43  1  0.988133  0.232805  0.800771  1
