# generated using pymatgen
data_Na3NiO3
_symmetry_space_group_name_H-M   'P 1'
_cell_length_a   9.18150479
_cell_length_b   9.19112797
_cell_length_c   4.45453836
_cell_angle_alpha   90.00000000
_cell_angle_beta   90.00000000
_cell_angle_gamma   90.00766419
_symmetry_Int_Tables_number   1
_chemical_formula_structural   Na3NiO3
_chemical_formula_sum   'Na12 Ni4 O12'
_cell_volume   375.91129695
_cell_formula_units_Z   4
loop_
 _symmetry_equiv_pos_site_id
 _symmetry_equiv_pos_as_xyz
  1  'x, y, z'
loop_
 _atom_site_type_symbol
 _atom_site_label
 _atom_site_symmetry_multiplicity
 _atom_site_fract_x
 _atom_site_fract_y
 _atom_site_fract_z
 _atom_site_occupancy
  Na  Na0  1  0.129464  0.626513  0.000000  1
  Na  Na1  1  0.126442  0.370738  0.500000  1
  Na  Na2  1  0.148999  0.850940  0.500000  1
  Na  Na3  1  0.350992  0.351045  0.000000  1
  Na  Na4  1  0.373581  0.870614  0.000000  1
  Na  Na5  1  0.370437  0.126472  0.500000  1
  Na  Na6  1  0.629387  0.873405  0.500000  1
  Na  Na7  1  0.626414  0.129262  0.000000  1
  Na  Na8  1  0.648892  0.649045  0.000000  1
  Na  Na9  1  0.851178  0.148931  0.500000  1
  Na  Na10  1  0.873715  0.629425  0.500000  1
  Na  Na11  1  0.870682  0.373502  0.000000  1
  Ni  Ni12  1  0.108875  0.108762  0.000000  1
  Ni  Ni13  1  0.391146  0.608768  0.500000  1
  Ni  Ni14  1  0.608965  0.391124  0.500000  1
  Ni  Ni15  1  0.891120  0.891290  0.000000  1
  O  O16  1  0.093244  0.906705  0.000000  1
  O  O17  1  0.105395  0.307505  0.000000  1
  O  O18  1  0.192265  0.605445  0.500000  1
  O  O19  1  0.307533  0.105433  0.000000  1
  O  O20  1  0.394623  0.807492  0.500000  1
  O  O21  1  0.406634  0.406745  0.500000  1
  O  O22  1  0.593420  0.593215  0.500000  1
  O  O23  1  0.605357  0.192685  0.500000  1
  O  O24  1  0.692453  0.894553  0.000000  1
  O  O25  1  0.807558  0.394605  0.500000  1
  O  O26  1  0.894585  0.692507  0.000000  1
  O  O27  1  0.906686  0.093316  0.000000  1
