# generated using pymatgen
data_Li4Mn5Ni(PO4)6
_symmetry_space_group_name_H-M   'P 1'
_cell_length_a   8.49488621
_cell_length_b   9.03615513
_cell_length_c   8.94031205
_cell_angle_alpha   59.18844354
_cell_angle_beta   59.09387686
_cell_angle_gamma   58.63956036
_symmetry_Int_Tables_number   1
_chemical_formula_structural   Li4Mn5Ni(PO4)6
_chemical_formula_sum   'Li4 Mn5 Ni1 P6 O24'
_cell_volume   473.88029369
_cell_formula_units_Z   1
loop_
 _symmetry_equiv_pos_site_id
 _symmetry_equiv_pos_as_xyz
  1  'x, y, z'
loop_
 _atom_site_type_symbol
 _atom_site_label
 _atom_site_symmetry_multiplicity
 _atom_site_fract_x
 _atom_site_fract_y
 _atom_site_fract_z
 _atom_site_occupancy
  Li  Li0  1  0.243557  0.859233  0.646879  1
  Li  Li1  1  0.741805  0.152529  0.341187  1
  Li  Li2  1  0.741723  0.758339  0.153821  1
  Li  Li3  1  0.742769  0.349218  0.759730  1
  Mn  Mn4  1  0.002485  0.997970  0.007326  1
  Mn  Mn5  1  0.063014  0.646165  0.647269  1
  Mn  Mn6  1  0.500634  0.489856  0.499131  1
  Mn  Mn7  1  0.439611  0.856518  0.851232  1
  Mn  Mn8  1  0.964447  0.340339  0.346810  1
  Ni  Ni9  1  0.549925  0.150596  0.147007  1
  P  P10  1  0.260217  0.247835  0.551625  1
  P  P11  1  0.248315  0.942640  0.248179  1
  P  P12  1  0.245101  0.555798  0.945726  1
  P  P13  1  0.749169  0.459815  0.038664  1
  P  P14  1  0.761479  0.047843  0.750743  1
  P  P15  1  0.740219  0.752278  0.459384  1
  O  O16  1  0.056737  0.096310  0.303456  1
  O  O17  1  0.055593  0.528353  0.097287  1
  O  O18  1  0.063509  0.309194  0.533228  1
  O  O19  1  0.244883  0.077123  0.740968  1
  O  O20  1  0.441008  0.188647  0.391962  1
  O  O21  1  0.281156  0.392884  0.575614  1
  O  O22  1  0.238988  0.919823  0.091880  1
  O  O23  1  0.261900  0.754104  0.416664  1
  O  O24  1  0.566180  0.615545  0.994506  1
  O  O25  1  0.265196  0.580020  0.747149  1
  O  O26  1  0.770458  0.268247  0.056336  1
  O  O27  1  0.591315  0.993888  0.809713  1
  O  O28  1  0.435988  0.970933  0.196182  1
  O  O29  1  0.223756  0.750452  0.918053  1
  O  O30  1  0.723999  0.436968  0.234846  1
  O  O31  1  0.434202  0.399838  0.973921  1
  O  O32  1  0.730483  0.244906  0.599957  1
  O  O33  1  0.767718  0.070609  0.911606  1
  O  O34  1  0.727024  0.602530  0.431164  1
  O  O35  1  0.546270  0.813581  0.609223  1
  O  O36  1  0.767871  0.909640  0.265362  1
  O  O37  1  0.916425  0.689111  0.511619  1
  O  O38  1  0.934819  0.498477  0.885967  1
  O  O39  1  0.960050  0.904846  0.685625  1
