# generated using pymatgen
data_Li3Mn4(BO3)4
_symmetry_space_group_name_H-M   'P 1'
_cell_length_a   5.90506983
_cell_length_b   10.57297745
_cell_length_c   8.28502079
_cell_angle_alpha   90.36800812
_cell_angle_beta   77.99753411
_cell_angle_gamma   89.34027584
_symmetry_Int_Tables_number   1
_chemical_formula_structural   Li3Mn4(BO3)4
_chemical_formula_sum   'Li6 Mn8 B8 O24'
_cell_volume   505.90611415
_cell_formula_units_Z   2
loop_
 _symmetry_equiv_pos_site_id
 _symmetry_equiv_pos_as_xyz
  1  'x, y, z'
loop_
 _atom_site_type_symbol
 _atom_site_label
 _atom_site_symmetry_multiplicity
 _atom_site_fract_x
 _atom_site_fract_y
 _atom_site_fract_z
 _atom_site_occupancy
  Li  Li0  1  0.064902  0.330377  0.267675  1
  Li  Li1  1  0.037521  0.829735  0.273748  1
  Li  Li2  1  0.458188  0.920503  0.223440  1
  Li  Li3  1  0.541812  0.579497  0.776560  1
  Li  Li4  1  0.935098  0.169623  0.732325  1
  Li  Li5  1  0.962479  0.670265  0.726252  1
  Mn  Mn6  1  0.194353  0.413288  0.566119  1
  Mn  Mn7  1  0.172730  0.908878  0.581453  1
  Mn  Mn8  1  0.338049  0.340014  0.913957  1
  Mn  Mn9  1  0.329252  0.845737  0.920449  1
  Mn  Mn10  1  0.661951  0.159986  0.086043  1
  Mn  Mn11  1  0.670748  0.654263  0.079551  1
  Mn  Mn12  1  0.805647  0.086712  0.433881  1
  Mn  Mn13  1  0.827270  0.591122  0.418547  1
  B  B14  1  0.154613  0.091027  0.107408  1
  B  B15  1  0.163407  0.585737  0.087307  1
  B  B16  1  0.322863  0.158141  0.410767  1
  B  B17  1  0.335690  0.668490  0.406294  1
  B  B18  1  0.677137  0.341859  0.589233  1
  B  B19  1  0.664310  0.831510  0.593706  1
  B  B20  1  0.845387  0.408973  0.892592  1
  B  B21  1  0.836593  0.914263  0.912693  1
  O  O22  1  0.156673  0.457230  0.100724  1
  O  O23  1  0.174876  0.962249  0.124703  1
  O  O24  1  0.043096  0.340295  0.810002  1
  O  O25  1  0.013583  0.838540  0.816419  1
  O  O26  1  0.141252  0.095878  0.515204  1
  O  O27  1  0.158436  0.606276  0.515039  1
  O  O28  1  0.317480  0.284450  0.384813  1
  O  O29  1  0.313636  0.796021  0.376996  1
  O  O30  1  0.509982  0.083907  0.321817  1
  O  O31  1  0.527888  0.601467  0.323411  1
  O  O32  1  0.661515  0.337830  0.977003  1
  O  O33  1  0.338485  0.162170  0.022997  1
  O  O34  1  0.656012  0.852191  0.018872  1
  O  O35  1  0.343988  0.647809  0.981128  1
  O  O36  1  0.490018  0.416093  0.678183  1
  O  O37  1  0.472112  0.898533  0.676589  1
  O  O38  1  0.682520  0.215550  0.615187  1
  O  O39  1  0.686364  0.703979  0.623004  1
  O  O40  1  0.858748  0.404122  0.484796  1
  O  O41  1  0.841564  0.893724  0.484961  1
  O  O42  1  0.956904  0.159705  0.189998  1
  O  O43  1  0.986417  0.661460  0.183581  1
  O  O44  1  0.843327  0.042770  0.899276  1
  O  O45  1  0.825124  0.537751  0.875297  1
