# generated using pymatgen
data_LiNi(PO3)4
_symmetry_space_group_name_H-M   'P 1'
_cell_length_a   7.60728299
_cell_length_b   13.15096396
_cell_length_c   9.63990480
_cell_angle_alpha   90.00000000
_cell_angle_beta   80.86442325
_cell_angle_gamma   90.00000000
_symmetry_Int_Tables_number   1
_chemical_formula_structural   LiNi(PO3)4
_chemical_formula_sum   'Li4 Ni4 P16 O48'
_cell_volume   952.17290968
_cell_formula_units_Z   4
loop_
 _symmetry_equiv_pos_site_id
 _symmetry_equiv_pos_as_xyz
  1  'x, y, z'
loop_
 _atom_site_type_symbol
 _atom_site_label
 _atom_site_symmetry_multiplicity
 _atom_site_fract_x
 _atom_site_fract_y
 _atom_site_fract_z
 _atom_site_occupancy
  Li  Li0  1  0.890034  0.291216  0.413514  1
  Li  Li1  1  0.609966  0.791216  0.086486  1
  Li  Li2  1  0.390034  0.208784  0.913514  1
  Li  Li3  1  0.109966  0.708784  0.586486  1
  Ni  Ni4  1  0.899012  0.204203  0.998124  1
  Ni  Ni5  1  0.600988  0.704203  0.501876  1
  Ni  Ni6  1  0.399012  0.295797  0.498124  1
  Ni  Ni7  1  0.100988  0.795797  0.001876  1
  P  P8  1  0.090935  0.612363  0.264083  1
  P  P9  1  0.111318  0.135065  0.711493  1
  P  P10  1  0.210681  0.915052  0.719974  1
  P  P11  1  0.275231  0.898553  0.236336  1
  P  P12  1  0.224769  0.398553  0.263664  1
  P  P13  1  0.289319  0.415052  0.780026  1
  P  P14  1  0.388682  0.635065  0.788507  1
  P  P15  1  0.409065  0.112363  0.235917  1
  P  P16  1  0.590935  0.887637  0.764083  1
  P  P17  1  0.611318  0.364935  0.211493  1
  P  P18  1  0.710681  0.584948  0.219974  1
  P  P19  1  0.775231  0.601447  0.736336  1
  P  P20  1  0.724769  0.101447  0.763664  1
  P  P21  1  0.789319  0.084948  0.280026  1
  P  P22  1  0.888682  0.864935  0.288507  1
  P  P23  1  0.909065  0.387637  0.735917  1
  O  O24  1  0.089184  0.866261  0.327275  1
  O  O25  1  0.069620  0.892897  0.846419  1
  O  O26  1  0.105037  0.435969  0.723972  1
  O  O27  1  0.071538  0.335229  0.231700  1
  O  O28  1  0.121581  0.685396  0.143692  1
  O  O29  1  0.110863  0.141525  0.868378  1
  O  O30  1  0.125976  0.645793  0.404485  1
  O  O31  1  0.262262  0.895578  0.079955  1
  O  O32  1  0.212783  0.513788  0.213029  1
  O  O33  1  0.180524  0.025051  0.654831  1
  O  O34  1  0.209570  0.215580  0.622166  1
  O  O35  1  0.276270  0.340381  0.898024  1
  O  O36  1  0.223730  0.840381  0.601976  1
  O  O37  1  0.287217  0.013788  0.286971  1
  O  O38  1  0.290430  0.715580  0.877834  1
  O  O39  1  0.237738  0.395578  0.420045  1
  O  O40  1  0.319476  0.525051  0.845169  1
  O  O41  1  0.374024  0.145793  0.095515  1
  O  O42  1  0.389137  0.641525  0.631622  1
  O  O43  1  0.378419  0.185396  0.356308  1
  O  O44  1  0.428462  0.835229  0.268300  1
  O  O45  1  0.394963  0.935969  0.776028  1
  O  O46  1  0.410816  0.366261  0.172725  1
  O  O47  1  0.430380  0.392897  0.653581  1
  O  O48  1  0.569620  0.607103  0.346419  1
  O  O49  1  0.589184  0.633739  0.827275  1
  O  O50  1  0.605037  0.064031  0.223972  1
  O  O51  1  0.571538  0.164771  0.731700  1
  O  O52  1  0.621581  0.814604  0.643692  1
  O  O53  1  0.610863  0.358475  0.368378  1
  O  O54  1  0.625976  0.854207  0.904485  1
  O  O55  1  0.680524  0.474949  0.154831  1
  O  O56  1  0.762262  0.604422  0.579955  1
  O  O57  1  0.709570  0.284420  0.122166  1
  O  O58  1  0.712783  0.986212  0.713029  1
  O  O59  1  0.776270  0.159619  0.398024  1
  O  O60  1  0.723730  0.659619  0.101976  1
  O  O61  1  0.790430  0.784420  0.377834  1
  O  O62  1  0.819476  0.974949  0.345169  1
  O  O63  1  0.787217  0.486212  0.786971  1
  O  O64  1  0.737738  0.104422  0.920045  1
  O  O65  1  0.874024  0.354207  0.595515  1
  O  O66  1  0.889137  0.858475  0.131622  1
  O  O67  1  0.878419  0.314604  0.856308  1
  O  O68  1  0.928462  0.664771  0.768300  1
  O  O69  1  0.894963  0.564031  0.276028  1
  O  O70  1  0.930380  0.107103  0.153581  1
  O  O71  1  0.910816  0.133739  0.672725  1
