# generated using pymatgen
data_RbPd2F5
_symmetry_space_group_name_H-M   'P 1'
_cell_length_a   6.50410072
_cell_length_b   7.45226634
_cell_length_c   7.45226635
_cell_angle_alpha   63.00309417
_cell_angle_beta   64.12660252
_cell_angle_gamma   64.12660250
_symmetry_Int_Tables_number   1
_chemical_formula_structural   RbPd2F5
_chemical_formula_sum   'Rb2 Pd4 F10'
_cell_volume   276.50267219
_cell_formula_units_Z   2
loop_
 _symmetry_equiv_pos_site_id
 _symmetry_equiv_pos_as_xyz
  1  'x, y, z'
loop_
 _atom_site_type_symbol
 _atom_site_label
 _atom_site_symmetry_multiplicity
 _atom_site_fract_x
 _atom_site_fract_y
 _atom_site_fract_z
 _atom_site_occupancy
  F  F0  1  0.859650  0.449313  0.311392  1
  F  F1  1  0.620355  0.550687  0.688608  1
  F  F2  1  0.140350  0.188608  0.050687  1
  F  F3  1  0.379645  0.811392  0.949313  1
  F  F4  1  0.140350  0.550687  0.688608  1
  F  F5  1  0.379645  0.449313  0.311392  1
  F  F6  1  0.906994  0.843006  0.343006  1
  F  F7  1  0.093006  0.156994  0.656994  1
  F  F8  1  0.620355  0.188608  0.050687  1
  F  F9  1  0.859650  0.811392  0.949313  1
  Rb  Rb10  1  0.605856  0.144144  0.644144  1
  Rb  Rb11  1  0.394144  0.855856  0.355856  1
  Pd  Pd12  1  0.000000  0.500000  0.500000  1
  Pd  Pd13  1  0.000000  0.000000  0.000000  1
  Pd  Pd14  1  0.000000  0.500000  0.000000  1
  Pd  Pd15  1  0.500000  0.500000  0.000000  1
