# generated using pymatgen
data_Li4Mn3Co2Ni3O16
_symmetry_space_group_name_H-M   'P 1'
_cell_length_a   5.80695235
_cell_length_b   5.75767629
_cell_length_c   9.29181213
_cell_angle_alpha   90.00101561
_cell_angle_beta   91.37072271
_cell_angle_gamma   119.72655110
_symmetry_Int_Tables_number   1
_chemical_formula_structural   Li4Mn3Co2Ni3O16
_chemical_formula_sum   'Li4 Mn3 Co2 Ni3 O16'
_cell_volume   269.68183683
_cell_formula_units_Z   1
loop_
 _symmetry_equiv_pos_site_id
 _symmetry_equiv_pos_as_xyz
  1  'x, y, z'
loop_
 _atom_site_type_symbol
 _atom_site_label
 _atom_site_symmetry_multiplicity
 _atom_site_fract_x
 _atom_site_fract_y
 _atom_site_fract_z
 _atom_site_occupancy
  Li  Li0  1  0.332823  0.666355  0.896426  1
  Li  Li1  1  0.990950  0.995434  0.992114  1
  Li  Li2  1  0.996338  0.998073  0.496662  1
  Li  Li3  1  0.665678  0.332987  0.398141  1
  Mn  Mn4  1  0.172414  0.831667  0.213214  1
  Mn  Mn5  1  0.172371  0.340745  0.213211  1
  Mn  Mn6  1  0.343874  0.171933  0.713935  1
  Co  Co7  1  0.340502  0.670248  0.487439  1
  Co  Co8  1  0.677370  0.338676  0.982950  1
  Ni  Ni9  1  0.660432  0.830257  0.211990  1
  Ni  Ni10  1  0.829964  0.660046  0.711194  1
  Ni  Ni11  1  0.829939  0.169998  0.711198  1
  O  O12  1  0.179463  0.839771  0.597688  1
  O  O13  1  0.040122  0.520050  0.337878  1
  O  O14  1  0.319213  0.659641  0.105649  1
  O  O15  1  0.011344  0.005654  0.306542  1
  O  O16  1  0.004871  0.002319  0.800907  1
  O  O17  1  0.179450  0.339628  0.597690  1
  O  O18  1  0.469269  0.958699  0.346978  1
  O  O19  1  0.469247  0.510732  0.346980  1
  O  O20  1  0.328058  0.164037  0.102196  1
  O  O21  1  0.663154  0.831577  0.595248  1
  O  O22  1  0.512116  0.470304  0.847814  1
  O  O23  1  0.512170  0.041782  0.847743  1
  O  O24  1  0.660406  0.330413  0.608384  1
  O  O25  1  0.841363  0.663735  0.095525  1
  O  O26  1  0.955680  0.477935  0.846678  1
  O  O27  1  0.841419  0.177603  0.095465  1
