# generated using pymatgen
data_Li6Mn2B4SO16
_symmetry_space_group_name_H-M   'P 1'
_cell_length_a   9.37921899
_cell_length_b   9.37921835
_cell_length_c   9.37921899
_cell_angle_alpha   59.99999874
_cell_angle_beta   120.00000020
_cell_angle_gamma   89.99999931
_symmetry_Int_Tables_number   1
_chemical_formula_structural   Li6Mn2B4SO16
_chemical_formula_sum   'Li12 Mn4 B8 S2 O32'
_cell_volume   583.42493737
_cell_formula_units_Z   2
loop_
 _symmetry_equiv_pos_site_id
 _symmetry_equiv_pos_as_xyz
  1  'x, y, z'
loop_
 _atom_site_type_symbol
 _atom_site_label
 _atom_site_symmetry_multiplicity
 _atom_site_fract_x
 _atom_site_fract_y
 _atom_site_fract_z
 _atom_site_occupancy
  Li  Li0  1  0.095007  0.654993  0.190014  1
  Li  Li1  1  0.095007  0.095007  0.750000  1
  Li  Li2  1  0.345007  0.345007  0.250000  1
  Li  Li3  1  0.654993  0.095007  0.309986  1
  Li  Li4  1  0.904993  0.345007  0.250000  1
  Li  Li5  1  0.345007  0.904993  0.250000  1
  Li  Li6  1  0.095007  0.654993  0.750000  1
  Li  Li7  1  0.654993  0.095007  0.750000  1
  Li  Li8  1  0.345007  0.904993  0.690014  1
  Li  Li9  1  0.904993  0.345007  0.809986  1
  Li  Li10  1  0.904993  0.904993  0.250000  1
  Li  Li11  1  0.654993  0.654993  0.750000  1
  Mn  Mn12  1  0.500000  0.000000  0.000000  1
  Mn  Mn13  1  0.000000  0.500000  0.500000  1
  Mn  Mn14  1  0.500000  0.500000  0.000000  1
  Mn  Mn15  1  0.500000  0.500000  0.500000  1
  B  B16  1  0.350066  0.716644  0.066710  1
  B  B17  1  0.283356  0.283356  0.566710  1
  B  B18  1  0.283356  0.283356  0.933290  1
  B  B19  1  0.716644  0.350066  0.433290  1
  B  B20  1  0.283356  0.649934  0.566710  1
  B  B21  1  0.716644  0.716644  0.066710  1
  B  B22  1  0.649934  0.283356  0.933290  1
  B  B23  1  0.716644  0.716644  0.433290  1
  S  S24  1  0.125000  0.125000  0.250000  1
  S  S25  1  0.875000  0.875000  0.750000  1
  O  O26  1  0.059791  0.059791  0.119581  1
  O  O27  1  0.059791  0.059791  0.380419  1
  O  O28  1  0.059791  0.320628  0.119581  1
  O  O29  1  0.420037  0.127584  0.072997  1
  O  O30  1  0.320628  0.059791  0.380419  1
  O  O31  1  0.127584  0.420037  0.427003  1
  O  O32  1  0.652959  0.299419  0.072997  1
  O  O33  1  0.299419  0.127584  0.719456  1
  O  O34  1  0.347041  0.579963  0.219456  1
  O  O35  1  0.579963  0.347041  0.280544  1
  O  O36  1  0.127584  0.299419  0.780544  1
  O  O37  1  0.420037  0.299419  0.547622  1
  O  O38  1  0.347041  0.872416  0.047622  1
  O  O39  1  0.700581  0.579963  0.047622  1
  O  O40  1  0.127584  0.652959  0.547622  1
  O  O41  1  0.299419  0.652959  0.427003  1
  O  O42  1  0.700581  0.347041  0.572997  1
  O  O43  1  0.299419  0.420037  0.952378  1
  O  O44  1  0.872416  0.347041  0.452378  1
  O  O45  1  0.652959  0.127584  0.952378  1
  O  O46  1  0.579963  0.700581  0.452378  1
  O  O47  1  0.872416  0.700581  0.219456  1
  O  O48  1  0.420037  0.652959  0.719456  1
  O  O49  1  0.652959  0.420037  0.780544  1
  O  O50  1  0.700581  0.872416  0.280544  1
  O  O51  1  0.347041  0.700581  0.927003  1
  O  O52  1  0.872416  0.579963  0.572997  1
  O  O53  1  0.679372  0.940209  0.619581  1
  O  O54  1  0.579963  0.872416  0.927003  1
  O  O55  1  0.940209  0.679372  0.880419  1
  O  O56  1  0.940209  0.940209  0.619581  1
  O  O57  1  0.940209  0.940209  0.880419  1
