# generated using pymatgen
data_Li3Mn4(BO3)4
_symmetry_space_group_name_H-M   'P 1'
_cell_length_a   10.47604668
_cell_length_b   7.92705095
_cell_length_c   6.17175368
_cell_angle_alpha   80.25728322
_cell_angle_beta   92.73387072
_cell_angle_gamma   91.95277916
_symmetry_Int_Tables_number   1
_chemical_formula_structural   Li3Mn4(BO3)4
_chemical_formula_sum   'Li6 Mn8 B8 O24'
_cell_volume   504.38519948
_cell_formula_units_Z   2
loop_
 _symmetry_equiv_pos_site_id
 _symmetry_equiv_pos_as_xyz
  1  'x, y, z'
loop_
 _atom_site_type_symbol
 _atom_site_label
 _atom_site_symmetry_multiplicity
 _atom_site_fract_x
 _atom_site_fract_y
 _atom_site_fract_z
 _atom_site_occupancy
  Li  Li0  1  0.042586  0.153056  0.534694  1
  Li  Li1  1  0.546381  0.152913  0.533074  1
  Li  Li2  1  0.282905  0.640216  0.020334  1
  Li  Li3  1  0.717095  0.359784  0.979666  1
  Li  Li4  1  0.453619  0.847087  0.466926  1
  Li  Li5  1  0.957414  0.846944  0.465306  1
  Mn  Mn6  1  0.298848  0.008887  0.746457  1
  Mn  Mn7  1  0.046634  0.497081  0.252328  1
  Mn  Mn8  1  0.799196  0.979144  0.772309  1
  Mn  Mn9  1  0.555675  0.508349  0.251803  1
  Mn  Mn10  1  0.444325  0.491651  0.748197  1
  Mn  Mn11  1  0.200804  0.020856  0.227691  1
  Mn  Mn12  1  0.953366  0.502919  0.747672  1
  Mn  Mn13  1  0.701152  0.991113  0.253543  1
  B  B14  1  0.457250  0.168825  0.094240  1
  B  B15  1  0.298531  0.339646  0.407223  1
  B  B16  1  0.944443  0.169692  0.100382  1
  B  B17  1  0.800024  0.324280  0.424535  1
  B  B18  1  0.199976  0.675720  0.575465  1
  B  B19  1  0.055557  0.830308  0.899618  1
  B  B20  1  0.701469  0.660354  0.592777  1
  B  B21  1  0.542750  0.831175  0.905760  1
  O  O22  1  0.003213  0.046994  0.254952  1
  O  O23  1  0.002196  0.328554  0.031998  1
  O  O24  1  0.333601  0.143198  0.012896  1
  O  O25  1  0.509389  0.048904  0.260794  1
  O  O26  1  0.228771  0.186260  0.477064  1
  O  O27  1  0.525172  0.319418  0.011346  1
  O  O28  1  0.820664  0.139965  0.017540  1
  O  O29  1  0.243478  0.473195  0.271462  1
  O  O30  1  0.427877  0.348326  0.479371  1
  O  O31  1  0.738699  0.167744  0.503955  1
  O  O32  1  0.070121  0.649732  0.502675  1
  O  O33  1  0.744525  0.441866  0.265644  1
  O  O34  1  0.255475  0.558133  0.734356  1
  O  O35  1  0.929879  0.350268  0.497325  1
  O  O36  1  0.261301  0.832256  0.496045  1
  O  O37  1  0.572123  0.651674  0.520629  1
  O  O38  1  0.756522  0.526805  0.728538  1
  O  O39  1  0.179336  0.860035  0.982460  1
  O  O40  1  0.474828  0.680582  0.988654  1
  O  O41  1  0.771229  0.813740  0.522936  1
  O  O42  1  0.490611  0.951096  0.739206  1
  O  O43  1  0.666399  0.856802  0.987104  1
  O  O44  1  0.997804  0.671446  0.968002  1
  O  O45  1  0.996787  0.953006  0.745048  1
