# generated using pymatgen
data_Li7Cu(SiO4)2
_symmetry_space_group_name_H-M   'P 1'
_cell_length_a   6.32805936
_cell_length_b   8.33670178
_cell_length_c   7.76485361
_cell_angle_alpha   91.26985465
_cell_angle_beta   90.00000000
_cell_angle_gamma   67.69542151
_symmetry_Int_Tables_number   1
_chemical_formula_structural   Li7Cu(SiO4)2
_chemical_formula_sum   'Li14 Cu2 Si4 O16'
_cell_volume   378.87801499
_cell_formula_units_Z   2
loop_
 _symmetry_equiv_pos_site_id
 _symmetry_equiv_pos_as_xyz
  1  'x, y, z'
loop_
 _atom_site_type_symbol
 _atom_site_label
 _atom_site_symmetry_multiplicity
 _atom_site_fract_x
 _atom_site_fract_y
 _atom_site_fract_z
 _atom_site_occupancy
  Li  Li0  1  0.343955  0.827811  0.626726  1
  Li  Li1  1  0.828235  0.827811  0.626726  1
  Li  Li2  1  0.069218  0.861564  0.298204  1
  Li  Li3  1  0.649651  0.700698  0.854210  1
  Li  Li4  1  0.937562  0.635256  0.156817  1
  Li  Li5  1  0.427182  0.635256  0.156817  1
  Li  Li6  1  0.062438  0.364744  0.843183  1
  Li  Li7  1  0.572818  0.364744  0.843183  1
  Li  Li8  1  0.350349  0.299302  0.145790  1
  Li  Li9  1  0.930782  0.138436  0.701796  1
  Li  Li10  1  0.656045  0.172189  0.373274  1
  Li  Li11  1  0.171765  0.172189  0.373274  1
  Li  Li12  1  0.000000  0.000000  0.000000  1
  Li  Li13  1  0.500000  0.000000  0.000000  1
  Cu  Cu14  1  0.271330  0.457338  0.594240  1
  Cu  Cu15  1  0.728670  0.542662  0.405760  1
  Si  Si16  1  0.570606  0.858789  0.287653  1
  Si  Si17  1  0.146441  0.707116  0.849733  1
  Si  Si18  1  0.853559  0.292884  0.150267  1
  Si  Si19  1  0.429394  0.141211  0.712347  1
  O  O20  1  0.534517  0.930966  0.739380  1
  O  O21  1  0.050567  0.898865  0.759274  1
  O  O22  1  0.391816  0.786246  0.385138  1
  O  O23  1  0.821939  0.786246  0.385138  1
  O  O24  1  0.616048  0.767905  0.091495  1
  O  O25  1  0.129971  0.740058  0.059754  1
  O  O26  1  0.413200  0.603604  0.780463  1
  O  O27  1  0.983195  0.603604  0.780463  1
  O  O28  1  0.016805  0.396396  0.219537  1
  O  O29  1  0.586800  0.396396  0.219537  1
  O  O30  1  0.870029  0.259942  0.940246  1
  O  O31  1  0.383952  0.232095  0.908505  1
  O  O32  1  0.608184  0.213754  0.614862  1
  O  O33  1  0.178061  0.213754  0.614862  1
  O  O34  1  0.949433  0.101135  0.240726  1
  O  O35  1  0.465483  0.069034  0.260620  1
