# generated using pymatgen
data_Li2Ni(PO3)4
_symmetry_space_group_name_H-M   'P 1'
_cell_length_a   8.16181101
_cell_length_b   8.16181101
_cell_length_c   7.58860042
_cell_angle_alpha   81.40245624
_cell_angle_beta   98.59754376
_cell_angle_gamma   79.68891133
_symmetry_Int_Tables_number   1
_chemical_formula_structural   Li2Ni(PO3)4
_chemical_formula_sum   'Li4 Ni2 P8 O24'
_cell_volume   483.62438668
_cell_formula_units_Z   2
loop_
 _symmetry_equiv_pos_site_id
 _symmetry_equiv_pos_as_xyz
  1  'x, y, z'
loop_
 _atom_site_type_symbol
 _atom_site_label
 _atom_site_symmetry_multiplicity
 _atom_site_fract_x
 _atom_site_fract_y
 _atom_site_fract_z
 _atom_site_occupancy
  Li  Li0  1  0.516600  0.808992  0.868688  1
  Li  Li1  1  0.191008  0.483400  0.368688  1
  Li  Li2  1  0.770330  0.574970  0.573442  1
  Li  Li3  1  0.425030  0.229670  0.073442  1
  Ni  Ni4  1  0.161504  0.142829  0.751494  1
  Ni  Ni5  1  0.857171  0.838496  0.251494  1
  P  P6  1  0.044719  0.800787  0.677623  1
  P  P7  1  0.199213  0.955281  0.177623  1
  P  P8  1  0.137600  0.481790  0.936726  1
  P  P9  1  0.518210  0.862400  0.436726  1
  P  P10  1  0.490839  0.187942  0.567931  1
  P  P11  1  0.812058  0.509161  0.067931  1
  P  P12  1  0.813652  0.043015  0.832286  1
  P  P13  1  0.956985  0.186348  0.332286  1
  O  O14  1  0.150920  0.929707  0.645964  1
  O  O15  1  0.070293  0.849080  0.145964  1
  O  O16  1  0.155378  0.668273  0.852170  1
  O  O17  1  0.331727  0.844622  0.352170  1
  O  O18  1  0.719551  0.987964  0.980569  1
  O  O19  1  0.205057  0.362799  0.817898  1
  O  O20  1  0.560695  0.770951  0.628457  1
  O  O21  1  0.012036  0.280449  0.480569  1
  O  O22  1  0.637201  0.794943  0.317898  1
  O  O23  1  0.229049  0.439305  0.128457  1
  O  O24  1  0.876651  0.874709  0.751551  1
  O  O25  1  0.634040  0.567856  0.972238  1
  O  O26  1  0.125291  0.123349  0.251551  1
  O  O27  1  0.432144  0.365960  0.472238  1
  O  O28  1  0.402710  0.108412  0.708634  1
  O  O29  1  0.988572  0.703040  0.532272  1
  O  O30  1  0.932886  0.498415  0.911672  1
  O  O31  1  0.891588  0.597290  0.208634  1
  O  O32  1  0.296960  0.011428  0.032272  1
  O  O33  1  0.501585  0.067114  0.411672  1
  O  O34  1  0.686073  0.164782  0.660177  1
  O  O35  1  0.835218  0.313927  0.160177  1
  O  O36  1  0.952264  0.138647  0.865289  1
  O  O37  1  0.861354  0.047736  0.365289  1
