# generated using pymatgen
data_Tb2MgGe2
_symmetry_space_group_name_H-M   'P 1'
_cell_length_a   7.29450963
_cell_length_b   7.29449359
_cell_length_c   4.27111464
_cell_angle_alpha   89.99986530
_cell_angle_beta   89.99992034
_cell_angle_gamma   90.00008915
_symmetry_Int_Tables_number   1
_chemical_formula_structural   Tb2MgGe2
_chemical_formula_sum   'Tb4 Mg2 Ge4'
_cell_volume   227.26495818
_cell_formula_units_Z   2
loop_
 _symmetry_equiv_pos_site_id
 _symmetry_equiv_pos_as_xyz
  1  'x, y, z'
loop_
 _atom_site_type_symbol
 _atom_site_label
 _atom_site_symmetry_multiplicity
 _atom_site_fract_x
 _atom_site_fract_y
 _atom_site_fract_z
 _atom_site_occupancy
  Tb  Tb0  1  0.322499  0.177500  0.500000  1
  Tb  Tb1  1  0.822499  0.322500  0.500000  1
  Tb  Tb2  1  0.177500  0.677501  0.500000  1
  Tb  Tb3  1  0.677501  0.822499  0.500000  1
  Mg  Mg4  1  0.000003  -0.000000  -0.000001  1
  Mg  Mg5  1  0.499999  0.500001  -0.000000  1
  Ge  Ge6  1  0.623248  0.123249  0.000001  1
  Ge  Ge7  1  0.123249  0.376752  -0.000000  1
  Ge  Ge8  1  0.876752  0.623248  0.000000  1
  Ge  Ge9  1  0.376752  0.876752  -0.000000  1
