# generated using pymatgen
data_Li3Mn2(P2O7)2
_symmetry_space_group_name_H-M   'P 1'
_cell_length_a   9.84142961
_cell_length_b   9.85241776
_cell_length_c   11.38826365
_cell_angle_alpha   90.27423060
_cell_angle_beta   103.30305309
_cell_angle_gamma   89.63007758
_symmetry_Int_Tables_number   1
_chemical_formula_structural   Li3Mn2(P2O7)2
_chemical_formula_sum   'Li12 Mn8 P16 O56'
_cell_volume   1074.56866755
_cell_formula_units_Z   4
loop_
 _symmetry_equiv_pos_site_id
 _symmetry_equiv_pos_as_xyz
  1  'x, y, z'
loop_
 _atom_site_type_symbol
 _atom_site_label
 _atom_site_symmetry_multiplicity
 _atom_site_fract_x
 _atom_site_fract_y
 _atom_site_fract_z
 _atom_site_occupancy
  Li  Li0  1  0.169444  0.425487  0.541857  1
  Li  Li1  1  0.088291  0.109762  0.027268  1
  Li  Li2  1  0.341667  0.906745  0.957024  1
  Li  Li3  1  0.412804  0.605685  0.971766  1
  Li  Li4  1  0.335682  0.921897  0.458599  1
  Li  Li5  1  0.650711  0.065858  0.531245  1
  Li  Li6  1  0.587126  0.392678  0.031164  1
  Li  Li7  1  0.851192  0.586453  0.958891  1
  Li  Li8  1  0.653350  0.091558  0.042778  1
  Li  Li9  1  0.912632  0.895058  0.970459  1
  Li  Li10  1  0.825187  0.587296  0.451605  1
  Li  Li11  1  0.884917  0.280013  0.550286  1
  Mn  Mn12  1  0.199901  0.923663  0.667015  1
  Mn  Mn13  1  0.258097  0.215893  0.824418  1
  Mn  Mn14  1  0.243769  0.712597  0.178164  1
  Mn  Mn15  1  0.297558  0.424070  0.325680  1
  Mn  Mn16  1  0.701289  0.577886  0.671211  1
  Mn  Mn17  1  0.753834  0.284402  0.824235  1
  Mn  Mn18  1  0.747813  0.783175  0.179439  1
  Mn  Mn19  1  0.798128  0.074967  0.326319  1
  P  P20  1  0.024922  0.452440  0.755607  1
  P  P21  1  0.119103  0.707819  0.891053  1
  P  P22  1  0.063185  0.931755  0.241199  1
  P  P23  1  0.122810  0.150717  0.424397  1
  P  P24  1  0.377250  0.648072  0.576187  1
  P  P25  1  0.437992  0.431650  0.757233  1
  P  P26  1  0.522094  0.045796  0.755219  1
  P  P27  1  0.380757  0.207922  0.111170  1
  P  P28  1  0.617889  0.794201  0.892630  1
  P  P29  1  0.475561  0.951083  0.245457  1
  P  P30  1  0.562942  0.570051  0.242170  1
  P  P31  1  0.619716  0.352354  0.420456  1
  P  P32  1  0.877830  0.850791  0.578262  1
  P  P33  1  0.938610  0.068337  0.756417  1
  P  P34  1  0.883364  0.292987  0.109436  1
  P  P35  1  0.978413  0.546334  0.247898  1
  O  O36  1  0.019460  0.419972  0.624718  1
  O  O37  1  0.032217  0.842387  0.568957  1
  O  O38  1  0.086359  0.080783  0.729103  1
  O  O39  1  0.106595  0.349692  0.846073  1
  O  O40  1  0.102617  0.596186  0.782894  1
  O  O41  1  0.178595  0.831912  0.839227  1
  O  O42  1  0.229334  0.651903  0.001049  1
  O  O43  1  0.019960  0.267834  0.077573  1
  O  O44  1  0.116522  0.079381  0.294525  1
  O  O45  1  0.061020  0.937384  0.107853  1
  O  O46  1  0.133041  0.536664  0.226303  1
  O  O47  1  0.180110  0.292998  0.413142  1
  O  O48  1  0.172826  0.826555  0.304335  1
  O  O49  1  0.214554  0.058536  0.518109  1
  O  O50  1  0.284329  0.559653  0.479794  1
  O  O51  1  0.330472  0.325026  0.695254  1
  O  O52  1  0.321401  0.792988  0.588382  1
  O  O53  1  0.367780  0.031565  0.778252  1
  O  O54  1  0.377158  0.578301  0.705521  1
  O  O55  1  0.443207  0.436609  0.890949  1
  O  O56  1  0.478420  0.775882  0.924371  1
  O  O57  1  0.276812  0.139650  0.000687  1
  O  O58  1  0.321234  0.330123  0.164605  1
  O  O59  1  0.401945  0.097120  0.219362  1
  O  O60  1  0.417007  0.587016  0.270908  1
  O  O61  1  0.388958  0.854380  0.148357  1
  O  O62  1  0.522433  0.080598  0.628115  1
  O  O63  1  0.467158  0.348584  0.431410  1
  O  O64  1  0.529868  0.654470  0.565459  1
  O  O65  1  0.479743  0.920309  0.374598  1
  O  O66  1  0.604720  0.138550  0.855726  1
  O  O67  1  0.583684  0.415685  0.726404  1
  O  O68  1  0.594235  0.897547  0.779333  1
  O  O69  1  0.683029  0.668453  0.847055  1
  O  O70  1  0.723374  0.863760  0.999871  1
  O  O71  1  0.519793  0.225434  0.077953  1
  O  O72  1  0.561110  0.565195  0.108950  1
  O  O73  1  0.621325  0.421041  0.292532  1
  O  O74  1  0.625275  0.963491  0.216492  1
  O  O75  1  0.681507  0.208803  0.416205  1
  O  O76  1  0.670927  0.672871  0.308000  1
  O  O77  1  0.720175  0.435389  0.517838  1
  O  O78  1  0.786918  0.940237  0.482144  1
  O  O79  1  0.837956  0.177569  0.687819  1
  O  O80  1  0.822292  0.707283  0.589285  1
  O  O81  1  0.873691  0.470010  0.780454  1
  O  O82  1  0.936407  0.067645  0.888688  1
  O  O83  1  0.877992  0.921553  0.707578  1
  O  O84  1  0.978341  0.725398  0.920873  1
  O  O85  1  0.776214  0.364129  0.003003  1
  O  O86  1  0.812937  0.171959  0.157235  1
  O  O87  1  0.908431  0.398848  0.222479  1
  O  O88  1  0.895643  0.639899  0.146981  1
  O  O89  1  0.917777  0.912236  0.269569  1
  O  O90  1  0.970410  0.162384  0.439139  1
  O  O91  1  0.974922  0.580164  0.375005  1
