# generated using pymatgen
data_Li2ZnGeO4
_symmetry_space_group_name_H-M   'P 1'
_cell_length_a   5.12228343
_cell_length_b   5.50121587
_cell_length_c   6.44426132
_cell_angle_alpha   90.00000000
_cell_angle_beta   89.79180339
_cell_angle_gamma   90.00000000
_symmetry_Int_Tables_number   1
_chemical_formula_structural   Li2ZnGeO4
_chemical_formula_sum   'Li4 Zn2 Ge2 O8'
_cell_volume   181.59026773
_cell_formula_units_Z   2
loop_
 _symmetry_equiv_pos_site_id
 _symmetry_equiv_pos_as_xyz
  1  'x, y, z'
loop_
 _atom_site_type_symbol
 _atom_site_label
 _atom_site_symmetry_multiplicity
 _atom_site_fract_x
 _atom_site_fract_y
 _atom_site_fract_z
 _atom_site_occupancy
  Li  Li0  1  0.501406  0.162750  0.000136  1
  Li  Li1  1  0.001070  0.328245  0.751785  1
  Li  Li2  1  0.501070  0.671755  0.251785  1
  Li  Li3  1  0.001406  0.837250  0.500136  1
  O  O4  1  0.647786  0.823268  0.999532  1
  O  O5  1  0.609161  0.321184  0.271983  1
  O  O6  1  0.147786  0.176732  0.499532  1
  O  O7  1  0.109161  0.678816  0.771983  1
  O  O8  1  0.608493  0.863209  0.501098  1
  O  O9  1  0.108493  0.136791  0.001098  1
  O  O10  1  0.609397  0.321948  0.728131  1
  O  O11  1  0.109397  0.678052  0.228131  1
  Zn  Zn12  1  0.999684  0.332643  0.247946  1
  Zn  Zn13  1  0.499684  0.667357  0.747946  1
  Ge  Ge14  1  0.496003  0.169671  0.500390  1
  Ge  Ge15  1  0.996003  0.830329  0.000390  1
