# generated using pymatgen
data_CaSnS3
_symmetry_space_group_name_H-M   'P 1'
_cell_length_a   4.95250363
_cell_length_b   4.95250363
_cell_length_c   5.39857677
_cell_angle_alpha   90.00000000
_cell_angle_beta   90.00000000
_cell_angle_gamma   70.17188892
_symmetry_Int_Tables_number   1
_chemical_formula_structural   CaSnS3
_chemical_formula_sum   'Ca1 Sn1 S3'
_cell_volume   124.56232508
_cell_formula_units_Z   1
loop_
 _symmetry_equiv_pos_site_id
 _symmetry_equiv_pos_as_xyz
  1  'x, y, z'
loop_
 _atom_site_type_symbol
 _atom_site_label
 _atom_site_symmetry_multiplicity
 _atom_site_fract_x
 _atom_site_fract_y
 _atom_site_fract_z
 _atom_site_occupancy
  Ca  Ca0  1  0.193349  0.806651  0.000000  1
  Sn  Sn1  1  0.666002  0.333998  0.500000  1
  S  S2  1  0.695167  0.304833  0.000000  1
  S  S3  1  0.091836  0.625555  0.500000  1
  S  S4  1  0.374445  0.908164  0.500000  1
