# generated using pymatgen
data_Li15Cr15SiO32
_symmetry_space_group_name_H-M   'P 1'
_cell_length_a   8.08231375
_cell_length_b   8.08575489
_cell_length_c   8.87385348
_cell_angle_alpha   89.89337090
_cell_angle_beta   90.00921259
_cell_angle_gamma   89.98840066
_symmetry_Int_Tables_number   1
_chemical_formula_structural   Li15Cr15SiO32
_chemical_formula_sum   'Li15 Cr15 Si1 O32'
_cell_volume   579.91956936
_cell_formula_units_Z   1
loop_
 _symmetry_equiv_pos_site_id
 _symmetry_equiv_pos_as_xyz
  1  'x, y, z'
loop_
 _atom_site_type_symbol
 _atom_site_label
 _atom_site_symmetry_multiplicity
 _atom_site_fract_x
 _atom_site_fract_y
 _atom_site_fract_z
 _atom_site_occupancy
  Li  Li0  1  0.124913  0.874550  0.229904  1
  Li  Li1  1  0.124796  0.621798  0.490022  1
  Li  Li2  1  0.124227  0.128462  0.484163  1
  Li  Li3  1  0.375139  0.623018  0.748667  1
  Li  Li4  1  0.377238  0.124964  0.743761  1
  Li  Li5  1  0.376093  0.377491  0.016418  1
  Li  Li6  1  0.374345  0.873132  -0.000050  1
  Li  Li7  1  0.626936  0.125032  0.496629  1
  Li  Li8  1  0.625991  0.624717  0.498024  1
  Li  Li9  1  0.625194  0.873835  0.250350  1
  Li  Li10  1  0.625143  0.376612  0.254981  1
  Li  Li11  1  0.877046  0.874502  0.003919  1
  Li  Li12  1  0.875606  0.376278  0.013270  1
  Li  Li13  1  0.874426  0.125165  0.766799  1
  Li  Li14  1  0.875972  0.623202  0.750952  1
  Cr  Cr15  1  0.125417  0.874088  0.754643  1
  Cr  Cr16  1  0.125560  0.622154  0.004224  1
  Cr  Cr17  1  0.125687  0.373530  0.752672  1
  Cr  Cr18  1  0.371889  0.622049  0.250726  1
  Cr  Cr19  1  0.373755  0.874776  0.498770  1
  Cr  Cr20  1  0.372008  0.128121  0.247517  1
  Cr  Cr21  1  0.373552  0.374732  0.497963  1
  Cr  Cr22  1  0.625475  0.624745  0.001384  1
  Cr  Cr23  1  0.625672  0.874372  0.749257  1
  Cr  Cr24  1  0.623696  0.125154  0.998636  1
  Cr  Cr25  1  0.625304  0.374894  0.749452  1
  Cr  Cr26  1  0.876998  0.875733  0.498548  1
  Cr  Cr27  1  0.878684  0.621559  0.250642  1
  Cr  Cr28  1  0.877038  0.373815  0.498270  1
  Cr  Cr29  1  0.877861  0.128472  0.245346  1
  Si  Si30  1  0.128121  0.134469  0.001879  1
  O  O31  1  0.125250  0.370684  0.528901  1
  O  O32  1  0.124823  0.119417  0.200101  1
  O  O33  1  0.127452  0.123233  0.800860  1
  O  O34  1  0.126254  0.358240  0.980913  1
  O  O35  1  0.125819  0.884093  0.983342  1
  O  O36  1  0.125387  0.623298  0.776724  1
  O  O37  1  0.125336  0.634521  0.227562  1
  O  O38  1  0.125362  0.879712  0.527198  1
  O  O39  1  0.374981  0.372931  0.726863  1
  O  O40  1  0.359379  0.126133  0.017793  1
  O  O41  1  0.372276  0.124837  0.475344  1
  O  O42  1  0.385802  0.374396  0.271324  1
  O  O43  1  0.373545  0.876422  0.270950  1
  O  O44  1  0.373221  0.624887  0.478643  1
  O  O45  1  0.374489  0.623788  0.021937  1
  O  O46  1  0.375049  0.875292  0.728639  1
  O  O47  1  0.624722  0.122763  0.223814  1
  O  O48  1  0.625374  0.373912  0.522327  1
  O  O49  1  0.624788  0.373357  0.978656  1
  O  O50  1  0.624342  0.124538  0.772347  1
  O  O51  1  0.625728  0.624795  0.772582  1
  O  O52  1  0.625032  0.876343  0.978201  1
  O  O53  1  0.625462  0.875814  0.521174  1
  O  O54  1  0.625303  0.627451  0.228181  1
  O  O55  1  0.890755  0.126251  0.014192  1
  O  O56  1  0.875966  0.371546  0.728128  1
  O  O57  1  0.864417  0.374430  0.271244  1
  O  O58  1  0.878283  0.124841  0.471489  1
  O  O59  1  0.877411  0.624918  0.478766  1
  O  O60  1  0.876491  0.876231  0.269618  1
  O  O61  1  0.876030  0.877004  0.728761  1
  O  O62  1  0.876490  0.623298  0.021488  1
