# generated using pymatgen
data_Mn3O5F
_symmetry_space_group_name_H-M   'P 1'
_cell_length_a   7.10944646
_cell_length_b   5.44909550
_cell_length_c   5.46225021
_cell_angle_alpha   72.17775974
_cell_angle_beta   72.60025958
_cell_angle_gamma   72.61389829
_symmetry_Int_Tables_number   1
_chemical_formula_structural   Mn3O5F
_chemical_formula_sum   'Mn6 O10 F2'
_cell_volume   187.16368521
_cell_formula_units_Z   2
loop_
 _symmetry_equiv_pos_site_id
 _symmetry_equiv_pos_as_xyz
  1  'x, y, z'
loop_
 _atom_site_type_symbol
 _atom_site_label
 _atom_site_symmetry_multiplicity
 _atom_site_fract_x
 _atom_site_fract_y
 _atom_site_fract_z
 _atom_site_occupancy
  Mn  Mn0  1  0.842563  0.652577  0.667326  1
  Mn  Mn1  1  0.668074  0.359535  0.315639  1
  Mn  Mn2  1  0.333118  0.651068  0.658463  1
  Mn  Mn3  1  0.161937  0.331682  0.331511  1
  Mn  Mn4  1  0.502086  0.007716  0.022634  1
  Mn  Mn5  1  0.991480  0.998150  0.005484  1
  O  O6  1  0.331458  0.356963  0.975354  1
  O  O7  1  0.629262  0.566955  0.562376  1
  O  O8  1  0.957516  0.233169  0.234588  1
  O  O9  1  0.700009  0.111867  0.108480  1
  O  O10  1  0.039288  0.764694  0.765654  1
  O  O11  1  0.373890  0.427930  0.433033  1
  O  O12  1  0.328171  0.969470  0.366144  1
  O  O13  1  0.665176  0.648632  0.023298  1
  O  O14  1  0.003020  0.301225  0.694115  1
  O  O15  1  0.001407  0.690419  0.307747  1
  F  F16  1  0.666913  0.035391  0.635142  1
  F  F17  1  0.304634  0.892556  0.893013  1
