# generated using pymatgen
data_Cs2VAgS4
_symmetry_space_group_name_H-M   'P 1'
_cell_length_a   5.87592704
_cell_length_b   7.77633597
_cell_length_c   12.76447833
_cell_angle_alpha   85.01131349
_cell_angle_beta   76.69308766
_cell_angle_gamma   67.80201636
_symmetry_Int_Tables_number   1
_chemical_formula_structural   Cs2VAgS4
_chemical_formula_sum   'Cs4 V2 Ag2 S8'
_cell_volume   525.52246703
_cell_formula_units_Z   2
loop_
 _symmetry_equiv_pos_site_id
 _symmetry_equiv_pos_as_xyz
  1  'x, y, z'
loop_
 _atom_site_type_symbol
 _atom_site_label
 _atom_site_symmetry_multiplicity
 _atom_site_fract_x
 _atom_site_fract_y
 _atom_site_fract_z
 _atom_site_occupancy
  S  S0  1  0.220245  0.068712  0.146385  1
  S  S1  1  0.935343  0.431288  0.353615  1
  S  S2  1  0.711042  0.068712  0.353615  1
  S  S3  1  0.633369  0.431288  0.146385  1
  S  S4  1  0.366631  0.568712  0.853615  1
  S  S5  1  0.064657  0.568712  0.646385  1
  S  S6  1  0.288958  0.931288  0.646385  1
  S  S7  1  0.779755  0.931288  0.853615  1
  V  V8  1  0.875000  0.250000  0.250000  1
  V  V9  1  0.125000  0.750000  0.750000  1
  Ag  Ag10  1  0.625000  0.750000  0.750000  1
  Ag  Ag11  1  0.375000  0.250000  0.250000  1
  Cs  Cs12  1  0.946904  0.750000  0.106192  1
  Cs  Cs13  1  0.303096  0.750000  0.393808  1
  Cs  Cs14  1  0.696904  0.250000  0.606192  1
  Cs  Cs15  1  0.053096  0.250000  0.893808  1
