# generated using pymatgen
data_Mn3Si3O10
_symmetry_space_group_name_H-M   'P 1'
_cell_length_a   4.95155345
_cell_length_b   8.23500256
_cell_length_c   10.21690035
_cell_angle_alpha   88.51562425
_cell_angle_beta   90.00737356
_cell_angle_gamma   72.50301966
_symmetry_Int_Tables_number   1
_chemical_formula_structural   Mn3Si3O10
_chemical_formula_sum   'Mn6 Si6 O20'
_cell_volume   397.18272377
_cell_formula_units_Z   2
loop_
 _symmetry_equiv_pos_site_id
 _symmetry_equiv_pos_as_xyz
  1  'x, y, z'
loop_
 _atom_site_type_symbol
 _atom_site_label
 _atom_site_symmetry_multiplicity
 _atom_site_fract_x
 _atom_site_fract_y
 _atom_site_fract_z
 _atom_site_occupancy
  Mn  Mn0  1  0.065849  0.306759  0.226565  1
  Mn  Mn1  1  0.000000  0.500000  0.500000  1
  Mn  Mn2  1  0.373101  0.693325  0.273414  1
  Mn  Mn3  1  0.500000  0.500000  0.000000  1
  Mn  Mn4  1  0.626899  0.306675  0.726586  1
  Mn  Mn5  1  0.934151  0.693241  0.773435  1
  Si  Si6  1  0.187423  0.000056  0.749941  1
  Si  Si7  1  0.157852  0.290092  0.910629  1
  Si  Si8  1  0.551742  0.290022  0.410616  1
  Si  Si9  1  0.812577  0.999944  0.250059  1
  Si  Si10  1  0.448258  0.709978  0.589384  1
  Si  Si11  1  0.842148  0.709908  0.089371  1
  O  O12  1  0.338229  0.107153  0.847883  1
  O  O13  1  0.248878  0.322341  0.059730  1
  O  O14  1  0.268908  0.434719  0.824853  1
  O  O15  1  0.135768  0.682211  0.607141  1
  O  O16  1  0.059416  0.861900  0.335751  1
  O  O17  1  0.079099  0.861919  0.835706  1
  O  O18  1  0.182395  0.682344  0.107091  1
  O  O19  1  0.295976  0.434646  0.324854  1
  O  O20  1  0.428430  0.322310  0.559710  1
  O  O21  1  0.554676  0.106945  0.348011  1
  O  O22  1  0.445324  0.893055  0.651989  1
  O  O23  1  0.571570  0.677690  0.440290  1
  O  O24  1  0.704024  0.565354  0.675146  1
  O  O25  1  0.817605  0.317656  0.892909  1
  O  O26  1  0.920901  0.138081  0.164294  1
  O  O27  1  0.940584  0.138100  0.664249  1
  O  O28  1  0.864232  0.317789  0.392859  1
  O  O29  1  0.731092  0.565281  0.175147  1
  O  O30  1  0.751122  0.677659  0.940270  1
  O  O31  1  0.661771  0.892847  0.152117  1
