# generated using pymatgen
data_EuH32C8N4Cl7
_symmetry_space_group_name_H-M   'P 1'
_cell_length_a   8.89532093
_cell_length_b   10.60542578
_cell_length_c   13.57500749
_cell_angle_alpha   90.00000000
_cell_angle_beta   90.00000000
_cell_angle_gamma   90.00000000
_symmetry_Int_Tables_number   1
_chemical_formula_structural   EuH32C8N4Cl7
_chemical_formula_sum   'Eu2 H64 C16 N8 Cl14'
_cell_volume   1280.64809636
_cell_formula_units_Z   2
loop_
 _symmetry_equiv_pos_site_id
 _symmetry_equiv_pos_as_xyz
  1  'x, y, z'
loop_
 _atom_site_type_symbol
 _atom_site_label
 _atom_site_symmetry_multiplicity
 _atom_site_fract_x
 _atom_site_fract_y
 _atom_site_fract_z
 _atom_site_occupancy
  Eu  Eu0  1  0.929396  0.500000  0.000000  1
  Eu  Eu1  1  0.070604  0.000000  0.500000  1
  H  H2  1  0.977313  0.772582  0.173977  1
  H  H3  1  0.977313  0.227418  0.826023  1
  H  H4  1  0.022687  0.727418  0.673977  1
  H  H5  1  0.022687  0.272582  0.326023  1
  H  H6  1  0.962177  0.889407  0.256010  1
  H  H7  1  0.962177  0.110593  0.743990  1
  H  H8  1  0.037823  0.610593  0.756010  1
  H  H9  1  0.037823  0.389407  0.243990  1
  H  H10  1  0.624777  0.678222  0.933824  1
  H  H11  1  0.624777  0.321778  0.066176  1
  H  H12  1  0.375223  0.821778  0.433824  1
  H  H13  1  0.375223  0.178222  0.566176  1
  H  H14  1  0.542240  0.821972  0.942150  1
  H  H15  1  0.542240  0.178028  0.057850  1
  H  H16  1  0.457760  0.678028  0.442150  1
  H  H17  1  0.457760  0.321972  0.557850  1
  H  H18  1  0.545938  0.657225  0.762486  1
  H  H19  1  0.545938  0.342775  0.237514  1
  H  H20  1  0.454062  0.842775  0.262486  1
  H  H21  1  0.454062  0.157225  0.737514  1
  H  H22  1  0.661689  0.793647  0.783132  1
  H  H23  1  0.661689  0.206353  0.216868  1
  H  H24  1  0.338311  0.706353  0.283132  1
  H  H25  1  0.338311  0.293647  0.716868  1
  H  H26  1  0.461811  0.811613  0.771693  1
  H  H27  1  0.461811  0.188387  0.228307  1
  H  H28  1  0.538189  0.688387  0.271693  1
  H  H29  1  0.538189  0.311613  0.728307  1
  H  H30  1  0.814235  0.016211  0.141217  1
  H  H31  1  0.814235  0.983789  0.858783  1
  H  H32  1  0.185765  0.483789  0.641217  1
  H  H33  1  0.185765  0.516211  0.358783  1
  H  H34  1  0.728822  0.866442  0.169083  1
  H  H35  1  0.728822  0.133558  0.830917  1
  H  H36  1  0.271178  0.633558  0.669083  1
  H  H37  1  0.271178  0.366442  0.330917  1
  H  H38  1  0.826203  0.887115  0.054866  1
  H  H39  1  0.826203  0.112885  0.945134  1
  H  H40  1  0.173797  0.612885  0.554866  1
  H  H41  1  0.173797  0.387115  0.445134  1
  H  H42  1  0.120696  0.899757  0.062627  1
  H  H43  1  0.120696  0.100243  0.937373  1
  H  H44  1  0.879304  0.600243  0.562627  1
  H  H45  1  0.879304  0.399757  0.437373  1
  H  H46  1  0.203751  0.899397  0.183015  1
  H  H47  1  0.203751  0.100603  0.816985  1
  H  H48  1  0.796249  0.600603  0.683015  1
  H  H49  1  0.796249  0.399397  0.316985  1
  H  H50  1  0.095631  0.033112  0.143553  1
  H  H51  1  0.095631  0.966888  0.856447  1
  H  H52  1  0.904369  0.466888  0.643553  1
  H  H53  1  0.904369  0.533112  0.356447  1
  H  H54  1  0.297035  0.729093  0.910439  1
  H  H55  1  0.297035  0.270907  0.089561  1
  H  H56  1  0.702965  0.770907  0.410439  1
  H  H57  1  0.702965  0.229093  0.589561  1
  H  H58  1  0.386307  0.666558  0.018327  1
  H  H59  1  0.386307  0.333442  0.981673  1
  H  H60  1  0.613693  0.833442  0.518327  1
  H  H61  1  0.613693  0.166558  0.481673  1
  H  H62  1  0.385555  0.576448  0.906315  1
  H  H63  1  0.385555  0.423552  0.093685  1
  H  H64  1  0.614445  0.923552  0.406315  1
  H  H65  1  0.614445  0.076448  0.593685  1
  C  C66  1  0.552375  0.749919  0.798775  1
  C  C67  1  0.552375  0.250081  0.201225  1
  C  C68  1  0.447625  0.750081  0.298775  1
  C  C69  1  0.447625  0.249919  0.701225  1
  C  C70  1  0.823874  0.913369  0.133057  1
  C  C71  1  0.823874  0.086631  0.866943  1
  C  C72  1  0.176126  0.586631  0.633057  1
  C  C73  1  0.176126  0.413369  0.366943  1
  C  C74  1  0.106595  0.929845  0.139444  1
  C  C75  1  0.106595  0.070155  0.860556  1
  C  C76  1  0.893405  0.570155  0.639444  1
  C  C77  1  0.893405  0.429845  0.360556  1
  C  C78  1  0.391469  0.671904  0.937683  1
  C  C79  1  0.391469  0.328096  0.062317  1
  C  C80  1  0.608531  0.828096  0.437683  1
  C  C81  1  0.608531  0.171904  0.562317  1
  N  N82  1  0.966956  0.870616  0.180770  1
  N  N83  1  0.966956  0.129384  0.819230  1
  N  N84  1  0.033044  0.629384  0.680770  1
  N  N85  1  0.033044  0.370616  0.319230  1
  N  N86  1  0.535991  0.732490  0.907484  1
  N  N87  1  0.535991  0.267510  0.092516  1
  N  N88  1  0.464009  0.767510  0.407484  1
  N  N89  1  0.464009  0.232490  0.592516  1
  Cl  Cl90  1  0.937745  0.730743  0.907066  1
  Cl  Cl91  1  0.937745  0.269257  0.092934  1
  Cl  Cl92  1  0.062255  0.769257  0.407066  1
  Cl  Cl93  1  0.062255  0.230743  0.592934  1
  Cl  Cl94  1  0.127003  0.585648  0.141033  1
  Cl  Cl95  1  0.127003  0.414352  0.858967  1
  Cl  Cl96  1  0.872997  0.914352  0.641033  1
  Cl  Cl97  1  0.872997  0.085648  0.358967  1
  Cl  Cl98  1  0.700682  0.420639  0.879461  1
  Cl  Cl99  1  0.700682  0.579361  0.120539  1
  Cl  Cl100  1  0.299318  0.079361  0.379461  1
  Cl  Cl101  1  0.299318  0.920639  0.620539  1
  Cl  Cl102  1  0.481211  0.000000  0.000000  1
  Cl  Cl103  1  0.518789  0.500000  0.500000  1
