# generated using pymatgen
data_Sr2SmNbO6
_symmetry_space_group_name_H-M   'P 1'
_cell_length_a   5.90480552
_cell_length_b   6.04127709
_cell_length_c   8.42281880
_cell_angle_alpha   90.00000000
_cell_angle_beta   90.24296469
_cell_angle_gamma   90.00000000
_symmetry_Int_Tables_number   1
_chemical_formula_structural   Sr2SmNbO6
_chemical_formula_sum   'Sr4 Sm2 Nb2 O12'
_cell_volume   300.46086065
_cell_formula_units_Z   2
loop_
 _symmetry_equiv_pos_site_id
 _symmetry_equiv_pos_as_xyz
  1  'x, y, z'
loop_
 _atom_site_type_symbol
 _atom_site_label
 _atom_site_symmetry_multiplicity
 _atom_site_fract_x
 _atom_site_fract_y
 _atom_site_fract_z
 _atom_site_occupancy
  O  O0  1  0.686945  0.223486  0.052759  1
  O  O1  1  0.813055  0.723486  0.447242  1
  O  O2  1  0.313054  0.776514  0.947241  1
  O  O3  1  0.186944  0.276514  0.552759  1
  O  O4  1  0.907564  0.966852  0.732060  1
  O  O5  1  0.592436  0.466853  0.767940  1
  O  O6  1  0.092437  0.033148  0.267940  1
  O  O7  1  0.407563  0.533147  0.232061  1
  O  O8  1  0.223161  0.309511  0.953995  1
  O  O9  1  0.276838  0.809510  0.546004  1
  O  O10  1  0.723162  0.190490  0.453995  1
  O  O11  1  0.776839  0.690489  0.046004  1
  Sr  Sr12  1  0.510857  0.956760  0.251233  1
  Sr  Sr13  1  0.989142  0.456760  0.248766  1
  Sr  Sr14  1  0.010857  0.543241  0.751233  1
  Sr  Sr15  1  0.489143  0.043240  0.748767  1
  Nb  Nb16  1  0.000001  0.000000  0.500000  1
  Nb  Nb17  1  0.500000  0.499999  1.000000  1
  Sm  Sm18  1  0.500001  0.499999  0.500000  1
  Sm  Sm19  1  0.000000  0.000000  0.000000  1
