# generated using pymatgen
data_La3H15I10O37
_symmetry_space_group_name_H-M   'P 1'
_cell_length_a   13.29989074
_cell_length_b   12.54921979
_cell_length_c   12.42277473
_cell_angle_alpha   60.33275305
_cell_angle_beta   90.00000000
_cell_angle_gamma   90.00000000
_symmetry_Int_Tables_number   1
_chemical_formula_structural   La3H15I10O37
_chemical_formula_sum   'La6 H30 I20 O74'
_cell_volume   1801.60883797
_cell_formula_units_Z   2
loop_
 _symmetry_equiv_pos_site_id
 _symmetry_equiv_pos_as_xyz
  1  'x, y, z'
loop_
 _atom_site_type_symbol
 _atom_site_label
 _atom_site_symmetry_multiplicity
 _atom_site_fract_x
 _atom_site_fract_y
 _atom_site_fract_z
 _atom_site_occupancy
  La  La0  1  0.000000  0.000000  0.009394  1
  La  La1  1  0.162963  0.524000  0.961672  1
  La  La2  1  0.337037  0.524000  0.461672  1
  La  La3  1  0.500000  0.000000  0.509394  1
  La  La4  1  0.662963  0.476000  0.985670  1
  La  La5  1  0.837037  0.476000  0.485670  1
  H  H6  1  0.000000  0.000000  0.287866  1
  H  H7  1  0.068741  0.936670  0.428926  1
  H  H8  1  0.047289  0.236981  0.734659  1
  H  H9  1  0.107876  0.026873  0.635487  1
  H  H10  1  0.120254  0.815042  0.732930  1
  H  H11  1  0.023608  0.735841  0.758792  1
  H  H12  1  0.143360  0.149589  0.773493  1
  H  H13  1  0.178325  0.974244  0.574808  1
  H  H14  1  0.321675  0.974244  0.074808  1
  H  H15  1  0.356640  0.149589  0.273493  1
  H  H16  1  0.476392  0.735841  0.258792  1
  H  H17  1  0.379746  0.815042  0.232930  1
  H  H18  1  0.392124  0.026873  0.135487  1
  H  H19  1  0.452711  0.236981  0.234659  1
  H  H20  1  0.431259  0.936670  0.928926  1
  H  H21  1  0.500000  0.000000  0.787866  1
  H  H22  1  0.568741  0.063330  0.865594  1
  H  H23  1  0.547289  0.763019  0.471640  1
  H  H24  1  0.607876  0.973127  0.162360  1
  H  H25  1  0.620254  0.184958  0.047972  1
  H  H26  1  0.523608  0.264159  0.994633  1
  H  H27  1  0.643360  0.850411  0.423083  1
  H  H28  1  0.678325  0.025756  0.049052  1
  H  H29  1  0.821675  0.025756  0.549052  1
  H  H30  1  0.856640  0.850411  0.923083  1
  H  H31  1  0.976392  0.264159  0.494633  1
  H  H32  1  0.879746  0.184958  0.547972  1
  H  H33  1  0.892124  0.973127  0.662360  1
  H  H34  1  0.952711  0.763019  0.971640  1
  H  H35  1  0.931259  0.063330  0.365594  1
  I  I36  1  0.079498  0.523813  0.630378  1
  I  I37  1  0.087026  0.645990  0.271099  1
  I  I38  1  0.120927  0.178583  0.161546  1
  I  I39  1  0.192632  0.311688  0.348215  1
  I  I40  1  0.247977  0.849054  0.917356  1
  I  I41  1  0.252023  0.849054  0.417356  1
  I  I42  1  0.307368  0.311688  0.848215  1
  I  I43  1  0.379073  0.178583  0.661546  1
  I  I44  1  0.412974  0.645990  0.771099  1
  I  I45  1  0.420502  0.523813  0.130378  1
  I  I46  1  0.579498  0.476187  0.654190  1
  I  I47  1  0.587026  0.354010  0.417089  1
  I  I48  1  0.620927  0.821417  0.840128  1
  I  I49  1  0.692632  0.688312  0.159903  1
  I  I50  1  0.747977  0.150946  0.266410  1
  I  I51  1  0.752023  0.150946  0.766410  1
  I  I52  1  0.807368  0.688312  0.659903  1
  I  I53  1  0.879073  0.821417  0.340128  1
  I  I54  1  0.912974  0.354010  0.917089  1
  I  I55  1  0.920502  0.476187  0.154190  1
  O  O56  1  0.000000  0.000000  0.366657  1
  O  O57  1  0.012336  0.595480  0.058823  1
  O  O58  1  0.016452  0.587845  0.418182  1
  O  O59  1  0.029191  0.799384  0.197920  1
  O  O60  1  0.091644  0.731602  0.791529  1
  O  O61  1  0.071179  0.152724  0.791272  1
  O  O62  1  0.090413  0.479978  0.795639  1
  O  O63  1  0.112121  0.364599  0.206934  1
  O  O64  1  0.118995  0.040838  0.143754  1
  O  O65  1  0.102360  0.210661  0.461583  1
  O  O66  1  0.135144  0.865336  0.490891  1
  O  O67  1  0.158552  0.923314  0.969075  1
  O  O68  1  0.155262  0.959921  0.655498  1
  O  O69  1  0.188004  0.293139  0.023281  1
  O  O70  1  0.183240  0.452905  0.360263  1
  O  O71  1  0.202733  0.683117  0.326218  1
  O  O72  1  0.221466  0.690421  0.033675  1
  O  O73  1  0.221564  0.127294  0.277922  1
  O  O74  1  0.193322  0.448791  0.616295  1
  O  O75  1  0.306678  0.448791  0.116295  1
  O  O76  1  0.278436  0.127294  0.777922  1
  O  O77  1  0.278534  0.690421  0.533675  1
  O  O78  1  0.297267  0.683117  0.826218  1
  O  O79  1  0.316760  0.452905  0.860263  1
  O  O80  1  0.311996  0.293139  0.523281  1
  O  O81  1  0.344738  0.959921  0.155498  1
  O  O82  1  0.341448  0.923314  0.469075  1
  O  O83  1  0.364856  0.865336  0.990891  1
  O  O84  1  0.397640  0.210661  0.961583  1
  O  O85  1  0.381005  0.040838  0.643754  1
  O  O86  1  0.387879  0.364599  0.706934  1
  O  O87  1  0.409587  0.479978  0.295639  1
  O  O88  1  0.428821  0.152724  0.291272  1
  O  O89  1  0.408356  0.731602  0.291529  1
  O  O90  1  0.470809  0.799384  0.697920  1
  O  O91  1  0.483548  0.587845  0.918182  1
  O  O92  1  0.487664  0.595480  0.558823  1
  O  O93  1  0.500000  0.000000  0.866657  1
  O  O94  1  0.512336  0.404520  0.154304  1
  O  O95  1  0.516452  0.412155  0.506027  1
  O  O96  1  0.529191  0.200616  0.497304  1
  O  O97  1  0.591644  0.268397  0.023132  1
  O  O98  1  0.571179  0.847276  0.443996  1
  O  O99  1  0.590413  0.520022  0.775617  1
  O  O100  1  0.612121  0.635401  0.071533  1
  O  O101  1  0.618995  0.959162  0.684591  1
  O  O102  1  0.602360  0.789339  0.172244  1
  O  O103  1  0.635144  0.134664  0.856226  1
  O  O104  1  0.658552  0.076686  0.392389  1
  O  O105  1  0.655262  0.040079  0.115419  1
  O  O106  1  0.688004  0.706861  0.816421  1
  O  O107  1  0.683240  0.547095  0.313167  1
  O  O108  1  0.702733  0.316883  0.509336  1
  O  O109  1  0.721466  0.309579  0.224095  1
  O  O110  1  0.721564  0.872706  0.905215  1
  O  O111  1  0.693322  0.551209  0.565086  1
  O  O112  1  0.806678  0.551209  0.065086  1
  O  O113  1  0.778436  0.872706  0.405215  1
  O  O114  1  0.778534  0.309579  0.724095  1
  O  O115  1  0.797267  0.316883  0.009336  1
  O  O116  1  0.816760  0.547095  0.813167  1
  O  O117  1  0.811996  0.706861  0.316421  1
  O  O118  1  0.844738  0.040079  0.615419  1
  O  O119  1  0.841448  0.076686  0.892389  1
  O  O120  1  0.864856  0.134664  0.356226  1
  O  O121  1  0.897640  0.789339  0.672244  1
  O  O122  1  0.881005  0.959162  0.184591  1
  O  O123  1  0.887879  0.635401  0.571533  1
  O  O124  1  0.909587  0.520022  0.275617  1
  O  O125  1  0.928821  0.847276  0.943996  1
  O  O126  1  0.908356  0.268397  0.523132  1
  O  O127  1  0.970809  0.200616  0.997304  1
  O  O128  1  0.983548  0.412155  0.006027  1
  O  O129  1  0.987664  0.404520  0.654304  1
