# generated using pymatgen
data_Li7Mn4(P2O7)4
_symmetry_space_group_name_H-M   'P 1'
_cell_length_a   9.91138872
_cell_length_b   9.90579731
_cell_length_c   11.34523933
_cell_angle_alpha   89.88415697
_cell_angle_beta   102.65985529
_cell_angle_gamma   89.65556302
_symmetry_Int_Tables_number   1
_chemical_formula_structural   Li7Mn4(P2O7)4
_chemical_formula_sum   'Li14 Mn8 P16 O56'
_cell_volume   1086.77173048
_cell_formula_units_Z   2
loop_
 _symmetry_equiv_pos_site_id
 _symmetry_equiv_pos_as_xyz
  1  'x, y, z'
loop_
 _atom_site_type_symbol
 _atom_site_label
 _atom_site_symmetry_multiplicity
 _atom_site_fract_x
 _atom_site_fract_y
 _atom_site_fract_z
 _atom_site_occupancy
  Li  Li0  1  0.114543  0.711767  0.449881  1
  Li  Li1  1  0.085343  0.106132  0.028352  1
  Li  Li2  1  0.345203  0.908827  0.956375  1
  Li  Li3  1  0.150220  0.412097  0.042582  1
  Li  Li4  1  0.414976  0.608948  0.969775  1
  Li  Li5  1  0.329424  0.921982  0.454784  1
  Li  Li6  1  0.381202  0.225293  0.552369  1
  Li  Li7  1  0.612296  0.777714  0.448858  1
  Li  Li8  1  0.669959  0.078953  0.546872  1
  Li  Li9  1  0.585892  0.393805  0.027672  1
  Li  Li10  1  0.657068  0.092150  0.041563  1
  Li  Li11  1  0.912594  0.889280  0.972527  1
  Li  Li12  1  0.838262  0.572179  0.461583  1
  Li  Li13  1  0.895979  0.281406  0.553708  1
  Mn  Mn14  1  0.203311  0.918885  0.675661  1
  Mn  Mn15  1  0.253219  0.216676  0.821150  1
  Mn  Mn16  1  0.240734  0.714712  0.173621  1
  Mn  Mn17  1  0.293815  0.426620  0.332885  1
  Mn  Mn18  1  0.706071  0.580643  0.682463  1
  Mn  Mn19  1  0.758581  0.289395  0.825737  1
  Mn  Mn20  1  0.744302  0.783254  0.173993  1
  Mn  Mn21  1  0.799375  0.079819  0.325941  1
  P  P22  1  0.024005  0.454341  0.755882  1
  P  P23  1  0.117171  0.705177  0.891090  1
  P  P24  1  0.058526  0.930969  0.244114  1
  P  P25  1  0.124276  0.151434  0.425307  1
  P  P26  1  0.378938  0.648458  0.573037  1
  P  P27  1  0.441609  0.431067  0.757039  1
  P  P28  1  0.525455  0.049215  0.759875  1
  P  P29  1  0.380905  0.205633  0.108101  1
  P  P30  1  0.618779  0.794895  0.890176  1
  P  P31  1  0.474449  0.952825  0.239549  1
  P  P32  1  0.557972  0.567311  0.243251  1
  P  P33  1  0.622341  0.350978  0.426142  1
  P  P34  1  0.877204  0.849388  0.574270  1
  P  P35  1  0.940125  0.067484  0.756675  1
  P  P36  1  0.880632  0.294313  0.108583  1
  P  P37  1  0.972725  0.547233  0.241200  1
  O  O38  1  0.022114  0.415865  0.628123  1
  O  O39  1  0.023497  0.837986  0.553339  1
  O  O40  1  0.085322  0.086454  0.730870  1
  O  O41  1  0.110455  0.361789  0.855008  1
  O  O42  1  0.092876  0.601443  0.776381  1
  O  O43  1  0.186995  0.826539  0.844505  1
  O  O44  1  0.223321  0.633581  0.996579  1
  O  O45  1  0.019326  0.275697  0.076174  1
  O  O46  1  0.112437  0.077348  0.295290  1
  O  O47  1  0.063609  0.934207  0.111853  1
  O  O48  1  0.122959  0.532239  0.216419  1
  O  O49  1  0.191919  0.286319  0.411812  1
  O  O50  1  0.163308  0.825410  0.313147  1
  O  O51  1  0.223606  0.063986  0.518717  1
  O  O52  1  0.282341  0.571810  0.473482  1
  O  O53  1  0.344820  0.318856  0.695464  1
  O  O54  1  0.317015  0.789700  0.583067  1
  O  O55  1  0.377700  0.037142  0.787075  1
  O  O56  1  0.382431  0.575568  0.701116  1
  O  O57  1  0.439001  0.439305  0.889520  1
  O  O58  1  0.480852  0.778008  0.924949  1
  O  O59  1  0.277083  0.135837  0.002009  1
  O  O60  1  0.316861  0.330281  0.153709  1
  O  O61  1  0.405369  0.101456  0.223240  1
  O  O62  1  0.412714  0.585466  0.270814  1
  O  O63  1  0.384845  0.862457  0.143829  1
  O  O64  1  0.521902  0.086755  0.629317  1
  O  O65  1  0.473712  0.342825  0.444240  1
  O  O66  1  0.531046  0.657673  0.561037  1
  O  O67  1  0.476754  0.914494  0.369689  1
  O  O68  1  0.615964  0.140400  0.854881  1
  O  O69  1  0.587542  0.414881  0.729073  1
  O  O70  1  0.595189  0.901578  0.776636  1
  O  O71  1  0.677578  0.672112  0.840405  1
  O  O72  1  0.721968  0.865231  0.996876  1
  O  O73  1  0.519946  0.223255  0.075930  1
  O  O74  1  0.561583  0.564831  0.111181  1
  O  O75  1  0.614152  0.419882  0.295029  1
  O  O76  1  0.623501  0.962516  0.214095  1
  O  O77  1  0.684916  0.210006  0.418394  1
  O  O78  1  0.661979  0.673146  0.310820  1
  O  O79  1  0.722956  0.436258  0.518056  1
  O  O80  1  0.774782  0.935343  0.482374  1
  O  O81  1  0.834881  0.172617  0.687351  1
  O  O82  1  0.812187  0.709407  0.583201  1
  O  O83  1  0.872992  0.464028  0.780791  1
  O  O84  1  0.935698  0.064317  0.888922  1
  O  O85  1  0.886649  0.919893  0.704586  1
  O  O86  1  0.981922  0.730316  0.923492  1
  O  O87  1  0.771583  0.354828  0.002731  1
  O  O88  1  0.820776  0.169107  0.157759  1
  O  O89  1  0.901709  0.400712  0.221102  1
  O  O90  1  0.888939  0.644825  0.148367  1
  O  O91  1  0.912434  0.912269  0.269082  1
  O  O92  1  0.976651  0.162211  0.444861  1
  O  O93  1  0.975296  0.584376  0.370656  1
