# generated using pymatgen
data_Mn6O7F5
_symmetry_space_group_name_H-M   'P 1'
_cell_length_a   7.93155734
_cell_length_b   5.60879675
_cell_length_c   5.60879675
_cell_angle_alpha   68.10547712
_cell_angle_beta   68.06828993
_cell_angle_gamma   68.06828993
_symmetry_Int_Tables_number   1
_chemical_formula_structural   Mn6O7F5
_chemical_formula_sum   'Mn6 O7 F5'
_cell_volume   206.65882779
_cell_formula_units_Z   1
loop_
 _symmetry_equiv_pos_site_id
 _symmetry_equiv_pos_as_xyz
  1  'x, y, z'
loop_
 _atom_site_type_symbol
 _atom_site_label
 _atom_site_symmetry_multiplicity
 _atom_site_fract_x
 _atom_site_fract_y
 _atom_site_fract_z
 _atom_site_occupancy
  Mn  Mn0  1  0.834147  0.666420  0.666420  1
  Mn  Mn1  1  0.654712  0.336711  0.336711  1
  Mn  Mn2  1  0.327374  0.658240  0.658240  1
  Mn  Mn3  1  0.189718  0.343621  0.343621  1
  Mn  Mn4  1  0.494670  0.997838  0.997838  1
  Mn  Mn5  1  0.003592  0.003778  0.003778  1
  O  O6  1  0.666225  0.030719  0.636796  1
  O  O7  1  0.330072  0.360242  0.972197  1
  O  O8  1  0.382471  0.434205  0.434205  1
  O  O9  1  0.330072  0.972197  0.360242  1
  O  O10  1  0.666225  0.636796  0.030719  1
  O  O11  1  0.004695  0.304093  0.696522  1
  O  O12  1  0.004695  0.696522  0.304093  1
  F  F13  1  0.298931  0.882343  0.882343  1
  F  F14  1  0.638923  0.552127  0.552127  1
  F  F15  1  0.946483  0.232329  0.232329  1
  F  F16  1  0.699810  0.111654  0.111654  1
  F  F17  1  0.027186  0.780163  0.780163  1
