# generated using pymatgen
data_VOF
_symmetry_space_group_name_H-M   'P 1'
_cell_length_a   4.72629259
_cell_length_b   4.72628196
_cell_length_c   12.51029919
_cell_angle_alpha   90.03951164
_cell_angle_beta   90.03953151
_cell_angle_gamma   90.17075857
_symmetry_Int_Tables_number   1
_chemical_formula_structural   VOF
_chemical_formula_sum   'V8 O8 F8'
_cell_volume   279.45107975
_cell_formula_units_Z   8
loop_
 _symmetry_equiv_pos_site_id
 _symmetry_equiv_pos_as_xyz
  1  'x, y, z'
loop_
 _atom_site_type_symbol
 _atom_site_label
 _atom_site_symmetry_multiplicity
 _atom_site_fract_x
 _atom_site_fract_y
 _atom_site_fract_z
 _atom_site_occupancy
  V  V0  1  0.972889  0.968430  0.000073  1
  V  V1  1  0.031586  0.027126  0.249928  1
  V  V2  1  0.987097  0.952847  0.499941  1
  V  V3  1  0.047149  0.012903  0.750060  1
  V  V4  1  0.531205  0.468793  0.125001  1
  V  V5  1  0.481303  0.518693  0.624999  1
  V  V6  1  0.475760  0.523397  0.875617  1
  V  V7  1  0.476602  0.524237  0.374385  1
  O  O8  1  0.188656  0.811231  0.876748  1
  O  O9  1  0.188767  0.811346  0.373252  1
  O  O10  1  0.196512  0.803485  0.625000  1
  O  O11  1  0.321613  0.315209  0.249574  1
  O  O12  1  0.316974  0.315592  0.750406  1
  O  O13  1  0.684790  0.678385  0.000425  1
  O  O14  1  0.684406  0.683024  0.499594  1
  O  O15  1  0.820188  0.179812  0.125000  1
  F  F16  1  0.210080  0.789917  0.125000  1
  F  F17  1  0.293473  0.288150  0.000094  1
  F  F18  1  0.281132  0.297620  0.499834  1
  F  F19  1  0.711847  0.706523  0.249907  1
  F  F20  1  0.702378  0.718869  0.750166  1
  F  F21  1  0.797718  0.204749  0.375875  1
  F  F22  1  0.802620  0.197379  0.625000  1
  F  F23  1  0.795253  0.202281  0.874124  1
