# generated using pymatgen
data_Mn6O5F7
_symmetry_space_group_name_H-M   'P 1'
_cell_length_a   4.73081131
_cell_length_b   7.87890327
_cell_length_c   5.72699243
_cell_angle_alpha   93.46570614
_cell_angle_beta   91.18413455
_cell_angle_gamma   88.82133037
_symmetry_Int_Tables_number   1
_chemical_formula_structural   Mn6O5F7
_chemical_formula_sum   'Mn6 O5 F7'
_cell_volume   212.98982501
_cell_formula_units_Z   1
loop_
 _symmetry_equiv_pos_site_id
 _symmetry_equiv_pos_as_xyz
  1  'x, y, z'
loop_
 _atom_site_type_symbol
 _atom_site_label
 _atom_site_symmetry_multiplicity
 _atom_site_fract_x
 _atom_site_fract_y
 _atom_site_fract_z
 _atom_site_occupancy
  Mn  Mn0  1  0.513042  0.011224  0.489694  1
  Mn  Mn1  1  0.550757  0.659261  0.172997  1
  Mn  Mn2  1  0.488119  0.334007  0.831404  1
  Mn  Mn3  1  0.971945  0.682651  0.667372  1
  Mn  Mn4  1  0.986859  0.321572  0.336537  1
  Mn  Mn5  1  0.987924  0.989436  0.013896  1
  O  O6  1  0.809671  0.774543  0.958388  1
  O  O7  1  0.811031  0.096248  0.293381  1
  O  O8  1  0.692958  0.780484  0.472481  1
  O  O9  1  0.690912  0.426564  0.121140  1
  O  O10  1  0.311805  0.234613  0.536377  1
  F  F11  1  0.793462  0.437237  0.637118  1
  F  F12  1  0.707630  0.108812  0.799893  1
  F  F13  1  0.285823  0.571523  0.860429  1
  F  F14  1  0.313227  0.879921  0.194890  1
  F  F15  1  0.174377  0.563617  0.375495  1
  F  F16  1  0.200711  0.212024  0.028519  1
  F  F17  1  0.209749  0.916262  0.709992  1
