# generated using pymatgen
data_Li2FeP2O7
_symmetry_space_group_name_H-M   'P 1'
_cell_length_a   9.94424078
_cell_length_b   9.87767123
_cell_length_c   11.23003092
_cell_angle_alpha   90.20754619
_cell_angle_beta   102.07152841
_cell_angle_gamma   89.73006943
_symmetry_Int_Tables_number   1
_chemical_formula_structural   Li2FeP2O7
_chemical_formula_sum   'Li16 Fe8 P16 O56'
_cell_volume   1078.67235560
_cell_formula_units_Z   8
loop_
 _symmetry_equiv_pos_site_id
 _symmetry_equiv_pos_as_xyz
  1  'x, y, z'
loop_
 _atom_site_type_symbol
 _atom_site_label
 _atom_site_symmetry_multiplicity
 _atom_site_fract_x
 _atom_site_fract_y
 _atom_site_fract_z
 _atom_site_occupancy
  Li  Li0  1  0.110972  0.720704  0.446437  1
  Li  Li1  1  0.167939  0.423894  0.543846  1
  Li  Li2  1  0.085893  0.106930  0.028014  1
  Li  Li3  1  0.344108  0.909778  0.957299  1
  Li  Li4  1  0.153998  0.410010  0.043424  1
  Li  Li5  1  0.415296  0.608994  0.971794  1
  Li  Li6  1  0.331878  0.922342  0.456920  1
  Li  Li7  1  0.389244  0.220949  0.552433  1
  Li  Li8  1  0.610756  0.779051  0.447567  1
  Li  Li9  1  0.668122  0.077658  0.543080  1
  Li  Li10  1  0.584704  0.391006  0.028206  1
  Li  Li11  1  0.846002  0.589990  0.956576  1
  Li  Li12  1  0.655892  0.090222  0.042701  1
  Li  Li13  1  0.914107  0.893070  0.971986  1
  Li  Li14  1  0.832061  0.576106  0.456154  1
  Li  Li15  1  0.889028  0.279296  0.553563  1
  Fe  Fe16  1  0.200793  0.924340  0.675910  1
  Fe  Fe17  1  0.253657  0.211910  0.821411  1
  Fe  Fe18  1  0.246231  0.713289  0.177391  1
  Fe  Fe19  1  0.299029  0.425152  0.324032  1
  Fe  Fe20  1  0.700971  0.574848  0.675968  1
  Fe  Fe21  1  0.753769  0.286711  0.822609  1
  Fe  Fe22  1  0.746343  0.788090  0.178589  1
  Fe  Fe23  1  0.799207  0.075660  0.324090  1
  P  P24  1  0.025998  0.453301  0.761322  1
  P  P25  1  0.119173  0.704269  0.891930  1
  P  P26  1  0.058922  0.931510  0.243217  1
  P  P27  1  0.122683  0.150158  0.427253  1
  P  P28  1  0.376959  0.649901  0.572518  1
  P  P29  1  0.441327  0.432155  0.756346  1
  P  P30  1  0.525722  0.046676  0.760978  1
  P  P31  1  0.380907  0.203812  0.108055  1
  P  P32  1  0.619093  0.796188  0.891945  1
  P  P33  1  0.474278  0.953324  0.239022  1
  P  P34  1  0.558673  0.567845  0.243654  1
  P  P35  1  0.623041  0.350099  0.427482  1
  P  P36  1  0.877317  0.849842  0.572747  1
  P  P37  1  0.941078  0.068490  0.756783  1
  P  P38  1  0.880827  0.295731  0.108069  1
  P  P39  1  0.974002  0.546699  0.238678  1
  O  O40  1  0.022923  0.414966  0.629700  1
  O  O41  1  0.023953  0.839624  0.552280  1
  O  O42  1  0.086120  0.087249  0.730133  1
  O  O43  1  0.118658  0.363474  0.856012  1
  O  O44  1  0.095932  0.601872  0.775880  1
  O  O45  1  0.183515  0.829008  0.845801  1
  O  O46  1  0.222669  0.634298  0.998508  1
  O  O47  1  0.018824  0.275910  0.074711  1
  O  O48  1  0.112972  0.078870  0.295462  1
  O  O49  1  0.063199  0.935050  0.110089  1
  O  O50  1  0.120402  0.533639  0.210407  1
  O  O51  1  0.188589  0.289093  0.417266  1
  O  O52  1  0.163755  0.825849  0.311270  1
  O  O53  1  0.223152  0.062959  0.519129  1
  O  O54  1  0.275833  0.563192  0.480935  1
  O  O55  1  0.336635  0.327181  0.688093  1
  O  O56  1  0.311551  0.789320  0.582262  1
  O  O57  1  0.378667  0.035271  0.788387  1
  O  O58  1  0.387235  0.579555  0.704689  1
  O  O59  1  0.438029  0.436340  0.889709  1
  O  O60  1  0.481165  0.777466  0.925026  1
  O  O61  1  0.277840  0.133246  0.001592  1
  O  O62  1  0.315921  0.329337  0.153803  1
  O  O63  1  0.404651  0.102351  0.224502  1
  O  O64  1  0.412961  0.587742  0.270391  1
  O  O65  1  0.382194  0.863479  0.143960  1
  O  O66  1  0.522846  0.084364  0.629500  1
  O  O67  1  0.476695  0.341735  0.448246  1
  O  O68  1  0.523305  0.658265  0.551754  1
  O  O69  1  0.477154  0.915636  0.370500  1
  O  O70  1  0.617806  0.136521  0.856040  1
  O  O71  1  0.587039  0.412258  0.729609  1
  O  O72  1  0.595349  0.897649  0.775498  1
  O  O73  1  0.684079  0.670663  0.846197  1
  O  O74  1  0.722160  0.866754  0.998408  1
  O  O75  1  0.518835  0.222534  0.074974  1
  O  O76  1  0.561971  0.563660  0.110291  1
  O  O77  1  0.612765  0.420445  0.295311  1
  O  O78  1  0.621333  0.964729  0.211613  1
  O  O79  1  0.688450  0.210680  0.417738  1
  O  O80  1  0.663365  0.672819  0.311907  1
  O  O81  1  0.724167  0.436808  0.519065  1
  O  O82  1  0.776848  0.937041  0.480871  1
  O  O83  1  0.836245  0.174151  0.688730  1
  O  O84  1  0.811411  0.710907  0.582734  1
  O  O85  1  0.879598  0.466361  0.789593  1
  O  O86  1  0.936801  0.064950  0.889911  1
  O  O87  1  0.887028  0.921130  0.704538  1
  O  O88  1  0.981176  0.724090  0.925289  1
  O  O89  1  0.777331  0.365702  0.001492  1
  O  O90  1  0.816485  0.170992  0.154199  1
  O  O91  1  0.904068  0.398128  0.224120  1
  O  O92  1  0.881342  0.636526  0.143988  1
  O  O93  1  0.913880  0.912751  0.269867  1
  O  O94  1  0.976047  0.160376  0.447720  1
  O  O95  1  0.977077  0.585034  0.370300  1
