# generated using pymatgen
data_Li2Mn2(SiO3)3
_symmetry_space_group_name_H-M   'P 1'
_cell_length_a   12.41225272
_cell_length_b   9.72831226
_cell_length_c   6.34375141
_cell_angle_alpha   90.00000000
_cell_angle_beta   90.00000000
_cell_angle_gamma   90.00000000
_symmetry_Int_Tables_number   1
_chemical_formula_structural   Li2Mn2(SiO3)3
_chemical_formula_sum   'Li8 Mn8 Si12 O36'
_cell_volume   766.00969754
_cell_formula_units_Z   4
loop_
 _symmetry_equiv_pos_site_id
 _symmetry_equiv_pos_as_xyz
  1  'x, y, z'
loop_
 _atom_site_type_symbol
 _atom_site_label
 _atom_site_symmetry_multiplicity
 _atom_site_fract_x
 _atom_site_fract_y
 _atom_site_fract_z
 _atom_site_occupancy
  Li  Li0  1  0.083371  0.559594  0.142216  1
  Li  Li1  1  0.083371  0.940406  0.142216  1
  Li  Li2  1  0.416629  0.059594  0.642216  1
  Li  Li3  1  0.416629  0.440406  0.642216  1
  Li  Li4  1  0.583371  0.559594  0.357784  1
  Li  Li5  1  0.583371  0.940406  0.357784  1
  Li  Li6  1  0.916629  0.059594  0.857784  1
  Li  Li7  1  0.916629  0.440406  0.857784  1
  Mn  Mn8  1  0.158927  0.498370  0.695726  1
  Mn  Mn9  1  0.158927  0.001630  0.695726  1
  Mn  Mn10  1  0.341073  0.998370  0.195726  1
  Mn  Mn11  1  0.341073  0.501630  0.195726  1
  Mn  Mn12  1  0.658927  0.498370  0.804274  1
  Mn  Mn13  1  0.658927  0.001630  0.804274  1
  Mn  Mn14  1  0.841073  0.998370  0.304274  1
  Mn  Mn15  1  0.841073  0.501630  0.304274  1
  Si  Si16  1  0.032579  0.750000  0.521326  1
  Si  Si17  1  0.078595  0.250000  0.045051  1
  Si  Si18  1  0.217758  0.250000  0.431698  1
  Si  Si19  1  0.282242  0.750000  0.931698  1
  Si  Si20  1  0.421405  0.750000  0.545051  1
  Si  Si21  1  0.467421  0.250000  0.021326  1
  Si  Si22  1  0.532579  0.750000  0.978674  1
  Si  Si23  1  0.578595  0.250000  0.454949  1
  Si  Si24  1  0.717758  0.250000  0.068302  1
  Si  Si25  1  0.782242  0.750000  0.568302  1
  Si  Si26  1  0.921405  0.750000  0.954949  1
  Si  Si27  1  0.967421  0.250000  0.478674  1
  O  O28  1  0.023912  0.750000  0.783853  1
  O  O29  1  0.068812  0.104788  0.922854  1
  O  O30  1  0.068812  0.395212  0.922854  1
  O  O31  1  0.091183  0.609061  0.447235  1
  O  O32  1  0.091183  0.890939  0.447235  1
  O  O33  1  0.098310  0.250000  0.547850  1
  O  O34  1  0.223068  0.894386  0.994210  1
  O  O35  1  0.223068  0.605614  0.994210  1
  O  O36  1  0.195289  0.250000  0.175623  1
  O  O37  1  0.304711  0.750000  0.675623  1
  O  O38  1  0.276932  0.105614  0.494210  1
  O  O39  1  0.276932  0.394386  0.494210  1
  O  O40  1  0.401690  0.750000  0.047850  1
  O  O41  1  0.408817  0.109061  0.947235  1
  O  O42  1  0.408817  0.390939  0.947235  1
  O  O43  1  0.431188  0.604788  0.422854  1
  O  O44  1  0.431188  0.895212  0.422854  1
  O  O45  1  0.476088  0.250000  0.283853  1
  O  O46  1  0.523912  0.750000  0.716147  1
  O  O47  1  0.568812  0.104788  0.577146  1
  O  O48  1  0.568812  0.395212  0.577146  1
  O  O49  1  0.591183  0.609061  0.052765  1
  O  O50  1  0.591183  0.890939  0.052765  1
  O  O51  1  0.598310  0.250000  0.952150  1
  O  O52  1  0.723068  0.605614  0.505790  1
  O  O53  1  0.723068  0.894386  0.505790  1
  O  O54  1  0.695289  0.250000  0.324377  1
  O  O55  1  0.804711  0.750000  0.824377  1
  O  O56  1  0.776932  0.105614  0.005790  1
  O  O57  1  0.776932  0.394386  0.005790  1
  O  O58  1  0.901690  0.750000  0.452150  1
  O  O59  1  0.908817  0.109061  0.552765  1
  O  O60  1  0.908817  0.390939  0.552765  1
  O  O61  1  0.931188  0.604788  0.077146  1
  O  O62  1  0.931188  0.895212  0.077146  1
  O  O63  1  0.976088  0.250000  0.216147  1
