# generated using pymatgen
data_Li4Mn3Nb(PO4)4
_symmetry_space_group_name_H-M   'P 1'
_cell_length_a   4.79034902
_cell_length_b   10.66667165
_cell_length_c   6.23068074
_cell_angle_alpha   90.00000000
_cell_angle_beta   90.00000000
_cell_angle_gamma   90.01181106
_symmetry_Int_Tables_number   1
_chemical_formula_structural   Li4Mn3Nb(PO4)4
_chemical_formula_sum   'Li4 Mn3 Nb1 P4 O16'
_cell_volume   318.36958626
_cell_formula_units_Z   1
loop_
 _symmetry_equiv_pos_site_id
 _symmetry_equiv_pos_as_xyz
  1  'x, y, z'
loop_
 _atom_site_type_symbol
 _atom_site_label
 _atom_site_symmetry_multiplicity
 _atom_site_fract_x
 _atom_site_fract_y
 _atom_site_fract_z
 _atom_site_occupancy
  Li  Li0  1  -0.000003  0.997914  0.998537  1
  Li  Li1  1  -0.000003  0.997914  0.501463  1
  Li  Li2  1  0.500903  0.499332  0.496947  1
  Li  Li3  1  0.500903  0.499332  0.003053  1
  Mn  Mn4  1  0.028172  0.719401  0.750000  1
  Mn  Mn5  1  0.476155  0.219401  0.750000  1
  Mn  Mn6  1  0.528478  0.781419  0.250000  1
  Nb  Nb7  1  0.972167  0.276904  0.250000  1
  P  P8  1  0.090808  0.594828  0.250000  1
  P  P9  1  0.411601  0.089243  0.250000  1
  P  P10  1  0.590160  0.907895  0.750000  1
  P  P11  1  0.906839  0.410913  0.750000  1
  O  O12  1  0.214768  0.459667  0.250000  1
  O  O13  1  0.222916  0.663256  0.050575  1
  O  O14  1  0.222916  0.663256  0.449425  1
  O  O15  1  0.227513  0.402937  0.750000  1
  O  O16  1  0.269172  0.903577  0.750000  1
  O  O17  1  0.282949  0.157929  0.047797  1
  O  O18  1  0.282949  0.157929  0.452203  1
  O  O19  1  0.285852  0.955031  0.250000  1
  O  O20  1  0.711298  0.043784  0.750000  1
  O  O21  1  0.722332  0.839477  0.550715  1
  O  O22  1  0.722332  0.839477  0.949285  1
  O  O23  1  0.732743  0.088492  0.250000  1
  O  O24  1  0.770023  0.598635  0.250000  1
  O  O25  1  0.767425  0.342548  0.553861  1
  O  O26  1  0.767425  0.342548  0.946139  1
  O  O27  1  0.791206  0.546962  0.750000  1
