# generated using pymatgen
data_Ta2CrNO5
_symmetry_space_group_name_H-M   'P 1'
_cell_length_a   4.75194469
_cell_length_b   4.75578770
_cell_length_c   9.26176169
_cell_angle_alpha   90.00000000
_cell_angle_beta   90.00000000
_cell_angle_gamma   90.00000000
_symmetry_Int_Tables_number   1
_chemical_formula_structural   Ta2CrNO5
_chemical_formula_sum   'Ta4 Cr2 N2 O10'
_cell_volume   209.30877625
_cell_formula_units_Z   2
loop_
 _symmetry_equiv_pos_site_id
 _symmetry_equiv_pos_as_xyz
  1  'x, y, z'
loop_
 _atom_site_type_symbol
 _atom_site_label
 _atom_site_symmetry_multiplicity
 _atom_site_fract_x
 _atom_site_fract_y
 _atom_site_fract_z
 _atom_site_occupancy
  Ta  Ta0  1  0.994750  0.014563  0.337831  1
  Ta  Ta1  1  0.994750  0.014563  0.662169  1
  Ta  Ta2  1  0.505250  0.514563  0.162169  1
  Ta  Ta3  1  0.505250  0.514563  0.837831  1
  Cr  Cr4  1  0.000844  0.995507  0.000000  1
  Cr  Cr5  1  0.499156  0.495507  0.500000  1
  N  N6  1  0.697248  0.692083  0.000000  1
  N  N7  1  0.802752  0.192083  0.500000  1
  O  O8  1  0.193024  0.801912  0.500000  1
  O  O9  1  0.197486  0.798455  0.831477  1
  O  O10  1  0.197486  0.798455  0.168523  1
  O  O11  1  0.302514  0.298455  0.331477  1
  O  O12  1  0.302514  0.298455  0.668523  1
  O  O13  1  0.306976  0.301912  0.000000  1
  O  O14  1  0.696121  0.692231  0.330256  1
  O  O15  1  0.696121  0.692231  0.669744  1
  O  O16  1  0.803879  0.192231  0.169744  1
  O  O17  1  0.803879  0.192231  0.830256  1
