# generated using pymatgen
data_LiMn4(PO4)3
_symmetry_space_group_name_H-M   'P 1'
_cell_length_a   6.59007843
_cell_length_b   15.96926964
_cell_length_c   10.16624411
_cell_angle_alpha   90.00000000
_cell_angle_beta   90.00000000
_cell_angle_gamma   90.00000000
_symmetry_Int_Tables_number   1
_chemical_formula_structural   LiMn4(PO4)3
_chemical_formula_sum   'Li4 Mn16 P12 O48'
_cell_volume   1069.88271454
_cell_formula_units_Z   4
loop_
 _symmetry_equiv_pos_site_id
 _symmetry_equiv_pos_as_xyz
  1  'x, y, z'
loop_
 _atom_site_type_symbol
 _atom_site_label
 _atom_site_symmetry_multiplicity
 _atom_site_fract_x
 _atom_site_fract_y
 _atom_site_fract_z
 _atom_site_occupancy
  Li  Li0  1  0.250000  0.211891  0.741685  1
  Li  Li1  1  0.250000  0.288110  0.241685  1
  Li  Li2  1  0.750000  0.788110  0.258315  1
  Li  Li3  1  0.750000  0.711890  0.758315  1
  Mn  Mn4  1  0.000039  0.552562  0.254807  1
  Mn  Mn5  1  0.000039  0.947438  0.754807  1
  Mn  Mn6  1  0.250000  0.626343  0.572200  1
  Mn  Mn7  1  0.250000  0.631928  0.965113  1
  Mn  Mn8  1  0.250000  0.868072  0.465113  1
  Mn  Mn9  1  0.250000  0.873657  0.072200  1
  Mn  Mn10  1  0.499961  0.552562  0.254807  1
  Mn  Mn11  1  0.499961  0.947438  0.754807  1
  Mn  Mn12  1  0.500039  0.447438  0.745193  1
  Mn  Mn13  1  0.500039  0.052562  0.245193  1
  Mn  Mn14  1  0.750000  0.373657  0.427800  1
  Mn  Mn15  1  0.750000  0.131928  0.534887  1
  Mn  Mn16  1  0.750000  0.368072  0.034887  1
  Mn  Mn17  1  0.750000  0.126343  0.927800  1
  Mn  Mn18  1  -0.000039  0.052562  0.245193  1
  Mn  Mn19  1  -0.000039  0.447438  0.745193  1
  P  P20  1  0.250000  0.063253  0.526630  1
  P  P21  1  0.250000  0.056397  0.948524  1
  P  P22  1  0.250000  0.443603  0.448524  1
  P  P23  1  0.250000  0.774090  0.795809  1
  P  P24  1  0.250000  0.436747  0.026630  1
  P  P25  1  0.250000  0.725910  0.295809  1
  P  P26  1  0.750000  0.274090  0.704191  1
  P  P27  1  0.750000  0.225910  0.204191  1
  P  P28  1  0.750000  0.556397  0.551476  1
  P  P29  1  0.750000  0.936747  0.473370  1
  P  P30  1  0.750000  0.943603  0.051476  1
  P  P31  1  0.750000  0.563253  0.973370  1
  O  O32  1  0.059974  0.402373  0.389902  1
  O  O33  1  0.059974  0.097627  0.889903  1
  O  O34  1  0.061225  0.114988  0.555891  1
  O  O35  1  0.061225  0.385012  0.055891  1
  O  O36  1  0.054258  0.682687  0.243587  1
  O  O37  1  0.054258  0.817313  0.743587  1
  O  O38  1  0.250000  0.053382  0.102280  1
  O  O39  1  0.250000  0.029825  0.379430  1
  O  O40  1  0.250000  0.680188  0.757695  1
  O  O41  1  0.250000  0.729782  0.449738  1
  O  O42  1  0.250000  0.538659  0.400429  1
  O  O43  1  0.250000  0.980139  0.614595  1
  O  O44  1  0.250000  0.961341  0.900429  1
  O  O45  1  0.250000  0.519861  0.114595  1
  O  O46  1  0.250000  0.770218  0.949738  1
  O  O47  1  0.250000  0.446618  0.602280  1
  O  O48  1  0.250000  0.470175  0.879430  1
  O  O49  1  0.250000  0.819812  0.257695  1
  O  O50  1  0.445742  0.682687  0.243587  1
  O  O51  1  0.445742  0.817313  0.743587  1
  O  O52  1  0.438775  0.114988  0.555891  1
  O  O53  1  0.438775  0.385012  0.055891  1
  O  O54  1  0.440026  0.097627  0.889903  1
  O  O55  1  0.440026  0.402373  0.389902  1
  O  O56  1  0.559974  0.597627  0.610097  1
  O  O57  1  0.559974  0.902373  0.110098  1
  O  O58  1  0.561225  0.614988  0.944109  1
  O  O59  1  0.561225  0.885012  0.444109  1
  O  O60  1  0.554258  0.182687  0.256413  1
  O  O61  1  0.554258  0.317313  0.756413  1
  O  O62  1  0.750000  0.461341  0.599571  1
  O  O63  1  0.750000  0.970175  0.620570  1
  O  O64  1  0.750000  0.019861  0.385405  1
  O  O65  1  0.750000  0.038659  0.099571  1
  O  O66  1  0.750000  0.229782  0.050263  1
  O  O67  1  0.750000  0.270218  0.550262  1
  O  O68  1  0.750000  0.319812  0.242305  1
  O  O69  1  0.750000  0.180188  0.742305  1
  O  O70  1  0.750000  0.529825  0.120570  1
  O  O71  1  0.750000  0.553382  0.397720  1
  O  O72  1  0.750000  0.480139  0.885405  1
  O  O73  1  0.750000  0.946618  0.897720  1
  O  O74  1  0.945742  0.182687  0.256413  1
  O  O75  1  0.945742  0.317313  0.756413  1
  O  O76  1  0.938775  0.885012  0.444109  1
  O  O77  1  0.938775  0.614988  0.944109  1
  O  O78  1  0.940026  0.597627  0.610097  1
  O  O79  1  0.940026  0.902373  0.110098  1
