# generated using pymatgen
data_K2USO7F2
_symmetry_space_group_name_H-M   'P 1'
_cell_length_a   9.35892044
_cell_length_b   8.74827393
_cell_length_c   11.15198062
_cell_angle_alpha   90.00000000
_cell_angle_beta   101.32481390
_cell_angle_gamma   90.00000000
_symmetry_Int_Tables_number   1
_chemical_formula_structural   K2USO7F2
_chemical_formula_sum   'K8 U4 S4 O28 F8'
_cell_volume   895.28413787
_cell_formula_units_Z   4
loop_
 _symmetry_equiv_pos_site_id
 _symmetry_equiv_pos_as_xyz
  1  'x, y, z'
loop_
 _atom_site_type_symbol
 _atom_site_label
 _atom_site_symmetry_multiplicity
 _atom_site_fract_x
 _atom_site_fract_y
 _atom_site_fract_z
 _atom_site_occupancy
  K  K0  1  0.416479  0.024092  0.696899  1
  K  K1  1  0.583521  0.524092  0.803101  1
  K  K2  1  0.583521  0.975908  0.303101  1
  K  K3  1  0.416479  0.475908  0.196899  1
  K  K4  1  0.921428  0.046747  0.648131  1
  K  K5  1  0.078572  0.546747  0.851869  1
  K  K6  1  0.078572  0.953253  0.351869  1
  K  K7  1  0.921428  0.453253  0.148131  1
  U  U8  1  0.190208  0.394510  0.511338  1
  U  U9  1  0.809792  0.894510  0.988662  1
  U  U10  1  0.809792  0.605490  0.488662  1
  U  U11  1  0.190208  0.105490  0.011338  1
  S  S12  1  0.428270  0.725557  0.493873  1
  S  S13  1  0.571730  0.225557  0.006127  1
  S  S14  1  0.571730  0.274443  0.506127  1
  S  S15  1  0.428270  0.774443  0.993873  1
  O  O16  1  0.233054  0.452436  0.670630  1
  O  O17  1  0.766946  0.952436  0.829370  1
  O  O18  1  0.766946  0.547564  0.329370  1
  O  O19  1  0.233054  0.047564  0.170630  1
  O  O20  1  0.145702  0.342003  0.349648  1
  O  O21  1  0.854298  0.842003  0.150352  1
  O  O22  1  0.854298  0.657997  0.650352  1
  O  O23  1  0.145702  0.157997  0.849648  1
  O  O24  1  0.341412  0.586455  0.441193  1
  O  O25  1  0.658588  0.086455  0.058807  1
  O  O26  1  0.658588  0.413545  0.558807  1
  O  O27  1  0.341412  0.913545  0.941193  1
  O  O28  1  0.354894  0.866189  0.443094  1
  O  O29  1  0.645106  0.366189  0.056906  1
  O  O30  1  0.645106  0.133811  0.556906  1
  O  O31  1  0.354894  0.633811  0.943094  1
  O  O32  1  0.571972  0.714425  0.451564  1
  O  O33  1  0.428028  0.214425  0.048436  1
  O  O34  1  0.428028  0.285575  0.548436  1
  O  O35  1  0.571972  0.785575  0.951564  1
  O  O36  1  0.453484  0.723356  0.628349  1
  O  O37  1  0.546516  0.223356  0.871651  1
  O  O38  1  0.546516  0.276644  0.371651  1
  O  O39  1  0.453484  0.776644  0.128349  1
  O  O40  1  0.839244  0.311518  0.788319  1
  O  O41  1  0.160756  0.811518  0.711681  1
  O  O42  1  0.160756  0.688482  0.211681  1
  O  O43  1  0.839244  0.188482  0.288319  1
  F  F44  1  0.947020  0.375102  0.529870  1
  F  F45  1  0.052980  0.875102  0.970130  1
  F  F46  1  0.052980  0.624898  0.470130  1
  F  F47  1  0.947020  0.124898  0.029870  1
  F  F48  1  0.154748  0.151447  0.554576  1
  F  F49  1  0.845252  0.651447  0.945424  1
  F  F50  1  0.845252  0.848553  0.445424  1
  F  F51  1  0.154748  0.348553  0.054576  1
