# generated using pymatgen
data_Li5Mn(SiO4)2
_symmetry_space_group_name_H-M   'P 1'
_cell_length_a   5.24499653
_cell_length_b   5.24500136
_cell_length_c   6.31718721
_cell_angle_alpha   88.74096092
_cell_angle_beta   91.25947172
_cell_angle_gamma   87.31250745
_symmetry_Int_Tables_number   1
_chemical_formula_structural   Li5Mn(SiO4)2
_chemical_formula_sum   'Li5 Mn1 Si2 O8'
_cell_volume   173.50678069
_cell_formula_units_Z   1
loop_
 _symmetry_equiv_pos_site_id
 _symmetry_equiv_pos_as_xyz
  1  'x, y, z'
loop_
 _atom_site_type_symbol
 _atom_site_label
 _atom_site_symmetry_multiplicity
 _atom_site_fract_x
 _atom_site_fract_y
 _atom_site_fract_z
 _atom_site_occupancy
  Li  Li0  1  0.175257  0.805810  0.491326  1
  Li  Li1  1  0.695044  0.695045  0.750001  1
  Li  Li2  1  0.329173  0.329172  0.250000  1
  Li  Li3  1  0.683653  0.683649  0.250001  1
  Li  Li4  1  0.805811  0.175258  0.008673  1
  Mn  Mn5  1  0.319957  0.319978  0.749992  1
  Si  Si6  1  0.165438  0.819782  0.010404  1
  Si  Si7  1  0.819786  0.165436  0.489596  1
  O  O8  1  0.307215  0.688177  0.800247  1
  O  O9  1  0.303358  0.703845  0.225119  1
  O  O10  1  0.141432  0.203960  0.507317  1
  O  O11  1  0.799501  0.858383  0.501749  1
  O  O12  1  0.203961  0.141427  0.992687  1
  O  O13  1  0.858383  0.799503  0.998253  1
  O  O14  1  0.688180  0.307214  0.699755  1
  O  O15  1  0.703847  0.303358  0.274881  1
