# generated using pymatgen
data_LiFe4(BO3)4
_symmetry_space_group_name_H-M   'P 1'
_cell_length_a   5.22171944
_cell_length_b   5.25295215
_cell_length_c   20.13568036
_cell_angle_alpha   89.59531708
_cell_angle_beta   90.16342785
_cell_angle_gamma   61.18375837
_symmetry_Int_Tables_number   1
_chemical_formula_structural   LiFe4(BO3)4
_chemical_formula_sum   'Li2 Fe8 B8 O24'
_cell_volume   483.89351304
_cell_formula_units_Z   2
loop_
 _symmetry_equiv_pos_site_id
 _symmetry_equiv_pos_as_xyz
  1  'x, y, z'
loop_
 _atom_site_type_symbol
 _atom_site_label
 _atom_site_symmetry_multiplicity
 _atom_site_fract_x
 _atom_site_fract_y
 _atom_site_fract_z
 _atom_site_occupancy
  Li  Li0  1  0.327701  0.654116  0.677540  1
  Li  Li1  1  0.657550  0.348849  0.546452  1
  Fe  Fe2  1  0.995323  0.674085  0.810633  1
  Fe  Fe3  1  0.999576  0.673525  0.310101  1
  Fe  Fe4  1  0.673672  0.997784  0.936014  1
  Fe  Fe5  1  0.674512  0.992051  0.435199  1
  Fe  Fe6  1  0.318528  0.006553  0.561287  1
  Fe  Fe7  1  0.323797  0.006776  0.061306  1
  Fe  Fe8  1  0.991593  0.321377  0.687925  1
  Fe  Fe9  1  0.004259  0.326745  0.185490  1
  B  B10  1  0.001218  0.343369  0.936459  1
  B  B11  1  0.001829  0.333886  0.436484  1
  B  B12  1  0.333423  0.004748  0.811069  1
  B  B13  1  0.341800  0.005044  0.311091  1
  B  B14  1  0.655162  0.999705  0.685649  1
  B  B15  1  0.662865  0.996254  0.185957  1
  B  B16  1  0.997295  0.664330  0.561238  1
  B  B17  1  0.995091  0.664626  0.061745  1
  O  O18  1  0.113684  0.274820  0.791202  1
  O  O19  1  0.127244  0.269794  0.284412  1
  O  O20  1  0.267636  0.129224  0.963430  1
  O  O21  1  0.990227  0.601040  0.913644  1
  O  O22  1  0.272398  0.111395  0.455389  1
  O  O23  1  0.979853  0.594058  0.411731  1
  O  O24  1  0.597116  0.980961  0.835363  1
  O  O25  1  0.260262  0.660024  0.569496  1
  O  O26  1  0.602327  0.992899  0.333819  1
  O  O27  1  0.228544  0.708737  0.064366  1
  O  O28  1  0.301280  0.763777  0.805475  1
  O  O29  1  0.297137  0.772552  0.314302  1
  O  O30  1  0.649945  0.261217  0.681364  1
  O  O31  1  0.706651  0.228869  0.184286  1
  O  O32  1  0.768737  0.296957  0.933780  1
  O  O33  1  0.409621  0.978280  0.667264  1
  O  O34  1  0.756077  0.306034  0.444436  1
  O  O35  1  0.404570  0.010069  0.161920  1
  O  O36  1  0.971433  0.421117  0.577327  1
  O  O37  1  0.009121  0.406996  0.086024  1
  O  O38  1  0.748827  0.916225  0.537113  1
  O  O39  1  0.729022  0.875879  0.034913  1
  O  O40  1  0.909387  0.747870  0.707815  1
  O  O41  1  0.876059  0.729976  0.212523  1
