# generated using pymatgen
data_Dy2Mg
_symmetry_space_group_name_H-M   'P 1'
_cell_length_a   3.67866347
_cell_length_b   8.74122110
_cell_length_c   5.48139439
_cell_angle_alpha   90.00000000
_cell_angle_beta   90.00000000
_cell_angle_gamma   77.85301018
_symmetry_Int_Tables_number   1
_chemical_formula_structural   Dy2Mg
_chemical_formula_sum   'Dy4 Mg2'
_cell_volume   172.31349573
_cell_formula_units_Z   2
loop_
 _symmetry_equiv_pos_site_id
 _symmetry_equiv_pos_as_xyz
  1  'x, y, z'
loop_
 _atom_site_type_symbol
 _atom_site_label
 _atom_site_symmetry_multiplicity
 _atom_site_fract_x
 _atom_site_fract_y
 _atom_site_fract_z
 _atom_site_occupancy
  Dy  Dy0  1  0.982413  0.035176  0.000000  1
  Dy  Dy1  1  0.662495  0.675012  0.000000  1
  Dy  Dy2  1  0.795367  0.409269  0.499999  1
  Dy  Dy3  1  0.115284  0.769432  0.499999  1
  Mg  Mg4  1  0.323669  0.352662  0.000000  1
  Mg  Mg5  1  0.454110  0.091781  0.499999  1
