# generated using pymatgen
data_TmSb(PbO3)2
_symmetry_space_group_name_H-M   'P 1'
_cell_length_a   5.88072784
_cell_length_b   5.88074485
_cell_length_c   10.21978505
_cell_angle_alpha   74.03011671
_cell_angle_beta   105.97010327
_cell_angle_gamma   120.34340457
_symmetry_Int_Tables_number   1
_chemical_formula_structural   TmSb(PbO3)2
_chemical_formula_sum   'Tm2 Sb2 Pb4 O12'
_cell_volume   289.26963560
_cell_formula_units_Z   2
loop_
 _symmetry_equiv_pos_site_id
 _symmetry_equiv_pos_as_xyz
  1  'x, y, z'
loop_
 _atom_site_type_symbol
 _atom_site_label
 _atom_site_symmetry_multiplicity
 _atom_site_fract_x
 _atom_site_fract_y
 _atom_site_fract_z
 _atom_site_occupancy
  Tm  Tm0  1  0.242947  0.242948  0.250001  1
  Tm  Tm1  1  0.757048  0.757051  0.750000  1
  Sb  Sb2  1  0.500001  0.000000  -0.000000  1
  Sb  Sb3  1  0.000001  0.500001  0.500001  1
  Pb  Pb4  1  0.891464  0.629832  0.125409  1
  Pb  Pb5  1  0.629833  0.891464  0.374590  1
  Pb  Pb6  1  0.108536  0.370167  0.874591  1
  Pb  Pb7  1  0.370167  0.108538  0.625409  1
  O  O8  1  0.363200  0.673294  0.618428  1
  O  O9  1  0.673292  0.363196  0.881574  1
  O  O10  1  0.636802  0.326707  0.381573  1
  O  O11  1  0.326707  0.636803  0.118427  1
  O  O12  1  0.183904  0.881891  0.848511  1
  O  O13  1  0.881896  0.183901  0.651490  1
  O  O14  1  0.816100  0.118111  0.151488  1
  O  O15  1  0.118104  0.816098  0.348510  1
  O  O16  1  0.309684  0.117437  0.083045  1
  O  O17  1  0.117442  0.309688  0.416952  1
  O  O18  1  0.690311  0.882559  0.916956  1
  O  O19  1  0.882561  0.690311  0.583046  1
