# generated using pymatgen
data_LiCr(SO4)2
_symmetry_space_group_name_H-M   'P 1'
_cell_length_a   8.91717449
_cell_length_b   8.87790700
_cell_length_c   8.89956183
_cell_angle_alpha   55.96886145
_cell_angle_beta   55.89660727
_cell_angle_gamma   55.73332682
_symmetry_Int_Tables_number   1
_chemical_formula_structural   LiCr(SO4)2
_chemical_formula_sum   'Li3 Cr3 S6 O24'
_cell_volume   450.44324140
_cell_formula_units_Z   3
loop_
 _symmetry_equiv_pos_site_id
 _symmetry_equiv_pos_as_xyz
  1  'x, y, z'
loop_
 _atom_site_type_symbol
 _atom_site_label
 _atom_site_symmetry_multiplicity
 _atom_site_fract_x
 _atom_site_fract_y
 _atom_site_fract_z
 _atom_site_occupancy
  Li  Li0  1  0.357585  0.355500  0.350649  1
  Li  Li1  1  0.177598  0.431591  0.761539  1
  Li  Li2  1  0.760581  0.179124  0.431631  1
  Cr  Cr3  1  0.160804  0.146384  0.156418  1
  Cr  Cr4  1  0.642316  0.644110  0.644612  1
  Cr  Cr5  1  0.846655  0.848857  0.853970  1
  S  S6  1  0.042648  0.748075  0.459561  1
  S  S7  1  0.456086  0.040476  0.755907  1
  S  S8  1  0.753492  0.460060  0.041500  1
  S  S9  1  0.252372  0.542802  0.958952  1
  S  S10  1  0.541848  0.957092  0.255105  1
  S  S11  1  0.958970  0.250745  0.544560  1
  O  O12  1  0.107486  0.297325  0.510964  1
  O  O13  1  0.298745  0.507653  0.108206  1
  O  O14  1  0.003750  0.962496  0.338079  1
  O  O15  1  0.515383  0.105065  0.299828  1
  O  O16  1  0.023558  0.711948  0.658229  1
  O  O17  1  0.236043  0.625135  0.376001  1
  O  O18  1  0.370128  0.240197  0.634536  1
  O  O19  1  0.334676  0.002879  0.964951  1
  O  O20  1  0.640566  0.364940  0.239047  1
  O  O21  1  0.046263  0.676494  0.980818  1
  O  O22  1  0.279015  0.353406  0.962456  1
  O  O23  1  0.350735  0.967863  0.286345  1
  O  O24  1  0.655086  0.024335  0.713784  1
  O  O25  1  0.718016  0.653660  0.025344  1
  O  O26  1  0.968312  0.333168  0.000923  1
  O  O27  1  0.381517  0.625230  0.757397  1
  O  O28  1  0.674118  0.979864  0.048067  1
  O  O29  1  0.626455  0.754359  0.383514  1
  O  O30  1  0.756640  0.382010  0.625053  1
  O  O31  1  0.965245  0.275435  0.355384  1
  O  O32  1  0.483262  0.895146  0.701796  1
  O  O33  1  0.978721  0.045075  0.678454  1
  O  O34  1  0.701952  0.484995  0.895285  1
  O  O35  1  0.887871  0.706505  0.487434  1
