# generated using pymatgen
data_SrGa12O19
_symmetry_space_group_name_H-M   'P 1'
_cell_length_a   5.87579778
_cell_length_b   5.87581702
_cell_length_c   23.13297492
_cell_angle_alpha   90.00010654
_cell_angle_beta   89.99984916
_cell_angle_gamma   120.00000305
_symmetry_Int_Tables_number   1
_chemical_formula_structural   SrGa12O19
_chemical_formula_sum   'Sr2 Ga24 O38'
_cell_volume   691.66724486
_cell_formula_units_Z   2
loop_
 _symmetry_equiv_pos_site_id
 _symmetry_equiv_pos_as_xyz
  1  'x, y, z'
loop_
 _atom_site_type_symbol
 _atom_site_label
 _atom_site_symmetry_multiplicity
 _atom_site_fract_x
 _atom_site_fract_y
 _atom_site_fract_z
 _atom_site_occupancy
  Sr  Sr0  1  0.333333  0.666684  0.749231  1
  Sr  Sr1  1  0.666665  0.333337  0.249231  1
  Ga  Ga2  1  0.169006  0.831014  0.890999  1
  Ga  Ga3  1  0.167694  0.832322  0.609756  1
  Ga  Ga4  1  0.333325  0.666680  0.027439  1
  Ga  Ga5  1  0.333326  0.666683  0.189439  1
  Ga  Ga6  1  0.333325  0.666645  0.310086  1
  Ga  Ga7  1  0.167686  0.335374  0.609756  1
  Ga  Ga8  1  0.000001  0.000013  0.000301  1
  Ga  Ga9  1  0.999995  1.000000  0.257190  1
  Ga  Ga10  1  0.000005  0.000016  0.757190  1
  Ga  Ga11  1  0.333328  0.666658  0.472959  1
  Ga  Ga12  1  0.000000  0.000002  0.500302  1
  Ga  Ga13  1  0.168998  0.338001  0.891001  1
  Ga  Ga14  1  0.664625  0.832321  0.609755  1
  Ga  Ga15  1  0.662000  0.831013  0.891000  1
  Ga  Ga16  1  0.335375  0.167700  0.109756  1
  Ga  Ga17  1  0.338000  0.168992  0.391000  1
  Ga  Ga18  1  0.831004  0.662007  0.391000  1
  Ga  Ga19  1  0.832306  0.664632  0.109756  1
  Ga  Ga20  1  0.666674  0.333351  0.689439  1
  Ga  Ga21  1  0.666676  0.333355  0.810085  1
  Ga  Ga22  1  0.666673  0.333349  0.972959  1
  Ga  Ga23  1  0.666674  0.333350  0.527439  1
  Ga  Ga24  1  0.832315  0.167693  0.109755  1
  Ga  Ga25  1  0.830993  0.168994  0.391000  1
  O  O26  1  0.155755  0.844259  0.052198  1
  O  O27  1  0.155162  0.844838  0.447195  1
  O  O28  1  0.010014  0.505014  0.849871  1
  O  O29  1  0.009505  0.504758  0.650341  1
  O  O30  1  0.181939  0.818056  0.250559  1
  O  O31  1  0.333324  0.666679  0.944888  1
  O  O32  1  -0.000001  0.000004  0.148807  1
  O  O33  1  0.155758  0.311525  0.052197  1
  O  O34  1  0.181939  0.363885  0.250559  1
  O  O35  1  0.000002  0.000003  0.648807  1
  O  O36  1  0.333322  0.666645  0.555180  1
  O  O37  1  0.155153  0.310307  0.447193  1
  O  O38  1  0.495255  0.990513  0.650342  1
  O  O39  1  0.000001  0.000002  0.349679  1
  O  O40  1  0.495001  0.990003  0.849869  1
  O  O41  1  0.999999  0.000007  0.849679  1
  O  O42  1  0.636107  0.818055  0.250558  1
  O  O43  1  0.311518  0.155759  0.552196  1
  O  O44  1  0.310324  0.155171  0.947195  1
  O  O45  1  0.495250  0.504756  0.650341  1
  O  O46  1  0.494996  0.505015  0.849872  1
  O  O47  1  0.504743  0.495259  0.150343  1
  O  O48  1  0.505005  0.494991  0.349872  1
  O  O49  1  0.688481  0.844251  0.052196  1
  O  O50  1  0.689676  0.844840  0.447195  1
  O  O51  1  0.363890  0.181950  0.750559  1
  O  O52  1  0.504750  0.009509  0.150340  1
  O  O53  1  0.505000  0.010001  0.349870  1
  O  O54  1  0.666676  0.333356  0.055180  1
  O  O55  1  0.666677  0.333354  0.444888  1
  O  O56  1  0.844844  0.689700  0.947194  1
  O  O57  1  0.844251  0.688503  0.552199  1
  O  O58  1  0.818063  0.636125  0.750559  1
  O  O59  1  0.818058  0.181953  0.750559  1
  O  O60  1  0.990496  0.495254  0.150341  1
  O  O61  1  0.989983  0.494991  0.349872  1
  O  O62  1  0.844839  0.155169  0.947194  1
  O  O63  1  0.844241  0.155760  0.552196  1
