# generated using pymatgen
data_Li4V3P8O29
_symmetry_space_group_name_H-M   'P 1'
_cell_length_a   9.77317395
_cell_length_b   9.74220329
_cell_length_c   14.18125938
_cell_angle_alpha   90.31793742
_cell_angle_beta   90.81429955
_cell_angle_gamma   60.41782858
_symmetry_Int_Tables_number   1
_chemical_formula_structural   Li4V3P8O29
_chemical_formula_sum   'Li8 V6 P16 O58'
_cell_volume   1174.10498467
_cell_formula_units_Z   2
loop_
 _symmetry_equiv_pos_site_id
 _symmetry_equiv_pos_as_xyz
  1  'x, y, z'
loop_
 _atom_site_type_symbol
 _atom_site_label
 _atom_site_symmetry_multiplicity
 _atom_site_fract_x
 _atom_site_fract_y
 _atom_site_fract_z
 _atom_site_occupancy
  Li  Li0  1  0.770962  0.314702  0.056167  1
  Li  Li1  1  0.315727  0.907507  0.060258  1
  Li  Li2  1  0.670792  0.232546  0.444255  1
  Li  Li3  1  0.336513  0.768180  0.559227  1
  Li  Li4  1  0.688279  0.080233  0.935144  1
  Li  Li5  1  0.094457  0.671667  0.443120  1
  Li  Li6  1  0.093754  0.228755  0.938075  1
  Li  Li7  1  0.988711  0.046935  0.509906  1
  V  V8  1  0.562147  0.433976  0.250204  1
  V  V9  1  0.429045  0.568649  0.754684  1
  V  V10  1  0.571055  0.990716  0.743548  1
  V  V11  1  0.432165  0.004178  0.253988  1
  V  V12  1  0.998669  0.566665  0.250373  1
  V  V13  1  0.998784  0.435715  0.747334  1
  P  P14  1  0.918263  0.772351  0.839743  1
  P  P15  1  0.778645  0.917443  0.337261  1
  P  P16  1  0.915370  0.305518  0.341373  1
  P  P17  1  0.663829  0.664526  0.132603  1
  P  P18  1  0.660962  0.661974  0.630083  1
  P  P19  1  0.770265  0.319909  0.840001  1
  P  P20  1  0.682666  0.229401  0.658738  1
  P  P21  1  0.320091  0.912406  0.844034  1
  P  P22  1  0.679146  0.087357  0.154399  1
  P  P23  1  0.316709  0.771505  0.341632  1
  P  P24  1  0.223758  0.685660  0.160254  1
  P  P25  1  0.332778  0.336788  0.370038  1
  P  P26  1  0.340842  0.322966  0.869053  1
  P  P27  1  0.085242  0.690010  0.656603  1
  P  P28  1  0.220293  0.085285  0.662092  1
  P  P29  1  0.085227  0.230134  0.158357  1
  O  O30  1  0.020354  0.774920  0.565061  1
  O  O31  1  0.920604  0.743536  0.337992  1
  O  O32  1  0.744460  0.018451  0.061421  1
  O  O33  1  0.743844  0.914023  0.833237  1
  O  O34  1  0.913017  0.617117  0.820415  1
  O  O35  1  0.813974  0.659232  0.182851  1
  O  O36  1  0.923883  0.460203  0.331559  1
  O  O37  1  0.998447  0.246937  0.066813  1
  O  O38  1  0.918566  0.336529  0.841165  1
  O  O39  1  0.666817  0.811649  0.674922  1
  O  O40  1  0.623549  0.915390  0.329639  1
  O  O41  1  0.804911  0.516774  0.671785  1
  O  O42  1  0.677659  0.647551  0.028469  1
  O  O43  1  0.640744  0.678965  0.525807  1
  O  O44  1  0.665632  0.512386  0.175086  1
  O  O45  1  0.478695  0.903768  0.823325  1
  O  O46  1  0.516409  0.813750  0.168733  1
  O  O47  1  0.739132  0.344450  0.336299  1
  O  O48  1  0.791707  0.209269  0.749956  1
  O  O49  1  0.770176  0.212695  0.569947  1
  O  O50  1  0.753905  0.243682  0.927819  1
  O  O51  1  0.621019  0.481520  0.821197  1
  O  O52  1  0.506162  0.674808  0.673548  1
  O  O53  1  0.659369  0.257125  0.164087  1
  O  O54  1  0.474509  0.616923  0.324746  1
  O  O55  1  0.344531  0.912852  0.333728  1
  O  O56  1  0.799679  0.987325  0.237854  1
  O  O57  1  0.795468  0.009917  0.416513  1
  O  O58  1  0.202760  0.995462  0.581210  1
  O  O59  1  0.650621  0.088425  0.667792  1
  O  O60  1  0.529267  0.386832  0.670707  1
  O  O61  1  0.342877  0.743341  0.838074  1
  O  O62  1  0.487699  0.328338  0.325285  1
  O  O63  1  0.378152  0.524447  0.178773  1
  O  O64  1  0.233509  0.769381  0.076765  1
  O  O65  1  0.241032  0.766590  0.432121  1
  O  O66  1  0.201944  0.788969  0.255134  1
  O  O67  1  0.257978  0.662677  0.668302  1
  O  O68  1  0.487401  0.175801  0.825583  1
  O  O69  1  0.520922  0.095446  0.177845  1
  O  O70  1  0.344113  0.470887  0.820603  1
  O  O71  1  0.355011  0.326188  0.973501  1
  O  O72  1  0.346552  0.347445  0.474259  1
  O  O73  1  0.185331  0.492832  0.330592  1
  O  O74  1  0.382171  0.078338  0.669926  1
  O  O75  1  0.324296  0.195283  0.328046  1
  O  O76  1  0.082298  0.655823  0.165635  1
  O  O77  1  0.992942  0.800291  0.744188  1
  O  O78  1  0.000322  0.776047  0.926475  1
  O  O79  1  0.087972  0.533189  0.668382  1
  O  O80  1  0.188350  0.326591  0.832638  1
  O  O81  1  0.097434  0.380767  0.180280  1
  O  O82  1  0.249894  0.083247  0.160740  1
  O  O83  1  0.248126  0.996567  0.934283  1
  O  O84  1  0.201759  0.008442  0.759201  1
  O  O85  1  0.087455  0.257445  0.666444  1
  O  O86  1  0.994300  0.203002  0.423626  1
  O  O87  1  0.988533  0.211182  0.243171  1
