# generated using pymatgen
data_Ca2Tl2O5
_symmetry_space_group_name_H-M   'P 1'
_cell_length_a   5.89994269
_cell_length_b   6.75059733
_cell_length_c   13.74608373
_cell_angle_alpha   90.00000000
_cell_angle_beta   90.00000000
_cell_angle_gamma   73.47805571
_symmetry_Int_Tables_number   1
_chemical_formula_structural   Ca2Tl2O5
_chemical_formula_sum   'Ca8 Tl8 O20'
_cell_volume   524.87590928
_cell_formula_units_Z   4
loop_
 _symmetry_equiv_pos_site_id
 _symmetry_equiv_pos_as_xyz
  1  'x, y, z'
loop_
 _atom_site_type_symbol
 _atom_site_label
 _atom_site_symmetry_multiplicity
 _atom_site_fract_x
 _atom_site_fract_y
 _atom_site_fract_z
 _atom_site_occupancy
  Ca  Ca0  1  0.458955  0.884802  0.887784  1
  Ca  Ca1  1  0.054036  0.987066  0.241399  1
  Ca  Ca2  1  0.541045  0.615198  0.112216  1
  Ca  Ca3  1  0.945964  0.512934  0.758601  1
  Ca  Ca4  1  0.458955  0.384802  0.612216  1
  Ca  Ca5  1  0.054036  0.487066  0.258601  1
  Ca  Ca6  1  0.945964  0.012934  0.741399  1
  Ca  Ca7  1  0.541045  0.115198  0.387784  1
  Tl  Tl8  1  0.460579  0.885849  0.615688  1
  Tl  Tl9  1  0.000000  0.750000  0.000000  1
  Tl  Tl10  1  0.539421  0.614151  0.384312  1
  Tl  Tl11  1  0.000000  0.750000  0.500000  1
  Tl  Tl12  1  0.460579  0.385849  0.884312  1
  Tl  Tl13  1  0.000000  0.250000  0.500000  1
  Tl  Tl14  1  0.539421  0.114151  0.115688  1
  Tl  Tl15  1  0.000000  0.250000  0.000000  1
  O  O16  1  0.828778  0.790868  0.355523  1
  O  O17  1  0.836554  0.788737  0.144167  1
  O  O18  1  0.665192  0.832533  0.746296  1
  O  O19  1  0.278577  0.930357  0.050279  1
  O  O20  1  0.291690  0.928115  0.461720  1
  O  O21  1  0.721423  0.569643  0.949721  1
  O  O22  1  0.334808  0.667467  0.253704  1
  O  O23  1  0.171222  0.709132  0.644477  1
  O  O24  1  0.163446  0.711263  0.855833  1
  O  O25  1  0.708310  0.571885  0.538280  1
  O  O26  1  0.828778  0.290868  0.144477  1
  O  O27  1  0.836554  0.288737  0.355833  1
  O  O28  1  0.278577  0.430357  0.449721  1
  O  O29  1  0.665192  0.332533  0.753704  1
  O  O30  1  0.291690  0.428115  0.038280  1
  O  O31  1  0.708310  0.071885  0.961720  1
  O  O32  1  0.721423  0.069643  0.550279  1
  O  O33  1  0.171222  0.209132  0.855523  1
  O  O34  1  0.163446  0.211263  0.644167  1
  O  O35  1  0.334808  0.167467  0.246296  1
