# generated using pymatgen
data_SeS2(NO)2
_symmetry_space_group_name_H-M   'P 1'
_cell_length_a   4.72373172
_cell_length_b   7.85704330
_cell_length_c   8.72589376
_cell_angle_alpha   95.01676729
_cell_angle_beta   105.70433196
_cell_angle_gamma   90.00000001
_symmetry_Int_Tables_number   1
_chemical_formula_structural   SeS2(NO)2
_chemical_formula_sum   'Se2 S4 N4 O4'
_cell_volume   310.47960026
_cell_formula_units_Z   2
loop_
 _symmetry_equiv_pos_site_id
 _symmetry_equiv_pos_as_xyz
  1  'x, y, z'
loop_
 _atom_site_type_symbol
 _atom_site_label
 _atom_site_symmetry_multiplicity
 _atom_site_fract_x
 _atom_site_fract_y
 _atom_site_fract_z
 _atom_site_occupancy
  N  N0  1  0.527462  0.301340  0.853827  1
  N  N1  1  0.673635  0.198660  0.146173  1
  N  N2  1  0.472538  0.698660  0.146173  1
  N  N3  1  0.326365  0.801340  0.853827  1
  O  O4  1  0.787869  0.388217  0.645035  1
  O  O5  1  0.142834  0.111783  0.354965  1
  O  O6  1  0.857166  0.888217  0.645035  1
  O  O7  1  0.212131  0.611783  0.354965  1
  S  S8  1  0.511024  0.364839  0.689588  1
  S  S9  1  0.821435  0.135161  0.310412  1
  S  S10  1  0.488976  0.635161  0.310412  1
  S  S11  1  0.178564  0.864839  0.689588  1
  Se  Se12  1  0.868973  0.250000  0.000000  1
  Se  Se13  1  0.131027  0.750000  0.000000  1
