# generated using pymatgen
data_Co3TeO8
_symmetry_space_group_name_H-M   'P 1'
_cell_length_a   5.69465915
_cell_length_b   5.69293131
_cell_length_c   9.03816063
_cell_angle_alpha   89.97380913
_cell_angle_beta   90.01309058
_cell_angle_gamma   119.98996704
_symmetry_Int_Tables_number   1
_chemical_formula_structural   Co3TeO8
_chemical_formula_sum   'Co6 Te2 O16'
_cell_volume   253.78048218
_cell_formula_units_Z   2
loop_
 _symmetry_equiv_pos_site_id
 _symmetry_equiv_pos_as_xyz
  1  'x, y, z'
loop_
 _atom_site_type_symbol
 _atom_site_label
 _atom_site_symmetry_multiplicity
 _atom_site_fract_x
 _atom_site_fract_y
 _atom_site_fract_z
 _atom_site_occupancy
  Co  Co0  1  0.170521  0.829477  0.216230  1
  Co  Co1  1  0.170587  0.341131  0.216372  1
  Co  Co2  1  0.658810  0.829384  0.216306  1
  Co  Co3  1  0.341190  0.170574  0.716306  1
  Co  Co4  1  0.829479  0.658956  0.716230  1
  Co  Co5  1  0.829413  0.170544  0.716372  1
  Te  Te6  1  0.333409  0.666826  0.492967  1
  Te  Te7  1  0.666591  0.333418  0.992967  1
  O  O8  1  0.160813  0.839258  0.595331  1
  O  O9  1  0.032417  0.516129  0.338119  1
  O  O10  1  0.333425  0.666749  0.112984  1
  O  O11  1  0.999922  0.999911  0.302627  1
  O  O12  1  0.000078  -0.000011  0.802627  1
  O  O13  1  0.160656  0.321453  0.595380  1
  O  O14  1  0.483768  0.967621  0.338019  1
  O  O15  1  0.483698  0.516066  0.338201  1
  O  O16  1  0.321644  0.160929  0.095325  1
  O  O17  1  0.678356  0.839285  0.595325  1
  O  O18  1  0.516232  0.483853  0.838019  1
  O  O19  1  0.516302  0.032368  0.838201  1
  O  O20  1  0.666575  0.333324  0.612984  1
  O  O21  1  0.839187  0.678446  0.095330  1
  O  O22  1  0.967583  0.483712  0.838119  1
  O  O23  1  0.839344  0.160797  0.095380  1
