# generated using pymatgen
data_Ag2Br3
_symmetry_space_group_name_H-M   'P 1'
_cell_length_a   7.02539691
_cell_length_b   7.02539709
_cell_length_c   7.58935714
_cell_angle_alpha   117.57086891
_cell_angle_beta   62.42914038
_cell_angle_gamma   119.99999434
_symmetry_Int_Tables_number   1
_chemical_formula_structural   Ag2Br3
_chemical_formula_sum   'Ag4 Br6'
_cell_volume   274.18118606
_cell_formula_units_Z   2
loop_
 _symmetry_equiv_pos_site_id
 _symmetry_equiv_pos_as_xyz
  1  'x, y, z'
loop_
 _atom_site_type_symbol
 _atom_site_label
 _atom_site_symmetry_multiplicity
 _atom_site_fract_x
 _atom_site_fract_y
 _atom_site_fract_z
 _atom_site_occupancy
  Ag  Ag0  1  0.660331  0.339670  0.019009  1
  Ag  Ag1  1  0.839670  0.160330  0.480991  1
  Ag  Ag2  1  0.160330  0.839669  0.519009  1
  Ag  Ag3  1  0.339670  0.660331  0.980990  1
  Br  Br4  1  0.250000  0.072185  0.250001  1
  Br  Br5  1  0.927816  0.427816  0.250001  1
  Br  Br6  1  0.572183  0.750000  0.250001  1
  Br  Br7  1  0.427817  0.250000  0.750000  1
  Br  Br8  1  0.072183  0.572183  0.750000  1
  Br  Br9  1  0.750000  0.927817  0.750000  1
