# generated using pymatgen
data_Li2Mn3(BO3)3
_symmetry_space_group_name_H-M   'P 1'
_cell_length_a   8.23542052
_cell_length_b   8.29182484
_cell_length_c   6.34833981
_cell_angle_alpha   90.00000000
_cell_angle_beta   90.00000000
_cell_angle_gamma   119.59921199
_symmetry_Int_Tables_number   1
_chemical_formula_structural   Li2Mn3(BO3)3
_chemical_formula_sum   'Li4 Mn6 B6 O18'
_cell_volume   376.93504001
_cell_formula_units_Z   2
loop_
 _symmetry_equiv_pos_site_id
 _symmetry_equiv_pos_as_xyz
  1  'x, y, z'
loop_
 _atom_site_type_symbol
 _atom_site_label
 _atom_site_symmetry_multiplicity
 _atom_site_fract_x
 _atom_site_fract_y
 _atom_site_fract_z
 _atom_site_occupancy
  Li  Li0  1  0.276335  0.299501  0.250000  1
  Li  Li1  1  0.023283  0.724159  0.750000  1
  Li  Li2  1  0.697898  0.977734  0.750000  1
  Li  Li3  1  0.697244  0.980476  0.250000  1
  Mn  Mn4  1  0.362581  0.012642  0.501449  1
  Mn  Mn5  1  0.362581  0.012642  0.998551  1
  Mn  Mn6  1  0.641749  0.620636  0.500352  1
  Mn  Mn7  1  0.641749  0.620636  0.999648  1
  Mn  Mn8  1  0.997854  0.369865  0.000743  1
  Mn  Mn9  1  0.997854  0.369865  0.499257  1
  B  B10  1  0.658644  0.327107  0.250000  1
  B  B11  1  0.678752  0.332503  0.750000  1
  B  B12  1  0.336330  0.664851  0.250000  1
  B  B13  1  0.343586  0.676147  0.750000  1
  B  B14  1  0.991651  0.999617  0.000638  1
  B  B15  1  0.991651  0.999617  0.499362  1
  O  O16  1  0.094541  0.190690  0.019044  1
  O  O17  1  0.094541  0.190690  0.480956  1
  O  O18  1  0.463742  0.212834  0.250000  1
  O  O19  1  0.144874  0.541022  0.250000  1
  O  O20  1  0.490680  0.218360  0.750000  1
  O  O21  1  0.150659  0.562178  0.750000  1
  O  O22  1  0.081737  0.898097  0.982770  1
  O  O23  1  0.081737  0.898097  0.517230  1
  O  O24  1  0.775419  0.250911  0.250000  1
  O  O25  1  0.452200  0.586823  0.250000  1
  O  O26  1  0.800768  0.258398  0.750000  1
  O  O27  1  0.466680  0.608505  0.750000  1
  O  O28  1  0.734093  0.517615  0.250000  1
  O  O29  1  0.756503  0.526113  0.750000  1
  O  O30  1  0.409569  0.854540  0.250000  1
  O  O31  1  0.415562  0.867292  0.750000  1
  O  O32  1  0.796562  0.910990  0.499891  1
  O  O33  1  0.796562  0.910990  0.000109  1
