# generated using pymatgen
data_Tl2SiS3
_symmetry_space_group_name_H-M   'P 1'
_cell_length_a   6.97259770
_cell_length_b   6.90372252
_cell_length_c   8.56188593
_cell_angle_alpha   112.39406642
_cell_angle_beta   88.80019363
_cell_angle_gamma   112.38795635
_symmetry_Int_Tables_number   1
_chemical_formula_structural   Tl2SiS3
_chemical_formula_sum   'Tl4 Si2 S6'
_cell_volume   348.60286624
_cell_formula_units_Z   2
loop_
 _symmetry_equiv_pos_site_id
 _symmetry_equiv_pos_as_xyz
  1  'x, y, z'
loop_
 _atom_site_type_symbol
 _atom_site_label
 _atom_site_symmetry_multiplicity
 _atom_site_fract_x
 _atom_site_fract_y
 _atom_site_fract_z
 _atom_site_occupancy
  Si  Si0  1  0.450519  0.566877  0.674436  1
  Si  Si1  1  0.549481  0.433123  0.325564  1
  S  S2  1  0.320257  0.260225  0.108654  1
  S  S3  1  0.679743  0.739775  0.891346  1
  S  S4  1  0.140173  0.493389  0.726399  1
  S  S5  1  0.859827  0.506611  0.273601  1
  S  S6  1  0.527238  0.747932  0.504882  1
  S  S7  1  0.472762  0.252068  0.495118  1
  Tl  Tl8  1  0.684240  0.276302  0.896659  1
  Tl  Tl9  1  0.315760  0.723698  0.103341  1
  Tl  Tl10  1  0.959132  0.138551  0.331612  1
  Tl  Tl11  1  0.040868  0.861449  0.668388  1
