# generated using pymatgen
data_Na2Ti4O9
_symmetry_space_group_name_H-M   'P 1'
_cell_length_a   10.72619776
_cell_length_b   8.87064781
_cell_length_c   12.47295928
_cell_angle_alpha   69.21861015
_cell_angle_beta   101.90459623
_cell_angle_gamma   89.98548641
_symmetry_Int_Tables_number   1
_chemical_formula_structural   Na2Ti4O9
_chemical_formula_sum   'Na12 Ti24 O54'
_cell_volume   1082.20186429
_cell_formula_units_Z   6
loop_
 _symmetry_equiv_pos_site_id
 _symmetry_equiv_pos_as_xyz
  1  'x, y, z'
loop_
 _atom_site_type_symbol
 _atom_site_label
 _atom_site_symmetry_multiplicity
 _atom_site_fract_x
 _atom_site_fract_y
 _atom_site_fract_z
 _atom_site_occupancy
  Na  Na0  1  0.100441  0.036685  0.286674  1
  Na  Na1  1  0.397270  0.135741  0.726152  1
  Na  Na2  1  0.397036  0.805246  0.724621  1
  Na  Na3  1  0.406766  0.470790  0.724799  1
  Na  Na4  1  0.297372  0.616284  0.144785  1
  Na  Na5  1  0.305477  0.243963  0.141242  1
  Na  Na6  1  0.695697  0.088607  0.857939  1
  Na  Na7  1  0.707120  0.711394  0.853006  1
  Na  Na8  1  0.594624  0.862112  0.276405  1
  Na  Na9  1  0.603782  0.528482  0.274090  1
  Na  Na10  1  0.604248  0.198013  0.273139  1
  Na  Na11  1  0.899452  0.317847  0.713980  1
  Ti  Ti12  1  0.182979  0.896186  0.873539  1
  Ti  Ti13  1  0.187842  0.561727  0.877546  1
  Ti  Ti14  1  0.117878  0.047291  0.569201  1
  Ti  Ti15  1  0.118495  0.714327  0.570829  1
  Ti  Ti16  1  0.194251  0.228239  0.876883  1
  Ti  Ti17  1  0.125178  0.384935  0.563895  1
  Ti  Ti18  1  0.009790  0.997339  0.008966  1
  Ti  Ti19  1  0.501142  0.666788  0.998897  1
  Ti  Ti20  1  0.370679  0.278600  0.440103  1
  Ti  Ti21  1  0.370490  0.615719  0.440254  1
  Ti  Ti22  1  0.379774  0.942113  0.447386  1
  Ti  Ti23  1  0.510584  0.337324  0.991869  1
  Ti  Ti24  1  0.618626  0.391629  0.551487  1
  Ti  Ti25  1  0.490622  0.994378  0.009416  1
  Ti  Ti26  1  0.626863  0.056395  0.557262  1
  Ti  Ti27  1  0.628093  0.717888  0.559183  1
  Ti  Ti28  1  0.992413  0.337109  0.992785  1
  Ti  Ti29  1  0.999943  0.668544  0.999980  1
  Ti  Ti30  1  0.874774  0.948171  0.436435  1
  Ti  Ti31  1  0.881206  0.618887  0.428960  1
  Ti  Ti32  1  0.807264  0.104692  0.122973  1
  Ti  Ti33  1  0.882501  0.285881  0.431461  1
  Ti  Ti34  1  0.812235  0.771418  0.122750  1
  Ti  Ti35  1  0.818540  0.437052  0.126893  1
  O  O36  1  0.059740  0.403872  0.849552  1
  O  O37  1  0.060314  0.741814  0.850612  1
  O  O38  1  0.061299  0.077226  0.853081  1
  O  O39  1  0.008490  0.870265  0.593202  1
  O  O40  1  0.009706  0.534643  0.592716  1
  O  O41  1  0.009660  0.206487  0.592382  1
  O  O42  1  0.219263  0.303831  0.726432  1
  O  O43  1  0.218739  0.970148  0.726438  1
  O  O44  1  0.218841  0.635940  0.726892  1
  O  O45  1  0.304129  0.698361  0.938714  1
  O  O46  1  0.304925  0.028216  0.939689  1
  O  O47  1  0.305399  0.364407  0.939524  1
  O  O48  1  0.217854  0.909359  0.515884  1
  O  O49  1  0.220174  0.575974  0.516714  1
  O  O50  1  0.221139  0.240295  0.517231  1
  O  O51  1  0.123397  0.144629  0.050093  1
  O  O52  1  0.124145  0.809525  0.043865  1
  O  O53  1  0.124603  0.478666  0.041034  1
  O  O54  1  0.316364  0.830092  0.346830  1
  O  O55  1  0.317929  0.159083  0.342278  1
  O  O56  1  0.323250  0.495071  0.342511  1
  O  O57  1  0.510585  0.220054  0.891002  1
  O  O58  1  0.514120  0.558156  0.888113  1
  O  O59  1  0.516160  0.886292  0.893335  1
  O  O60  1  0.444566  0.382694  0.568056  1
  O  O61  1  0.446512  0.050078  0.568172  1
  O  O62  1  0.447488  0.714906  0.569555  1
  O  O63  1  0.551383  0.285371  0.429328  1
  O  O64  1  0.551436  0.618690  0.429629  1
  O  O65  1  0.553811  0.951461  0.430392  1
  O  O66  1  0.483742  0.448044  0.106143  1
  O  O67  1  0.487498  0.775429  0.111698  1
  O  O68  1  0.489900  0.113854  0.109509  1
  O  O69  1  0.672797  0.839664  0.656298  1
  O  O70  1  0.678865  0.174924  0.655671  1
  O  O71  1  0.681162  0.503183  0.653567  1
  O  O72  1  0.876335  0.521504  0.958393  1
  O  O73  1  0.875916  0.854167  0.958031  1
  O  O74  1  0.877880  0.187658  0.951944  1
  O  O75  1  0.778045  0.093591  0.481818  1
  O  O76  1  0.778741  0.757820  0.483231  1
  O  O77  1  0.782316  0.423561  0.485065  1
  O  O78  1  0.694939  0.969428  0.060444  1
  O  O79  1  0.695931  0.304405  0.061895  1
  O  O80  1  0.696558  0.634849  0.060639  1
  O  O81  1  0.780372  0.696845  0.273060  1
  O  O82  1  0.782584  0.363684  0.274025  1
  O  O83  1  0.782418  0.029241  0.273767  1
  O  O84  1  0.990914  0.127166  0.408031  1
  O  O85  1  0.989821  0.798014  0.408022  1
  O  O86  1  0.991399  0.463759  0.406855  1
  O  O87  1  0.940446  0.255576  0.148600  1
  O  O88  1  0.940005  0.592450  0.149805  1
  O  O89  1  0.940293  0.928103  0.150870  1
