# generated using pymatgen
data_Cs4P2PdSe8
_symmetry_space_group_name_H-M   'P 1'
_cell_length_a   7.72958164
_cell_length_b   13.88428273
_cell_length_c   10.32185304
_cell_angle_alpha   90.12235082
_cell_angle_beta   93.45825786
_cell_angle_gamma   89.97776050
_symmetry_Int_Tables_number   1
_chemical_formula_structural   Cs4P2PdSe8
_chemical_formula_sum   'Cs8 P4 Pd2 Se16'
_cell_volume   1105.71839984
_cell_formula_units_Z   2
loop_
 _symmetry_equiv_pos_site_id
 _symmetry_equiv_pos_as_xyz
  1  'x, y, z'
loop_
 _atom_site_type_symbol
 _atom_site_label
 _atom_site_symmetry_multiplicity
 _atom_site_fract_x
 _atom_site_fract_y
 _atom_site_fract_z
 _atom_site_occupancy
  Cs  Cs0  1  0.676625  0.869264  0.677714  1
  Cs  Cs1  1  0.320998  0.368422  0.825280  1
  Cs  Cs2  1  0.318769  0.131322  0.321104  1
  Cs  Cs3  1  0.679588  0.633738  0.178183  1
  Cs  Cs4  1  0.227168  0.654393  0.536848  1
  Cs  Cs5  1  0.774609  0.151770  0.963657  1
  Cs  Cs6  1  0.771393  0.345396  0.464635  1
  Cs  Cs7  1  0.227406  0.843986  0.034901  1
  P  P8  1  0.737218  0.579945  0.758744  1
  P  P9  1  0.262944  0.080240  0.741914  1
  P  P10  1  0.265744  0.419617  0.244150  1
  P  P11  1  0.734967  0.920154  0.256584  1
  Pd  Pd12  1  0.998565  0.000780  0.498697  1
  Pd  Pd13  1  0.000251  0.499558  0.001476  1
  Se  Se14  1  0.186042  0.927743  0.676426  1
  Se  Se15  1  0.808670  0.427096  0.824893  1
  Se  Se16  1  0.811407  0.073104  0.319548  1
  Se  Se17  1  0.190035  0.572223  0.178578  1
  Se  Se18  1  0.736645  0.605625  0.549517  1
  Se  Se19  1  0.262864  0.105666  0.950768  1
  Se  Se20  1  0.264304  0.393641  0.452967  1
  Se  Se21  1  0.734823  0.892458  0.047742  1
  Se  Se22  1  0.971745  0.853537  0.362616  1
  Se  Se23  1  0.028863  0.352950  0.137499  1
  Se  Se24  1  0.026721  0.147526  0.635906  1
  Se  Se25  1  0.974665  0.646112  0.865103  1
  Se  Se26  1  0.493575  0.625764  0.837677  1
  Se  Se27  1  0.507542  0.125114  0.662934  1
  Se  Se28  1  0.509359  0.374365  0.163990  1
  Se  Se29  1  0.490556  0.876697  0.336929  1
