# generated using pymatgen
data_CrH9(BrN)3
_symmetry_space_group_name_H-M   'P 1'
_cell_length_a   6.03567179
_cell_length_b   6.93311358
_cell_length_c   9.97561292
_cell_angle_alpha   86.13368622
_cell_angle_beta   86.47699398
_cell_angle_gamma   85.03810211
_symmetry_Int_Tables_number   1
_chemical_formula_structural   CrH9(BrN)3
_chemical_formula_sum   'Cr2 H18 Br6 N6'
_cell_volume   414.27856298
_cell_formula_units_Z   2
loop_
 _symmetry_equiv_pos_site_id
 _symmetry_equiv_pos_as_xyz
  1  'x, y, z'
loop_
 _atom_site_type_symbol
 _atom_site_label
 _atom_site_symmetry_multiplicity
 _atom_site_fract_x
 _atom_site_fract_y
 _atom_site_fract_z
 _atom_site_occupancy
  Cr  Cr0  1  0.500000  0.999999  0.000001  1
  Cr  Cr1  1  0.000000  0.499999  0.500000  1
  H  H2  1  0.757425  0.149726  0.172728  1
  H  H3  1  0.242575  0.850275  0.827273  1
  H  H4  1  0.102655  0.130900  0.594523  1
  H  H5  1  0.897346  0.869100  0.405477  1
  H  H6  1  0.250789  0.631720  0.285253  1
  H  H7  1  0.749210  0.368279  0.714748  1
  H  H8  1  0.094044  0.471889  0.232724  1
  H  H9  1  0.905957  0.528110  0.767277  1
  H  H10  1  0.321213  0.396991  0.308600  1
  H  H11  1  0.678786  0.603008  0.691400  1
  H  H12  1  0.249601  0.272112  0.673411  1
  H  H13  1  0.750400  0.727889  0.326589  1
  H  H14  1  0.892374  0.159427  0.024171  1
  H  H15  1  0.107625  0.840572  0.975829  1
  H  H16  1  0.682958  0.317425  0.057448  1
  H  H17  1  0.317042  0.682575  0.942552  1
  H  H18  1  0.331890  0.210081  0.521606  1
  H  H19  1  0.668109  0.789920  0.478394  1
  Br  Br20  1  0.703881  0.004703  0.772566  1
  Br  Br21  1  0.296118  0.995296  0.227435  1
  Br  Br22  1  0.265794  0.306314  0.929162  1
  Br  Br23  1  0.734207  0.693687  0.070838  1
  Br  Br24  1  0.261720  0.715188  0.586210  1
  Br  Br25  1  0.738281  0.284813  0.413790  1
  N  N26  1  0.187110  0.499693  0.310489  1
  N  N27  1  0.812890  0.500304  0.689511  1
  N  N28  1  0.192424  0.251005  0.580493  1
  N  N29  1  0.807575  0.748994  0.419507  1
  N  N30  1  0.735340  0.173464  0.071125  1
  N  N31  1  0.264659  0.826535  0.928876  1
