# generated using pymatgen
data_NaAl6Fe3Si6B3H3O30F
_symmetry_space_group_name_H-M   'P 1'
_cell_length_a   9.66312958
_cell_length_b   9.66309349
_cell_length_c   9.66305219
_cell_angle_alpha   113.94519717
_cell_angle_beta   113.94529410
_cell_angle_gamma   113.94539202
_symmetry_Int_Tables_number   1
_chemical_formula_structural   NaAl6Fe3Si6B3H3O30F
_chemical_formula_sum   'Na1 Al6 Fe3 Si6 B3 H3 O30 F1'
_cell_volume   550.40714783
_cell_formula_units_Z   1
loop_
 _symmetry_equiv_pos_site_id
 _symmetry_equiv_pos_as_xyz
  1  'x, y, z'
loop_
 _atom_site_type_symbol
 _atom_site_label
 _atom_site_symmetry_multiplicity
 _atom_site_fract_x
 _atom_site_fract_y
 _atom_site_fract_z
 _atom_site_occupancy
  Na  Na0  1  0.230146  0.230147  0.230134  1
  Al  Al1  1  0.574199  0.909909  0.348535  1
  Al  Al2  1  0.909908  0.348529  0.574188  1
  Al  Al3  1  0.348530  0.574194  0.909909  1
  Al  Al4  1  0.574208  0.348539  0.909918  1
  Al  Al5  1  0.348539  0.909918  0.574203  1
  Al  Al6  1  0.909919  0.574214  0.348541  1
  Fe  Fe7  1  0.752268  0.561305  0.561301  1
  Fe  Fe8  1  0.561228  0.561218  0.752197  1
  Fe  Fe9  1  0.561285  0.752253  0.561301  1
  Si  Si10  1  0.995068  0.188609  0.806267  1
  Si  Si11  1  0.188611  0.806270  0.995072  1
  Si  Si12  1  0.806254  0.995053  0.188591  1
  Si  Si13  1  0.995062  0.806254  0.188595  1
  Si  Si14  1  0.806265  0.188611  0.995077  1
  Si  Si15  1  0.188613  0.995083  0.806268  1
  B  B16  1  0.230821  0.564456  0.564446  1
  B  B17  1  0.564465  0.564456  0.230837  1
  B  B18  1  0.564453  0.230826  0.564454  1
  H  H19  1  0.644374  0.241937  0.241936  1
  H  H20  1  0.241897  0.241900  0.644366  1
  H  H21  1  0.241936  0.644374  0.241931  1
  O  O22  1  0.351593  0.540790  0.540760  1
  O  O23  1  0.540825  0.540796  0.351632  1
  O  O24  1  0.540777  0.351603  0.540787  1
  O  O25  1  0.783758  0.373335  0.373332  1
  O  O26  1  0.373310  0.373310  0.783741  1
  O  O27  1  0.373335  0.783754  0.373333  1
  O  O28  1  0.881096  0.156779  0.156783  1
  O  O29  1  0.156790  0.156796  0.881113  1
  O  O30  1  0.156784  0.881099  0.156780  1
  O  O31  1  0.272288  0.991628  0.991625  1
  O  O32  1  0.991617  0.991614  0.272273  1
  O  O33  1  0.991624  0.272288  0.991627  1
  O  O34  1  0.766804  0.974723  0.582854  1
  O  O35  1  0.974729  0.582851  0.766803  1
  O  O36  1  0.582840  0.766783  0.974709  1
  O  O37  1  0.766806  0.582836  0.974726  1
  O  O38  1  0.582844  0.974739  0.766819  1
  O  O39  1  0.974743  0.766830  0.582848  1
  O  O40  1  0.081549  0.363940  0.794332  1
  O  O41  1  0.363943  0.794336  0.081553  1
  O  O42  1  0.794330  0.081543  0.363933  1
  O  O43  1  0.081568  0.794350  0.363948  1
  O  O44  1  0.794352  0.363956  0.081570  1
  O  O45  1  0.363955  0.081573  0.794351  1
  O  O46  1  0.503220  0.652710  0.169726  1
  O  O47  1  0.652718  0.169727  0.503225  1
  O  O48  1  0.169723  0.503222  0.652708  1
  O  O49  1  0.503237  0.169728  0.652719  1
  O  O50  1  0.169728  0.652731  0.503238  1
  O  O51  1  0.652724  0.503238  0.169728  1
  F  F52  1  0.795206  0.795206  0.795227  1
