# generated using pymatgen
data_Ca3SnS5
_symmetry_space_group_name_H-M   'P 1'
_cell_length_a   7.14378177
_cell_length_b   8.07179272
_cell_length_c   8.07177318
_cell_angle_alpha   120.00008238
_cell_angle_beta   90.00000000
_cell_angle_gamma   90.00000000
_symmetry_Int_Tables_number   1
_chemical_formula_structural   Ca3SnS5
_chemical_formula_sum   'Ca6 Sn2 S10'
_cell_volume   403.08570887
_cell_formula_units_Z   2
loop_
 _symmetry_equiv_pos_site_id
 _symmetry_equiv_pos_as_xyz
  1  'x, y, z'
loop_
 _atom_site_type_symbol
 _atom_site_label
 _atom_site_symmetry_multiplicity
 _atom_site_fract_x
 _atom_site_fract_y
 _atom_site_fract_z
 _atom_site_occupancy
  Ca  Ca0  1  0.671535  0.577846  0.000000  1
  Ca  Ca1  1  0.671516  0.422140  0.422161  1
  Ca  Ca2  1  0.671516  0.999979  0.577839  1
  Ca  Ca3  1  0.171535  0.422154  1.000000  1
  Ca  Ca4  1  0.171516  0.577860  0.577839  1
  Ca  Ca5  1  0.171516  0.000021  0.422161  1
  Sn  Sn6  1  0.405700  0.999998  0.000000  1
  Sn  Sn7  1  0.905700  0.000002  0.000000  1
  S  S8  1  0.415309  0.333342  0.666669  1
  S  S9  1  0.415309  0.666673  0.333331  1
  S  S10  1  0.915309  0.666658  0.333331  1
  S  S11  1  0.915309  0.333327  0.666669  1
  S  S12  1  0.656040  0.999997  0.236582  1
  S  S13  1  0.656033  0.236576  1.000000  1
  S  S14  1  0.656040  0.763415  0.763418  1
  S  S15  1  0.156040  0.000003  0.763418  1
  S  S16  1  0.156033  0.763424  0.000000  1
  S  S17  1  0.156040  0.236585  0.236582  1
