# generated using pymatgen
data_LiNi(PO3)3
_symmetry_space_group_name_H-M   'P 1'
_cell_length_a   6.48684839
_cell_length_b   6.48690408
_cell_length_c   9.64046624
_cell_angle_alpha   89.99995601
_cell_angle_beta   90.00019418
_cell_angle_gamma   120.00043337
_symmetry_Int_Tables_number   1
_chemical_formula_structural   LiNi(PO3)3
_chemical_formula_sum   'Li2 Ni2 P6 O18'
_cell_volume   351.31605474
_cell_formula_units_Z   2
loop_
 _symmetry_equiv_pos_site_id
 _symmetry_equiv_pos_as_xyz
  1  'x, y, z'
loop_
 _atom_site_type_symbol
 _atom_site_label
 _atom_site_symmetry_multiplicity
 _atom_site_fract_x
 _atom_site_fract_y
 _atom_site_fract_z
 _atom_site_occupancy
  Li  Li0  1  0.666729  0.333467  0.500001  1
  Li  Li1  1  0.666729  0.333263  0.000001  1
  Ni  Ni2  1  0.333344  0.666661  0.999996  1
  Ni  Ni3  1  0.333344  0.666670  0.500005  1
  P  P4  1  0.042890  0.759518  0.750012  1
  P  P5  1  0.240482  0.957102  0.249999  1
  P  P6  1  0.042891  0.283376  0.250010  1
  P  P7  1  0.240481  0.283379  0.750001  1
  P  P8  1  0.716613  0.957101  0.749987  1
  P  P9  1  0.716613  0.759510  0.249988  1
  O  O10  1  0.052461  0.647154  0.884804  1
  O  O11  1  0.052455  0.647155  0.615197  1
  O  O12  1  0.352827  0.947512  0.384795  1
  O  O13  1  0.352848  0.947545  0.115190  1
  O  O14  1  0.052456  0.405302  0.115199  1
  O  O15  1  0.052463  0.405311  0.384804  1
  O  O16  1  0.352829  0.405318  0.884795  1
  O  O17  1  0.352848  0.405306  0.615190  1
  O  O18  1  0.594678  0.947512  0.615204  1
  O  O19  1  0.594688  0.947544  0.884810  1
  O  O20  1  0.240226  0.203958  0.250007  1
  O  O21  1  0.240228  0.036270  0.750006  1
  O  O22  1  0.594690  0.647143  0.384810  1
  O  O23  1  0.594678  0.647166  0.115204  1
  O  O24  1  0.796032  0.759765  0.750006  1
  O  O25  1  0.963723  0.759766  0.249986  1
  O  O26  1  0.796035  0.036267  0.250006  1
  O  O27  1  0.963722  0.203957  0.749987  1
