# generated using pymatgen
data_Li6Mn5CoO12
_symmetry_space_group_name_H-M   'P 1'
_cell_length_a   5.12305848
_cell_length_b   5.13417310
_cell_length_c   10.33394271
_cell_angle_alpha   90.03434946
_cell_angle_beta   96.10357181
_cell_angle_gamma   64.56421314
_symmetry_Int_Tables_number   1
_chemical_formula_structural   Li6Mn5CoO12
_chemical_formula_sum   'Li6 Mn5 Co1 O12'
_cell_volume   243.76389521
_cell_formula_units_Z   1
loop_
 _symmetry_equiv_pos_site_id
 _symmetry_equiv_pos_as_xyz
  1  'x, y, z'
loop_
 _atom_site_type_symbol
 _atom_site_label
 _atom_site_symmetry_multiplicity
 _atom_site_fract_x
 _atom_site_fract_y
 _atom_site_fract_z
 _atom_site_occupancy
  Li  Li0  1  0.310154  0.991992  0.784446  1
  Li  Li1  1  0.970594  0.670198  0.779734  1
  Li  Li2  1  0.346910  0.683753  0.214884  1
  Li  Li3  1  0.689788  0.008022  0.215562  1
  Li  Li4  1  0.653086  0.316292  0.785108  1
  Li  Li5  1  0.029408  0.329763  0.220261  1
  Mn  Mn6  1  0.330951  0.333011  0.999551  1
  Mn  Mn7  1  0.168872  0.669009  0.499589  1
  Mn  Mn8  1  0.500006  0.999988  0.500020  1
  Mn  Mn9  1  0.669055  0.667029  0.000439  1
  Mn  Mn10  1  0.831128  0.331002  0.500398  1
  Co  Co11  1  0.999994  0.000006  0.999996  1
  O  O12  1  0.225053  0.960096  0.603438  1
  O  O13  1  0.016654  0.308009  0.883497  1
  O  O14  1  0.150171  0.335133  0.406497  1
  O  O15  1  0.322756  0.034363  0.114088  1
  O  O16  1  0.677249  0.965642  0.885895  1
  O  O17  1  0.555152  0.289111  0.603671  1
  O  O18  1  0.354792  0.628094  0.884808  1
  O  O19  1  0.645198  0.371932  0.115194  1
  O  O20  1  0.444867  0.710886  0.396333  1
  O  O21  1  0.774948  0.039855  0.396572  1
  O  O22  1  0.849864  0.664812  0.593512  1
  O  O23  1  0.983338  0.692020  0.116508  1
