# generated using pymatgen
data_AcZn3
_symmetry_space_group_name_H-M   'P 1'
_cell_length_a   6.93605954
_cell_length_b   6.93605990
_cell_length_c   4.42767739
_cell_angle_alpha   90.00000000
_cell_angle_beta   90.00000000
_cell_angle_gamma   119.99999828
_symmetry_Int_Tables_number   1
_chemical_formula_structural   AcZn3
_chemical_formula_sum   'Ac2 Zn6'
_cell_volume   184.47276469
_cell_formula_units_Z   2
loop_
 _symmetry_equiv_pos_site_id
 _symmetry_equiv_pos_as_xyz
  1  'x, y, z'
loop_
 _atom_site_type_symbol
 _atom_site_label
 _atom_site_symmetry_multiplicity
 _atom_site_fract_x
 _atom_site_fract_y
 _atom_site_fract_z
 _atom_site_occupancy
  Ac  Ac0  1  0.333334  0.666668  0.750000  1
  Ac  Ac1  1  0.666667  0.333332  0.249999  1
  Zn  Zn2  1  0.132833  0.265665  0.249999  1
  Zn  Zn3  1  0.734334  0.867166  0.249999  1
  Zn  Zn4  1  0.132833  0.867166  0.249999  1
  Zn  Zn5  1  0.867167  0.734335  0.750000  1
  Zn  Zn6  1  0.265666  0.132834  0.750000  1
  Zn  Zn7  1  0.867167  0.132834  0.750000  1
