# generated using pymatgen
data_Rb2SnAs2
_symmetry_space_group_name_H-M   'P 1'
_cell_length_a   7.06619277
_cell_length_b   7.60097289
_cell_length_c   8.79794772
_cell_angle_alpha   115.59291340
_cell_angle_beta   113.67710673
_cell_angle_gamma   89.99999997
_symmetry_Int_Tables_number   1
_chemical_formula_structural   Rb2SnAs2
_chemical_formula_sum   'Rb4 Sn2 As4'
_cell_volume   381.59548323
_cell_formula_units_Z   2
loop_
 _symmetry_equiv_pos_site_id
 _symmetry_equiv_pos_as_xyz
  1  'x, y, z'
loop_
 _atom_site_type_symbol
 _atom_site_label
 _atom_site_symmetry_multiplicity
 _atom_site_fract_x
 _atom_site_fract_y
 _atom_site_fract_z
 _atom_site_occupancy
  As  As0  1  0.396542  0.216320  0.793083  1
  As  As1  1  0.103458  0.423236  0.206917  1
  As  As2  1  0.603458  0.783680  0.206917  1
  As  As3  1  0.896542  0.576764  0.793083  1
  Rb  Rb4  1  0.855529  0.015552  0.711057  1
  Rb  Rb5  1  0.644471  0.304494  0.288943  1
  Rb  Rb6  1  0.144471  0.984448  0.288943  1
  Rb  Rb7  1  0.355529  0.695506  0.711057  1
  Sn  Sn8  1  0.250000  0.500000  0.000000  1
  Sn  Sn9  1  0.750000  0.500000  0.000000  1
