# generated using pymatgen
data_Er2(Ga3Co)3
_symmetry_space_group_name_H-M   'P 1'
_cell_length_a   7.33344242
_cell_length_b   7.33344242
_cell_length_c   9.35787566
_cell_angle_alpha   90.00000000
_cell_angle_beta   90.00000000
_cell_angle_gamma   119.79510124
_symmetry_Int_Tables_number   1
_chemical_formula_structural   Er2(Ga3Co)3
_chemical_formula_sum   'Er4 Ga18 Co6'
_cell_volume   436.73365834
_cell_formula_units_Z   2
loop_
 _symmetry_equiv_pos_site_id
 _symmetry_equiv_pos_as_xyz
  1  'x, y, z'
loop_
 _atom_site_type_symbol
 _atom_site_label
 _atom_site_symmetry_multiplicity
 _atom_site_fract_x
 _atom_site_fract_y
 _atom_site_fract_z
 _atom_site_occupancy
  Er  Er0  1  0.331167  0.002964  0.249999  1
  Er  Er1  1  0.668834  0.997037  0.749999  1
  Er  Er2  1  0.997037  0.668834  0.749999  1
  Er  Er3  1  0.002964  0.331167  0.249999  1
  Ga  Ga4  1  0.448357  0.663368  0.249999  1
  Ga  Ga5  1  0.551643  0.336631  0.749999  1
  Ga  Ga6  1  0.336631  0.551643  0.749999  1
  Ga  Ga7  1  0.663368  0.448357  0.249999  1
  Ga  Ga8  1  0.120392  0.120392  0.749999  1
  Ga  Ga9  1  0.879607  0.879607  0.249999  1
  Ga  Ga10  1  0.666700  0.666700  0.559098  1
  Ga  Ga11  1  0.333299  0.333299  0.059098  1
  Ga  Ga12  1  0.333299  0.333299  0.440903  1
  Ga  Ga13  1  0.666700  0.666700  0.940902  1
  Ga  Ga14  1  0.334298  0.999497  0.573261  1
  Ga  Ga15  1  0.665702  0.000503  0.073261  1
  Ga  Ga16  1  0.000503  0.665702  0.426739  1
  Ga  Ga17  1  0.999497  0.334298  0.926739  1
  Ga  Ga18  1  0.665702  0.000503  0.426739  1
  Ga  Ga19  1  0.334298  0.999497  0.926739  1
  Ga  Ga20  1  0.999497  0.334298  0.573261  1
  Ga  Ga21  1  0.000503  0.665702  0.073261  1
  Co  Co22  1  0.328815  0.671187  0.500000  1
  Co  Co23  1  0.000000  0.000000  0.000000  1
  Co  Co24  1  0.000000  0.000000  0.500000  1
  Co  Co25  1  0.671187  0.328815  0.000000  1
  Co  Co26  1  0.671187  0.328815  0.500000  1
  Co  Co27  1  0.328815  0.671187  0.000000  1
