# generated using pymatgen
data_Gd2SCl4
_symmetry_space_group_name_H-M   'P 1'
_cell_length_a   6.40719197
_cell_length_b   6.96031987
_cell_length_c   8.29962146
_cell_angle_alpha   97.35154720
_cell_angle_beta   112.70540229
_cell_angle_gamma   90.00000000
_symmetry_Int_Tables_number   1
_chemical_formula_structural   Gd2SCl4
_chemical_formula_sum   'Gd4 S2 Cl8'
_cell_volume   338.14571031
_cell_formula_units_Z   2
loop_
 _symmetry_equiv_pos_site_id
 _symmetry_equiv_pos_as_xyz
  1  'x, y, z'
loop_
 _atom_site_type_symbol
 _atom_site_label
 _atom_site_symmetry_multiplicity
 _atom_site_fract_x
 _atom_site_fract_y
 _atom_site_fract_z
 _atom_site_occupancy
  Gd  Gd0  1  0.901834  0.077740  0.214945  1
  Gd  Gd1  1  0.313111  0.577740  0.214946  1
  Gd  Gd2  1  0.098165  0.922260  0.785054  1
  Gd  Gd3  1  0.686889  0.422260  0.785054  1
  S  S4  1  0.063664  0.250000  0.000000  1
  S  S5  1  0.936335  0.749999  0.000000  1
  Cl  Cl6  1  0.690438  0.422431  0.179253  1
  Cl  Cl7  1  0.488815  0.922432  0.179254  1
  Cl  Cl8  1  0.300094  0.319010  0.437536  1
  Cl  Cl9  1  0.137443  0.819009  0.437536  1
  Cl  Cl10  1  0.862556  0.180991  0.562462  1
  Cl  Cl11  1  0.699906  0.680990  0.562462  1
  Cl  Cl12  1  0.511184  0.077567  0.820746  1
  Cl  Cl13  1  0.309563  0.577569  0.820747  1
