# generated using pymatgen
data_LiVCrO4
_symmetry_space_group_name_H-M   'P 1'
_cell_length_a   5.87927016
_cell_length_b   5.87927025
_cell_length_c   6.04014635
_cell_angle_alpha   59.32442655
_cell_angle_beta   59.32442495
_cell_angle_gamma   88.07736037
_symmetry_Int_Tables_number   1
_chemical_formula_structural   LiVCrO4
_chemical_formula_sum   'Li2 V2 Cr2 O8'
_cell_volume   147.00719111
_cell_formula_units_Z   2
loop_
 _symmetry_equiv_pos_site_id
 _symmetry_equiv_pos_as_xyz
  1  'x, y, z'
loop_
 _atom_site_type_symbol
 _atom_site_label
 _atom_site_symmetry_multiplicity
 _atom_site_fract_x
 _atom_site_fract_y
 _atom_site_fract_z
 _atom_site_occupancy
  Li  Li0  1  0.000000  0.500000  0.000000  1
  Li  Li1  1  0.500000  0.000000  0.500000  1
  V  V2  1  0.000000  0.500000  0.500000  1
  V  V3  1  0.500000  0.000000  0.000000  1
  Cr  Cr4  1  0.000000  0.000000  0.500000  1
  Cr  Cr5  1  0.000000  0.000000  0.000000  1
  O  O6  1  0.759497  0.794488  0.971621  1
  O  O7  1  0.245456  0.757818  0.476068  1
  O  O8  1  0.205512  0.240503  0.528379  1
  O  O9  1  0.757818  0.245456  0.976068  1
  O  O10  1  0.242182  0.754544  0.023932  1
  O  O11  1  0.794488  0.759497  0.471621  1
  O  O12  1  0.754544  0.242182  0.523932  1
  O  O13  1  0.240503  0.205512  0.028379  1
