# generated using pymatgen
data_Mg3(PO6)2
_symmetry_space_group_name_H-M   'P 1'
_cell_length_a   9.73437526
_cell_length_b   9.73437526
_cell_length_c   13.25407431
_cell_angle_alpha   90.00000000
_cell_angle_beta   90.00000000
_cell_angle_gamma   52.50692911
_symmetry_Int_Tables_number   1
_chemical_formula_structural   Mg3(PO6)2
_chemical_formula_sum   'Mg12 P8 O48'
_cell_volume   996.48902634
_cell_formula_units_Z   4
loop_
 _symmetry_equiv_pos_site_id
 _symmetry_equiv_pos_as_xyz
  1  'x, y, z'
loop_
 _atom_site_type_symbol
 _atom_site_label
 _atom_site_symmetry_multiplicity
 _atom_site_fract_x
 _atom_site_fract_y
 _atom_site_fract_z
 _atom_site_occupancy
  Mg  Mg0  1  0.691884  0.299421  0.617703  1
  Mg  Mg1  1  0.299421  0.691884  0.617703  1
  Mg  Mg2  1  0.308116  0.700579  0.117703  1
  Mg  Mg3  1  0.700579  0.308116  0.117703  1
  Mg  Mg4  1  0.789995  0.194990  0.889846  1
  Mg  Mg5  1  0.194990  0.789995  0.889846  1
  Mg  Mg6  1  0.210005  0.805010  0.389846  1
  Mg  Mg7  1  0.805010  0.210005  0.389846  1
  Mg  Mg8  1  0.751194  0.751194  0.125735  1
  Mg  Mg9  1  0.248806  0.248806  0.625735  1
  Mg  Mg10  1  0.748106  0.748106  0.870830  1
  Mg  Mg11  1  0.251894  0.251894  0.370830  1
  P  P12  1  0.900530  0.900530  0.054527  1
  P  P13  1  0.099470  0.099470  0.554527  1
  P  P14  1  0.598769  0.598769  0.949601  1
  P  P15  1  0.401231  0.401231  0.449601  1
  P  P16  1  0.102404  0.102404  0.222485  1
  P  P17  1  0.897596  0.897596  0.722485  1
  P  P18  1  0.606811  0.606811  0.286376  1
  P  P19  1  0.393189  0.393189  0.786376  1
  O  O20  1  0.870669  0.870669  0.165175  1
  O  O21  1  0.129331  0.129331  0.665175  1
  O  O22  1  0.825606  0.825606  0.989415  1
  O  O23  1  0.174394  0.174394  0.489415  1
  O  O24  1  0.906054  0.199118  0.530109  1
  O  O25  1  0.199118  0.906054  0.530109  1
  O  O26  1  0.093946  0.800882  0.030109  1
  O  O27  1  0.800882  0.093946  0.030109  1
  O  O28  1  0.624336  0.624336  0.836167  1
  O  O29  1  0.375664  0.375664  0.336167  1
  O  O30  1  0.677019  0.677019  0.006791  1
  O  O31  1  0.322981  0.322981  0.506791  1
  O  O32  1  0.593535  0.301219  0.477806  1
  O  O33  1  0.301219  0.593535  0.477806  1
  O  O34  1  0.406465  0.698781  0.977806  1
  O  O35  1  0.698781  0.406465  0.977806  1
  O  O36  1  0.187911  0.187911  0.248382  1
  O  O37  1  0.812089  0.812089  0.748382  1
  O  O38  1  0.059792  0.059792  0.328755  1
  O  O39  1  0.940208  0.940208  0.828755  1
  O  O40  1  0.773954  0.065596  0.662776  1
  O  O41  1  0.065596  0.773954  0.662776  1
  O  O42  1  0.226046  0.934404  0.162776  1
  O  O43  1  0.934404  0.226046  0.162776  1
  O  O44  1  0.691007  0.691007  0.251911  1
  O  O45  1  0.308993  0.308993  0.751911  1
  O  O46  1  0.560339  0.560339  0.182967  1
  O  O47  1  0.439661  0.439661  0.682967  1
  O  O48  1  0.557619  0.265083  0.847646  1
  O  O49  1  0.265083  0.557619  0.847646  1
  O  O50  1  0.442381  0.734917  0.347646  1
  O  O51  1  0.734917  0.442381  0.347646  1
  O  O52  1  0.781289  0.318848  0.757737  1
  O  O53  1  0.318848  0.781289  0.757737  1
  O  O54  1  0.218711  0.681152  0.257737  1
  O  O55  1  0.681152  0.218711  0.257737  1
  O  O56  1  0.436069  0.436069  0.092414  1
  O  O57  1  0.563931  0.563931  0.592414  1
  O  O58  1  0.938104  0.938104  0.397070  1
  O  O59  1  0.061896  0.061896  0.897070  1
  O  O60  1  0.465978  0.985174  0.621985  1
  O  O61  1  0.985174  0.465978  0.621985  1
  O  O62  1  0.534022  0.014826  0.121985  1
  O  O63  1  0.014826  0.534022  0.121985  1
  O  O64  1  0.485532  0.010117  0.413240  1
  O  O65  1  0.010117  0.485532  0.413240  1
  O  O66  1  0.514468  0.989883  0.913240  1
  O  O67  1  0.989883  0.514468  0.913240  1
