# generated using pymatgen
data_LiFeCoO4
_symmetry_space_group_name_H-M   'P 1'
_cell_length_a   5.84680445
_cell_length_b   5.84680473
_cell_length_c   5.78379769
_cell_angle_alpha   60.36479874
_cell_angle_beta   60.36480334
_cell_angle_gamma   89.35677503
_symmetry_Int_Tables_number   1
_chemical_formula_structural   LiFeCoO4
_chemical_formula_sum   'Li2 Fe2 Co2 O8'
_cell_volume   142.07664118
_cell_formula_units_Z   2
loop_
 _symmetry_equiv_pos_site_id
 _symmetry_equiv_pos_as_xyz
  1  'x, y, z'
loop_
 _atom_site_type_symbol
 _atom_site_label
 _atom_site_symmetry_multiplicity
 _atom_site_fract_x
 _atom_site_fract_y
 _atom_site_fract_z
 _atom_site_occupancy
  Li  Li0  1  0.000000  0.500000  0.000000  1
  Li  Li1  1  0.500000  0.000000  0.500000  1
  Fe  Fe2  1  0.000000  0.500000  0.500000  1
  Fe  Fe3  1  0.500000  0.000000  0.000000  1
  Co  Co4  1  0.000000  0.000000  0.000000  1
  Co  Co5  1  0.000000  0.000000  0.500000  1
  O  O6  1  0.211732  0.205810  0.040188  1
  O  O7  1  0.228159  0.769778  0.012482  1
  O  O8  1  0.205810  0.211732  0.540188  1
  O  O9  1  0.230222  0.771841  0.487518  1
  O  O10  1  0.769778  0.228159  0.512482  1
  O  O11  1  0.794190  0.788268  0.459812  1
  O  O12  1  0.771841  0.230222  0.987518  1
  O  O13  1  0.788268  0.794190  0.959812  1
