# generated using pymatgen
data_Co2SbO6
_symmetry_space_group_name_H-M   'P 1'
_cell_length_a   5.10236878
_cell_length_b   5.09087384
_cell_length_c   9.78761743
_cell_angle_alpha   90.00000000
_cell_angle_beta   90.00000000
_cell_angle_gamma   60.07449415
_symmetry_Int_Tables_number   1
_chemical_formula_structural   Co2SbO6
_chemical_formula_sum   'Co4 Sb2 O12'
_cell_volume   220.34201253
_cell_formula_units_Z   2
loop_
 _symmetry_equiv_pos_site_id
 _symmetry_equiv_pos_as_xyz
  1  'x, y, z'
loop_
 _atom_site_type_symbol
 _atom_site_label
 _atom_site_symmetry_multiplicity
 _atom_site_fract_x
 _atom_site_fract_y
 _atom_site_fract_z
 _atom_site_occupancy
  Co  Co0  1  0.333254  0.333373  0.000000  1
  Co  Co1  1  0.333254  0.833373  0.500000  1
  Co  Co2  1  0.666746  0.166627  0.500000  1
  Co  Co3  1  0.666746  0.666627  0.000000  1
  Sb  Sb4  1  0.000000  0.000000  0.000000  1
  Sb  Sb5  1  0.000000  0.500000  0.500000  1
  O  O6  1  1.000000  0.150691  0.599772  1
  O  O7  1  0.000000  0.349309  0.099772  1
  O  O8  1  1.000000  0.650691  0.900228  1
  O  O9  1  0.348742  0.000528  0.901172  1
  O  O10  1  0.000000  0.849309  0.400228  1
  O  O11  1  0.348742  0.150730  0.401172  1
  O  O12  1  0.348742  0.500528  0.598828  1
  O  O13  1  0.348742  0.650730  0.098828  1
  O  O14  1  0.651258  0.999472  0.098828  1
  O  O15  1  0.651258  0.349270  0.901172  1
  O  O16  1  0.651258  0.499472  0.401172  1
  O  O17  1  0.651258  0.849270  0.598828  1
