# generated using pymatgen
data_Co3(OF2)2
_symmetry_space_group_name_H-M   'P 1'
_cell_length_a   4.65210523
_cell_length_b   7.81991547
_cell_length_c   5.60830914
_cell_angle_alpha   92.53352646
_cell_angle_beta   90.15121904
_cell_angle_gamma   90.00180634
_symmetry_Int_Tables_number   1
_chemical_formula_structural   Co3(OF2)2
_chemical_formula_sum   'Co6 O4 F8'
_cell_volume   203.82492752
_cell_formula_units_Z   2
loop_
 _symmetry_equiv_pos_site_id
 _symmetry_equiv_pos_as_xyz
  1  'x, y, z'
loop_
 _atom_site_type_symbol
 _atom_site_label
 _atom_site_symmetry_multiplicity
 _atom_site_fract_x
 _atom_site_fract_y
 _atom_site_fract_z
 _atom_site_occupancy
  Co  Co0  1  0.453490  0.009790  0.509093  1
  Co  Co1  1  0.500000  0.333333  0.833333  1
  Co  Co2  1  0.546510  0.656877  0.157573  1
  Co  Co3  1  0.003724  0.682213  0.673412  1
  Co  Co4  1  0.000000  0.333333  0.333333  1
  Co  Co5  1  0.996276  0.984454  0.993254  1
  O  O6  1  0.799118  0.760701  0.970361  1
  O  O7  1  0.710728  0.425144  0.137529  1
  O  O8  1  0.289272  0.241523  0.529137  1
  O  O9  1  0.200882  0.905965  0.696305  1
  F  F10  1  0.803492  0.443893  0.632007  1
  F  F11  1  0.786721  0.092242  0.305388  1
  F  F12  1  0.690921  0.771073  0.464255  1
  F  F13  1  0.695801  0.102717  0.790748  1
  F  F14  1  0.304199  0.563949  0.875918  1
  F  F15  1  0.309079  0.895594  0.202412  1
  F  F16  1  0.196508  0.222773  0.034660  1
  F  F17  1  0.213279  0.574424  0.361279  1
