# generated using pymatgen
data_Li2Co(SO4)2
_symmetry_space_group_name_H-M   'P 1'
_cell_length_a   9.30261779
_cell_length_b   9.18642791
_cell_length_c   13.80134695
_cell_angle_alpha   90.00000000
_cell_angle_beta   90.00000000
_cell_angle_gamma   90.00000000
_symmetry_Int_Tables_number   1
_chemical_formula_structural   Li2Co(SO4)2
_chemical_formula_sum   'Li16 Co8 S16 O64'
_cell_volume   1179.43312971
_cell_formula_units_Z   8
loop_
 _symmetry_equiv_pos_site_id
 _symmetry_equiv_pos_as_xyz
  1  'x, y, z'
loop_
 _atom_site_type_symbol
 _atom_site_label
 _atom_site_symmetry_multiplicity
 _atom_site_fract_x
 _atom_site_fract_y
 _atom_site_fract_z
 _atom_site_occupancy
  Li  Li0  1  0.033919  0.220109  0.373747  1
  Li  Li1  1  0.033919  0.279891  0.873747  1
  Li  Li2  1  0.224942  0.955356  0.372484  1
  Li  Li3  1  0.224942  0.544644  0.872484  1
  Li  Li4  1  0.275058  0.044644  0.872484  1
  Li  Li5  1  0.275058  0.455356  0.372484  1
  Li  Li6  1  0.466081  0.720109  0.373747  1
  Li  Li7  1  0.466081  0.779891  0.873747  1
  Li  Li8  1  0.533919  0.220109  0.126253  1
  Li  Li9  1  0.533919  0.279891  0.626253  1
  Li  Li10  1  0.724942  0.544644  0.627516  1
  Li  Li11  1  0.724942  0.955356  0.127516  1
  Li  Li12  1  0.775058  0.455356  0.127516  1
  Li  Li13  1  0.775058  0.044644  0.627516  1
  Li  Li14  1  0.966081  0.779891  0.626253  1
  Li  Li15  1  0.966081  0.720109  0.126253  1
  Co  Co16  1  0.138862  0.102768  0.122951  1
  Co  Co17  1  0.138862  0.397232  0.622951  1
  Co  Co18  1  0.361138  0.602768  0.122951  1
  Co  Co19  1  0.361138  0.897232  0.622951  1
  Co  Co20  1  0.638862  0.102768  0.377049  1
  Co  Co21  1  0.638862  0.397232  0.877049  1
  Co  Co22  1  0.861138  0.602768  0.377049  1
  Co  Co23  1  0.861138  0.897232  0.877049  1
  S  S24  1  0.074691  0.069416  0.727085  1
  S  S25  1  0.074691  0.430584  0.227085  1
  S  S26  1  0.160686  0.686924  0.490889  1
  S  S27  1  0.160686  0.813076  0.990889  1
  S  S28  1  0.339314  0.186924  0.490889  1
  S  S29  1  0.339314  0.313076  0.990889  1
  S  S30  1  0.425309  0.930584  0.227085  1
  S  S31  1  0.425309  0.569416  0.727085  1
  S  S32  1  0.574691  0.430584  0.272915  1
  S  S33  1  0.574691  0.069416  0.772915  1
  S  S34  1  0.660686  0.686924  0.009111  1
  S  S35  1  0.660686  0.813076  0.509111  1
  S  S36  1  0.839314  0.186924  0.009111  1
  S  S37  1  0.839314  0.313076  0.509111  1
  S  S38  1  0.925309  0.569416  0.772915  1
  S  S39  1  0.925309  0.930584  0.272915  1
  O  O40  1  0.002143  0.699482  0.477306  1
  O  O41  1  0.002143  0.800518  0.977306  1
  O  O42  1  0.017538  0.997634  0.347451  1
  O  O43  1  0.017538  0.502366  0.847451  1
  O  O44  1  0.024072  0.463450  0.328774  1
  O  O45  1  0.024072  0.036550  0.828774  1
  O  O46  1  0.073200  0.231967  0.722357  1
  O  O47  1  0.073200  0.268033  0.222357  1
  O  O48  1  0.188690  0.729485  0.081800  1
  O  O49  1  0.188690  0.770515  0.581800  1
  O  O50  1  0.205459  0.968133  0.004199  1
  O  O51  1  0.205459  0.531867  0.504199  1
  O  O52  1  0.224940  0.012371  0.721838  1
  O  O53  1  0.224940  0.487629  0.221838  1
  O  O54  1  0.241868  0.743159  0.406225  1
  O  O55  1  0.241868  0.756841  0.906225  1
  O  O56  1  0.258132  0.243159  0.406225  1
  O  O57  1  0.258132  0.256841  0.906225  1
  O  O58  1  0.275060  0.987629  0.221838  1
  O  O59  1  0.275060  0.512371  0.721838  1
  O  O60  1  0.294541  0.031867  0.504199  1
  O  O61  1  0.294541  0.468133  0.004199  1
  O  O62  1  0.311310  0.229485  0.081800  1
  O  O63  1  0.311310  0.270515  0.581800  1
  O  O64  1  0.426800  0.768033  0.222357  1
  O  O65  1  0.426800  0.731967  0.722357  1
  O  O66  1  0.475928  0.536550  0.828774  1
  O  O67  1  0.475928  0.963450  0.328774  1
  O  O68  1  0.482462  0.497634  0.347451  1
  O  O69  1  0.482462  0.002366  0.847451  1
  O  O70  1  0.497857  0.199482  0.477306  1
  O  O71  1  0.497857  0.300518  0.977306  1
  O  O72  1  0.502143  0.699482  0.022694  1
  O  O73  1  0.502143  0.800518  0.522694  1
  O  O74  1  0.517538  0.502366  0.652549  1
  O  O75  1  0.517538  0.997634  0.152549  1
  O  O76  1  0.524072  0.463450  0.171226  1
  O  O77  1  0.524072  0.036550  0.671226  1
  O  O78  1  0.573200  0.268033  0.277643  1
  O  O79  1  0.573200  0.231967  0.777643  1
  O  O80  1  0.688690  0.729485  0.418200  1
  O  O81  1  0.688690  0.770515  0.918200  1
  O  O82  1  0.705459  0.531867  0.995801  1
  O  O83  1  0.705459  0.968133  0.495801  1
  O  O84  1  0.724940  0.487629  0.278162  1
  O  O85  1  0.724940  0.012371  0.778162  1
  O  O86  1  0.741868  0.743159  0.093775  1
  O  O87  1  0.741868  0.756841  0.593775  1
  O  O88  1  0.758132  0.243159  0.093775  1
  O  O89  1  0.758132  0.256841  0.593775  1
  O  O90  1  0.775060  0.512371  0.778162  1
  O  O91  1  0.775060  0.987629  0.278162  1
  O  O92  1  0.794541  0.468133  0.495801  1
  O  O93  1  0.794541  0.031867  0.995801  1
  O  O94  1  0.811310  0.229485  0.418200  1
  O  O95  1  0.811310  0.270515  0.918200  1
  O  O96  1  0.926800  0.731967  0.777643  1
  O  O97  1  0.926800  0.768033  0.277643  1
  O  O98  1  0.975928  0.536550  0.671226  1
  O  O99  1  0.975928  0.963450  0.171226  1
  O  O100  1  0.982462  0.002366  0.652549  1
  O  O101  1  0.982462  0.497634  0.152549  1
  O  O102  1  0.997857  0.199482  0.022694  1
  O  O103  1  0.997857  0.300518  0.522694  1
