# generated using pymatgen
data_Li4Ni2P4H3O16
_symmetry_space_group_name_H-M   'P 1'
_cell_length_a   4.97592003
_cell_length_b   8.17299957
_cell_length_c   7.56302788
_cell_angle_alpha   88.24440002
_cell_angle_beta   101.35338080
_cell_angle_gamma   88.20721619
_symmetry_Int_Tables_number   1
_chemical_formula_structural   Li4Ni2P4H3O16
_chemical_formula_sum   'Li4 Ni2 P4 H3 O16'
_cell_volume   301.19580019
_cell_formula_units_Z   1
loop_
 _symmetry_equiv_pos_site_id
 _symmetry_equiv_pos_as_xyz
  1  'x, y, z'
loop_
 _atom_site_type_symbol
 _atom_site_label
 _atom_site_symmetry_multiplicity
 _atom_site_fract_x
 _atom_site_fract_y
 _atom_site_fract_z
 _atom_site_occupancy
  Li  Li0  1  0.120955  0.353486  0.686631  1
  Li  Li1  1  0.385708  0.869499  0.842105  1
  Li  Li2  1  0.603649  0.130282  0.162373  1
  Li  Li3  1  0.877946  0.648428  0.314048  1
  Ni  Ni4  1  0.000751  0.997082  0.496176  1
  Ni  Ni5  1  0.498136  0.501437  0.001592  1
  P  P6  1  0.100891  0.333167  0.246353  1
  P  P7  1  0.375111  0.849497  0.236962  1
  P  P8  1  0.623976  0.153600  0.754975  1
  P  P9  1  0.896543  0.667709  0.754520  1
  H  H10  1  0.415157  0.431492  0.434809  1
  H  H11  1  0.582339  0.572003  0.563202  1
  H  H12  1  0.950458  0.013944  0.978007  1
  O  O13  1  0.123033  0.546823  0.844990  1
  O  O14  1  0.985595  0.170669  0.298349  1
  O  O15  1  0.151260  0.824201  0.355728  1
  O  O16  1  0.222252  0.417967  0.438320  1
  O  O17  1  0.394288  0.048600  0.661191  1
  O  O18  1  0.514635  0.321254  0.801293  1
  O  O19  1  0.247967  0.939829  0.057393  1
  O  O20  1  0.345055  0.316580  0.152887  1
  O  O21  1  0.652310  0.684469  0.848069  1
  O  O22  1  0.752325  0.061592  0.943697  1
  O  O23  1  0.482318  0.675701  0.202679  1
  O  O24  1  0.610506  0.948554  0.340028  1
  O  O25  1  0.777069  0.581557  0.563104  1
  O  O26  1  0.854060  0.175508  0.645167  1
  O  O27  1  0.009133  0.830832  0.701895  1
  O  O28  1  0.875455  0.454136  0.155362  1
