# generated using pymatgen
data_TlBS2
_symmetry_space_group_name_H-M   'P 1'
_cell_length_a   8.41854112
_cell_length_b   8.41854112
_cell_length_c   8.41854112
_cell_angle_alpha   73.97803196
_cell_angle_beta   73.97803196
_cell_angle_gamma   73.97803199
_symmetry_Int_Tables_number   1
_chemical_formula_structural   TlBS2
_chemical_formula_sum   'Tl6 B6 S12'
_cell_volume   538.13724420
_cell_formula_units_Z   6
loop_
 _symmetry_equiv_pos_site_id
 _symmetry_equiv_pos_as_xyz
  1  'x, y, z'
loop_
 _atom_site_type_symbol
 _atom_site_label
 _atom_site_symmetry_multiplicity
 _atom_site_fract_x
 _atom_site_fract_y
 _atom_site_fract_z
 _atom_site_occupancy
  B  B0  1  0.405444  0.100493  0.100493  1
  B  B1  1  0.100493  0.100493  0.405444  1
  B  B2  1  0.100493  0.405444  0.100493  1
  B  B3  1  0.899507  0.899507  0.594556  1
  B  B4  1  0.899507  0.594556  0.899507  1
  B  B5  1  0.594556  0.899507  0.899507  1
  S  S6  1  0.351061  0.967512  0.967512  1
  S  S7  1  0.967512  0.351061  0.967512  1
  S  S8  1  0.967512  0.967512  0.351061  1
  S  S9  1  0.032488  0.648939  0.032488  1
  S  S10  1  0.032488  0.032488  0.648939  1
  S  S11  1  0.648939  0.032488  0.032488  1
  S  S12  1  0.660609  0.976632  0.660609  1
  S  S13  1  0.660609  0.660609  0.976632  1
  S  S14  1  0.976632  0.660609  0.660609  1
  S  S15  1  0.023368  0.339391  0.339391  1
  S  S16  1  0.339391  0.023368  0.339391  1
  S  S17  1  0.339391  0.339391  0.023368  1
  Tl  Tl18  1  0.727719  0.319739  0.727719  1
  Tl  Tl19  1  0.319739  0.727719  0.727719  1
  Tl  Tl20  1  0.727719  0.727719  0.319739  1
  Tl  Tl21  1  0.272281  0.680261  0.272281  1
  Tl  Tl22  1  0.680261  0.272281  0.272281  1
  Tl  Tl23  1  0.272281  0.272281  0.680261  1
