# generated using pymatgen
data_RbTh3F13
_symmetry_space_group_name_H-M   'P 1'
_cell_length_a   8.86991382
_cell_length_b   8.04958088
_cell_length_c   7.13203090
_cell_angle_alpha   90.00000000
_cell_angle_beta   90.00000000
_cell_angle_gamma   90.00000000
_symmetry_Int_Tables_number   1
_chemical_formula_structural   RbTh3F13
_chemical_formula_sum   'Rb2 Th6 F26'
_cell_volume   509.22050679
_cell_formula_units_Z   2
loop_
 _symmetry_equiv_pos_site_id
 _symmetry_equiv_pos_as_xyz
  1  'x, y, z'
loop_
 _atom_site_type_symbol
 _atom_site_label
 _atom_site_symmetry_multiplicity
 _atom_site_fract_x
 _atom_site_fract_y
 _atom_site_fract_z
 _atom_site_occupancy
  Rb  Rb0  1  0.692832  0.500000  0.021740  1
  Rb  Rb1  1  0.192833  0.500000  0.978259  1
  Th  Th2  1  0.924791  0.244038  0.522332  1
  Th  Th3  1  0.424790  0.755961  0.477667  1
  Th  Th4  1  0.924791  0.755961  0.522332  1
  Th  Th5  1  0.424790  0.244038  0.477667  1
  Th  Th6  1  0.047591  0.000000  0.013600  1
  Th  Th7  1  0.547590  0.000000  0.986401  1
  F  F8  1  0.938051  0.500000  0.347132  1
  F  F9  1  0.438050  0.500000  0.652867  1
  F  F10  1  0.679752  0.313156  0.432326  1
  F  F11  1  0.179754  0.686843  0.567675  1
  F  F12  1  0.679752  0.686843  0.432326  1
  F  F13  1  0.179754  0.313156  0.567675  1
  F  F14  1  0.060801  0.776926  0.234059  1
  F  F15  1  0.560800  0.223075  0.765942  1
  F  F16  1  0.060801  0.223075  0.234059  1
  F  F17  1  0.560800  0.776926  0.765942  1
  F  F18  1  0.473253  0.759677  0.158208  1
  F  F19  1  0.973253  0.240324  0.841793  1
  F  F20  1  0.473253  0.240324  0.158208  1
  F  F21  1  0.973253  0.759677  0.841793  1
  F  F22  1  0.752443  0.153829  0.049057  1
  F  F23  1  0.252444  0.846171  0.950945  1
  F  F24  1  0.752443  0.846171  0.049057  1
  F  F25  1  0.252444  0.153829  0.950945  1
  F  F26  1  0.367862  0.500000  0.319918  1
  F  F27  1  0.867862  0.500000  0.680082  1
  F  F28  1  0.789083  0.000000  0.664757  1
  F  F29  1  0.289083  0.000000  0.335242  1
  F  F30  1  0.892293  0.000000  0.336038  1
  F  F31  1  0.392293  0.000000  0.663965  1
  F  F32  1  0.568707  0.000000  0.365031  1
  F  F33  1  0.068706  0.000000  0.634969  1
