# generated using pymatgen
data_Li2Fe3OF6
_symmetry_space_group_name_H-M   'P 1'
_cell_length_a   5.10395112
_cell_length_b   12.04979180
_cell_length_c   10.66055608
_cell_angle_alpha   64.39015140
_cell_angle_beta   90.40463964
_cell_angle_gamma   103.77682934
_symmetry_Int_Tables_number   1
_chemical_formula_structural   Li2Fe3OF6
_chemical_formula_sum   'Li8 Fe12 O4 F24'
_cell_volume   570.76938777
_cell_formula_units_Z   4
loop_
 _symmetry_equiv_pos_site_id
 _symmetry_equiv_pos_as_xyz
  1  'x, y, z'
loop_
 _atom_site_type_symbol
 _atom_site_label
 _atom_site_symmetry_multiplicity
 _atom_site_fract_x
 _atom_site_fract_y
 _atom_site_fract_z
 _atom_site_occupancy
  Li  Li0  1  0.026285  0.004227  0.256055  1
  Li  Li1  1  0.056702  0.229702  0.295772  1
  Li  Li2  1  0.320775  0.787339  0.024937  1
  Li  Li3  1  0.294247  0.500050  0.351925  1
  Li  Li4  1  0.468853  0.990978  0.752176  1
  Li  Li5  1  0.672882  0.201012  0.815998  1
  Li  Li6  1  0.970150  0.790417  0.527556  1
  Li  Li7  1  0.686345  0.506829  0.843675  1
  Fe  Fe8  1  0.628585  0.220129  0.115101  1
  Fe  Fe9  1  0.217951  0.498541  0.018811  1
  Fe  Fe10  1  0.523420  0.042723  0.471553  1
  Fe  Fe11  1  0.822698  0.649818  0.188479  1
  Fe  Fe12  1  0.706760  0.368994  0.301560  1
  Fe  Fe13  1  0.420577  0.798707  0.330250  1
  Fe  Fe14  1  0.099858  0.212338  0.621703  1
  Fe  Fe15  1  0.802560  0.476678  0.533200  1
  Fe  Fe16  1  0.015409  0.014836  0.983568  1
  Fe  Fe17  1  0.349722  0.662672  0.686252  1
  Fe  Fe18  1  0.179965  0.348055  0.810193  1
  Fe  Fe19  1  0.829287  0.774221  0.841723  1
  O  O20  1  0.907529  0.352227  0.148187  1
  O  O21  1  0.934240  0.511086  0.339848  1
  O  O22  1  0.943186  0.331344  0.669157  1
  O  O23  1  0.521846  0.628824  0.860363  1
  F  F24  1  0.294375  0.082805  0.101114  1
  F  F25  1  0.792478  0.079942  0.305740  1
  F  F26  1  0.052554  0.654325  0.012421  1
  F  F27  1  0.397674  0.202644  0.300450  1
  F  F28  1  0.459860  0.499168  0.186888  1
  F  F29  1  0.180689  0.799588  0.180259  1
  F  F30  1  0.859522  0.207892  0.460422  1
  F  F31  1  0.767472  0.924011  0.174671  1
  F  F32  1  0.301794  0.086999  0.597133  1
  F  F33  1  0.429498  0.357433  0.476112  1
  F  F34  1  0.555249  0.645898  0.342350  1
  F  F35  1  0.781389  0.059834  0.816945  1
  F  F36  1  0.244506  0.925401  0.393932  1
  F  F37  1  0.109267  0.656571  0.522630  1
  F  F38  1  0.305045  0.182145  0.811779  1
  F  F39  1  0.619257  0.789657  0.498780  1
  F  F40  1  0.538988  0.500443  0.675644  1
  F  F41  1  0.094839  0.780714  0.692736  1
  F  F42  1  0.861404  0.196130  0.970628  1
  F  F43  1  0.036014  0.495272  0.827441  1
  F  F44  1  0.648136  0.922338  0.662585  1
  F  F45  1  0.424404  0.353479  0.964402  1
  F  F46  1  0.169305  0.913025  0.888629  1
  F  F47  1  0.676443  0.782540  0.022467  1
