# generated using pymatgen
data_Li2Mg11(WO4)12
_symmetry_space_group_name_H-M   'P 1'
_cell_length_a   5.27468055
_cell_length_b   10.76840118
_cell_length_c   17.77159868
_cell_angle_alpha   90.00000000
_cell_angle_beta   89.65412479
_cell_angle_gamma   90.00000000
_symmetry_Int_Tables_number   1
_chemical_formula_structural   Li2Mg11(WO4)12
_chemical_formula_sum   'Li2 Mg11 W12 O48'
_cell_volume   1009.40621258
_cell_formula_units_Z   1
loop_
 _symmetry_equiv_pos_site_id
 _symmetry_equiv_pos_as_xyz
  1  'x, y, z'
loop_
 _atom_site_type_symbol
 _atom_site_label
 _atom_site_symmetry_multiplicity
 _atom_site_fract_x
 _atom_site_fract_y
 _atom_site_fract_z
 _atom_site_occupancy
  Li  Li0  1  0.757328  0.250000  0.707104  1
  Li  Li1  1  0.895380  0.750000  0.750264  1
  Mg  Mg2  1  0.104431  0.250000  0.250733  1
  Mg  Mg3  1  0.242220  0.074149  0.970461  1
  Mg  Mg4  1  0.242220  0.425851  0.970461  1
  Mg  Mg5  1  0.260905  0.577618  0.469523  1
  Mg  Mg6  1  0.260905  0.922382  0.469523  1
  Mg  Mg7  1  0.394192  0.750000  0.750874  1
  Mg  Mg8  1  0.604495  0.250000  0.249105  1
  Mg  Mg9  1  0.743176  0.073175  0.529244  1
  Mg  Mg10  1  0.743176  0.426825  0.529244  1
  Mg  Mg11  1  0.760830  0.577325  0.029927  1
  Mg  Mg12  1  0.760830  0.922675  0.029927  1
  W  W13  1  0.221461  0.750000  0.943429  1
  W  W14  1  0.218872  0.027365  0.657544  1
  W  W15  1  0.218872  0.472635  0.657544  1
  W  W16  1  0.279267  0.525083  0.157895  1
  W  W17  1  0.279267  0.974917  0.157895  1
  W  W18  1  0.283945  0.250000  0.443538  1
  W  W19  1  0.720069  0.750000  0.557482  1
  W  W20  1  0.721682  0.476528  0.842350  1
  W  W21  1  0.721682  0.023472  0.842350  1
  W  W22  1  0.781001  0.525751  0.341679  1
  W  W23  1  0.781001  0.974249  0.341679  1
  W  W24  1  0.782683  0.250000  0.056744  1
  O  O25  1  0.047135  0.610185  0.379845  1
  O  O26  1  0.047135  0.889815  0.379845  1
  O  O27  1  0.066556  0.250000  0.995393  1
  O  O28  1  0.079124  0.614628  0.214884  1
  O  O29  1  0.079124  0.885372  0.214884  1
  O  O30  1  0.079801  0.013312  0.073093  1
  O  O31  1  0.079801  0.486688  0.073093  1
  O  O32  1  0.085609  0.116900  0.465161  1
  O  O33  1  0.085609  0.383100  0.465161  1
  O  O34  1  0.152209  0.619186  0.705494  1
  O  O35  1  0.152209  0.880814  0.705494  1
  O  O36  1  0.149515  0.750000  0.844695  1
  O  O37  1  0.355685  0.250000  0.343127  1
  O  O38  1  0.355086  0.123986  0.206227  1
  O  O39  1  0.355086  0.376014  0.206227  1
  O  O40  1  0.417860  0.884467  0.964984  1
  O  O41  1  0.417860  0.615533  0.964984  1
  O  O42  1  0.413191  0.510583  0.571777  1
  O  O43  1  0.413191  0.989417  0.571777  1
  O  O44  1  0.429274  0.119624  0.710376  1
  O  O45  1  0.429274  0.380376  0.710376  1
  O  O46  1  0.437399  0.750000  0.495982  1
  O  O47  1  0.452529  0.108140  0.878926  1
  O  O48  1  0.452529  0.391860  0.878926  1
  O  O49  1  0.546938  0.610026  0.120562  1
  O  O50  1  0.546938  0.889974  0.120562  1
  O  O51  1  0.565881  0.250000  0.504960  1
  O  O52  1  0.579877  0.615550  0.286023  1
  O  O53  1  0.579877  0.884450  0.286023  1
  O  O54  1  0.580592  0.013368  0.426947  1
  O  O55  1  0.580592  0.486632  0.426947  1
  O  O56  1  0.585457  0.116665  0.035406  1
  O  O57  1  0.585457  0.383335  0.035406  1
  O  O58  1  0.636703  0.621199  0.795453  1
  O  O59  1  0.636703  0.878801  0.795453  1
  O  O60  1  0.636165  0.750000  0.655324  1
  O  O61  1  0.855418  0.250000  0.156891  1
  O  O62  1  0.854667  0.124081  0.293617  1
  O  O63  1  0.854667  0.375919  0.293617  1
  O  O64  1  0.916147  0.614383  0.536534  1
  O  O65  1  0.916147  0.885617  0.536534  1
  O  O66  1  0.923346  0.512512  0.926747  1
  O  O67  1  0.923346  0.987488  0.926747  1
  O  O68  1  0.909736  0.116846  0.781263  1
  O  O69  1  0.909736  0.383154  0.781263  1
  O  O70  1  0.933801  0.750000  0.004125  1
  O  O71  1  0.941065  0.113083  0.623173  1
  O  O72  1  0.941065  0.386917  0.623173  1
