# generated using pymatgen
data_Li2Si3Ni3O10
_symmetry_space_group_name_H-M   'P 1'
_cell_length_a   4.76138471
_cell_length_b   8.15102021
_cell_length_c   10.24518427
_cell_angle_alpha   92.98773969
_cell_angle_beta   90.00000000
_cell_angle_gamma   73.01789989
_symmetry_Int_Tables_number   1
_chemical_formula_structural   Li2Si3Ni3O10
_chemical_formula_sum   'Li4 Si6 Ni6 O20'
_cell_volume   379.71423791
_cell_formula_units_Z   2
loop_
 _symmetry_equiv_pos_site_id
 _symmetry_equiv_pos_as_xyz
  1  'x, y, z'
loop_
 _atom_site_type_symbol
 _atom_site_label
 _atom_site_symmetry_multiplicity
 _atom_site_fract_x
 _atom_site_fract_y
 _atom_site_fract_z
 _atom_site_occupancy
  Li  Li0  1  0.261518  0.887079  0.026952  1
  Li  Li1  1  0.851402  0.887079  0.526952  1
  Li  Li2  1  0.148598  0.112921  0.473048  1
  Li  Li3  1  0.738482  0.112921  0.973048  1
  Si  Si4  1  0.840545  0.686011  0.094958  1
  Si  Si5  1  0.473444  0.686011  0.594958  1
  Si  Si6  1  0.526556  0.313989  0.405042  1
  Si  Si7  1  0.159454  0.313989  0.905042  1
  Si  Si8  1  0.802123  0.000000  0.250000  1
  Si  Si9  1  0.197877  0.000000  0.750000  1
  Ni  Ni10  1  0.379326  0.688337  0.285784  1
  Ni  Ni11  1  0.932339  0.688337  0.785784  1
  Ni  Ni12  1  0.500000  0.500000  -0.000000  1
  Ni  Ni13  1  -0.000000  0.500000  0.500000  1
  Ni  Ni14  1  0.067661  0.311663  0.214216  1
  Ni  Ni15  1  0.620674  0.311663  0.714216  1
  O  O16  1  0.034409  0.906061  0.358893  1
  O  O17  1  0.635847  0.865706  0.175055  1
  O  O18  1  0.059530  0.906061  0.858893  1
  O  O19  1  0.498446  0.865706  0.675055  1
  O  O20  1  0.179504  0.689777  0.103849  1
  O  O21  1  0.611990  0.691047  0.449931  1
  O  O22  1  0.130720  0.689777  0.603849  1
  O  O23  1  0.696963  0.691047  0.949931  1
  O  O24  1  0.750646  0.530112  0.165503  1
  O  O25  1  0.719241  0.530112  0.665503  1
  O  O26  1  0.280759  0.469888  0.334497  1
  O  O27  1  0.249354  0.469888  0.834497  1
  O  O28  1  0.303037  0.308953  0.050069  1
  O  O29  1  0.869280  0.310223  0.396151  1
  O  O30  1  0.388010  0.308953  0.550069  1
  O  O31  1  0.820496  0.310223  0.896151  1
  O  O32  1  0.501554  0.134294  0.324945  1
  O  O33  1  0.940470  0.093939  0.141107  1
  O  O34  1  0.364153  0.134294  0.824945  1
  O  O35  1  0.965591  0.093939  0.641107  1
