# generated using pymatgen
data_K2SiP2
_symmetry_space_group_name_H-M   'P 1'
_cell_length_a   6.14686422
_cell_length_b   6.93077206
_cell_length_c   7.99660501
_cell_angle_alpha   115.68080342
_cell_angle_beta   112.60290424
_cell_angle_gamma   90.00000000
_symmetry_Int_Tables_number   1
_chemical_formula_structural   K2SiP2
_chemical_formula_sum   'K4 Si2 P4'
_cell_volume   277.70437552
_cell_formula_units_Z   2
loop_
 _symmetry_equiv_pos_site_id
 _symmetry_equiv_pos_as_xyz
  1  'x, y, z'
loop_
 _atom_site_type_symbol
 _atom_site_label
 _atom_site_symmetry_multiplicity
 _atom_site_fract_x
 _atom_site_fract_y
 _atom_site_fract_z
 _atom_site_occupancy
  Si  Si0  1  0.750000  0.500000  0.000000  1
  Si  Si1  1  0.250000  0.500000  0.000000  1
  P  P2  1  0.596395  0.759923  0.192790  1
  P  P3  1  0.903605  0.567133  0.807210  1
  P  P4  1  0.096395  0.432867  0.192790  1
  P  P5  1  0.403605  0.240077  0.807210  1
  K  K6  1  0.145920  0.984079  0.291839  1
  K  K7  1  0.854080  0.015921  0.708161  1
  K  K8  1  0.354080  0.692240  0.708161  1
  K  K9  1  0.645920  0.307760  0.291839  1
