# generated using pymatgen
data_Li3Bi(PO4)2
_symmetry_space_group_name_H-M   'P 1'
_cell_length_a   9.52471434
_cell_length_b   5.34843418
_cell_length_c   6.75749913
_cell_angle_alpha   90.00000000
_cell_angle_beta   96.10016392
_cell_angle_gamma   90.00000000
_symmetry_Int_Tables_number   1
_chemical_formula_structural   Li3Bi(PO4)2
_chemical_formula_sum   'Li6 Bi2 P4 O16'
_cell_volume   342.29337487
_cell_formula_units_Z   2
loop_
 _symmetry_equiv_pos_site_id
 _symmetry_equiv_pos_as_xyz
  1  'x, y, z'
loop_
 _atom_site_type_symbol
 _atom_site_label
 _atom_site_symmetry_multiplicity
 _atom_site_fract_x
 _atom_site_fract_y
 _atom_site_fract_z
 _atom_site_occupancy
  Li  Li0  1  0.047488  0.750000  0.303598  1
  Li  Li1  1  0.229382  0.250000  0.530068  1
  Li  Li2  1  0.463218  0.750000  0.739089  1
  Li  Li3  1  0.536782  0.250000  0.260911  1
  Li  Li4  1  0.770618  0.750000  0.469932  1
  Li  Li5  1  0.952512  0.250000  0.696402  1
  Bi  Bi6  1  0.233903  0.250000  0.987672  1
  Bi  Bi7  1  0.766097  0.750000  0.012328  1
  P  P8  1  0.051671  0.750000  0.785538  1
  P  P9  1  0.443209  0.750000  0.268829  1
  P  P10  1  0.556791  0.250000  0.731171  1
  P  P11  1  0.948329  0.250000  0.214462  1
  O  O12  1  0.083176  0.750000  0.015629  1
  O  O13  1  0.113030  0.250000  0.276727  1
  O  O14  1  0.112242  0.509034  0.696871  1
  O  O15  1  0.112242  0.990966  0.696871  1
  O  O16  1  0.393909  0.508246  0.150156  1
  O  O17  1  0.393909  0.991754  0.150156  1
  O  O18  1  0.390419  0.750000  0.473452  1
  O  O19  1  0.391619  0.250000  0.725954  1
  O  O20  1  0.608381  0.750000  0.274046  1
  O  O21  1  0.609581  0.250000  0.526548  1
  O  O22  1  0.606091  0.008246  0.849844  1
  O  O23  1  0.606091  0.491754  0.849844  1
  O  O24  1  0.887758  0.009034  0.303129  1
  O  O25  1  0.887758  0.490966  0.303129  1
  O  O26  1  0.886970  0.750000  0.723273  1
  O  O27  1  0.916824  0.250000  0.984371  1
