# generated using pymatgen
data_Ca2SnS4
_symmetry_space_group_name_H-M   'P 1'
_cell_length_a   7.53633265
_cell_length_b   8.57896479
_cell_length_c   11.29741253
_cell_angle_alpha   108.35656818
_cell_angle_beta   90.00000000
_cell_angle_gamma   90.00000000
_symmetry_Int_Tables_number   1
_chemical_formula_structural   Ca2SnS4
_chemical_formula_sum   'Ca8 Sn4 S16'
_cell_volume   693.25462287
_cell_formula_units_Z   4
loop_
 _symmetry_equiv_pos_site_id
 _symmetry_equiv_pos_as_xyz
  1  'x, y, z'
loop_
 _atom_site_type_symbol
 _atom_site_label
 _atom_site_symmetry_multiplicity
 _atom_site_fract_x
 _atom_site_fract_y
 _atom_site_fract_z
 _atom_site_occupancy
  Ca  Ca0  1  0.271841  0.955082  0.128186  1
  Ca  Ca1  1  0.771841  0.044918  0.371814  1
  Ca  Ca2  1  0.728159  0.044918  0.871814  1
  Ca  Ca3  1  0.228159  0.955082  0.628186  1
  Ca  Ca4  1  0.885410  0.416388  0.154157  1
  Ca  Ca5  1  0.385410  0.583612  0.345843  1
  Ca  Ca6  1  0.114590  0.583612  0.845843  1
  Ca  Ca7  1  0.614590  0.416388  0.654157  1
  Sn  Sn8  1  0.834208  0.692208  0.508677  1
  Sn  Sn9  1  0.334208  0.307792  0.991323  1
  Sn  Sn10  1  0.165792  0.307792  0.491323  1
  Sn  Sn11  1  0.665792  0.692208  0.008677  1
  S  S12  1  0.703697  0.427356  0.399401  1
  S  S13  1  0.203697  0.572644  0.100599  1
  S  S14  1  0.296303  0.572644  0.600599  1
  S  S15  1  0.796303  0.427356  0.899401  1
  S  S16  1  0.594721  0.756240  0.226728  1
  S  S17  1  0.094721  0.243760  0.273272  1
  S  S18  1  0.405279  0.243760  0.773272  1
  S  S19  1  0.905279  0.756240  0.726728  1
  S  S20  1  0.060251  0.787548  0.394784  1
  S  S21  1  0.560251  0.212452  0.105216  1
  S  S22  1  0.939749  0.212452  0.605216  1
  S  S23  1  0.439749  0.787548  0.894784  1
  S  S24  1  0.912471  0.870947  0.027731  1
  S  S25  1  0.412471  0.129053  0.472269  1
  S  S26  1  0.087529  0.129053  0.972269  1
  S  S27  1  0.587529  0.870947  0.527731  1
