# generated using pymatgen
data_NdCrSe3
_symmetry_space_group_name_H-M   'P 1'
_cell_length_a   8.14227629
_cell_length_b   3.96878710
_cell_length_c   13.73027218
_cell_angle_alpha   90.00000000
_cell_angle_beta   90.00000000
_cell_angle_gamma   90.00000000
_symmetry_Int_Tables_number   1
_chemical_formula_structural   NdCrSe3
_chemical_formula_sum   'Nd4 Cr4 Se12'
_cell_volume   443.69321145
_cell_formula_units_Z   4
loop_
 _symmetry_equiv_pos_site_id
 _symmetry_equiv_pos_as_xyz
  1  'x, y, z'
loop_
 _atom_site_type_symbol
 _atom_site_label
 _atom_site_symmetry_multiplicity
 _atom_site_fract_x
 _atom_site_fract_y
 _atom_site_fract_z
 _atom_site_occupancy
  Nd  Nd0  1  0.096614  0.250000  0.171062  1
  Nd  Nd1  1  0.403386  0.750001  0.671063  1
  Nd  Nd2  1  0.596614  0.250000  0.328938  1
  Nd  Nd3  1  0.903386  0.750001  0.828937  1
  Cr  Cr4  1  0.661285  0.750001  0.051281  1
  Cr  Cr5  1  0.338715  0.250000  0.948718  1
  Cr  Cr6  1  0.161287  0.750001  0.448718  1
  Cr  Cr7  1  0.838713  0.250000  0.551282  1
  Se  Se8  1  0.486473  0.250000  0.109021  1
  Se  Se9  1  0.843509  0.250000  0.996165  1
  Se  Se10  1  0.513527  0.750001  0.890978  1
  Se  Se11  1  0.343509  0.250000  0.503835  1
  Se  Se12  1  0.156491  0.750001  0.003835  1
  Se  Se13  1  0.810631  0.750001  0.212089  1
  Se  Se14  1  0.689369  0.250000  0.712089  1
  Se  Se15  1  0.310632  0.750001  0.287911  1
  Se  Se16  1  0.189369  0.250000  0.787911  1
  Se  Se17  1  0.656491  0.750001  0.496165  1
  Se  Se18  1  0.986473  0.250000  0.390979  1
  Se  Se19  1  0.013528  0.750001  0.609021  1
