# generated using pymatgen
data_Li2MnPO5
_symmetry_space_group_name_H-M   'P 1'
_cell_length_a   13.36605810
_cell_length_b   12.87840999
_cell_length_c   5.08671331
_cell_angle_alpha   90.00000000
_cell_angle_beta   90.00000000
_cell_angle_gamma   60.26310807
_symmetry_Int_Tables_number   1
_chemical_formula_structural   Li2MnPO5
_chemical_formula_sum   'Li16 Mn8 P8 O40'
_cell_volume   760.28918619
_cell_formula_units_Z   8
loop_
 _symmetry_equiv_pos_site_id
 _symmetry_equiv_pos_as_xyz
  1  'x, y, z'
loop_
 _atom_site_type_symbol
 _atom_site_label
 _atom_site_symmetry_multiplicity
 _atom_site_fract_x
 _atom_site_fract_y
 _atom_site_fract_z
 _atom_site_occupancy
  Li  Li0  1  0.360718  0.817605  0.725867  1
  Li  Li1  1  0.084908  0.575147  0.753721  1
  Li  Li2  1  0.143038  0.675244  0.210782  1
  Li  Li3  1  0.580506  0.833833  0.733406  1
  Li  Li4  1  0.419494  0.666167  0.233406  1
  Li  Li5  1  0.856962  0.824756  0.710782  1
  Li  Li6  1  0.360718  0.317605  0.774133  1
  Li  Li7  1  0.084908  0.075147  0.746279  1
  Li  Li8  1  0.915092  0.924853  0.253721  1
  Li  Li9  1  0.639282  0.682395  0.225867  1
  Li  Li10  1  0.143038  0.175244  0.289218  1
  Li  Li11  1  0.580506  0.333833  0.766594  1
  Li  Li12  1  0.419494  0.166167  0.266594  1
  Li  Li13  1  0.856962  0.324756  0.789218  1
  Li  Li14  1  0.915092  0.424853  0.246279  1
  Li  Li15  1  0.639282  0.182395  0.274133  1
  Mn  Mn16  1  0.062234  0.812062  0.724703  1
  Mn  Mn17  1  0.435208  0.878281  0.265487  1
  Mn  Mn18  1  0.062234  0.312062  0.775297  1
  Mn  Mn19  1  0.564792  0.621719  0.765487  1
  Mn  Mn20  1  0.435208  0.378281  0.234513  1
  Mn  Mn21  1  0.937766  0.687938  0.224703  1
  Mn  Mn22  1  0.564792  0.121719  0.734513  1
  Mn  Mn23  1  0.937766  0.187938  0.275297  1
  P  P24  1  0.163168  0.908775  0.230986  1
  P  P25  1  0.664240  0.922813  0.233367  1
  P  P26  1  0.163168  0.408775  0.269014  1
  P  P27  1  0.335760  0.577187  0.733367  1
  P  P28  1  0.664240  0.422813  0.266633  1
  P  P29  1  0.836832  0.591225  0.730986  1
  P  P30  1  0.335760  0.077187  0.766633  1
  P  P31  1  0.836832  0.091225  0.769014  1
  O  O32  1  0.137149  0.913675  0.931653  1
  O  O33  1  0.992299  0.786460  0.010634  1
  O  O34  1  0.120915  0.831193  0.373872  1
  O  O35  1  0.390534  0.955916  0.619146  1
  O  O36  1  0.294960  0.848015  0.281329  1
  O  O37  1  0.102670  0.536585  0.146504  1
  O  O38  1  0.206249  0.645410  0.807273  1
  O  O39  1  0.644789  0.947446  0.931984  1
  O  O40  1  0.493600  0.781083  0.978689  1
  O  O41  1  0.137149  0.413675  0.568347  1
  O  O42  1  0.992299  0.286460  0.489366  1
  O  O43  1  0.606645  0.850243  0.330273  1
  O  O44  1  0.393355  0.649757  0.830273  1
  O  O45  1  0.120915  0.331193  0.126128  1
  O  O46  1  0.506400  0.718917  0.478689  1
  O  O47  1  0.355211  0.552554  0.431984  1
  O  O48  1  0.390534  0.455916  0.880854  1
  O  O49  1  0.294960  0.348015  0.218671  1
  O  O50  1  0.793751  0.854590  0.307273  1
  O  O51  1  0.897330  0.963415  0.646504  1
  O  O52  1  0.102670  0.036585  0.353496  1
  O  O53  1  0.206249  0.145410  0.692727  1
  O  O54  1  0.705040  0.651985  0.781329  1
  O  O55  1  0.609466  0.544084  0.119146  1
  O  O56  1  0.644789  0.447446  0.568016  1
  O  O57  1  0.493600  0.281083  0.521311  1
  O  O58  1  0.879085  0.668807  0.873872  1
  O  O59  1  0.606645  0.350243  0.169727  1
  O  O60  1  0.393355  0.149757  0.669727  1
  O  O61  1  0.007701  0.713540  0.510634  1
  O  O62  1  0.862851  0.586325  0.431653  1
  O  O63  1  0.506400  0.218917  0.021311  1
  O  O64  1  0.355211  0.052554  0.068016  1
  O  O65  1  0.793751  0.354590  0.192727  1
  O  O66  1  0.897330  0.463415  0.853496  1
  O  O67  1  0.705040  0.151985  0.718671  1
  O  O68  1  0.609466  0.044084  0.380854  1
  O  O69  1  0.879085  0.168807  0.626128  1
  O  O70  1  0.007701  0.213540  0.989366  1
  O  O71  1  0.862851  0.086325  0.068347  1
