# generated using pymatgen
data_LiMn2(BO3)2
_symmetry_space_group_name_H-M   'P 1'
_cell_length_a   5.79102018
_cell_length_b   5.28010095
_cell_length_c   20.48656674
_cell_angle_alpha   82.77740873
_cell_angle_beta   86.74111567
_cell_angle_gamma   89.51671199
_symmetry_Int_Tables_number   1
_chemical_formula_structural   LiMn2(BO3)2
_chemical_formula_sum   'Li5 Mn10 B10 O30'
_cell_volume   620.44524124
_cell_formula_units_Z   5
loop_
 _symmetry_equiv_pos_site_id
 _symmetry_equiv_pos_as_xyz
  1  'x, y, z'
loop_
 _atom_site_type_symbol
 _atom_site_label
 _atom_site_symmetry_multiplicity
 _atom_site_fract_x
 _atom_site_fract_y
 _atom_site_fract_z
 _atom_site_occupancy
  Li  Li0  1  0.109784  0.608172  0.105300  1
  Li  Li1  1  0.085966  0.191313  0.291030  1
  Li  Li2  1  0.283463  0.986217  0.689200  1
  Li  Li3  1  0.683103  0.586184  0.489449  1
  Li  Li4  1  0.883749  0.386971  0.891430  1
  Mn  Mn5  1  0.112671  0.903150  0.566541  1
  Mn  Mn6  1  0.091143  0.892579  0.830014  1
  Mn  Mn7  1  0.292347  0.699464  0.228421  1
  Mn  Mn8  1  0.324636  0.710960  0.966838  1
  Mn  Mn9  1  0.514877  0.504349  0.365985  1
  Mn  Mn10  1  0.484618  0.490640  0.630516  1
  Mn  Mn11  1  0.673686  0.282468  0.033498  1
  Mn  Mn12  1  0.714547  0.302459  0.766871  1
  Mn  Mn13  1  0.894569  0.089910  0.170842  1
  Mn  Mn14  1  0.884496  0.090489  0.430312  1
  B  B15  1  0.020776  0.645944  0.363353  1
  B  B16  1  0.173328  0.153162  0.039600  1
  B  B17  1  0.220522  0.446255  0.763479  1
  B  B18  1  0.408276  0.242930  0.165525  1
  B  B19  1  0.384605  0.957228  0.436526  1
  B  B20  1  0.618698  0.046227  0.563403  1
  B  B21  1  0.589444  0.757125  0.836877  1
  B  B22  1  0.786576  0.553190  0.234668  1
  B  B23  1  0.822170  0.842467  0.961596  1
  B  B24  1  0.984403  0.357256  0.636730  1
  O  O25  1  0.989776  0.284069  0.071539  1
  O  O26  1  0.013124  0.908275  0.356693  1
  O  O27  1  0.177947  0.897673  0.043986  1
  O  O28  1  0.178221  0.525699  0.322025  1
  O  O29  1  0.069320  0.297277  0.806478  1
  O  O30  1  0.256196  0.091383  0.208544  1
  O  O31  1  0.158849  0.522035  0.606231  1
  O  O32  1  0.190485  0.073249  0.465609  1
  O  O33  1  0.216912  0.708117  0.756604  1
  O  O34  1  0.384347  0.504288  0.156526  1
  O  O35  1  0.409577  0.702245  0.442793  1
  O  O36  1  0.376656  0.321397  0.722517  1
  O  O37  1  0.575803  0.132618  0.127417  1
  O  O38  1  0.467596  0.895847  0.606130  1
  O  O39  1  0.349033  0.313053  0.008646  1
  O  O40  1  0.665174  0.679212  0.997484  1
  O  O41  1  0.558773  0.122201  0.405852  1
  O  O42  1  0.396826  0.876514  0.865500  1
  O  O43  1  0.601056  0.680056  0.263946  1
  O  O44  1  0.613075  0.308128  0.556818  1
  O  O45  1  0.612316  0.501950  0.843485  1
  O  O46  1  0.806214  0.298759  0.245604  1
  O  O47  1  0.775657  0.922969  0.522365  1
  O  O48  1  0.868681  0.495764  0.406014  1
  O  O49  1  0.764292  0.921410  0.806657  1
  O  O50  1  0.961224  0.703478  0.196647  1
  O  O51  1  0.790473  0.473746  0.665775  1
  O  O52  1  0.812064  0.104415  0.959259  1
  O  O53  1  0.008932  0.102310  0.643053  1
  O  O54  1  0.992820  0.728443  0.922636  1
