# generated using pymatgen
data_Li11V8(PO4)12
_symmetry_space_group_name_H-M   'P 1'
_cell_length_a   12.25535474
_cell_length_b   8.72008018
_cell_length_c   8.78387889
_cell_angle_alpha   90.30482948
_cell_angle_beta   90.18092658
_cell_angle_gamma   90.15872245
_symmetry_Int_Tables_number   1
_chemical_formula_structural   Li11V8(PO4)12
_chemical_formula_sum   'Li11 V8 P12 O48'
_cell_volume   938.69111162
_cell_formula_units_Z   1
loop_
 _symmetry_equiv_pos_site_id
 _symmetry_equiv_pos_as_xyz
  1  'x, y, z'
loop_
 _atom_site_type_symbol
 _atom_site_label
 _atom_site_symmetry_multiplicity
 _atom_site_fract_x
 _atom_site_fract_y
 _atom_site_fract_z
 _atom_site_occupancy
  Li  Li0  1  0.181895  0.218028  0.777632  1
  Li  Li1  1  0.180532  0.774232  0.275988  1
  Li  Li2  1  0.289601  0.055807  0.418202  1
  Li  Li3  1  0.317494  0.313904  0.266793  1
  Li  Li4  1  0.317287  0.715327  0.772945  1
  Li  Li5  1  0.681589  0.273240  0.228277  1
  Li  Li6  1  0.684930  0.685146  0.732173  1
  Li  Li7  1  0.712959  0.947987  0.586285  1
  Li  Li8  1  0.785471  0.553948  0.082398  1
  Li  Li9  1  0.819093  0.227214  0.729345  1
  Li  Li10  1  0.815603  0.813647  0.233097  1
  V  V11  1  0.112596  0.260081  0.461792  1
  V  V12  1  0.114180  0.746428  0.958052  1
  V  V13  1  0.387519  0.746737  0.461880  1
  V  V14  1  0.385115  0.244431  0.961276  1
  V  V15  1  0.611927  0.255095  0.540159  1
  V  V16  1  0.609613  0.759884  0.039102  1
  V  V17  1  0.888201  0.245337  0.040960  1
  V  V18  1  0.888896  0.742565  0.539117  1
  P  P19  1  0.998631  0.544384  0.246678  1
  P  P20  1  0.000233  0.459539  0.750415  1
  P  P21  1  0.147813  0.100591  0.105656  1
  P  P22  1  0.145580  0.897783  0.603800  1
  P  P23  1  0.353521  0.392639  0.605310  1
  P  P24  1  0.351358  0.609233  0.099454  1
  P  P25  1  0.497897  0.046420  0.253234  1
  P  P26  1  0.501780  0.956067  0.751216  1
  P  P27  1  0.646976  0.606794  0.392797  1
  P  P28  1  0.645307  0.390709  0.902475  1
  P  P29  1  0.854294  0.109498  0.403085  1
  P  P30  1  0.855203  0.892970  0.894373  1
  O  O31  1  0.031574  0.153413  0.071327  1
  O  O32  1  0.031845  0.844974  0.561120  1
  O  O33  1  0.068125  0.565785  0.860352  1
  O  O34  1  0.067440  0.446651  0.353338  1
  O  O35  1  0.083760  0.359612  0.667422  1
  O  O36  1  0.080393  0.646093  0.154846  1
  O  O37  1  0.158512  0.075544  0.601900  1
  O  O38  1  0.153973  0.920731  0.099725  1
  O  O39  1  0.183797  0.151520  0.268598  1
  O  O40  1  0.178866  0.837974  0.764990  1
  O  O41  1  0.225368  0.167780  0.985102  1
  O  O42  1  0.228386  0.840607  0.480306  1
  O  O43  1  0.268151  0.678383  0.980925  1
  O  O44  1  0.278259  0.313610  0.480951  1
  O  O45  1  0.320986  0.331123  0.762915  1
  O  O46  1  0.319780  0.661040  0.262962  1
  O  O47  1  0.340847  0.433108  0.090771  1
  O  O48  1  0.337264  0.568076  0.600755  1
  O  O49  1  0.418226  0.156901  0.173179  1
  O  O50  1  0.419672  0.851038  0.663247  1
  O  O51  1  0.436638  0.053043  0.862995  1
  O  O52  1  0.425847  0.950968  0.361956  1
  O  O53  1  0.464552  0.663933  0.055102  1
  O  O54  1  0.471039  0.351137  0.564200  1
  O  O55  1  0.530542  0.653644  0.427135  1
  O  O56  1  0.532006  0.341708  0.944418  1
  O  O57  1  0.574663  0.049426  0.641566  1
  O  O58  1  0.567353  0.950585  0.143321  1
  O  O59  1  0.581062  0.148041  0.343435  1
  O  O60  1  0.583721  0.845746  0.831721  1
  O  O61  1  0.663001  0.431730  0.395206  1
  O  O62  1  0.662265  0.568660  0.913877  1
  O  O63  1  0.679241  0.340990  0.740115  1
  O  O64  1  0.683531  0.664283  0.231310  1
  O  O65  1  0.729925  0.329543  0.023422  1
  O  O66  1  0.722140  0.686479  0.515173  1
  O  O67  1  0.771646  0.169096  0.525346  1
  O  O68  1  0.782372  0.814601  0.016986  1
  O  O69  1  0.821371  0.158689  0.241079  1
  O  O70  1  0.817118  0.835933  0.734020  1
  O  O71  1  0.841700  0.068836  0.897153  1
  O  O72  1  0.839695  0.931392  0.413470  1
  O  O73  1  0.922930  0.354067  0.840711  1
  O  O74  1  0.921018  0.656702  0.329330  1
  O  O75  1  0.923850  0.450370  0.139313  1
  O  O76  1  0.929697  0.553144  0.641138  1
  O  O77  1  0.968455  0.161477  0.445370  1
  O  O78  1  0.974504  0.846445  0.925030  1
