# generated using pymatgen
data_Li3MnV3O8
_symmetry_space_group_name_H-M   'P 1'
_cell_length_a   4.07800964
_cell_length_b   6.58140241
_cell_length_c   6.61762853
_cell_angle_alpha   73.30642783
_cell_angle_beta   90.00696664
_cell_angle_gamma   71.95421855
_symmetry_Int_Tables_number   1
_chemical_formula_structural   Li3MnV3O8
_chemical_formula_sum   'Li3 Mn1 V3 O8'
_cell_volume   160.98057804
_cell_formula_units_Z   1
loop_
 _symmetry_equiv_pos_site_id
 _symmetry_equiv_pos_as_xyz
  1  'x, y, z'
loop_
 _atom_site_type_symbol
 _atom_site_label
 _atom_site_symmetry_multiplicity
 _atom_site_fract_x
 _atom_site_fract_y
 _atom_site_fract_z
 _atom_site_occupancy
  Li  Li0  1  0.060586  0.878580  0.365742  1
  Li  Li1  1  0.176952  0.645882  0.003729  1
  Li  Li2  1  0.938017  0.124283  0.632466  1
  Mn  Mn3  1  0.714145  0.571596  0.303406  1
  V  V4  1  0.291344  0.417437  0.694108  1
  V  V5  1  0.607908  0.784302  0.698542  1
  V  V6  1  0.395562  0.208719  0.291105  1
  O  O7  1  0.639026  0.721988  0.976261  1
  O  O8  1  0.120496  0.758994  0.687260  1
  O  O9  1  0.558736  0.882255  0.374328  1
  O  O10  1  0.238173  0.523602  0.347652  1
  O  O11  1  0.768925  0.462324  0.671753  1
  O  O12  1  0.440855  0.118559  0.628460  1
  O  O13  1  0.341666  0.316749  0.008742  1
  O  O14  1  0.894718  0.210513  0.322120  1
