# generated using pymatgen
data_Li2Mn3(BO3)3
_symmetry_space_group_name_H-M   'P 1'
_cell_length_a   9.01831935
_cell_length_b   7.87540498
_cell_length_c   6.14577812
_cell_angle_alpha   80.68503725
_cell_angle_beta   76.74435924
_cell_angle_gamma   114.06981196
_symmetry_Int_Tables_number   1
_chemical_formula_structural   Li2Mn3(BO3)3
_chemical_formula_sum   'Li4 Mn6 B6 O18'
_cell_volume   371.55850517
_cell_formula_units_Z   2
loop_
 _symmetry_equiv_pos_site_id
 _symmetry_equiv_pos_as_xyz
  1  'x, y, z'
loop_
 _atom_site_type_symbol
 _atom_site_label
 _atom_site_symmetry_multiplicity
 _atom_site_fract_x
 _atom_site_fract_y
 _atom_site_fract_z
 _atom_site_occupancy
  Li  Li0  1  0.619814  0.161823  0.166722  1
  Li  Li1  1  0.046852  0.171510  0.499945  1
  Li  Li2  1  0.270629  0.485457  0.830429  1
  Li  Li3  1  0.396038  0.847876  0.836237  1
  Mn  Mn4  1  0.257008  0.118511  0.120904  1
  Mn  Mn5  1  0.409659  0.214822  0.545763  1
  Mn  Mn6  1  0.047644  0.534521  0.216681  1
  Mn  Mn7  1  0.929718  0.490051  0.756535  1
  Mn  Mn8  1  0.619022  0.798812  0.449985  1
  Mn  Mn9  1  0.736948  0.843282  0.910132  1
  B  B10  1  0.934219  0.141053  0.102533  1
  B  B11  1  0.732448  0.192280  0.564134  1
  B  B12  1  0.387593  0.530340  0.209415  1
  B  B13  1  0.596320  0.463345  0.811872  1
  B  B14  1  0.279074  0.802994  0.457252  1
  B  B15  1  0.070346  0.869989  0.854795  1
  O  O16  1  0.004424  0.063961  0.237457  1
  O  O17  1  0.762141  0.019373  0.113281  1
  O  O18  1  0.653758  0.997064  0.687548  1
  O  O19  1  0.301163  0.336845  0.344270  1
  O  O20  1  0.662243  0.269373  0.429210  1
  O  O21  1  0.312044  0.611478  0.085471  1
  O  O22  1  0.904526  0.313960  0.553386  1
  O  O23  1  0.559383  0.640242  0.194359  1
  O  O24  1  0.982161  0.667604  0.953133  1
  O  O25  1  0.012908  0.336269  0.979119  1
  O  O26  1  0.427527  0.365072  0.814909  1
  O  O27  1  0.107283  0.693091  0.472307  1
  O  O28  1  0.675741  0.365158  0.896881  1
  O  O29  1  0.354622  0.721855  0.581196  1
  O  O30  1  0.684505  0.665730  0.713534  1
  O  O31  1  0.365503  0.996488  0.322397  1
  O  O32  1  0.239140  0.968261  0.851758  1
  O  O33  1  0.990925  0.968175  0.769785  1
