# generated using pymatgen
data_Li4Mn7(PO4)6
_symmetry_space_group_name_H-M   'P 1'
_cell_length_a   9.06364752
_cell_length_b   9.06364752
_cell_length_c   6.66111894
_cell_angle_alpha   80.44765018
_cell_angle_beta   99.55234982
_cell_angle_gamma   73.96989947
_symmetry_Int_Tables_number   1
_chemical_formula_structural   Li4Mn7(PO4)6
_chemical_formula_sum   'Li4 Mn7 P6 O24'
_cell_volume   505.52695417
_cell_formula_units_Z   1
loop_
 _symmetry_equiv_pos_site_id
 _symmetry_equiv_pos_as_xyz
  1  'x, y, z'
loop_
 _atom_site_type_symbol
 _atom_site_label
 _atom_site_symmetry_multiplicity
 _atom_site_fract_x
 _atom_site_fract_y
 _atom_site_fract_z
 _atom_site_occupancy
  Li  Li0  1  0.008677  0.991323  0.490013  1
  Li  Li1  1  0.368910  0.631090  0.576654  1
  Li  Li2  1  0.451279  0.317468  0.496822  1
  Li  Li3  1  0.682532  0.548721  0.496822  1
  Mn  Mn4  1  0.642283  0.001649  0.192779  1
  Mn  Mn5  1  0.998351  0.357717  0.192779  1
  Mn  Mn6  1  0.003439  0.996561  0.997979  1
  Mn  Mn7  1  0.334625  0.333851  0.005042  1
  Mn  Mn8  1  0.666149  0.665375  0.005042  1
  Mn  Mn9  1  0.002719  0.637519  0.814014  1
  Mn  Mn10  1  0.362481  0.997281  0.814014  1
  P  P11  1  0.718579  0.906874  0.703751  1
  P  P12  1  0.093126  0.281421  0.703751  1
  P  P13  1  0.330093  0.669907  0.085630  1
  P  P14  1  0.675222  0.324778  0.914504  1
  P  P15  1  0.289018  0.076783  0.304713  1
  P  P16  1  0.923217  0.710982  0.304713  1
  O  O17  1  0.350674  0.955262  0.513401  1
  O  O18  1  0.044738  0.649326  0.513401  1
  O  O19  1  0.049450  0.374958  0.876462  1
  O  O20  1  0.625042  0.950550  0.876462  1
  O  O21  1  0.202356  0.797644  0.135163  1
  O  O22  1  0.253979  0.576404  0.940188  1
  O  O23  1  0.423596  0.746021  0.940188  1
  O  O24  1  0.104140  0.102476  0.757847  1
  O  O25  1  0.897524  0.895860  0.757847  1
  O  O26  1  0.725575  0.729592  0.710168  1
  O  O27  1  0.270408  0.274425  0.710168  1
  O  O28  1  0.442549  0.557451  0.287951  1
  O  O29  1  0.564370  0.435630  0.707223  1
  O  O30  1  0.298016  0.248351  0.307061  1
  O  O31  1  0.751649  0.701984  0.307061  1
  O  O32  1  0.106364  0.102708  0.239411  1
  O  O33  1  0.897292  0.893636  0.239411  1
  O  O34  1  0.805055  0.194945  0.874158  1
  O  O35  1  0.384236  0.026594  0.137741  1
  O  O36  1  0.973406  0.615764  0.137741  1
  O  O37  1  0.750414  0.423921  0.048962  1
  O  O38  1  0.576079  0.249586  0.048962  1
  O  O39  1  0.971922  0.360601  0.497402  1
  O  O40  1  0.639399  0.028078  0.497402  1
