# generated using pymatgen
data_Cs2As2Pd
_symmetry_space_group_name_H-M   'P 1'
_cell_length_a   6.47876127
_cell_length_b   7.19028163
_cell_length_c   8.46288809
_cell_angle_alpha   115.13879713
_cell_angle_beta   90.00000000
_cell_angle_gamma   90.00000000
_symmetry_Int_Tables_number   1
_chemical_formula_structural   Cs2As2Pd
_chemical_formula_sum   'Cs4 As4 Pd2'
_cell_volume   356.89466003
_cell_formula_units_Z   2
loop_
 _symmetry_equiv_pos_site_id
 _symmetry_equiv_pos_as_xyz
  1  'x, y, z'
loop_
 _atom_site_type_symbol
 _atom_site_label
 _atom_site_symmetry_multiplicity
 _atom_site_fract_x
 _atom_site_fract_y
 _atom_site_fract_z
 _atom_site_occupancy
  As  As0  1  0.750000  0.269295  0.200570  1
  As  As1  1  0.250000  0.730705  0.799430  1
  As  As2  1  0.250000  0.068725  0.799430  1
  As  As3  1  0.750000  0.931275  0.200570  1
  Pd  Pd4  1  0.000000  0.000000  0.000000  1
  Pd  Pd5  1  0.500000  0.000000  0.000000  1
  Cs  Cs6  1  0.250000  0.207793  0.415587  1
  Cs  Cs7  1  0.750000  0.792207  0.584413  1
  Cs  Cs8  1  0.250000  0.583963  0.167925  1
  Cs  Cs9  1  0.750000  0.416037  0.832075  1
