# generated using pymatgen
data_H5NO5
_symmetry_space_group_name_H-M   'P 1'
_cell_length_a   17.69899285
_cell_length_b   7.65043279
_cell_length_c   6.32024953
_cell_angle_alpha   90.00000000
_cell_angle_beta   107.98023089
_cell_angle_gamma   90.00000000
_symmetry_Int_Tables_number   1
_chemical_formula_structural   H5NO5
_chemical_formula_sum   'H40 N8 O40'
_cell_volume   813.99880701
_cell_formula_units_Z   8
loop_
 _symmetry_equiv_pos_site_id
 _symmetry_equiv_pos_as_xyz
  1  'x, y, z'
loop_
 _atom_site_type_symbol
 _atom_site_label
 _atom_site_symmetry_multiplicity
 _atom_site_fract_x
 _atom_site_fract_y
 _atom_site_fract_z
 _atom_site_occupancy
  H  H0  1  0.026806  0.656614  0.832815  1
  H  H1  1  0.061637  0.859589  0.875890  1
  H  H2  1  0.041253  0.850251  0.339321  1
  H  H3  1  0.127157  0.689688  0.910367  1
  H  H4  1  0.071245  0.647799  0.390247  1
  H  H5  1  0.143627  0.801172  0.405694  1
  H  H6  1  0.206206  0.573076  0.762727  1
  H  H7  1  0.245058  0.731923  0.926873  1
  H  H8  1  0.239503  0.937284  0.417719  1
  H  H9  1  0.254942  0.231923  0.573127  1
  H  H10  1  0.256133  0.732538  0.449449  1
  H  H11  1  0.293794  0.073076  0.737273  1
  H  H12  1  0.243867  0.232538  0.050551  1
  H  H13  1  0.260497  0.437284  0.082281  1
  H  H14  1  0.372843  0.189688  0.589633  1
  H  H15  1  0.356373  0.301172  0.094306  1
  H  H16  1  0.438363  0.359589  0.624110  1
  H  H17  1  0.473194  0.156614  0.667185  1
  H  H18  1  0.428755  0.147799  0.109753  1
  H  H19  1  0.458747  0.350251  0.160679  1
  H  H20  1  0.541253  0.649749  0.839321  1
  H  H21  1  0.571245  0.852201  0.890247  1
  H  H22  1  0.526806  0.843386  0.332815  1
  H  H23  1  0.561637  0.640411  0.375890  1
  H  H24  1  0.643627  0.698828  0.905694  1
  H  H25  1  0.627157  0.810312  0.410367  1
  H  H26  1  0.739503  0.562716  0.917719  1
  H  H27  1  0.756133  0.767462  0.949449  1
  H  H28  1  0.706206  0.926924  0.262727  1
  H  H29  1  0.743867  0.267462  0.550551  1
  H  H30  1  0.745058  0.768077  0.426873  1
  H  H31  1  0.760497  0.062716  0.582281  1
  H  H32  1  0.754942  0.268077  0.073127  1
  H  H33  1  0.793794  0.426924  0.237273  1
  H  H34  1  0.856373  0.198828  0.594306  1
  H  H35  1  0.928755  0.352201  0.609753  1
  H  H36  1  0.872843  0.310312  0.089633  1
  H  H37  1  0.958747  0.149749  0.660679  1
  H  H38  1  0.938363  0.140411  0.124110  1
  H  H39  1  0.973194  0.343386  0.167185  1
  N  N40  1  0.101721  0.149164  0.865073  1
  N  N41  1  0.112668  0.344099  0.396336  1
  N  N42  1  0.398279  0.649164  0.634927  1
  N  N43  1  0.387332  0.844099  0.103664  1
  N  N44  1  0.612668  0.155901  0.896336  1
  N  N45  1  0.601721  0.350836  0.365073  1
  N  N46  1  0.887332  0.655901  0.603664  1
  N  N47  1  0.898279  0.850836  0.134927  1
  O  O48  1  0.039985  0.045725  0.805697  1
  O  O49  1  0.072814  0.729854  0.926441  1
  O  O50  1  0.091187  0.309750  0.851959  1
  O  O51  1  0.052211  0.448446  0.325370  1
  O  O52  1  0.085953  0.774758  0.433890  1
  O  O53  1  0.103524  0.185114  0.358712  1
  O  O54  1  0.169313  0.079110  0.933178  1
  O  O55  1  0.208190  0.630315  0.903752  1
  O  O56  1  0.179655  0.409690  0.501523  1
  O  O57  1  0.215276  0.821405  0.373821  1
  O  O58  1  0.291810  0.130315  0.596248  1
  O  O59  1  0.284724  0.321405  0.126179  1
  O  O60  1  0.330687  0.579110  0.566822  1
  O  O61  1  0.320345  0.909690  0.998477  1
  O  O62  1  0.408813  0.809750  0.648041  1
  O  O63  1  0.427186  0.229854  0.573559  1
  O  O64  1  0.396476  0.685114  0.141288  1
  O  O65  1  0.460015  0.545725  0.694303  1
  O  O66  1  0.414047  0.274758  0.066110  1
  O  O67  1  0.447789  0.948446  0.174630  1
  O  O68  1  0.552211  0.051554  0.825370  1
  O  O69  1  0.585953  0.725242  0.933890  1
  O  O70  1  0.539985  0.454275  0.305697  1
  O  O71  1  0.603524  0.314886  0.858712  1
  O  O72  1  0.572814  0.770146  0.426441  1
  O  O73  1  0.591187  0.190250  0.351959  1
  O  O74  1  0.679655  0.090310  0.001523  1
  O  O75  1  0.669313  0.420890  0.433178  1
  O  O76  1  0.715276  0.678595  0.873821  1
  O  O77  1  0.708190  0.869685  0.403752  1
  O  O78  1  0.784724  0.178595  0.626179  1
  O  O79  1  0.820345  0.590310  0.498477  1
  O  O80  1  0.791810  0.369685  0.096248  1
  O  O81  1  0.830687  0.920890  0.066822  1
  O  O82  1  0.896476  0.814886  0.641288  1
  O  O83  1  0.914047  0.225242  0.566110  1
  O  O84  1  0.947789  0.551554  0.674630  1
  O  O85  1  0.908813  0.690250  0.148041  1
  O  O86  1  0.927186  0.270146  0.073559  1
  O  O87  1  0.960015  0.954275  0.194303  1
