# generated using pymatgen
data_Li9V2P4HO18
_symmetry_space_group_name_H-M   'P 1'
_cell_length_a   6.87768079
_cell_length_b   10.71743137
_cell_length_c   10.71743137
_cell_angle_alpha   97.32733425
_cell_angle_beta   108.71519810
_cell_angle_gamma   71.28480190
_symmetry_Int_Tables_number   1
_chemical_formula_structural   Li9V2P4HO18
_chemical_formula_sum   'Li18 V4 P8 H2 O36'
_cell_volume   708.39431924
_cell_formula_units_Z   2
loop_
 _symmetry_equiv_pos_site_id
 _symmetry_equiv_pos_as_xyz
  1  'x, y, z'
loop_
 _atom_site_type_symbol
 _atom_site_label
 _atom_site_symmetry_multiplicity
 _atom_site_fract_x
 _atom_site_fract_y
 _atom_site_fract_z
 _atom_site_occupancy
  Li  Li0  1  0.234877  0.235981  0.226612  1
  Li  Li1  1  0.755754  0.235981  0.226612  1
  Li  Li2  1  0.120925  0.250638  0.492489  1
  Li  Li3  1  0.382760  0.485522  0.251040  1
  Li  Li4  1  0.123752  0.761912  0.009417  1
  Li  Li5  1  0.495880  0.254120  0.745880  1
  Li  Li6  1  0.228311  0.021689  0.978311  1
  Li  Li7  1  0.752107  0.497893  0.502107  1
  Li  Li8  1  0.509762  0.740238  0.259762  1
  Li  Li9  1  0.728311  0.021689  0.978311  1
  Li  Li10  1  0.995880  0.254120  0.745880  1
  Li  Li11  1  0.009762  0.740238  0.259762  1
  Li  Li12  1  0.252107  0.497893  0.502107  1
  Li  Li13  1  0.623752  0.990583  0.238088  1
  Li  Li14  1  0.882760  0.748960  0.514478  1
  Li  Li15  1  0.620925  0.507511  0.749362  1
  Li  Li16  1  0.734877  0.773388  0.764019  1
  Li  Li17  1  0.255754  0.773388  0.764019  1
  V  V18  1  0.495288  0.507408  0.004541  1
  V  V19  1  0.995288  0.995459  0.492592  1
  V  V20  1  0.001845  0.507408  0.004541  1
  V  V21  1  0.501845  0.995459  0.492592  1
  P  P22  1  0.891218  0.496974  0.279410  1
  P  P23  1  0.609392  0.274594  0.493377  1
  P  P24  1  0.610656  0.780216  0.001528  1
  P  P25  1  0.885159  0.994630  0.764947  1
  P  P26  1  0.385159  0.235053  0.005370  1
  P  P27  1  0.110656  0.998472  0.219784  1
  P  P28  1  0.391218  0.720590  0.503026  1
  P  P29  1  0.109392  0.506623  0.725406  1
  H  H30  1  0.310637  0.045000  0.666276  1
  H  H31  1  0.810637  0.333724  0.955000  1
  O  O32  1  0.489597  0.108695  0.087889  1
  O  O33  1  0.007341  0.081301  0.095983  1
  O  O34  1  0.181460  0.312489  0.048185  1
  O  O35  1  0.554236  0.312489  0.048185  1
  O  O36  1  0.944383  0.040747  0.300566  1
  O  O37  1  0.315436  0.040747  0.300566  1
  O  O38  1  0.242328  0.559947  0.044603  1
  O  O39  1  0.257020  0.057340  0.571380  1
  O  O40  1  0.980148  0.347021  0.307316  1
  O  O41  1  0.518097  0.308456  0.344650  1
  O  O42  1  0.854158  0.197670  0.527203  1
  O  O43  1  0.022114  0.535305  0.203245  1
  O  O44  1  0.645825  0.535305  0.203245  1
  O  O45  1  0.475375  0.197670  0.527203  1
  O  O46  1  0.826871  0.144531  0.798273  1
  O  O47  1  0.672905  0.807772  0.153583  1
  O  O48  1  0.911361  0.583808  0.406531  1
  O  O49  1  0.592649  0.399467  0.584766  1
  O  O50  1  0.411361  0.593469  0.416192  1
  O  O51  1  0.092649  0.415234  0.600533  1
  O  O52  1  0.326871  0.201727  0.855469  1
  O  O53  1  0.172905  0.846417  0.192228  1
  O  O54  1  0.145825  0.796755  0.464695  1
  O  O55  1  0.522114  0.796755  0.464695  1
  O  O56  1  0.975375  0.472797  0.802330  1
  O  O57  1  0.354158  0.472797  0.802330  1
  O  O58  1  0.018097  0.655350  0.691544  1
  O  O59  1  0.480148  0.692684  0.652979  1
  O  O60  1  0.757020  0.428620  0.942660  1
  O  O61  1  0.742328  0.955398  0.440053  1
  O  O62  1  0.815436  0.699434  0.959253  1
  O  O63  1  0.444383  0.699434  0.959253  1
  O  O64  1  0.054236  0.951815  0.687511  1
  O  O65  1  0.681460  0.951815  0.687511  1
  O  O66  1  0.989597  0.912111  0.891305  1
  O  O67  1  0.507342  0.904017  0.918699  1
