# generated using pymatgen
data_Nb3V(PO4)6
_symmetry_space_group_name_H-M   'P 1'
_cell_length_a   8.98631447
_cell_length_b   8.98631415
_cell_length_c   8.98631433
_cell_angle_alpha   58.60076369
_cell_angle_beta   58.60076597
_cell_angle_gamma   58.60076305
_symmetry_Int_Tables_number   1
_chemical_formula_structural   Nb3V(PO4)6
_chemical_formula_sum   'Nb3 V1 P6 O24'
_cell_volume   496.71744627
_cell_formula_units_Z   1
loop_
 _symmetry_equiv_pos_site_id
 _symmetry_equiv_pos_as_xyz
  1  'x, y, z'
loop_
 _atom_site_type_symbol
 _atom_site_label
 _atom_site_symmetry_multiplicity
 _atom_site_fract_x
 _atom_site_fract_y
 _atom_site_fract_z
 _atom_site_occupancy
  Nb  Nb0  1  0.140647  0.140647  0.140647  1
  Nb  Nb1  1  0.358466  0.358466  0.358466  1
  Nb  Nb2  1  0.640018  0.640018  0.640018  1
  V  V3  1  0.857786  0.857786  0.857786  1
  P  P4  1  0.032828  0.750554  0.470487  1
  P  P5  1  0.470487  0.032828  0.750554  1
  P  P6  1  0.750554  0.470487  0.032828  1
  P  P7  1  0.243455  0.539587  0.965113  1
  P  P8  1  0.539587  0.965113  0.243455  1
  P  P9  1  0.965113  0.243455  0.539587  1
  O  O10  1  0.133057  0.283629  0.500297  1
  O  O11  1  0.283629  0.500297  0.133057  1
  O  O12  1  0.063022  0.919572  0.288648  1
  O  O13  1  0.500297  0.133057  0.283629  1
  O  O14  1  0.210402  0.580316  0.434174  1
  O  O15  1  0.008731  0.779042  0.633577  1
  O  O16  1  0.288648  0.063022  0.919572  1
  O  O17  1  0.434174  0.210402  0.580316  1
  O  O18  1  0.580316  0.434174  0.210402  1
  O  O19  1  0.220477  0.364249  0.996996  1
  O  O20  1  0.079045  0.713629  0.938745  1
  O  O21  1  0.364249  0.996996  0.220477  1
  O  O22  1  0.633577  0.008731  0.779042  1
  O  O23  1  0.919572  0.288648  0.063022  1
  O  O24  1  0.779042  0.633577  0.008731  1
  O  O25  1  0.421071  0.560885  0.790270  1
  O  O26  1  0.560885  0.790270  0.421071  1
  O  O27  1  0.713629  0.938745  0.079045  1
  O  O28  1  0.996996  0.220477  0.364249  1
  O  O29  1  0.790270  0.421071  0.560885  1
  O  O30  1  0.496754  0.865793  0.718678  1
  O  O31  1  0.938745  0.079045  0.713629  1
  O  O32  1  0.718678  0.496754  0.865793  1
  O  O33  1  0.865793  0.718678  0.496754  1
