# generated using pymatgen
data_V6O11F
_symmetry_space_group_name_H-M   'P 1'
_cell_length_a   7.23141331
_cell_length_b   5.47920469
_cell_length_c   5.47920469
_cell_angle_alpha   71.54262661
_cell_angle_beta   71.74157306
_cell_angle_gamma   71.74157306
_symmetry_Int_Tables_number   1
_chemical_formula_structural   V6O11F
_chemical_formula_sum   'V6 O11 F1'
_cell_volume   189.95883213
_cell_formula_units_Z   1
loop_
 _symmetry_equiv_pos_site_id
 _symmetry_equiv_pos_as_xyz
  1  'x, y, z'
loop_
 _atom_site_type_symbol
 _atom_site_label
 _atom_site_symmetry_multiplicity
 _atom_site_fract_x
 _atom_site_fract_y
 _atom_site_fract_z
 _atom_site_occupancy
  V  V0  1  0.830484  0.673269  0.673269  1
  V  V1  1  0.668311  0.339376  0.339376  1
  V  V2  1  0.330257  0.651152  0.651152  1
  V  V3  1  0.158188  0.330771  0.330771  1
  V  V4  1  0.510736  0.004494  0.004494  1
  V  V5  1  0.985555  0.001666  0.001666  1
  O  O6  1  0.674114  0.024947  0.627138  1
  O  O7  1  0.328274  0.376302  0.965834  1
  O  O8  1  0.968073  0.237265  0.237265  1
  O  O9  1  0.634972  0.559063  0.559063  1
  O  O10  1  0.703168  0.106995  0.106995  1
  O  O11  1  0.033369  0.769134  0.769134  1
  O  O12  1  0.368384  0.427462  0.427462  1
  O  O13  1  0.001764  0.299769  0.706442  1
  O  O14  1  0.674114  0.627138  0.024947  1
  O  O15  1  0.328274  0.965834  0.376302  1
  O  O16  1  0.001764  0.706442  0.299769  1
  F  F17  1  0.300201  0.898920  0.898920  1
