# generated using pymatgen
data_Li3Co2OF5
_symmetry_space_group_name_H-M   'P 1'
_cell_length_a   5.16527141
_cell_length_b   5.17267994
_cell_length_c   9.35991210
_cell_angle_alpha   100.79182942
_cell_angle_beta   79.61938424
_cell_angle_gamma   70.85453034
_symmetry_Int_Tables_number   1
_chemical_formula_structural   Li3Co2OF5
_chemical_formula_sum   'Li6 Co4 O2 F10'
_cell_volume   224.06754903
_cell_formula_units_Z   2
loop_
 _symmetry_equiv_pos_site_id
 _symmetry_equiv_pos_as_xyz
  1  'x, y, z'
loop_
 _atom_site_type_symbol
 _atom_site_label
 _atom_site_symmetry_multiplicity
 _atom_site_fract_x
 _atom_site_fract_y
 _atom_site_fract_z
 _atom_site_occupancy
  Li  Li0  1  0.456857  0.294855  0.084139  1
  Li  Li1  1  0.883001  0.373064  0.248064  1
  Li  Li2  1  0.212046  0.042578  0.584112  1
  Li  Li3  1  0.785377  0.968128  0.437696  1
  Li  Li4  1  0.134578  0.613045  0.730498  1
  Li  Li5  1  0.540536  0.706060  0.920194  1
  Co  Co6  1  0.955603  0.794348  0.083633  1
  Co  Co7  1  0.707798  0.540808  0.584089  1
  Co  Co8  1  0.384677  0.866303  0.236199  1
  Co  Co9  1  0.035642  0.214008  0.931559  1
  O  O10  1  0.198681  0.032473  0.084359  1
  O  O11  1  0.718669  0.551183  0.083563  1
  F  F12  1  0.627494  0.129755  0.249708  1
  F  F13  1  0.946152  0.775498  0.583613  1
  F  F14  1  0.553445  0.736117  0.420911  1
  F  F15  1  0.124884  0.623116  0.249188  1
  F  F16  1  0.032388  0.183055  0.420612  1
  F  F17  1  0.472700  0.302930  0.584354  1
  F  F18  1  0.902761  0.382189  0.747141  1
  F  F19  1  0.290691  0.462850  0.918400  1
  F  F20  1  0.347869  0.861578  0.748011  1
  F  F21  1  0.784245  0.959146  0.918587  1
