# generated using pymatgen
data_Li7Mn4(P2O7)4
_symmetry_space_group_name_H-M   'P 1'
_cell_length_a   9.91238321
_cell_length_b   9.89214467
_cell_length_c   11.34728898
_cell_angle_alpha   90.16216704
_cell_angle_beta   102.87984235
_cell_angle_gamma   89.71684700
_symmetry_Int_Tables_number   1
_chemical_formula_structural   Li7Mn4(P2O7)4
_chemical_formula_sum   'Li14 Mn8 P16 O56'
_cell_volume   1084.64562450
_cell_formula_units_Z   2
loop_
 _symmetry_equiv_pos_site_id
 _symmetry_equiv_pos_as_xyz
  1  'x, y, z'
loop_
 _atom_site_type_symbol
 _atom_site_label
 _atom_site_symmetry_multiplicity
 _atom_site_fract_x
 _atom_site_fract_y
 _atom_site_fract_z
 _atom_site_occupancy
  Li  Li0  1  0.110620  0.719924  0.445991  1
  Li  Li1  1  0.167963  0.424354  0.543337  1
  Li  Li2  1  0.087840  0.111258  0.027806  1
  Li  Li3  1  0.343202  0.908555  0.958662  1
  Li  Li4  1  0.413392  0.606319  0.972084  1
  Li  Li5  1  0.336881  0.919695  0.457139  1
  Li  Li6  1  0.388662  0.221312  0.551494  1
  Li  Li7  1  0.663300  0.069048  0.540106  1
  Li  Li8  1  0.584275  0.391198  0.030405  1
  Li  Li9  1  0.850295  0.588525  0.957135  1
  Li  Li10  1  0.654204  0.092329  0.043934  1
  Li  Li11  1  0.915073  0.893825  0.971713  1
  Li  Li12  1  0.823290  0.583563  0.451962  1
  Li  Li13  1  0.888257  0.279397  0.553407  1
  Mn  Mn14  1  0.199914  0.919458  0.673282  1
  Mn  Mn15  1  0.255775  0.217140  0.826456  1
  Mn  Mn16  1  0.244708  0.711930  0.175270  1
  Mn  Mn17  1  0.294710  0.419120  0.317248  1
  Mn  Mn18  1  0.700619  0.581190  0.669773  1
  Mn  Mn19  1  0.758510  0.285683  0.825770  1
  Mn  Mn20  1  0.741685  0.783625  0.178624  1
  Mn  Mn21  1  0.796698  0.077412  0.326134  1
  P  P22  1  0.024869  0.454168  0.757374  1
  P  P23  1  0.119484  0.706199  0.891911  1
  P  P24  1  0.059574  0.931827  0.243060  1
  P  P25  1  0.123200  0.150030  0.426112  1
  P  P26  1  0.377385  0.647564  0.574779  1
  P  P27  1  0.441140  0.432990  0.756048  1
  P  P28  1  0.525270  0.046916  0.760529  1
  P  P29  1  0.381294  0.205681  0.108752  1
  P  P30  1  0.618843  0.795265  0.891984  1
  P  P31  1  0.474270  0.952023  0.242702  1
  P  P32  1  0.560011  0.568807  0.243622  1
  P  P33  1  0.621430  0.351017  0.425916  1
  P  P34  1  0.876297  0.849525  0.572909  1
  P  P35  1  0.940552  0.067341  0.755627  1
  P  P36  1  0.882069  0.293733  0.108726  1
  P  P37  1  0.974565  0.546687  0.241817  1
  O  O38  1  0.020677  0.419657  0.626057  1
  O  O39  1  0.025174  0.837030  0.554356  1
  O  O40  1  0.086416  0.085879  0.730096  1
  O  O41  1  0.109376  0.355688  0.848073  1
  O  O42  1  0.097472  0.600251  0.778636  1
  O  O43  1  0.179471  0.831419  0.843308  1
  O  O44  1  0.228445  0.645341  0.998023  1
  O  O45  1  0.017615  0.269412  0.076589  1
  O  O46  1  0.113000  0.079477  0.295529  1
  O  O47  1  0.064304  0.935515  0.110660  1
  O  O48  1  0.124929  0.539831  0.220760  1
  O  O49  1  0.188076  0.289876  0.418300  1
  O  O50  1  0.164320  0.826148  0.311581  1
  O  O51  1  0.224565  0.063493  0.518161  1
  O  O52  1  0.275367  0.563509  0.481911  1
  O  O53  1  0.337382  0.326480  0.688193  1
  O  O54  1  0.315230  0.789513  0.581931  1
  O  O55  1  0.376163  0.036179  0.785448  1
  O  O56  1  0.382027  0.579568  0.706252  1
  O  O57  1  0.439125  0.434234  0.889039  1
  O  O58  1  0.479921  0.776993  0.924088  1
  O  O59  1  0.277562  0.134243  0.002072  1
  O  O60  1  0.322427  0.328850  0.158329  1
  O  O61  1  0.405687  0.100379  0.221525  1
  O  O62  1  0.415562  0.588576  0.271346  1
  O  O63  1  0.386218  0.859478  0.145213  1
  O  O64  1  0.523087  0.085938  0.630888  1
  O  O65  1  0.473305  0.342759  0.444301  1
  O  O66  1  0.526228  0.651562  0.559778  1
  O  O67  1  0.475267  0.920290  0.371790  1
  O  O68  1  0.615813  0.137216  0.856811  1
  O  O69  1  0.586684  0.416302  0.728308  1
  O  O70  1  0.594697  0.898027  0.776713  1
  O  O71  1  0.683189  0.670379  0.846470  1
  O  O72  1  0.723097  0.864604  0.999037  1
  O  O73  1  0.518894  0.222628  0.073564  1
  O  O74  1  0.559800  0.562834  0.109754  1
  O  O75  1  0.613713  0.419969  0.295762  1
  O  O76  1  0.623316  0.962536  0.214855  1
  O  O77  1  0.685457  0.210025  0.419171  1
  O  O78  1  0.669769  0.670172  0.307714  1
  O  O79  1  0.723645  0.436111  0.518721  1
  O  O80  1  0.783144  0.941311  0.482240  1
  O  O81  1  0.836446  0.173704  0.687374  1
  O  O82  1  0.819423  0.707727  0.587040  1
  O  O83  1  0.874787  0.469690  0.781964  1
  O  O84  1  0.936049  0.064729  0.888245  1
  O  O85  1  0.886591  0.919773  0.704794  1
  O  O86  1  0.980721  0.724316  0.924420  1
  O  O87  1  0.776297  0.366194  0.003614  1
  O  O88  1  0.812939  0.172643  0.155940  1
  O  O89  1  0.907190  0.398922  0.224086  1
  O  O90  1  0.885841  0.639505  0.145325  1
  O  O91  1  0.914068  0.912521  0.268349  1
  O  O92  1  0.975756  0.161640  0.445417  1
  O  O93  1  0.973828  0.585081  0.371608  1
