# generated using pymatgen
data_Gd2(Ga3Co)3
_symmetry_space_group_name_H-M   'P 1'
_cell_length_a   7.40002852
_cell_length_b   7.40002852
_cell_length_c   9.45714643
_cell_angle_alpha   90.00000000
_cell_angle_beta   90.00000000
_cell_angle_gamma   119.70860083
_symmetry_Int_Tables_number   1
_chemical_formula_structural   Gd2(Ga3Co)3
_chemical_formula_sum   'Gd4 Ga18 Co6'
_cell_volume   449.80604752
_cell_formula_units_Z   2
loop_
 _symmetry_equiv_pos_site_id
 _symmetry_equiv_pos_as_xyz
  1  'x, y, z'
loop_
 _atom_site_type_symbol
 _atom_site_label
 _atom_site_symmetry_multiplicity
 _atom_site_fract_x
 _atom_site_fract_y
 _atom_site_fract_z
 _atom_site_occupancy
  Gd  Gd0  1  0.331424  0.003067  0.250000  1
  Gd  Gd1  1  0.668576  0.996933  0.750000  1
  Gd  Gd2  1  0.996933  0.668576  0.750000  1
  Gd  Gd3  1  0.003067  0.331424  0.250000  1
  Ga  Ga4  1  0.450167  0.663281  0.250000  1
  Ga  Ga5  1  0.549833  0.336719  0.750000  1
  Ga  Ga6  1  0.336719  0.549833  0.750000  1
  Ga  Ga7  1  0.663281  0.450167  0.250000  1
  Ga  Ga8  1  0.121991  0.121991  0.750000  1
  Ga  Ga9  1  0.878010  0.878010  0.250000  1
  Ga  Ga10  1  0.665850  0.665850  0.557040  1
  Ga  Ga11  1  0.334151  0.334151  0.057039  1
  Ga  Ga12  1  0.334151  0.334151  0.442961  1
  Ga  Ga13  1  0.665850  0.665850  0.942961  1
  Ga  Ga14  1  0.334344  0.000933  0.572200  1
  Ga  Ga15  1  0.665656  0.999068  0.072200  1
  Ga  Ga16  1  0.999068  0.665656  0.427800  1
  Ga  Ga17  1  0.000933  0.334344  0.927800  1
  Ga  Ga18  1  0.665656  0.999068  0.427800  1
  Ga  Ga19  1  0.334344  0.000933  0.927800  1
  Ga  Ga20  1  0.000933  0.334344  0.572200  1
  Ga  Ga21  1  0.999068  0.665656  0.072200  1
  Co  Co22  1  0.000000  0.000000  0.500000  1
  Co  Co23  1  0.000000  0.000000  0.000000  1
  Co  Co24  1  0.328934  0.671066  0.500000  1
  Co  Co25  1  0.671066  0.328934  0.000000  1
  Co  Co26  1  0.671066  0.328934  0.500000  1
  Co  Co27  1  0.328934  0.671066  0.000000  1
