# generated using pymatgen
data_Li2MnVP2(HO5)2
_symmetry_space_group_name_H-M   'P 1'
_cell_length_a   5.50316576
_cell_length_b   7.30399780
_cell_length_c   5.15606127
_cell_angle_alpha   106.60975186
_cell_angle_beta   99.72992902
_cell_angle_gamma   107.24945241
_symmetry_Int_Tables_number   1
_chemical_formula_structural   Li2MnVP2(HO5)2
_chemical_formula_sum   'Li2 Mn1 V1 P2 H2 O10'
_cell_volume   182.23067559
_cell_formula_units_Z   1
loop_
 _symmetry_equiv_pos_site_id
 _symmetry_equiv_pos_as_xyz
  1  'x, y, z'
loop_
 _atom_site_type_symbol
 _atom_site_label
 _atom_site_symmetry_multiplicity
 _atom_site_fract_x
 _atom_site_fract_y
 _atom_site_fract_z
 _atom_site_occupancy
  Li  Li0  1  0.391872  0.822919  0.745637  1
  Li  Li1  1  0.608128  0.177081  0.254363  1
  Mn  Mn2  1  0.000000  0.500000  0.000000  1
  V  V3  1  0.000000  0.000000  0.000000  1
  P  P4  1  0.363697  0.233605  0.671863  1
  P  P5  1  0.636303  0.766395  0.328137  1
  H  H6  1  0.065338  0.343814  0.360974  1
  H  H7  1  0.934662  0.656186  0.639026  1
  O  O8  1  0.043853  0.720457  0.840938  1
  O  O9  1  0.214222  0.382341  0.708601  1
  O  O10  1  0.339427  0.660860  0.307146  1
  O  O11  1  0.254274  0.069962  0.368400  1
  O  O12  1  0.338196  0.117387  0.884114  1
  O  O13  1  0.661804  0.882613  0.115886  1
  O  O14  1  0.745726  0.930038  0.631600  1
  O  O15  1  0.660573  0.339140  0.692854  1
  O  O16  1  0.785778  0.617659  0.291399  1
  O  O17  1  0.956147  0.279543  0.159062  1
