# generated using pymatgen
data_YbN2
_symmetry_space_group_name_H-M   'P 1'
_cell_length_a   4.11262070
_cell_length_b   4.11261955
_cell_length_c   4.74192461
_cell_angle_alpha   90.00001385
_cell_angle_beta   89.99999662
_cell_angle_gamma   90.02571819
_symmetry_Int_Tables_number   1
_chemical_formula_structural   YbN2
_chemical_formula_sum   'Yb2 N4'
_cell_volume   80.20321818
_cell_formula_units_Z   2
loop_
 _symmetry_equiv_pos_site_id
 _symmetry_equiv_pos_as_xyz
  1  'x, y, z'
loop_
 _atom_site_type_symbol
 _atom_site_label
 _atom_site_symmetry_multiplicity
 _atom_site_fract_x
 _atom_site_fract_y
 _atom_site_fract_z
 _atom_site_occupancy
  Yb  Yb0  1  0.999999  0.999999  0.999999  1
  Yb  Yb1  1  0.500000  0.500000  0.500000  1
  N  N2  1  0.393185  0.393186  1.000000  1
  N  N3  1  0.606813  0.606813  1.000000  1
  N  N4  1  0.893297  0.106705  0.499999  1
  N  N5  1  0.106705  0.893297  0.499999  1
