# generated using pymatgen
data_LiMn(PO3)4
_symmetry_space_group_name_H-M   'P 1'
_cell_length_a   7.60155908
_cell_length_b   9.00571358
_cell_length_c   8.97477104
_cell_angle_alpha   112.18992035
_cell_angle_beta   115.05550152
_cell_angle_gamma   65.03649423
_symmetry_Int_Tables_number   1
_chemical_formula_structural   LiMn(PO3)4
_chemical_formula_sum   'Li2 Mn2 P8 O24'
_cell_volume   489.54928496
_cell_formula_units_Z   2
loop_
 _symmetry_equiv_pos_site_id
 _symmetry_equiv_pos_as_xyz
  1  'x, y, z'
loop_
 _atom_site_type_symbol
 _atom_site_label
 _atom_site_symmetry_multiplicity
 _atom_site_fract_x
 _atom_site_fract_y
 _atom_site_fract_z
 _atom_site_occupancy
  Li  Li0  1  0.830023  0.750000  0.750000  1
  Li  Li1  1  0.169977  0.250000  0.250000  1
  Mn  Mn2  1  0.288754  0.750000  0.750000  1
  Mn  Mn3  1  0.711246  0.250000  0.250000  1
  P  P4  1  0.960813  0.888035  0.160841  1
  P  P5  1  0.567889  0.847699  0.132516  1
  P  P6  1  0.283072  0.652301  0.367484  1
  P  P7  1  0.688007  0.611965  0.339159  1
  P  P8  1  0.311993  0.388035  0.660841  1
  P  P9  1  0.716928  0.347699  0.632516  1
  P  P10  1  0.432111  0.152301  0.867484  1
  P  P11  1  0.039187  0.111965  0.839159  1
  O  O12  1  0.408878  0.971430  0.210076  1
  O  O13  1  0.769277  0.907763  0.211860  1
  O  O14  1  0.978068  0.770197  0.997481  1
  O  O15  1  0.149044  0.834219  0.322485  1
  O  O16  1  0.059506  0.925180  0.810308  1
  O  O17  1  0.660778  0.665781  0.177515  1
  O  O18  1  0.750784  0.729803  0.502519  1
  O  O19  1  0.380140  0.700746  0.560575  1
  O  O20  1  0.520310  0.799254  0.939425  1
  O  O21  1  0.465180  0.592237  0.288140  1
  O  O22  1  0.170232  0.528570  0.289924  1
  O  O23  1  0.174378  0.574820  0.689692  1
  O  O24  1  0.825622  0.425180  0.310308  1
  O  O25  1  0.829768  0.471430  0.710076  1
  O  O26  1  0.534820  0.407763  0.711860  1
  O  O27  1  0.479690  0.200746  0.060575  1
  O  O28  1  0.619860  0.299254  0.439425  1
  O  O29  1  0.249216  0.270197  0.497481  1
  O  O30  1  0.339222  0.334219  0.822485  1
  O  O31  1  0.940495  0.074820  0.189692  1
  O  O32  1  0.850956  0.165781  0.677515  1
  O  O33  1  0.021932  0.229803  0.002519  1
  O  O34  1  0.230723  0.092237  0.788140  1
  O  O35  1  0.591122  0.028570  0.789924  1
