# generated using pymatgen
data_CaReH4ClO6
_symmetry_space_group_name_H-M   'P 1'
_cell_length_a   7.96403864
_cell_length_b   7.96403864
_cell_length_c   6.83765952
_cell_angle_alpha   90.00000000
_cell_angle_beta   90.00000000
_cell_angle_gamma   51.93140664
_symmetry_Int_Tables_number   1
_chemical_formula_structural   CaReH4ClO6
_chemical_formula_sum   'Ca2 Re2 H8 Cl2 O12'
_cell_volume   341.42838039
_cell_formula_units_Z   2
loop_
 _symmetry_equiv_pos_site_id
 _symmetry_equiv_pos_as_xyz
  1  'x, y, z'
loop_
 _atom_site_type_symbol
 _atom_site_label
 _atom_site_symmetry_multiplicity
 _atom_site_fract_x
 _atom_site_fract_y
 _atom_site_fract_z
 _atom_site_occupancy
  Ca  Ca0  1  0.411944  0.411944  0.250000  1
  Ca  Ca1  1  0.588056  0.588056  0.750000  1
  Re  Re2  1  0.247882  0.247882  0.750000  1
  Re  Re3  1  0.752118  0.752118  0.250000  1
  H  H4  1  0.852687  0.238553  0.062862  1
  H  H5  1  0.147315  0.761446  0.562862  1
  H  H6  1  0.761446  0.147315  0.937138  1
  H  H7  1  0.238553  0.852687  0.437138  1
  H  H8  1  0.147315  0.761446  0.937138  1
  H  H9  1  0.852687  0.238553  0.437138  1
  H  H10  1  0.238553  0.852687  0.062862  1
  H  H11  1  0.761446  0.147315  0.562862  1
  Cl  Cl12  1  0.880596  0.880596  0.750000  1
  Cl  Cl13  1  0.119404  0.119404  0.250000  1
  O  O14  1  0.321054  0.321054  0.544399  1
  O  O15  1  0.678946  0.678946  0.044399  1
  O  O16  1  0.678946  0.678946  0.455601  1
  O  O17  1  0.321054  0.321054  0.955601  1
  O  O18  1  0.379304  0.973451  0.750000  1
  O  O19  1  0.620696  0.026549  0.250000  1
  O  O20  1  0.026549  0.620696  0.250000  1
  O  O21  1  0.973451  0.379304  0.750000  1
  O  O22  1  0.718216  0.281783  0.500000  1
  O  O23  1  0.281783  0.718216  0.000000  1
  O  O24  1  0.281783  0.718216  0.500000  1
  O  O25  1  0.718216  0.281783  0.000000  1
