# generated using pymatgen
data_SmBO3
_symmetry_space_group_name_H-M   'P 1'
_cell_length_a   6.31598383
_cell_length_b   6.53194751
_cell_length_c   6.52542267
_cell_angle_alpha   93.08829391
_cell_angle_beta   107.03229388
_cell_angle_gamma   106.25082448
_symmetry_Int_Tables_number   1
_chemical_formula_structural   SmBO3
_chemical_formula_sum   'Sm4 B4 O12'
_cell_volume   244.39777316
_cell_formula_units_Z   4
loop_
 _symmetry_equiv_pos_site_id
 _symmetry_equiv_pos_as_xyz
  1  'x, y, z'
loop_
 _atom_site_type_symbol
 _atom_site_label
 _atom_site_symmetry_multiplicity
 _atom_site_fract_x
 _atom_site_fract_y
 _atom_site_fract_z
 _atom_site_occupancy
  B  B0  1  0.012694  0.546913  0.327710  1
  B  B1  1  0.509985  0.592990  0.842024  1
  B  B2  1  0.475254  0.031805  0.361828  1
  B  B3  1  0.972533  0.078346  0.875515  1
  O  O4  1  0.448166  0.777387  0.825917  1
  O  O5  1  0.341446  0.097505  0.470525  1
  O  O6  1  0.108426  0.974658  0.804803  1
  O  O7  1  0.643650  0.527295  0.733152  1
  O  O8  1  0.876583  0.650338  0.398404  1
  O  O9  1  0.537265  0.847520  0.378295  1
  O  O10  1  0.120135  0.426298  0.473224  1
  O  O11  1  0.066142  0.561930  0.140587  1
  O  O12  1  0.582301  0.180651  0.246684  1
  O  O13  1  0.402872  0.444005  0.956998  1
  O  O14  1  0.865094  0.198906  0.729970  1
  O  O15  1  0.919223  0.063630  0.062742  1
  Sm  Sm16  1  0.445584  0.479382  0.335848  1
  Sm  Sm17  1  0.934513  0.034520  0.414558  1
  Sm  Sm18  1  0.050596  0.590576  0.788711  1
  Sm  Sm19  1  0.539638  0.145542  0.867706  1
