# generated using pymatgen
data_Na6V2B4PO16
_symmetry_space_group_name_H-M   'P 1'
_cell_length_a   9.92274012
_cell_length_b   9.92274040
_cell_length_c   9.92274059
_cell_angle_alpha   89.99999716
_cell_angle_beta   59.99999811
_cell_angle_gamma   59.99999754
_symmetry_Int_Tables_number   1
_chemical_formula_structural   Na6V2B4PO16
_chemical_formula_sum   'Na12 V4 B8 P2 O32'
_cell_volume   690.84380704
_cell_formula_units_Z   2
loop_
 _symmetry_equiv_pos_site_id
 _symmetry_equiv_pos_as_xyz
  1  'x, y, z'
loop_
 _atom_site_type_symbol
 _atom_site_label
 _atom_site_symmetry_multiplicity
 _atom_site_fract_x
 _atom_site_fract_y
 _atom_site_fract_z
 _atom_site_occupancy
  Na  Na0  1  0.750000  0.915161  0.665161  1
  Na  Na1  1  0.669678  0.665161  0.915161  1
  Na  Na2  1  0.750000  0.334839  0.665161  1
  Na  Na3  1  0.750000  0.915161  0.084839  1
  Na  Na4  1  0.250000  0.665161  0.915161  1
  Na  Na5  1  0.830322  0.084839  0.334839  1
  Na  Na6  1  0.750000  0.334839  0.084839  1
  Na  Na7  1  0.169678  0.915161  0.665161  1
  Na  Na8  1  0.250000  0.665161  0.334839  1
  Na  Na9  1  0.250000  0.084839  0.915161  1
  Na  Na10  1  0.330322  0.334839  0.084839  1
  Na  Na11  1  0.250000  0.084839  0.334839  1
  V  V12  1  0.500000  0.500000  0.500000  1
  V  V13  1  0.500000  0.000000  0.500000  1
  V  V14  1  0.000000  0.500000  0.500000  1
  V  V15  1  0.000000  0.500000  0.000000  1
  B  B16  1  0.921686  0.710843  0.289157  1
  B  B17  1  0.921686  0.367471  0.289157  1
  B  B18  1  0.578314  0.710843  0.632529  1
  B  B19  1  0.578314  0.710843  0.289157  1
  B  B20  1  0.421686  0.289157  0.710843  1
  B  B21  1  0.421686  0.289157  0.367471  1
  B  B22  1  0.078314  0.632529  0.710843  1
  B  B23  1  0.078314  0.289157  0.710843  1
  P  P24  1  0.750000  0.125000  0.875000  1
  P  P25  1  0.250000  0.875000  0.125000  1
  O  O26  1  0.958222  0.636617  0.675787  1
  O  O27  1  0.958222  0.405161  0.865991  1
  O  O28  1  0.960830  0.675787  0.405161  1
  O  O29  1  0.770625  0.865991  0.324213  1
  O  O30  1  0.878020  0.060991  0.939009  1
  O  O31  1  0.729375  0.594839  0.636617  1
  O  O32  1  0.539170  0.865991  0.636617  1
  O  O33  1  0.878020  0.060991  0.682971  1
  O  O34  1  0.621980  0.317029  0.939009  1
  O  O35  1  0.960830  0.363383  0.134009  1
  O  O36  1  0.770625  0.363383  0.405161  1
  O  O37  1  0.621980  0.060991  0.939009  1
  O  O38  1  0.729375  0.675787  0.134009  1
  O  O39  1  0.458222  0.675787  0.636617  1
  O  O40  1  0.458222  0.865991  0.405161  1
  O  O41  1  0.460830  0.405161  0.675787  1
  O  O42  1  0.539170  0.594839  0.324213  1
  O  O43  1  0.541778  0.134009  0.594839  1
  O  O44  1  0.541778  0.324213  0.363383  1
  O  O45  1  0.270626  0.324213  0.865991  1
  O  O46  1  0.378020  0.939009  0.060991  1
  O  O47  1  0.229375  0.636617  0.594839  1
  O  O48  1  0.039170  0.636617  0.865991  1
  O  O49  1  0.378020  0.682971  0.060991  1
  O  O50  1  0.121980  0.939009  0.317029  1
  O  O51  1  0.460830  0.134009  0.363383  1
  O  O52  1  0.270626  0.405161  0.363383  1
  O  O53  1  0.121980  0.939009  0.060991  1
  O  O54  1  0.229375  0.134009  0.675787  1
  O  O55  1  0.039170  0.324213  0.594839  1
  O  O56  1  0.041778  0.594839  0.134009  1
  O  O57  1  0.041778  0.363383  0.324213  1
