# generated using pymatgen
data_YbBe13
_symmetry_space_group_name_H-M   'P 1'
_cell_length_a   7.21379867
_cell_length_b   7.21379867
_cell_length_c   7.21379867
_cell_angle_alpha   60.00000000
_cell_angle_beta   60.00000000
_cell_angle_gamma   60.00000000
_symmetry_Int_Tables_number   1
_chemical_formula_structural   YbBe13
_chemical_formula_sum   'Yb2 Be26'
_cell_volume   265.44653156
_cell_formula_units_Z   2
loop_
 _symmetry_equiv_pos_site_id
 _symmetry_equiv_pos_as_xyz
  1  'x, y, z'
loop_
 _atom_site_type_symbol
 _atom_site_label
 _atom_site_symmetry_multiplicity
 _atom_site_fract_x
 _atom_site_fract_y
 _atom_site_fract_z
 _atom_site_occupancy
  Yb  Yb0  1  0.249999  0.249999  0.249999  1
  Yb  Yb1  1  0.750000  0.750000  0.750000  1
  Be  Be2  1  0.935752  0.710570  0.289431  1
  Be  Be3  1  0.710568  0.935754  0.064247  1
  Be  Be4  1  0.064247  0.289433  0.710568  1
  Be  Be5  1  0.289431  0.064249  0.935752  1
  Be  Be6  1  0.935752  0.289431  0.064249  1
  Be  Be7  1  0.064249  0.935752  0.289431  1
  Be  Be8  1  0.289431  0.935752  0.710570  1
  Be  Be9  1  0.289433  0.710568  0.064247  1
  Be  Be10  1  0.710568  0.064247  0.289433  1
  Be  Be11  1  0.935754  0.064247  0.710568  1
  Be  Be12  1  0.064247  0.710568  0.935754  1
  Be  Be13  1  0.710570  0.289431  0.935752  1
  Be  Be14  1  0.435753  0.210568  0.564248  1
  Be  Be15  1  0.210570  0.435751  0.789431  1
  Be  Be16  1  0.564249  0.789430  0.435752  1
  Be  Be17  1  0.789432  0.564247  0.210569  1
  Be  Be18  1  0.210568  0.564248  0.435753  1
  Be  Be19  1  0.564248  0.435753  0.210568  1
  Be  Be20  1  0.564247  0.210569  0.789432  1
  Be  Be21  1  0.789431  0.210570  0.435751  1
  Be  Be22  1  0.435751  0.789431  0.210570  1
  Be  Be23  1  0.435752  0.564249  0.789430  1
  Be  Be24  1  0.789430  0.435752  0.564249  1
  Be  Be25  1  0.210569  0.789432  0.564247  1
  Be  Be26  1  0.000000  0.000000  0.000000  1
  Be  Be27  1  0.500000  0.500000  0.500000  1
