# generated using pymatgen
data_Li2Mn3(BO3)3
_symmetry_space_group_name_H-M   'P 1'
_cell_length_a   9.25556125
_cell_length_b   5.26947693
_cell_length_c   8.30121700
_cell_angle_alpha   89.36873077
_cell_angle_beta   75.66531225
_cell_angle_gamma   105.66162234
_symmetry_Int_Tables_number   1
_chemical_formula_structural   Li2Mn3(BO3)3
_chemical_formula_sum   'Li4 Mn6 B6 O18'
_cell_volume   376.38040686
_cell_formula_units_Z   2
loop_
 _symmetry_equiv_pos_site_id
 _symmetry_equiv_pos_as_xyz
  1  'x, y, z'
loop_
 _atom_site_type_symbol
 _atom_site_label
 _atom_site_symmetry_multiplicity
 _atom_site_fract_x
 _atom_site_fract_y
 _atom_site_fract_z
 _atom_site_occupancy
  Li  Li0  1  0.707631  0.014555  0.369390  1
  Li  Li1  1  0.642674  0.664355  0.951286  1
  Li  Li2  1  0.358233  0.340681  0.043313  1
  Li  Li3  1  0.044028  0.692369  0.700397  1
  Mn  Mn4  1  0.794239  0.219107  0.029857  1
  Mn  Mn5  1  0.885713  0.135102  0.629279  1
  Mn  Mn6  1  0.548633  0.445908  0.305197  1
  Mn  Mn7  1  0.444073  0.542362  0.690204  1
  Mn  Mn8  1  0.110777  0.870049  0.357547  1
  Mn  Mn9  1  0.219616  0.800218  0.967977  1
  B  B10  1  0.896289  0.776533  0.133757  1
  B  B11  1  0.770636  0.563506  0.526029  1
  B  B12  1  0.446634  0.890817  0.179035  1
  B  B13  1  0.556027  0.103498  0.824214  1
  B  B14  1  0.216321  0.429667  0.489222  1
  B  B15  1  0.110414  0.228220  0.851802  1
  O  O16  1  0.882594  0.018550  0.176347  1
  O  O17  1  0.992201  0.315049  0.810313  1
  O  O18  1  0.888991  0.741986  0.576566  1
  O  O19  1  0.775836  0.589987  0.090085  1
  O  O20  1  0.768688  0.303841  0.506398  1
  O  O21  1  0.652729  0.655862  0.488719  1
  O  O22  1  0.564766  0.072303  0.227970  1
  O  O23  1  0.690919  0.029911  0.831402  1
  O  O24  1  0.453589  0.638460  0.148480  1
  O  O25  1  0.546192  0.355373  0.846680  1
  O  O26  1  0.323718  0.978073  0.147200  1
  O  O27  1  0.429557  0.898232  0.806544  1
  O  O28  1  0.347388  0.363605  0.506630  1
  O  O29  1  0.203700  0.679218  0.503384  1
  O  O30  1  0.227384  0.414096  0.900566  1
  O  O31  1  0.092757  0.220480  0.464445  1
  O  O32  1  0.029666  0.702709  0.148708  1
  O  O33  1  0.109189  0.968480  0.839887  1
