# generated using pymatgen
data_LiCrPH2O5
_symmetry_space_group_name_H-M   'P 1'
_cell_length_a   10.54580303
_cell_length_b   8.29671525
_cell_length_c   5.04581480
_cell_angle_alpha   90.00000000
_cell_angle_beta   90.00000000
_cell_angle_gamma   90.00000000
_symmetry_Int_Tables_number   1
_chemical_formula_structural   LiCrPH2O5
_chemical_formula_sum   'Li4 Cr4 P4 H8 O20'
_cell_volume   441.48621408
_cell_formula_units_Z   4
loop_
 _symmetry_equiv_pos_site_id
 _symmetry_equiv_pos_as_xyz
  1  'x, y, z'
loop_
 _atom_site_type_symbol
 _atom_site_label
 _atom_site_symmetry_multiplicity
 _atom_site_fract_x
 _atom_site_fract_y
 _atom_site_fract_z
 _atom_site_occupancy
  Li  Li0  1  0.193021  0.307901  0.714094  1
  Li  Li1  1  0.306979  0.807901  0.214094  1
  Li  Li2  1  0.693021  0.192099  0.714094  1
  Li  Li3  1  0.806979  0.692099  0.214094  1
  Cr  Cr4  1  0.102342  0.105968  0.264831  1
  Cr  Cr5  1  0.397658  0.605968  0.764831  1
  Cr  Cr6  1  0.602342  0.394032  0.264831  1
  Cr  Cr7  1  0.897658  0.894032  0.764831  1
  P  P8  1  0.188509  0.914793  0.693292  1
  P  P9  1  0.311491  0.414793  0.193292  1
  P  P10  1  0.688509  0.585207  0.693292  1
  P  P11  1  0.811491  0.085207  0.193292  1
  H  H12  1  0.995934  0.532221  0.333166  1
  H  H13  1  0.049780  0.673949  0.166657  1
  H  H14  1  0.450219  0.173949  0.666657  1
  H  H15  1  0.504066  0.032221  0.833166  1
  H  H16  1  0.495934  0.967779  0.333166  1
  H  H17  1  0.549781  0.826051  0.166657  1
  H  H18  1  0.950219  0.326051  0.666657  1
  H  H19  1  0.004066  0.467779  0.833166  1
  O  O20  1  0.017971  0.407917  0.665765  1
  O  O21  1  0.061728  0.873610  0.539909  1
  O  O22  1  0.218719  0.089113  0.590247  1
  O  O23  1  0.170335  0.908216  0.994872  1
  O  O24  1  0.203397  0.300566  0.103437  1
  O  O25  1  0.296603  0.800566  0.603437  1
  O  O26  1  0.329665  0.408216  0.494872  1
  O  O27  1  0.281281  0.589113  0.090247  1
  O  O28  1  0.438272  0.373610  0.039909  1
  O  O29  1  0.482029  0.907917  0.165765  1
  O  O30  1  0.517971  0.092083  0.665765  1
  O  O31  1  0.561728  0.626390  0.539909  1
  O  O32  1  0.718719  0.410887  0.590247  1
  O  O33  1  0.670335  0.591784  0.994872  1
  O  O34  1  0.703397  0.199434  0.103437  1
  O  O35  1  0.796603  0.699434  0.603437  1
  O  O36  1  0.829665  0.091784  0.494872  1
  O  O37  1  0.781281  0.910887  0.090247  1
  O  O38  1  0.938272  0.126390  0.039909  1
  O  O39  1  0.982029  0.592083  0.165765  1
