# generated using pymatgen
data_La2Nb2N2O5
_symmetry_space_group_name_H-M   'P 1'
_cell_length_a   8.02746813
_cell_length_b   13.76058174
_cell_length_c   5.71193327
_cell_angle_alpha   90.03465112
_cell_angle_beta   90.12351205
_cell_angle_gamma   98.38113707
_symmetry_Int_Tables_number   1
_chemical_formula_structural   La2Nb2N2O5
_chemical_formula_sum   'La8 Nb8 N8 O20'
_cell_volume   624.21509344
_cell_formula_units_Z   4
loop_
 _symmetry_equiv_pos_site_id
 _symmetry_equiv_pos_as_xyz
  1  'x, y, z'
loop_
 _atom_site_type_symbol
 _atom_site_label
 _atom_site_symmetry_multiplicity
 _atom_site_fract_x
 _atom_site_fract_y
 _atom_site_fract_z
 _atom_site_occupancy
  La  La0  1  0.135253  0.571370  0.340952  1
  La  La1  1  0.223116  0.907939  0.761032  1
  La  La2  1  0.280667  0.122577  0.253049  1
  La  La3  1  0.351810  0.389126  0.779680  1
  La  La4  1  0.660860  0.608472  0.274128  1
  La  La5  1  0.724947  0.878677  0.747739  1
  La  La6  1  0.775979  0.095757  0.262513  1
  La  La7  1  0.859014  0.431779  0.837922  1
  Nb  Nb8  1  0.063438  0.316103  0.279199  1
  Nb  Nb9  1  0.019521  0.117938  0.751946  1
  Nb  Nb10  1  0.401064  0.674873  0.783343  1
  Nb  Nb11  1  0.472799  0.885729  0.258705  1
  Nb  Nb12  1  0.534442  0.122585  0.750808  1
  Nb  Nb13  1  0.590881  0.321341  0.290753  1
  Nb  Nb14  1  0.970567  0.881381  0.242637  1
  Nb  Nb15  1  0.924594  0.672869  0.787822  1
  N  N16  1  0.030501  0.184148  0.451226  1
  N  N17  1  0.180432  0.698730  0.689201  1
  N  N18  1  0.563614  0.180814  0.445300  1
  N  N19  1  0.871416  0.570885  0.559106  1
  N  N20  1  0.774862  0.104148  0.819548  1
  N  N21  1  0.826306  0.303817  0.193537  1
  N  N22  1  0.976468  0.821301  0.949471  1
  N  N23  1  0.913374  0.586787  0.050558  1
  O  O24  1  0.087035  0.407108  0.546001  1
  O  O25  1  0.226288  0.889990  0.324441  1
  O  O26  1  0.135366  0.425766  0.054720  1
  O  O27  1  0.049015  0.019407  0.049904  1
  O  O28  1  0.118313  0.224655  0.965040  1
  O  O29  1  0.376019  0.612576  0.076807  1
  O  O30  1  0.435855  0.821488  0.946097  1
  O  O31  1  0.274120  0.082545  0.677637  1
  O  O32  1  0.331720  0.305856  0.343080  1
  O  O33  1  0.410061  0.559058  0.585211  1
  O  O34  1  0.532576  0.977876  0.530769  1
  O  O35  1  0.501967  0.776014  0.452414  1
  O  O36  1  0.495665  0.228834  0.955825  1
  O  O37  1  0.459435  0.015719  0.043172  1
  O  O38  1  0.586028  0.435878  0.074148  1
  O  O39  1  0.672403  0.701794  0.847369  1
  O  O40  1  0.726836  0.914642  0.176109  1
  O  O41  1  0.620238  0.389669  0.576141  1
  O  O42  1  0.875266  0.779667  0.450899  1
  O  O43  1  0.959869  0.982312  0.549022  1
