# generated using pymatgen
data_Na6Mn2P(CO4)4
_symmetry_space_group_name_H-M   'P 1'
_cell_length_a   10.04783519
_cell_length_b   10.04812694
_cell_length_c   10.04768059
_cell_angle_alpha   60.00019546
_cell_angle_beta   60.00198716
_cell_angle_gamma   60.00145538
_symmetry_Int_Tables_number   1
_chemical_formula_structural   Na6Mn2P(CO4)4
_chemical_formula_sum   'Na12 Mn4 P2 C8 O32'
_cell_volume   717.33228727
_cell_formula_units_Z   2
loop_
 _symmetry_equiv_pos_site_id
 _symmetry_equiv_pos_as_xyz
  1  'x, y, z'
loop_
 _atom_site_type_symbol
 _atom_site_label
 _atom_site_symmetry_multiplicity
 _atom_site_fract_x
 _atom_site_fract_y
 _atom_site_fract_z
 _atom_site_occupancy
  Na  Na0  1  0.167134  0.082909  0.082872  1
  Na  Na1  1  0.167120  0.667121  0.082863  1
  Na  Na2  1  0.167130  0.082855  0.667108  1
  Na  Na3  1  0.417026  0.333016  0.332995  1
  Na  Na4  1  0.582869  0.082925  0.667102  1
  Na  Na5  1  0.582869  0.667112  0.082927  1
  Na  Na6  1  0.417006  0.916970  0.333011  1
  Na  Na7  1  0.417009  0.333005  0.916962  1
  Na  Na8  1  0.582848  0.667108  0.667120  1
  Na  Na9  1  0.832991  0.332996  0.917028  1
  Na  Na10  1  0.832988  0.917032  0.333003  1
  Na  Na11  1  0.832976  0.916977  0.917023  1
  Mn  Mn12  1  0.000025  0.499987  -0.000002  1
  Mn  Mn13  1  0.000104  0.999934  0.499918  1
  Mn  Mn14  1  0.000041  0.499992  0.499951  1
  Mn  Mn15  1  0.500011  0.499993  0.500011  1
  P  P16  1  0.624988  0.124987  0.125026  1
  P  P17  1  0.375009  0.875017  0.874975  1
  C  C18  1  0.154174  0.282008  0.281853  1
  C  C19  1  0.218025  0.718004  0.345817  1
  C  C20  1  0.217917  0.345822  0.718171  1
  C  C21  1  0.218048  0.717974  0.718173  1
  C  C22  1  0.781947  0.282026  0.281831  1
  C  C23  1  0.782075  0.654195  0.281822  1
  C  C24  1  0.781955  0.281984  0.654209  1
  C  C25  1  0.845823  0.717991  0.718153  1
  O  O26  1  0.155652  0.302408  0.143050  1
  O  O27  1  0.155653  0.142994  0.399006  1
  O  O28  1  0.155583  0.399085  0.302409  1
  O  O29  1  0.100853  0.697611  0.344473  1
  O  O30  1  0.561743  0.061777  0.061770  1
  O  O31  1  0.197495  0.344489  0.600946  1
  O  O32  1  0.100956  0.344373  0.856947  1
  O  O33  1  0.561755  0.314703  0.061781  1
  O  O34  1  0.561780  0.061769  0.314665  1
  O  O35  1  0.197564  0.857034  0.344344  1
  O  O36  1  0.356958  0.601034  0.344263  1
  O  O37  1  0.814674  0.061770  0.061772  1
  O  O38  1  0.100891  0.857065  0.697684  1
  O  O39  1  0.356982  0.344224  0.697663  1
  O  O40  1  0.197611  0.601027  0.856973  1
  O  O41  1  0.643037  0.302334  0.398925  1
  O  O42  1  0.356957  0.697670  0.601077  1
  O  O43  1  0.802388  0.398969  0.143029  1
  O  O44  1  0.643011  0.655782  0.302332  1
  O  O45  1  0.899110  0.142936  0.302323  1
  O  O46  1  0.185235  0.938262  0.938260  1
  O  O47  1  0.643029  0.398993  0.655741  1
  O  O48  1  0.802411  0.142964  0.655679  1
  O  O49  1  0.438249  0.938263  0.685246  1
  O  O50  1  0.438272  0.685213  0.938249  1
  O  O51  1  0.899042  0.655634  0.143051  1
  O  O52  1  0.802490  0.655527  0.399052  1
  O  O53  1  0.438282  0.938256  0.938261  1
  O  O54  1  0.899134  0.302383  0.655544  1
  O  O55  1  0.844404  0.600913  0.697604  1
  O  O56  1  0.844333  0.857010  0.601001  1
  O  O57  1  0.844355  0.697587  0.856955  1
