# generated using pymatgen
data_Ba3Yb4O9
_symmetry_space_group_name_H-M   'P 1'
_cell_length_a   9.03865737
_cell_length_b   9.03865736
_cell_length_c   9.03865736
_cell_angle_alpha   40.37356195
_cell_angle_beta   40.37356200
_cell_angle_gamma   40.37356199
_symmetry_Int_Tables_number   1
_chemical_formula_structural   Ba3Yb4O9
_chemical_formula_sum   'Ba3 Yb4 O9'
_cell_volume   279.38443848
_cell_formula_units_Z   1
loop_
 _symmetry_equiv_pos_site_id
 _symmetry_equiv_pos_as_xyz
  1  'x, y, z'
loop_
 _atom_site_type_symbol
 _atom_site_label
 _atom_site_symmetry_multiplicity
 _atom_site_fract_x
 _atom_site_fract_y
 _atom_site_fract_z
 _atom_site_occupancy
  O  O0  1  0.443916  0.618564  0.058226  1
  O  O1  1  0.618564  0.058226  0.443916  1
  O  O2  1  0.058226  0.443916  0.618564  1
  O  O3  1  0.577975  0.733427  0.135437  1
  O  O4  1  0.733427  0.135437  0.577975  1
  O  O5  1  0.135437  0.577975  0.733427  1
  O  O6  1  0.020545  0.590543  0.167341  1
  O  O7  1  0.167341  0.020545  0.590543  1
  O  O8  1  0.590543  0.167341  0.020545  1
  Ba  Ba9  1  0.009160  0.009160  0.009160  1
  Ba  Ba10  1  0.175720  0.175720  0.175720  1
  Ba  Ba11  1  0.585262  0.585262  0.585262  1
  Yb  Yb12  1  0.434393  0.434393  0.434393  1
  Yb  Yb13  1  0.873828  0.873828  0.873828  1
  Yb  Yb14  1  0.752053  0.752053  0.752053  1
  Yb  Yb15  1  0.313108  0.313108  0.313108  1
