# generated using pymatgen
data_Na4V2C4SO16
_symmetry_space_group_name_H-M   'P 1'
_cell_length_a   10.00972010
_cell_length_b   9.80560493
_cell_length_c   10.00972001
_cell_angle_alpha   60.53522384
_cell_angle_beta   92.07937499
_cell_angle_gamma   60.53521998
_symmetry_Int_Tables_number   1
_chemical_formula_structural   Na4V2C4SO16
_chemical_formula_sum   'Na8 V4 C8 S2 O32'
_cell_volume   692.77338921
_cell_formula_units_Z   2
loop_
 _symmetry_equiv_pos_site_id
 _symmetry_equiv_pos_as_xyz
  1  'x, y, z'
loop_
 _atom_site_type_symbol
 _atom_site_label
 _atom_site_symmetry_multiplicity
 _atom_site_fract_x
 _atom_site_fract_y
 _atom_site_fract_z
 _atom_site_occupancy
  Na  Na0  1  0.084271  0.831457  0.834272  1
  Na  Na1  1  0.083842  0.250000  0.833842  1
  Na  Na2  1  0.333842  0.750000  0.583842  1
  Na  Na3  1  0.334271  0.331457  0.584272  1
  Na  Na4  1  0.665728  0.668543  0.415729  1
  Na  Na5  1  0.666158  0.250000  0.416158  1
  Na  Na6  1  0.916158  0.750000  0.166158  1
  Na  Na7  1  0.915728  0.168543  0.165728  1
  V  V8  1  0.000000  0.500000  0.000000  1
  V  V9  1  0.500000  0.000000  0.500000  1
  V  V10  1  0.500000  0.500000  0.000000  1
  V  V11  1  0.500000  0.000000  0.000000  1
  C  C12  1  0.359945  0.929382  0.778291  1
  C  C13  1  0.278291  0.429382  0.859945  1
  C  C14  1  0.710673  0.929382  0.792326  1
  C  C15  1  0.707674  0.570618  0.789327  1
  C  C16  1  0.292326  0.429382  0.210673  1
  C  C17  1  0.289327  0.070618  0.207674  1
  C  C18  1  0.721709  0.570618  0.140055  1
  C  C19  1  0.640055  0.070618  0.221709  1
  S  S20  1  0.125000  0.750000  0.375000  1
  S  S21  1  0.875000  0.250000  0.625000  1
  O  O22  1  0.356106  0.787914  0.887900  1
  O  O23  1  0.066205  0.876798  0.432964  1
  O  O24  1  0.363673  0.953783  0.639686  1
  O  O25  1  0.139686  0.453783  0.863673  1
  O  O26  1  0.682545  0.953783  0.906531  1
  O  O27  1  0.305248  0.548638  0.853196  1
  O  O28  1  0.056998  0.876798  0.190239  1
  O  O29  1  0.067036  0.623202  0.433795  1
  O  O30  1  0.401834  0.951362  0.353885  1
  O  O31  1  0.593469  0.546217  0.817455  1
  O  O32  1  0.387900  0.287914  0.856106  1
  O  O33  1  0.309761  0.623202  0.443002  1
  O  O34  1  0.855981  0.787914  0.824187  1
  O  O35  1  0.675813  0.712086  0.644019  1
  O  O36  1  0.353196  0.048638  0.805248  1
  O  O37  1  0.146115  0.548638  0.098166  1
  O  O38  1  0.853885  0.451362  0.901834  1
  O  O39  1  0.646804  0.951362  0.194752  1
  O  O40  1  0.324187  0.287914  0.355981  1
  O  O41  1  0.144019  0.212086  0.175813  1
  O  O42  1  0.690239  0.376798  0.556998  1
  O  O43  1  0.612100  0.712086  0.143894  1
  O  O44  1  0.406531  0.453783  0.182545  1
  O  O45  1  0.598166  0.048638  0.646115  1
  O  O46  1  0.932964  0.376798  0.566205  1
  O  O47  1  0.943002  0.123202  0.809761  1
  O  O48  1  0.694752  0.451362  0.146804  1
  O  O49  1  0.317455  0.046217  0.093469  1
  O  O50  1  0.860314  0.546217  0.136327  1
  O  O51  1  0.636327  0.046217  0.360314  1
  O  O52  1  0.933795  0.123202  0.567036  1
  O  O53  1  0.643894  0.212086  0.112100  1
