# generated using pymatgen
data_SrTaNO2
_symmetry_space_group_name_H-M   'P 1'
_cell_length_a   5.73540522
_cell_length_b   5.73540522
_cell_length_c   8.17597562
_cell_angle_alpha   90.04935860
_cell_angle_beta   89.95064140
_cell_angle_gamma   88.85777517
_symmetry_Int_Tables_number   1
_chemical_formula_structural   SrTaNO2
_chemical_formula_sum   'Sr4 Ta4 N4 O8'
_cell_volume   268.89403446
_cell_formula_units_Z   4
loop_
 _symmetry_equiv_pos_site_id
 _symmetry_equiv_pos_as_xyz
  1  'x, y, z'
loop_
 _atom_site_type_symbol
 _atom_site_label
 _atom_site_symmetry_multiplicity
 _atom_site_fract_x
 _atom_site_fract_y
 _atom_site_fract_z
 _atom_site_occupancy
  Sr  Sr0  1  0.001516  0.001516  0.250000  1
  Sr  Sr1  1  0.509564  0.509564  0.250000  1
  Sr  Sr2  1  0.499663  0.499663  0.750000  1
  Sr  Sr3  1  0.993828  0.993828  0.750000  1
  Ta  Ta4  1  0.994000  0.489362  0.506868  1
  Ta  Ta5  1  0.009853  0.507566  0.994776  1
  Ta  Ta6  1  0.489362  0.994000  0.993132  1
  Ta  Ta7  1  0.507566  0.009853  0.505224  1
  N  N8  1  0.229034  0.770320  0.004130  1
  N  N9  1  0.025155  0.476845  0.749813  1
  N  N10  1  0.476845  0.025155  0.750187  1
  N  N11  1  0.770320  0.229034  0.495870  1
  O  O12  1  0.222670  0.776738  0.491009  1
  O  O13  1  0.525393  0.969740  0.250376  1
  O  O14  1  0.275449  0.272772  0.032666  1
  O  O15  1  0.723907  0.726623  0.518482  1
  O  O16  1  0.272772  0.275449  0.467334  1
  O  O17  1  0.726623  0.723907  0.981518  1
  O  O18  1  0.969740  0.525393  0.249624  1
  O  O19  1  0.776738  0.222670  0.008991  1
