# generated using pymatgen
data_MnOF
_symmetry_space_group_name_H-M   'P 1'
_cell_length_a   3.79732797
_cell_length_b   4.38426101
_cell_length_c   5.51405020
_cell_angle_alpha   68.03667889
_cell_angle_beta   109.69066919
_cell_angle_gamma   89.76151337
_symmetry_Int_Tables_number   1
_chemical_formula_structural   MnOF
_chemical_formula_sum   'Mn2 O2 F2'
_cell_volume   79.26369221
_cell_formula_units_Z   2
loop_
 _symmetry_equiv_pos_site_id
 _symmetry_equiv_pos_as_xyz
  1  'x, y, z'
loop_
 _atom_site_type_symbol
 _atom_site_label
 _atom_site_symmetry_multiplicity
 _atom_site_fract_x
 _atom_site_fract_y
 _atom_site_fract_z
 _atom_site_occupancy
  Mn  Mn0  1  0.135918  0.616374  0.767627  1
  Mn  Mn1  1  0.864082  0.383626  0.232373  1
  O  O2  1  0.666984  0.626034  0.832059  1
  O  O3  1  0.333016  0.373966  0.167941  1
  F  F4  1  0.064557  0.183507  0.645563  1
  F  F5  1  0.935443  0.816493  0.354437  1
