# generated using pymatgen
data_Ba2ScFeAsO3
_symmetry_space_group_name_H-M   'P 1'
_cell_length_a   4.22226863
_cell_length_b   4.22233314
_cell_length_c   17.23194611
_cell_angle_alpha   89.96767746
_cell_angle_beta   90.03041113
_cell_angle_gamma   90.00816286
_symmetry_Int_Tables_number   1
_chemical_formula_structural   Ba2ScFeAsO3
_chemical_formula_sum   'Ba4 Sc2 Fe2 As2 O6'
_cell_volume   307.20802020
_cell_formula_units_Z   2
loop_
 _symmetry_equiv_pos_site_id
 _symmetry_equiv_pos_as_xyz
  1  'x, y, z'
loop_
 _atom_site_type_symbol
 _atom_site_label
 _atom_site_symmetry_multiplicity
 _atom_site_fract_x
 _atom_site_fract_y
 _atom_site_fract_z
 _atom_site_occupancy
  Ba  Ba0  1  0.749975  0.750011  0.192592  1
  Ba  Ba1  1  0.750005  0.750003  0.414660  1
  Ba  Ba2  1  0.250014  0.249992  0.585346  1
  Ba  Ba3  1  0.249990  0.249993  0.807411  1
  Sc  Sc4  1  0.249941  0.249974  0.313348  1
  Sc  Sc5  1  0.750050  0.750008  0.686625  1
  Fe  Fe6  1  0.750367  0.250151  0.999997  1
  Fe  Fe7  1  0.250135  0.749889  0.000004  1
  As  As8  1  0.249712  0.250037  0.090947  1
  As  As9  1  0.749810  0.749927  0.909058  1
  O  O10  1  0.749996  0.250009  0.293933  1
  O  O11  1  0.249988  0.750011  0.293933  1
  O  O12  1  0.249998  0.250005  0.427481  1
  O  O13  1  0.750003  0.749997  0.572522  1
  O  O14  1  0.750000  0.249991  0.706073  1
  O  O15  1  0.250009  0.749994  0.706072  1
