# generated using pymatgen
data_Na4VO4
_symmetry_space_group_name_H-M   'P 1'
_cell_length_a   8.70836583
_cell_length_b   5.83210189
_cell_length_c   5.80962367
_cell_angle_alpha   68.47171601
_cell_angle_beta   109.27092112
_cell_angle_gamma   99.75923577
_symmetry_Int_Tables_number   1
_chemical_formula_structural   Na4VO4
_chemical_formula_sum   'Na8 V2 O8'
_cell_volume   258.70215081
_cell_formula_units_Z   2
loop_
 _symmetry_equiv_pos_site_id
 _symmetry_equiv_pos_as_xyz
  1  'x, y, z'
loop_
 _atom_site_type_symbol
 _atom_site_label
 _atom_site_symmetry_multiplicity
 _atom_site_fract_x
 _atom_site_fract_y
 _atom_site_fract_z
 _atom_site_occupancy
  Na  Na0  1  0.181120  0.011939  0.637637  1
  Na  Na1  1  0.144411  0.515546  0.107232  1
  Na  Na2  1  0.313033  0.547019  0.677976  1
  Na  Na3  1  0.350404  0.039209  0.211212  1
  Na  Na4  1  0.567370  0.019870  0.758714  1
  Na  Na5  1  0.730833  0.524851  0.919642  1
  Na  Na6  1  0.762345  0.028239  0.396848  1
  Na  Na7  1  0.928374  0.532998  0.561993  1
  V  V8  1  0.505324  0.559715  0.314445  1
  V  V9  1  0.989999  0.995149  0.003443  1
  O  O10  1  0.125487  0.250222  0.860858  1
  O  O11  1  0.104050  0.797569  0.324012  1
  O  O12  1  0.391358  0.757595  0.994090  1
  O  O13  1  0.370579  0.304082  0.457790  1
  O  O14  1  0.548027  0.753433  0.520387  1
  O  O15  1  0.673548  0.419158  0.308860  1
  O  O16  1  0.945907  0.801380  0.797341  1
  O  O17  1  0.822963  0.138005  0.009565  1
