# generated using pymatgen
data_LiVP2HO8
_symmetry_space_group_name_H-M   'P 1'
_cell_length_a   9.73893574
_cell_length_b   7.94483458
_cell_length_c   7.47108704
_cell_angle_alpha   90.00000000
_cell_angle_beta   104.96861866
_cell_angle_gamma   90.00000000
_symmetry_Int_Tables_number   1
_chemical_formula_structural   LiVP2HO8
_chemical_formula_sum   'Li4 V4 P8 H4 O32'
_cell_volume   558.45424915
_cell_formula_units_Z   4
loop_
 _symmetry_equiv_pos_site_id
 _symmetry_equiv_pos_as_xyz
  1  'x, y, z'
loop_
 _atom_site_type_symbol
 _atom_site_label
 _atom_site_symmetry_multiplicity
 _atom_site_fract_x
 _atom_site_fract_y
 _atom_site_fract_z
 _atom_site_occupancy
  Li  Li0  1  0.292903  0.130238  0.144203  1
  Li  Li1  1  0.550583  0.369055  0.647132  1
  Li  Li2  1  0.699417  0.869055  0.852868  1
  Li  Li3  1  0.957097  0.630238  0.355797  1
  V  V4  1  0.248900  0.506596  0.998197  1
  V  V5  1  0.499009  0.992333  0.491811  1
  V  V6  1  0.750991  0.492333  0.008189  1
  V  V7  1  0.001100  0.006596  0.501803  1
  P  P8  1  0.069261  0.347451  0.270192  1
  P  P9  1  0.180739  0.847451  0.229808  1
  P  P10  1  0.312821  0.155558  0.760537  1
  P  P11  1  0.433386  0.652317  0.736123  1
  P  P12  1  0.560352  0.352788  0.266769  1
  P  P13  1  0.689648  0.852788  0.233231  1
  P  P14  1  0.816614  0.152317  0.763877  1
  P  P15  1  0.937179  0.655558  0.739463  1
  H  H16  1  0.260624  0.507717  0.506796  1
  H  H17  1  0.481931  0.007468  0.985176  1
  H  H18  1  0.768069  0.507468  0.514824  1
  H  H19  1  0.989376  0.007717  0.993204  1
  O  O20  1  0.066416  0.552650  0.851085  1
  O  O21  1  0.022008  0.173157  0.318001  1
  O  O22  1  0.078592  0.827389  0.357746  1
  O  O23  1  0.128196  0.456245  0.440222  1
  O  O24  1  0.183584  0.052650  0.648915  1
  O  O25  1  0.267459  0.327778  0.816047  1
  O  O26  1  0.121804  0.956245  0.059778  1
  O  O27  1  0.171408  0.327389  0.142254  1
  O  O28  1  0.330366  0.674686  0.858896  1
  O  O29  1  0.377824  0.058800  0.945062  1
  O  O30  1  0.227992  0.673157  0.181999  1
  O  O31  1  0.315033  0.949173  0.346036  1
  O  O32  1  0.373047  0.547787  0.558721  1
  O  O33  1  0.421816  0.169814  0.642450  1
  O  O34  1  0.487345  0.824847  0.685186  1
  O  O35  1  0.567279  0.550512  0.844062  1
  O  O36  1  0.429072  0.451643  0.150504  1
  O  O37  1  0.506014  0.175832  0.306939  1
  O  O38  1  0.586128  0.836529  0.360649  1
  O  O39  1  0.630616  0.439485  0.448720  1
  O  O40  1  0.682721  0.050512  0.655938  1
  O  O41  1  0.762655  0.324847  0.814814  1
  O  O42  1  0.619384  0.939485  0.051280  1
  O  O43  1  0.663872  0.336529  0.139351  1
  O  O44  1  0.828184  0.669814  0.857550  1
  O  O45  1  0.876953  0.047787  0.941279  1
  O  O46  1  0.743986  0.675832  0.193061  1
  O  O47  1  0.820928  0.951643  0.349496  1
  O  O48  1  0.872176  0.558800  0.554938  1
  O  O49  1  0.919634  0.174686  0.641104  1
  O  O50  1  0.982541  0.827778  0.683953  1
  O  O51  1  0.934967  0.449173  0.153964  1
