# generated using pymatgen
data_Ba9La5Br33
_symmetry_space_group_name_H-M   'P 1'
_cell_length_a   12.28783307
_cell_length_b   12.24150393
_cell_length_c   23.49405136
_cell_angle_alpha   99.56563490
_cell_angle_beta   80.03467271
_cell_angle_gamma   71.50218772
_symmetry_Int_Tables_number   1
_chemical_formula_structural   Ba9La5Br33
_chemical_formula_sum   'Ba18 La10 Br66'
_cell_volume   3207.06685430
_cell_formula_units_Z   2
loop_
 _symmetry_equiv_pos_site_id
 _symmetry_equiv_pos_as_xyz
  1  'x, y, z'
loop_
 _atom_site_type_symbol
 _atom_site_label
 _atom_site_symmetry_multiplicity
 _atom_site_fract_x
 _atom_site_fract_y
 _atom_site_fract_z
 _atom_site_occupancy
  Ba  Ba0  1  0.745902  0.923815  0.928514  1
  Ba  Ba1  1  0.907493  0.319836  0.965662  1
  Ba  Ba2  1  0.977188  0.472526  0.194790  1
  Ba  Ba3  1  0.733671  0.868839  0.339397  1
  Ba  Ba4  1  0.874862  0.250510  0.376672  1
  Ba  Ba5  1  0.601764  0.676696  0.539986  1
  Ba  Ba6  1  0.756716  0.075287  0.564837  1
  Ba  Ba7  1  0.640143  0.758015  0.122150  1
  Ba  Ba8  1  0.770212  0.136800  0.160659  1
  Ba  Ba9  1  0.229788  0.863200  0.839341  1
  Ba  Ba10  1  0.359857  0.241985  0.877850  1
  Ba  Ba11  1  0.243284  0.924713  0.435163  1
  Ba  Ba12  1  0.398236  0.323304  0.460014  1
  Ba  Ba13  1  0.125138  0.749490  0.623328  1
  Ba  Ba14  1  0.266329  0.131161  0.660603  1
  Ba  Ba15  1  0.022812  0.527474  0.805210  1
  Ba  Ba16  1  0.092507  0.680164  0.034338  1
  Ba  Ba17  1  0.254098  0.076185  0.071486  1
  La  La18  1  0.955094  0.381070  0.586590  1
  La  La19  1  0.858340  0.182615  0.764665  1
  La  La20  1  0.649081  0.857037  0.732585  1
  La  La21  1  0.542210  0.625351  0.925958  1
  La  La22  1  0.465342  0.462115  0.686930  1
  La  La23  1  0.534658  0.537885  0.313070  1
  La  La24  1  0.457790  0.374649  0.074042  1
  La  La25  1  0.350919  0.142963  0.267415  1
  La  La26  1  0.141660  0.817385  0.235335  1
  La  La27  1  0.044906  0.618930  0.413410  1
  Br  Br28  1  0.859264  0.772042  0.783163  1
  Br  Br29  1  0.845442  0.951062  0.675458  1
  Br  Br30  1  0.789068  0.621228  0.918983  1
  Br  Br31  1  0.952023  0.742540  0.194338  1
  Br  Br32  1  0.985602  0.158600  0.636006  1
  Br  Br33  1  0.920702  0.064745  0.872858  1
  Br  Br34  1  0.816556  0.653557  0.628600  1
  Br  Br35  1  0.820605  0.436498  0.736963  1
  Br  Br36  1  0.779060  0.808478  0.474947  1
  Br  Br37  1  0.883566  0.580248  0.339760  1
  Br  Br38  1  0.881811  0.478210  0.475510  1
  Br  Br39  1  0.961825  0.159901  0.488429  1
  Br  Br40  1  0.700528  0.358419  0.878613  1
  Br  Br41  1  0.814825  0.887251  0.060957  1
  Br  Br42  1  0.546163  0.817251  0.854426  1
  Br  Br43  1  0.894538  0.550443  0.073225  1
  Br  Br44  1  0.570817  0.944280  0.625961  1
  Br  Br45  1  0.964330  0.239629  0.093386  1
  Br  Br46  1  0.697954  0.396779  0.590273  1
  Br  Br47  1  0.618284  0.981518  0.226634  1
  Br  Br48  1  0.787044  0.352471  0.263559  1
  Br  Br49  1  0.682883  0.657186  0.241872  1
  Br  Br50  1  0.883303  0.033043  0.274855  1
  Br  Br51  1  0.640940  0.250033  0.710702  1
  Br  Br52  1  0.502138  0.702992  0.693352  1
  Br  Br53  1  0.645576  0.075329  0.821829  1
  Br  Br54  1  0.534126  0.751797  0.405553  1
  Br  Br55  1  0.441894  0.566342  0.820853  1
  Br  Br56  1  0.605259  0.451698  0.423369  1
  Br  Br57  1  0.286432  0.797789  0.969358  1
  Br  Br58  1  0.389125  0.472633  0.965308  1
  Br  Br59  1  0.681774  0.126333  0.437063  1
  Br  Br60  1  0.471122  0.148417  0.984120  1
  Br  Br61  1  0.528878  0.851583  0.015880  1
  Br  Br62  1  0.318226  0.873667  0.562936  1
  Br  Br63  1  0.610875  0.527367  0.034692  1
  Br  Br64  1  0.713568  0.202211  0.030642  1
  Br  Br65  1  0.394741  0.548302  0.576631  1
  Br  Br66  1  0.558106  0.433658  0.179147  1
  Br  Br67  1  0.465874  0.248203  0.594447  1
  Br  Br68  1  0.354424  0.924671  0.178171  1
  Br  Br69  1  0.497862  0.297008  0.306648  1
  Br  Br70  1  0.359060  0.749967  0.289298  1
  Br  Br71  1  0.116697  0.966957  0.725145  1
  Br  Br72  1  0.317117  0.342814  0.758128  1
  Br  Br73  1  0.212956  0.647529  0.736441  1
  Br  Br74  1  0.381716  0.018482  0.773366  1
  Br  Br75  1  0.302046  0.603220  0.409727  1
  Br  Br76  1  0.035670  0.760371  0.906614  1
  Br  Br77  1  0.429183  0.055720  0.374039  1
  Br  Br78  1  0.105462  0.449557  0.926775  1
  Br  Br79  1  0.453837  0.182749  0.145574  1
  Br  Br80  1  0.185175  0.112749  0.939043  1
  Br  Br81  1  0.299472  0.641581  0.121387  1
  Br  Br82  1  0.038175  0.840099  0.511571  1
  Br  Br83  1  0.118189  0.521790  0.524490  1
  Br  Br84  1  0.116434  0.419752  0.660240  1
  Br  Br85  1  0.220940  0.191522  0.525053  1
  Br  Br86  1  0.179395  0.563502  0.263037  1
  Br  Br87  1  0.183444  0.346443  0.371400  1
  Br  Br88  1  0.079298  0.935255  0.127142  1
  Br  Br89  1  0.014398  0.841400  0.363994  1
  Br  Br90  1  0.047977  0.257460  0.805662  1
  Br  Br91  1  0.210932  0.378772  0.081017  1
  Br  Br92  1  0.154558  0.048938  0.324542  1
  Br  Br93  1  0.140736  0.227958  0.216837  1
