# generated using pymatgen
data_K4(S2O3)5
_symmetry_space_group_name_H-M   'P 1'
_cell_length_a   20.47145431
_cell_length_b   9.30862969
_cell_length_c   12.34119608
_cell_angle_alpha   90.00000000
_cell_angle_beta   90.00000000
_cell_angle_gamma   90.00000000
_symmetry_Int_Tables_number   1
_chemical_formula_structural   K4(S2O3)5
_chemical_formula_sum   'K16 S40 O60'
_cell_volume   2351.75297879
_cell_formula_units_Z   4
loop_
 _symmetry_equiv_pos_site_id
 _symmetry_equiv_pos_as_xyz
  1  'x, y, z'
loop_
 _atom_site_type_symbol
 _atom_site_label
 _atom_site_symmetry_multiplicity
 _atom_site_fract_x
 _atom_site_fract_y
 _atom_site_fract_z
 _atom_site_occupancy
  K  K0  1  0.262618  0.752263  0.995777  1
  K  K1  1  0.237382  0.747737  0.495777  1
  K  K2  1  0.762618  0.747737  0.004223  1
  K  K3  1  0.737382  0.752263  0.504223  1
  K  K4  1  0.737382  0.247737  0.004223  1
  K  K5  1  0.762618  0.252263  0.504223  1
  K  K6  1  0.237382  0.252263  0.995777  1
  K  K7  1  0.262618  0.247737  0.495777  1
  K  K8  1  0.394276  0.878679  0.716663  1
  K  K9  1  0.105724  0.621321  0.216663  1
  K  K10  1  0.894276  0.621321  0.283337  1
  K  K11  1  0.605724  0.878679  0.783337  1
  K  K12  1  0.605724  0.121321  0.283337  1
  K  K13  1  0.894276  0.378679  0.783337  1
  K  K14  1  0.105724  0.378679  0.716663  1
  K  K15  1  0.394276  0.121321  0.216663  1
  S  S16  1  0.091498  0.951949  0.510905  1
  S  S17  1  0.408502  0.548051  0.010905  1
  S  S18  1  0.591498  0.548051  0.489095  1
  S  S19  1  0.908502  0.951949  0.989095  1
  S  S20  1  0.908502  0.048051  0.489095  1
  S  S21  1  0.591498  0.451949  0.989095  1
  S  S22  1  0.408502  0.451949  0.510905  1
  S  S23  1  0.091498  0.048051  0.010905  1
  S  S24  1  0.077871  0.975964  0.672180  1
  S  S25  1  0.422129  0.524036  0.172180  1
  S  S26  1  0.577871  0.524036  0.327820  1
  S  S27  1  0.922129  0.975964  0.827820  1
  S  S28  1  0.922129  0.024036  0.327820  1
  S  S29  1  0.577871  0.475964  0.827820  1
  S  S30  1  0.422129  0.475964  0.672180  1
  S  S31  1  0.077871  0.024036  0.172180  1
  S  S32  1  0.150734  0.869395  0.751716  1
  S  S33  1  0.349266  0.630605  0.251716  1
  S  S34  1  0.650734  0.630605  0.248284  1
  S  S35  1  0.849266  0.869395  0.748284  1
  S  S36  1  0.849266  0.130605  0.248284  1
  S  S37  1  0.650734  0.369395  0.748284  1
  S  S38  1  0.349266  0.369395  0.751716  1
  S  S39  1  0.150734  0.130605  0.251716  1
  S  S40  1  0.049778  0.735985  0.481593  1
  S  S41  1  0.450222  0.764015  0.981593  1
  S  S42  1  0.549778  0.764015  0.518407  1
  S  S43  1  0.950222  0.735985  0.018407  1
  S  S44  1  0.950222  0.264015  0.518407  1
  S  S45  1  0.549778  0.235985  0.018407  1
  S  S46  1  0.450222  0.235985  0.481593  1
  S  S47  1  0.049778  0.264015  0.981593  1
  S  S48  1  0.228896  0.027007  0.748952  1
  S  S49  1  0.271104  0.472993  0.248952  1
  S  S50  1  0.728896  0.472993  0.251048  1
  S  S51  1  0.771104  0.027007  0.751048  1
  S  S52  1  0.771104  0.972993  0.251048  1
  S  S53  1  0.728896  0.527007  0.751048  1
  S  S54  1  0.271104  0.527007  0.748952  1
  S  S55  1  0.228896  0.972993  0.248952  1
  O  O56  1  0.998260  0.718063  0.562589  1
  O  O57  1  0.501740  0.781937  0.062589  1
  O  O58  1  0.498260  0.781937  0.437411  1
  O  O59  1  0.001740  0.718063  0.937411  1
  O  O60  1  0.001740  0.281937  0.437411  1
  O  O61  1  0.498260  0.218063  0.937411  1
  O  O62  1  0.501740  0.218063  0.562589  1
  O  O63  1  0.998260  0.281937  0.062589  1
  O  O64  1  0.106473  0.640244  0.492590  1
  O  O65  1  0.393527  0.859756  0.992590  1
  O  O66  1  0.606473  0.859756  0.507410  1
  O  O67  1  0.893527  0.640244  0.007410  1
  O  O68  1  0.893527  0.359756  0.507410  1
  O  O69  1  0.606473  0.140244  0.007410  1
  O  O70  1  0.393527  0.140244  0.492590  1
  O  O71  1  0.106473  0.359756  0.992590  1
  O  O72  1  0.026839  0.755087  0.369864  1
  O  O73  1  0.473161  0.744913  0.869864  1
  O  O74  1  0.526839  0.744913  0.630136  1
  O  O75  1  0.973161  0.755087  0.130136  1
  O  O76  1  0.973161  0.244913  0.630136  1
  O  O77  1  0.526839  0.255087  0.130136  1
  O  O78  1  0.473161  0.255087  0.369864  1
  O  O79  1  0.026839  0.244913  0.869864  1
  O  O80  1  0.197968  0.167127  0.767274  1
  O  O81  1  0.302032  0.332873  0.267274  1
  O  O82  1  0.697968  0.332873  0.232726  1
  O  O83  1  0.802032  0.167127  0.732726  1
  O  O84  1  0.802032  0.832873  0.232726  1
  O  O85  1  0.697968  0.667127  0.732726  1
  O  O86  1  0.302032  0.667127  0.767274  1
  O  O87  1  0.197968  0.832873  0.267274  1
  O  O88  1  0.259628  0.012389  0.641390  1
  O  O89  1  0.240372  0.487611  0.141390  1
  O  O90  1  0.759628  0.487611  0.358610  1
  O  O91  1  0.740372  0.012389  0.858610  1
  O  O92  1  0.740372  0.987611  0.358610  1
  O  O93  1  0.759628  0.512389  0.858610  1
  O  O94  1  0.240372  0.512389  0.641390  1
  O  O95  1  0.259628  0.987611  0.141390  1
  O  O96  1  0.270229  0.978412  0.838703  1
  O  O97  1  0.229771  0.521588  0.338703  1
  O  O98  1  0.770229  0.521588  0.161297  1
  O  O99  1  0.729771  0.978412  0.661297  1
  O  O100  1  0.729771  0.021588  0.161297  1
  O  O101  1  0.770229  0.478412  0.661297  1
  O  O102  1  0.229771  0.478412  0.838703  1
  O  O103  1  0.270229  0.021588  0.338703  1
  O  O104  1  0.130567  0.662494  0.995765  1
  O  O105  1  0.369433  0.837506  0.495765  1
  O  O106  1  0.630567  0.837506  0.004235  1
  O  O107  1  0.869433  0.662494  0.504235  1
  O  O108  1  0.869433  0.337506  0.004235  1
  O  O109  1  0.630567  0.162494  0.504235  1
  O  O110  1  0.369433  0.162494  0.995765  1
  O  O111  1  0.130567  0.337506  0.495765  1
  O  O112  1  0.000000  0.570691  0.750000  1
  O  O113  1  0.500000  0.929309  0.250000  1
  O  O114  1  0.000000  0.429309  0.250000  1
  O  O115  1  0.500000  0.070691  0.750000  1
