# generated using pymatgen
data_LiAg2F4
_symmetry_space_group_name_H-M   'P 1'
_cell_length_a   8.09026609
_cell_length_b   8.18677576
_cell_length_c   6.18121631
_cell_angle_alpha   89.96673229
_cell_angle_beta   89.98770943
_cell_angle_gamma   89.08337539
_symmetry_Int_Tables_number   1
_chemical_formula_structural   LiAg2F4
_chemical_formula_sum   'Li4 Ag8 F16'
_cell_volume   409.34923288
_cell_formula_units_Z   4
loop_
 _symmetry_equiv_pos_site_id
 _symmetry_equiv_pos_as_xyz
  1  'x, y, z'
loop_
 _atom_site_type_symbol
 _atom_site_label
 _atom_site_symmetry_multiplicity
 _atom_site_fract_x
 _atom_site_fract_y
 _atom_site_fract_z
 _atom_site_occupancy
  Li  Li0  1  0.250138  0.250056  0.029607  1
  Li  Li1  1  0.250008  0.250003  0.529294  1
  Li  Li2  1  0.750026  0.750134  0.470841  1
  Li  Li3  1  0.750027  0.750022  0.970186  1
  Ag  Ag4  1  0.081710  0.919237  0.750417  1
  Ag  Ag5  1  0.095392  0.594711  0.250522  1
  Ag  Ag6  1  0.403968  0.904938  0.250593  1
  Ag  Ag7  1  0.418314  0.580587  0.750586  1
  Ag  Ag8  1  0.593869  0.092791  0.749408  1
  Ag  Ag9  1  0.584715  0.416151  0.249378  1
  Ag  Ag10  1  0.906177  0.407062  0.749367  1
  Ag  Ag11  1  0.915375  0.083801  0.249493  1
  F  F12  1  0.011377  0.306650  0.041118  1
  F  F13  1  0.021408  0.197867  0.568128  1
  F  F14  1  0.196964  0.025219  0.070438  1
  F  F15  1  0.191826  0.485073  0.544694  1
  F  F16  1  0.308004  0.014818  0.543950  1
  F  F17  1  0.303248  0.474648  0.071201  1
  F  F18  1  0.478401  0.302208  0.568626  1
  F  F19  1  0.488779  0.193318  0.041251  1
  F  F20  1  0.511829  0.808047  0.957938  1
  F  F21  1  0.521493  0.698733  0.432681  1
  F  F22  1  0.695972  0.525451  0.928116  1
  F  F23  1  0.693085  0.985608  0.456685  1
  F  F24  1  0.807024  0.514623  0.455977  1
  F  F25  1  0.804101  0.974811  0.928759  1
  F  F26  1  0.978618  0.801479  0.432606  1
  F  F27  1  0.988214  0.692015  0.958138  1
