# generated using pymatgen
data_LiFeP3H8O13
_symmetry_space_group_name_H-M   'P 1'
_cell_length_a   9.60052138
_cell_length_b   8.62751887
_cell_length_c   7.59705532
_cell_angle_alpha   107.11618180
_cell_angle_beta   91.12552192
_cell_angle_gamma   100.99908523
_symmetry_Int_Tables_number   1
_chemical_formula_structural   LiFeP3H8O13
_chemical_formula_sum   'Li2 Fe2 P6 H16 O26'
_cell_volume   588.40724444
_cell_formula_units_Z   2
loop_
 _symmetry_equiv_pos_site_id
 _symmetry_equiv_pos_as_xyz
  1  'x, y, z'
loop_
 _atom_site_type_symbol
 _atom_site_label
 _atom_site_symmetry_multiplicity
 _atom_site_fract_x
 _atom_site_fract_y
 _atom_site_fract_z
 _atom_site_occupancy
  Li  Li0  1  0.308796  0.401759  0.714029  1
  Li  Li1  1  0.691204  0.598241  0.285971  1
  Fe  Fe2  1  0.000000  0.500000  0.000000  1
  Fe  Fe3  1  0.500000  0.000000  0.500000  1
  P  P4  1  0.060116  0.724847  0.715638  1
  P  P5  1  0.242672  0.355494  0.197748  1
  P  P6  1  0.220267  0.998403  0.010076  1
  P  P7  1  0.779733  0.001597  0.989924  1
  P  P8  1  0.757328  0.644506  0.802252  1
  P  P9  1  0.939884  0.275153  0.284362  1
  H  H10  1  0.052279  0.812631  0.201206  1
  H  H11  1  0.035930  0.704226  0.338547  1
  H  H12  1  0.229991  0.905289  0.533609  1
  H  H13  1  0.367704  0.688956  0.190056  1
  H  H14  1  0.246247  0.005296  0.388867  1
  H  H15  1  0.418825  0.868416  0.757774  1
  H  H16  1  0.455033  0.824980  0.113545  1
  H  H17  1  0.525578  0.752822  0.655434  1
  H  H18  1  0.474422  0.247178  0.344566  1
  H  H19  1  0.544967  0.175020  0.886455  1
  H  H20  1  0.581175  0.131584  0.242226  1
  H  H21  1  0.753753  0.994704  0.611133  1
  H  H22  1  0.632296  0.311044  0.809944  1
  H  H23  1  0.770009  0.094711  0.466391  1
  H  H24  1  0.964070  0.295774  0.661453  1
  H  H25  1  0.947721  0.187369  0.798794  1
  O  O26  1  0.993152  0.710171  0.219437  1
  O  O27  1  0.089264  0.913430  0.851629  1
  O  O28  1  0.109049  0.615358  0.816595  1
  O  O29  1  0.118438  0.723763  0.534272  1
  O  O30  1  0.175275  0.968816  0.187181  1
  O  O31  1  0.111447  0.314552  0.320438  1
  O  O32  1  0.222335  0.488977  0.113273  1
  O  O33  1  0.356729  0.954564  0.941332  1
  O  O34  1  0.222309  0.189881  0.021805  1
  O  O35  1  0.285112  0.008780  0.514167  1
  O  O36  1  0.374674  0.380096  0.320287  1
  O  O37  1  0.458731  0.770818  0.210381  1
  O  O38  1  0.458549  0.822100  0.636601  1
  O  O39  1  0.541451  0.177900  0.363399  1
  O  O40  1  0.541269  0.229182  0.789619  1
  O  O41  1  0.625326  0.619904  0.679713  1
  O  O42  1  0.714888  0.991220  0.485833  1
  O  O43  1  0.777691  0.810119  0.978195  1
  O  O44  1  0.643271  0.045436  0.058668  1
  O  O45  1  0.777665  0.511023  0.886727  1
  O  O46  1  0.888553  0.685448  0.679562  1
  O  O47  1  0.824725  0.031184  0.812819  1
  O  O48  1  0.881562  0.276237  0.465728  1
  O  O49  1  0.890951  0.384642  0.183405  1
  O  O50  1  0.910736  0.086570  0.148371  1
  O  O51  1  0.006848  0.289829  0.780563  1
