# generated using pymatgen
data_Eu3P
_symmetry_space_group_name_H-M   'P 1'
_cell_length_a   7.00929225
_cell_length_b   7.00929174
_cell_length_c   5.24432617
_cell_angle_alpha   90.00000000
_cell_angle_beta   90.00000000
_cell_angle_gamma   119.99999709
_symmetry_Int_Tables_number   1
_chemical_formula_structural   Eu3P
_chemical_formula_sum   'Eu6 P2'
_cell_volume   223.13548645
_cell_formula_units_Z   2
loop_
 _symmetry_equiv_pos_site_id
 _symmetry_equiv_pos_as_xyz
  1  'x, y, z'
loop_
 _atom_site_type_symbol
 _atom_site_label
 _atom_site_symmetry_multiplicity
 _atom_site_fract_x
 _atom_site_fract_y
 _atom_site_fract_z
 _atom_site_occupancy
  Eu  Eu0  1  0.179691  0.359384  0.250025  1
  Eu  Eu1  1  0.640617  0.820309  0.250025  1
  Eu  Eu2  1  0.179691  0.820309  0.250025  1
  Eu  Eu3  1  0.820309  0.640616  0.749974  1
  Eu  Eu4  1  0.359383  0.179690  0.749974  1
  Eu  Eu5  1  0.820309  0.179690  0.749974  1
  P  P6  1  0.333333  0.666666  0.749979  1
  P  P7  1  0.666667  0.333332  0.250020  1
