# generated using pymatgen
data_FeSb(PO4)2
_symmetry_space_group_name_H-M   'P 1'
_cell_length_a   10.26814038
_cell_length_b   6.51288508
_cell_length_c   4.96984018
_cell_angle_alpha   90.00000000
_cell_angle_beta   84.67535491
_cell_angle_gamma   90.00000000
_symmetry_Int_Tables_number   1
_chemical_formula_structural   FeSb(PO4)2
_chemical_formula_sum   'Fe2 Sb2 P4 O16'
_cell_volume   330.92497522
_cell_formula_units_Z   2
loop_
 _symmetry_equiv_pos_site_id
 _symmetry_equiv_pos_as_xyz
  1  'x, y, z'
loop_
 _atom_site_type_symbol
 _atom_site_label
 _atom_site_symmetry_multiplicity
 _atom_site_fract_x
 _atom_site_fract_y
 _atom_site_fract_z
 _atom_site_occupancy
  Fe  Fe0  1  0.222796  0.750000  0.455992  1
  Fe  Fe1  1  0.777204  0.250000  0.544008  1
  Sb  Sb2  1  0.284177  0.250000  0.949093  1
  Sb  Sb3  1  0.715823  0.750000  0.050907  1
  P  P4  1  0.097136  0.250000  0.430463  1
  P  P5  1  0.392209  0.750000  0.856268  1
  P  P6  1  0.607791  0.250000  0.143732  1
  P  P7  1  0.902864  0.750000  0.569537  1
  O  O8  1  0.047315  0.750000  0.626024  1
  O  O9  1  0.109981  0.250000  0.735442  1
  O  O10  1  0.172092  0.063003  0.280943  1
  O  O11  1  0.172092  0.436997  0.280943  1
  O  O12  1  0.319216  0.931812  0.721089  1
  O  O13  1  0.319216  0.568188  0.721089  1
  O  O14  1  0.359965  0.750000  0.165388  1
  O  O15  1  0.461445  0.250000  0.218280  1
  O  O16  1  0.538555  0.750000  0.781720  1
  O  O17  1  0.640035  0.250000  0.834612  1
  O  O18  1  0.680784  0.068188  0.278911  1
  O  O19  1  0.680784  0.431812  0.278911  1
  O  O20  1  0.827909  0.563003  0.719057  1
  O  O21  1  0.827909  0.936997  0.719057  1
  O  O22  1  0.890019  0.750000  0.264558  1
  O  O23  1  0.952685  0.250000  0.373976  1
