# generated using pymatgen
data_V3O5F
_symmetry_space_group_name_H-M   'P 1'
_cell_length_a   4.62212678
_cell_length_b   7.61356122
_cell_length_c   5.50706800
_cell_angle_alpha   94.15850625
_cell_angle_beta   90.00000000
_cell_angle_gamma   90.00000000
_symmetry_Int_Tables_number   1
_chemical_formula_structural   V3O5F
_chemical_formula_sum   'V6 O10 F2'
_cell_volume   193.28815564
_cell_formula_units_Z   2
loop_
 _symmetry_equiv_pos_site_id
 _symmetry_equiv_pos_as_xyz
  1  'x, y, z'
loop_
 _atom_site_type_symbol
 _atom_site_label
 _atom_site_symmetry_multiplicity
 _atom_site_fract_x
 _atom_site_fract_y
 _atom_site_fract_z
 _atom_site_occupancy
  V  V0  1  0.527842  0.673250  0.165573  1
  V  V1  1  0.487992  0.997921  0.487904  1
  V  V2  1  0.491734  0.351002  0.834409  1
  V  V3  1  0.987992  0.668746  0.678763  1
  V  V4  1  0.991734  0.315664  0.332257  1
  V  V5  1  0.027842  0.993417  0.001094  1
  O  O6  1  0.790990  0.425210  0.634645  1
  O  O7  1  0.807162  0.095156  0.287594  1
  O  O8  1  0.797046  0.779209  0.974651  1
  O  O9  1  0.694718  0.758144  0.461556  1
  O  O10  1  0.705267  0.437278  0.136843  1
  O  O11  1  0.307162  0.571511  0.879072  1
  O  O12  1  0.290990  0.241457  0.532022  1
  O  O13  1  0.297046  0.887458  0.192015  1
  O  O14  1  0.205267  0.229389  0.029823  1
  O  O15  1  0.194718  0.908523  0.705110  1
  F  F16  1  0.697250  0.104387  0.799708  1
  F  F17  1  0.197250  0.562280  0.366958  1
