# generated using pymatgen
data_Mn6O5F7
_symmetry_space_group_name_H-M   'P 1'
_cell_length_a   4.72404598
_cell_length_b   5.73637256
_cell_length_c   15.64523413
_cell_angle_alpha   90.76268000
_cell_angle_beta   90.05802460
_cell_angle_gamma   86.95765565
_symmetry_Int_Tables_number   1
_chemical_formula_structural   Mn6O5F7
_chemical_formula_sum   'Mn12 O10 F14'
_cell_volume   423.33336688
_cell_formula_units_Z   2
loop_
 _symmetry_equiv_pos_site_id
 _symmetry_equiv_pos_as_xyz
  1  'x, y, z'
loop_
 _atom_site_type_symbol
 _atom_site_label
 _atom_site_symmetry_multiplicity
 _atom_site_fract_x
 _atom_site_fract_y
 _atom_site_fract_z
 _atom_site_occupancy
  Mn  Mn0  1  0.026816  0.165009  0.417375  1
  Mn  Mn1  1  0.037539  0.831101  0.245619  1
  Mn  Mn2  1  0.001829  0.147564  0.077458  1
  Mn  Mn3  1  0.017210  0.179588  0.752498  1
  Mn  Mn4  1  0.006144  0.837328  0.575992  1
  Mn  Mn5  1  0.018938  0.858123  0.909970  1
  Mn  Mn6  1  0.498984  0.348040  0.586766  1
  Mn  Mn7  1  0.475135  0.329410  0.921805  1
  Mn  Mn8  1  0.522060  0.357375  0.260288  1
  Mn  Mn9  1  0.494662  0.648116  0.081907  1
  Mn  Mn10  1  0.475538  0.638427  0.415685  1
  Mn  Mn11  1  0.494926  0.642861  0.756811  1
  O  O12  1  0.208377  0.104062  0.969111  1
  O  O13  1  0.230279  0.882574  0.131493  1
  O  O14  1  0.230089  0.885353  0.467098  1
  O  O15  1  0.225297  0.892120  0.804972  1
  O  O16  1  0.290999  0.607425  0.308729  1
  O  O17  1  0.276725  0.389547  0.479013  1
  O  O18  1  0.280709  0.401305  0.816069  1
  O  O19  1  0.701148  0.369833  0.028486  1
  O  O20  1  0.740055  0.393839  0.364143  1
  O  O21  1  0.719219  0.386750  0.695158  1
  F  F22  1  0.244982  0.110812  0.302100  1
  F  F23  1  0.226294  0.111916  0.637861  1
  F  F24  1  0.273515  0.385874  0.152387  1
  F  F25  1  0.253370  0.605128  0.643025  1
  F  F26  1  0.246680  0.603664  0.979584  1
  F  F27  1  0.738358  0.623599  0.186725  1
  F  F28  1  0.711582  0.624276  0.524097  1
  F  F29  1  0.753326  0.626807  0.867703  1
  F  F30  1  0.779313  0.128174  0.193073  1
  F  F31  1  0.763517  0.121414  0.527726  1
  F  F32  1  0.777862  0.892536  0.355884  1
  F  F33  1  0.760455  0.870655  0.014735  1
  F  F34  1  0.746645  0.125722  0.856413  1
  F  F35  1  0.751427  0.873676  0.692236  1
