# generated using pymatgen
data_Ba(WO3)6
_symmetry_space_group_name_H-M   'P 1'
_cell_length_a   8.98804035
_cell_length_b   10.93342880
_cell_length_c   7.76115874
_cell_angle_alpha   69.21097189
_cell_angle_beta   90.00000000
_cell_angle_gamma   89.98707600
_symmetry_Int_Tables_number   1
_chemical_formula_structural   Ba(WO3)6
_chemical_formula_sum   'Ba2 W12 O36'
_cell_volume   713.03387481
_cell_formula_units_Z   2
loop_
 _symmetry_equiv_pos_site_id
 _symmetry_equiv_pos_as_xyz
  1  'x, y, z'
loop_
 _atom_site_type_symbol
 _atom_site_label
 _atom_site_symmetry_multiplicity
 _atom_site_fract_x
 _atom_site_fract_y
 _atom_site_fract_z
 _atom_site_occupancy
  Ba  Ba0  1  0.914620  0.748435  0.875783  1
  Ba  Ba1  1  0.085380  0.251565  0.124217  1
  W  W2  1  0.793653  0.063625  0.468719  1
  W  W3  1  0.793437  0.436227  0.284635  1
  W  W4  1  0.793653  0.063625  0.967657  1
  W  W5  1  0.793437  0.436227  0.779138  1
  W  W6  1  0.567026  0.750141  0.126662  1
  W  W7  1  0.567026  0.750141  0.623198  1
  W  W8  1  0.432974  0.249859  0.873338  1
  W  W9  1  0.432974  0.249859  0.376802  1
  W  W10  1  0.206563  0.563773  0.220862  1
  W  W11  1  0.206347  0.936375  0.531281  1
  W  W12  1  0.206347  0.936375  0.032343  1
  W  W13  1  0.206563  0.563773  0.715365  1
  O  O14  1  0.855128  0.250066  0.374246  1
  O  O15  1  0.855128  0.250066  0.875688  1
  O  O16  1  0.801565  0.066950  0.216525  1
  O  O17  1  0.797762  0.061398  0.719301  1
  O  O18  1  0.796135  0.436964  0.531517  1
  O  O19  1  0.803165  0.434928  0.032536  1
  O  O20  1  0.723511  0.615917  0.187918  1
  O  O21  1  0.723511  0.615917  0.696166  1
  O  O22  1  0.723570  0.883996  0.560433  1
  O  O23  1  0.723570  0.883996  0.055572  1
  O  O24  1  0.590541  0.378259  0.311339  1
  O  O25  1  0.575168  0.750202  0.874898  1
  O  O26  1  0.570803  0.749761  0.375119  1
  O  O27  1  0.590481  0.121786  0.438873  1
  O  O28  1  0.590481  0.121786  0.939341  1
  O  O29  1  0.590541  0.378259  0.810402  1
  O  O30  1  0.429197  0.250239  0.624881  1
  O  O31  1  0.424832  0.249797  0.125102  1
  O  O32  1  0.409459  0.621741  0.688661  1
  O  O33  1  0.409519  0.878214  0.561127  1
  O  O34  1  0.409459  0.621741  0.189598  1
  O  O35  1  0.409519  0.878214  0.060659  1
  O  O36  1  0.276430  0.116004  0.439567  1
  O  O37  1  0.276489  0.384083  0.303834  1
  O  O38  1  0.276430  0.116004  0.944428  1
  O  O39  1  0.276489  0.384083  0.812082  1
  O  O40  1  0.202238  0.938602  0.280699  1
  O  O41  1  0.196835  0.565072  0.967464  1
  O  O42  1  0.203865  0.563036  0.468483  1
  O  O43  1  0.198435  0.933050  0.783475  1
  O  O44  1  0.144872  0.749934  0.124312  1
  O  O45  1  0.144872  0.749934  0.625754  1
  O  O46  1  0.000000  0.000000  0.500000  1
  O  O47  1  0.000000  0.500000  0.753541  1
  O  O48  1  0.000000  0.000000  0.000000  1
  O  O49  1  0.000000  0.500000  0.246459  1
