# generated using pymatgen
data_Li5Mn6(BO3)6
_symmetry_space_group_name_H-M   'P 1'
_cell_length_a   5.94490390
_cell_length_b   5.26948433
_cell_length_c   12.37565678
_cell_angle_alpha   78.76403172
_cell_angle_beta   91.41497347
_cell_angle_gamma   89.91116398
_symmetry_Int_Tables_number   1
_chemical_formula_structural   Li5Mn6(BO3)6
_chemical_formula_sum   'Li5 Mn6 B6 O18'
_cell_volume   380.13223848
_cell_formula_units_Z   1
loop_
 _symmetry_equiv_pos_site_id
 _symmetry_equiv_pos_as_xyz
  1  'x, y, z'
loop_
 _atom_site_type_symbol
 _atom_site_label
 _atom_site_symmetry_multiplicity
 _atom_site_fract_x
 _atom_site_fract_y
 _atom_site_fract_z
 _atom_site_occupancy
  Li  Li0  1  0.195747  0.103413  0.478696  1
  Li  Li1  1  0.469132  0.226822  0.853448  1
  Li  Li2  1  0.514818  0.765071  0.149090  1
  Li  Li3  1  0.799826  0.893677  0.515974  1
  Li  Li4  1  0.862946  0.440431  0.814275  1
  Mn  Mn5  1  0.041670  0.969712  0.720139  1
  Mn  Mn6  1  0.286516  0.698276  0.952510  1
  Mn  Mn7  1  0.362138  0.624867  0.380876  1
  Mn  Mn8  1  0.622834  0.362156  0.613649  1
  Mn  Mn9  1  0.707566  0.304968  0.053282  1
  Mn  Mn10  1  0.971581  0.039152  0.273065  1
  B  B11  1  0.133622  0.529321  0.602413  1
  B  B12  1  0.198093  0.144032  0.060234  1
  B  B13  1  0.478526  0.190666  0.270869  1
  B  B14  1  0.530421  0.803257  0.730922  1
  B  B15  1  0.798995  0.861438  0.936746  1
  B  B16  1  0.863309  0.474368  0.399908  1
  O  O17  1  0.015955  0.645035  0.341397  1
  O  O18  1  0.037586  0.253209  0.117065  1
  O  O19  1  0.116666  0.795466  0.585221  1
  O  O20  1  0.222414  0.882288  0.077452  1
  O  O21  1  0.283290  0.410407  0.541483  1
  O  O22  1  0.330526  0.035621  0.341481  1
  O  O23  1  0.343221  0.304498  0.988728  1
  O  O24  1  0.381432  0.920122  0.792748  1
  O  O25  1  0.480617  0.454514  0.259498  1
  O  O26  1  0.548116  0.537330  0.747718  1
  O  O27  1  0.624558  0.070531  0.208474  1
  O  O28  1  0.657937  0.704445  0.009303  1
  O  O29  1  0.667754  0.959676  0.655199  1
  O  O30  1  0.694806  0.585820  0.455505  1
  O  O31  1  0.782233  0.127517  0.918083  1
  O  O32  1  0.885246  0.210129  0.412888  1
  O  O33  1  0.952287  0.744113  0.876465  1
  O  O34  1  0.994554  0.373232  0.676773  1
