# generated using pymatgen
data_KGd2CuSe4
_symmetry_space_group_name_H-M   'P 1'
_cell_length_a   4.16606580
_cell_length_b   7.40558066
_cell_length_c   14.50608154
_cell_angle_alpha   90.00000000
_cell_angle_beta   90.00000000
_cell_angle_gamma   73.66346125
_symmetry_Int_Tables_number   1
_chemical_formula_structural   KGd2CuSe4
_chemical_formula_sum   'K2 Gd4 Cu2 Se8'
_cell_volume   429.47452875
_cell_formula_units_Z   2
loop_
 _symmetry_equiv_pos_site_id
 _symmetry_equiv_pos_as_xyz
  1  'x, y, z'
loop_
 _atom_site_type_symbol
 _atom_site_label
 _atom_site_symmetry_multiplicity
 _atom_site_fract_x
 _atom_site_fract_y
 _atom_site_fract_z
 _atom_site_occupancy
  K  K0  1  0.611366  0.777266  0.250000  1
  K  K1  1  0.388632  0.222734  0.750000  1
  Gd  Gd2  1  0.865415  0.269166  0.064411  1
  Gd  Gd3  1  0.865415  0.269166  0.435589  1
  Gd  Gd4  1  0.134583  0.730835  0.564411  1
  Gd  Gd5  1  0.134583  0.730835  0.935589  1
  Cu  Cu6  1  0.339956  0.320087  0.250000  1
  Cu  Cu7  1  0.660042  0.679912  0.750000  1
  Se  Se8  1  0.499999  0.000000  0.000000  1
  Se  Se9  1  0.234455  0.531089  0.113243  1
  Se  Se10  1  0.935331  0.129334  0.250000  1
  Se  Se11  1  0.234455  0.531089  0.386757  1
  Se  Se12  1  0.499999  0.000000  0.500000  1
  Se  Se13  1  0.765543  0.468910  0.613242  1
  Se  Se14  1  0.064667  0.870665  0.750000  1
  Se  Se15  1  0.765543  0.468910  0.886758  1
