# generated using pymatgen
data_FeTe(PO4)2
_symmetry_space_group_name_H-M   'P 1'
_cell_length_a   10.04431543
_cell_length_b   6.67741239
_cell_length_c   4.96481727
_cell_angle_alpha   90.00000000
_cell_angle_beta   95.95126755
_cell_angle_gamma   90.00000000
_symmetry_Int_Tables_number   1
_chemical_formula_structural   FeTe(PO4)2
_chemical_formula_sum   'Fe2 Te2 P4 O16'
_cell_volume   331.19580260
_cell_formula_units_Z   2
loop_
 _symmetry_equiv_pos_site_id
 _symmetry_equiv_pos_as_xyz
  1  'x, y, z'
loop_
 _atom_site_type_symbol
 _atom_site_label
 _atom_site_symmetry_multiplicity
 _atom_site_fract_x
 _atom_site_fract_y
 _atom_site_fract_z
 _atom_site_occupancy
  Fe  Fe0  1  0.264495  0.250000  0.973066  1
  Fe  Fe1  1  0.735505  0.750000  0.026934  1
  Te  Te2  1  0.212435  0.750000  0.457155  1
  Te  Te3  1  0.787565  0.250000  0.542845  1
  P  P4  1  0.095045  0.250000  0.390690  1
  P  P5  1  0.405036  0.750000  0.912000  1
  P  P6  1  0.594964  0.250000  0.088000  1
  P  P7  1  0.904955  0.750000  0.609310  1
  O  O8  1  0.058830  0.750000  0.713606  1
  O  O9  1  0.107578  0.250000  0.698352  1
  O  O10  1  0.164917  0.067061  0.267360  1
  O  O11  1  0.164917  0.432939  0.267360  1
  O  O12  1  0.323389  0.927903  0.749899  1
  O  O13  1  0.323389  0.572097  0.749899  1
  O  O14  1  0.389113  0.750000  0.214998  1
  O  O15  1  0.449790  0.250000  0.143031  1
  O  O16  1  0.550210  0.750000  0.856969  1
  O  O17  1  0.610887  0.250000  0.785002  1
  O  O18  1  0.676611  0.072097  0.250101  1
  O  O19  1  0.676611  0.427903  0.250101  1
  O  O20  1  0.835083  0.567061  0.732640  1
  O  O21  1  0.835083  0.932939  0.732640  1
  O  O22  1  0.892422  0.750000  0.301648  1
  O  O23  1  0.941170  0.250000  0.286394  1
