# generated using pymatgen
data_Li3V3P8O29
_symmetry_space_group_name_H-M   'P 1'
_cell_length_a   9.79302219
_cell_length_b   9.74019435
_cell_length_c   14.34304805
_cell_angle_alpha   90.24242861
_cell_angle_beta   90.27068451
_cell_angle_gamma   60.00726443
_symmetry_Int_Tables_number   1
_chemical_formula_structural   Li3V3P8O29
_chemical_formula_sum   'Li6 V6 P16 O58'
_cell_volume   1184.90183997
_cell_formula_units_Z   2
loop_
 _symmetry_equiv_pos_site_id
 _symmetry_equiv_pos_as_xyz
  1  'x, y, z'
loop_
 _atom_site_type_symbol
 _atom_site_label
 _atom_site_symmetry_multiplicity
 _atom_site_fract_x
 _atom_site_fract_y
 _atom_site_fract_z
 _atom_site_occupancy
  Li  Li0  1  0.921401  0.294455  0.549837  1
  Li  Li1  1  0.326819  0.902864  0.059225  1
  Li  Li2  1  0.313644  0.774345  0.555950  1
  Li  Li3  1  0.082228  0.694261  0.438514  1
  Li  Li4  1  0.087842  0.230077  0.946833  1
  Li  Li5  1  0.942254  0.978748  0.998185  1
  V  V6  1  0.569587  0.433276  0.245609  1
  V  V7  1  0.436857  0.559488  0.759624  1
  V  V8  1  0.567752  0.002859  0.745747  1
  V  V9  1  0.438257  0.000943  0.256114  1
  V  V10  1  0.993914  0.571210  0.242615  1
  V  V11  1  0.000392  0.438041  0.751617  1
  P  P12  1  0.913869  0.783207  0.836227  1
  P  P13  1  0.775490  0.914997  0.344315  1
  P  P14  1  0.910617  0.318930  0.336976  1
  P  P15  1  0.661297  0.669291  0.130927  1
  P  P16  1  0.664413  0.664113  0.635231  1
  P  P17  1  0.782404  0.301839  0.844052  1
  P  P18  1  0.686927  0.229504  0.660278  1
  P  P19  1  0.317603  0.916132  0.841353  1
  P  P20  1  0.691757  0.081460  0.161621  1
  P  P21  1  0.320900  0.768716  0.341735  1
  P  P22  1  0.222540  0.695332  0.161048  1
  P  P23  1  0.329226  0.343922  0.365235  1
  P  P24  1  0.332504  0.328087  0.867359  1
  P  P25  1  0.094835  0.679509  0.658036  1
  P  P26  1  0.226255  0.087417  0.660792  1
  P  P27  1  0.093418  0.222502  0.160201  1
  O  O28  1  0.022580  0.740299  0.565587  1
  O  O29  1  0.918458  0.742200  0.335057  1
  O  O30  1  0.783292  0.002047  0.077497  1
  O  O31  1  0.739983  0.917347  0.827191  1
  O  O32  1  0.919247  0.619795  0.826369  1
  O  O33  1  0.811204  0.672104  0.172848  1
  O  O34  1  0.902292  0.479241  0.315155  1
  O  O35  1  0.019817  0.216664  0.070366  1
  O  O36  1  0.917783  0.343272  0.836102  1
  O  O37  1  0.660265  0.815712  0.676728  1
  O  O38  1  0.621492  0.905632  0.323458  1
  O  O39  1  0.818768  0.518788  0.678992  1
  O  O40  1  0.657904  0.668716  0.027496  1
  O  O41  1  0.666267  0.656512  0.531963  1
  O  O42  1  0.670210  0.517407  0.175599  1
  O  O43  1  0.473463  0.914419  0.824679  1
  O  O44  1  0.510787  0.815013  0.173244  1
  O  O45  1  0.742848  0.341302  0.328000  1
  O  O46  1  0.797613  0.204553  0.750125  1
  O  O47  1  0.765627  0.240560  0.575542  1
  O  O48  1  0.805632  0.204187  0.927493  1
  O  O49  1  0.619798  0.460189  0.833035  1
  O  O50  1  0.520805  0.659436  0.679590  1
  O  O51  1  0.650738  0.257822  0.168697  1
  O  O52  1  0.479472  0.618270  0.321857  1
  O  O53  1  0.344387  0.914468  0.334044  1
  O  O54  1  0.795349  0.000909  0.253693  1
  O  O55  1  0.772203  0.994637  0.432148  1
  O  O56  1  0.229925  0.991908  0.579116  1
  O  O57  1  0.657288  0.087313  0.665098  1
  O  O58  1  0.526129  0.381281  0.682920  1
  O  O59  1  0.346260  0.744293  0.833600  1
  O  O60  1  0.470177  0.349470  0.317820  1
  O  O61  1  0.383545  0.541020  0.167008  1
  O  O62  1  0.202206  0.803830  0.082556  1
  O  O63  1  0.247091  0.760893  0.431506  1
  O  O64  1  0.201385  0.788463  0.259178  1
  O  O65  1  0.262326  0.658933  0.667321  1
  O  O66  1  0.480407  0.187657  0.820799  1
  O  O67  1  0.536700  0.076588  0.174221  1
  O  O68  1  0.327878  0.482023  0.826303  1
  O  O69  1  0.324672  0.325312  0.970415  1
  O  O70  1  0.329769  0.344585  0.468507  1
  O  O71  1  0.175554  0.489036  0.324971  1
  O  O72  1  0.379980  0.094190  0.675085  1
  O  O73  1  0.339637  0.187915  0.320883  1
  O  O74  1  0.086398  0.656603  0.165257  1
  O  O75  1  0.994963  0.797493  0.741201  1
  O  O76  1  0.992989  0.800708  0.919363  1
  O  O77  1  0.101684  0.519449  0.682522  1
  O  O78  1  0.183609  0.323803  0.825310  1
  O  O79  1  0.092486  0.382038  0.174108  1
  O  O80  1  0.264553  0.080291  0.166084  1
  O  O81  1  0.238163  0.995090  0.931068  1
  O  O82  1  0.201893  0.011646  0.756235  1
  O  O83  1  0.080593  0.258295  0.660837  1
  O  O84  1  0.989169  0.249806  0.426921  1
  O  O85  1  0.005824  0.203907  0.249867  1
