# generated using pymatgen
data_Li3Al2CrO6
_symmetry_space_group_name_H-M   'P 1'
_cell_length_a   4.98485179
_cell_length_b   4.98485179
_cell_length_c   5.10231765
_cell_angle_alpha   80.54048345
_cell_angle_beta   99.45951655
_cell_angle_gamma   60.01688388
_symmetry_Int_Tables_number   1
_chemical_formula_structural   Li3Al2CrO6
_chemical_formula_sum   'Li3 Al2 Cr1 O6'
_cell_volume   103.71975392
_cell_formula_units_Z   1
loop_
 _symmetry_equiv_pos_site_id
 _symmetry_equiv_pos_as_xyz
  1  'x, y, z'
loop_
 _atom_site_type_symbol
 _atom_site_label
 _atom_site_symmetry_multiplicity
 _atom_site_fract_x
 _atom_site_fract_y
 _atom_site_fract_z
 _atom_site_occupancy
  Li  Li0  1  0.167564  0.167564  0.500000  1
  Li  Li1  1  0.500000  0.500000  0.500000  1
  Li  Li2  1  0.832436  0.832436  0.500000  1
  Al  Al3  1  0.333282  0.333282  0.000000  1
  Al  Al4  1  0.666718  0.666718  0.000000  1
  Cr  Cr5  1  0.000000  0.000000  0.000000  1
  O  O6  1  0.272628  0.727372  0.781844  1
  O  O7  1  0.419091  0.926788  0.216984  1
  O  O8  1  0.073212  0.580909  0.216984  1
  O  O9  1  0.926788  0.419091  0.783016  1
  O  O10  1  0.580909  0.073212  0.783016  1
  O  O11  1  0.727372  0.272628  0.218156  1
