# generated using pymatgen
data_Li2MnSiO4
_symmetry_space_group_name_H-M   'P 1'
_cell_length_a   6.35778745
_cell_length_b   5.49618054
_cell_length_c   5.05840860
_cell_angle_alpha   89.99934779
_cell_angle_beta   90.19035863
_cell_angle_gamma   90.00482276
_symmetry_Int_Tables_number   1
_chemical_formula_structural   Li2MnSiO4
_chemical_formula_sum   'Li4 Mn2 Si2 O8'
_cell_volume   176.75776597
_cell_formula_units_Z   2
loop_
 _symmetry_equiv_pos_site_id
 _symmetry_equiv_pos_as_xyz
  1  'x, y, z'
loop_
 _atom_site_type_symbol
 _atom_site_label
 _atom_site_symmetry_multiplicity
 _atom_site_fract_x
 _atom_site_fract_y
 _atom_site_fract_z
 _atom_site_occupancy
  Li  Li0  1  0.250517  0.315919  0.499122  1
  Li  Li1  1  0.498329  0.151267  0.999046  1
  Li  Li2  1  0.750447  0.683279  0.999185  1
  Li  Li3  1  0.998268  0.847949  0.499034  1
  Mn  Mn4  1  0.244536  0.666698  0.997548  1
  Mn  Mn5  1  0.744669  0.332432  0.497685  1
  Si  Si6  1  0.999131  0.169938  0.004624  1
  Si  Si7  1  0.499106  0.829255  0.504594  1
  O  O8  1  0.991903  0.887002  0.893950  1
  O  O9  1  0.214352  0.304856  0.891749  1
  O  O10  1  0.284414  0.678866  0.410034  1
  O  O11  1  0.505965  0.827162  0.831421  1
  O  O12  1  0.491981  0.112216  0.393948  1
  O  O13  1  0.714317  0.694292  0.391769  1
  O  O14  1  0.784496  0.320379  0.910091  1
  O  O15  1  0.006016  0.172043  0.331424  1
