# generated using pymatgen
data_Li3V2(PO4)3
_symmetry_space_group_name_H-M   'P 1'
_cell_length_a   9.03830173
_cell_length_b   8.48471603
_cell_length_c   8.48471611
_cell_angle_alpha   120.00000123
_cell_angle_beta   89.99999821
_cell_angle_gamma   62.00623108
_symmetry_Int_Tables_number   1
_chemical_formula_structural   Li3V2(PO4)3
_chemical_formula_sum   'Li6 V4 P6 O24'
_cell_volume   473.55556520
_cell_formula_units_Z   2
loop_
 _symmetry_equiv_pos_site_id
 _symmetry_equiv_pos_as_xyz
  1  'x, y, z'
loop_
 _atom_site_type_symbol
 _atom_site_label
 _atom_site_symmetry_multiplicity
 _atom_site_fract_x
 _atom_site_fract_y
 _atom_site_fract_z
 _atom_site_occupancy
  Li  Li0  1  0.147291  0.186571  0.919843  1
  Li  Li1  1  0.147291  0.585981  0.666138  1
  Li  Li2  1  0.147291  0.932865  0.266728  1
  Li  Li3  1  0.852709  0.067135  0.733272  1
  Li  Li4  1  0.852709  0.414019  0.333862  1
  Li  Li5  1  0.852709  0.813429  0.080157  1
  V  V6  1  0.051125  0.299250  0.649625  1
  V  V7  1  0.565493  0.289672  0.144835  1
  V  V8  1  0.434507  0.710328  0.855165  1
  V  V9  1  0.948875  0.700750  0.350375  1
  P  P10  1  0.249607  0.208677  0.247538  1
  P  P11  1  0.249607  0.502856  0.961139  1
  P  P12  1  0.249607  0.789253  0.541715  1
  P  P13  1  0.750393  0.210747  0.458285  1
  P  P14  1  0.750393  0.497144  0.038861  1
  P  P15  1  0.750393  0.791323  0.752462  1
  O  O16  1  0.092153  0.364344  0.209960  1
  O  O17  1  0.197255  0.296643  0.462854  1
  O  O18  1  0.197255  0.339891  0.833788  1
  O  O19  1  0.092153  0.697887  0.154383  1
  O  O20  1  0.092153  0.753464  0.543503  1
  O  O21  1  0.416406  0.192550  0.188336  1
  O  O22  1  0.268010  0.607089  0.861638  1
  O  O23  1  0.416406  0.395258  0.004214  1
  O  O24  1  0.197255  0.968956  0.506102  1
  O  O25  1  0.268010  0.870352  0.745452  1
  O  O26  1  0.416406  0.579380  0.391043  1
  O  O27  1  0.268010  0.986539  0.124900  1
  O  O28  1  0.731990  0.013461  0.875100  1
  O  O29  1  0.583594  0.420620  0.608957  1
  O  O30  1  0.731990  0.129648  0.254548  1
  O  O31  1  0.802745  0.031044  0.493898  1
  O  O32  1  0.583594  0.604742  0.995786  1
  O  O33  1  0.731990  0.392911  0.138362  1
  O  O34  1  0.583594  0.807450  0.811664  1
  O  O35  1  0.907847  0.246536  0.456497  1
  O  O36  1  0.907847  0.302113  0.845617  1
  O  O37  1  0.802745  0.660109  0.166212  1
  O  O38  1  0.802745  0.703357  0.537146  1
  O  O39  1  0.907847  0.635656  0.790040  1
