# generated using pymatgen
data_Li3Ti2Cu3O10
_symmetry_space_group_name_H-M   'P 1'
_cell_length_a   5.13238266
_cell_length_b   5.31639139
_cell_length_c   7.72914542
_cell_angle_alpha   108.38343915
_cell_angle_beta   98.14914712
_cell_angle_gamma   104.26350281
_symmetry_Int_Tables_number   1
_chemical_formula_structural   Li3Ti2Cu3O10
_chemical_formula_sum   'Li3 Ti2 Cu3 O10'
_cell_volume   188.36090203
_cell_formula_units_Z   1
loop_
 _symmetry_equiv_pos_site_id
 _symmetry_equiv_pos_as_xyz
  1  'x, y, z'
loop_
 _atom_site_type_symbol
 _atom_site_label
 _atom_site_symmetry_multiplicity
 _atom_site_fract_x
 _atom_site_fract_y
 _atom_site_fract_z
 _atom_site_occupancy
  Li  Li0  1  0.207526  0.910339  0.385016  1
  Li  Li1  1  0.500000  0.500000  0.500000  1
  Li  Li2  1  0.792474  0.089661  0.614984  1
  Ti  Ti3  1  0.123380  0.698436  0.689631  1
  Ti  Ti4  1  0.876620  0.301564  0.310369  1
  Cu  Cu5  1  0.000000  0.500000  0.000000  1
  Cu  Cu6  1  0.703532  0.875510  0.908436  1
  Cu  Cu7  1  0.296468  0.124490  0.091564  1
  O  O8  1  0.047253  0.051417  0.843703  1
  O  O9  1  0.315237  0.735266  0.952011  1
  O  O10  1  0.100258  0.315162  0.531801  1
  O  O11  1  0.202073  0.478304  0.212137  1
  O  O12  1  0.470725  0.852294  0.663861  1
  O  O13  1  0.529275  0.147706  0.336139  1
  O  O14  1  0.797927  0.521696  0.787863  1
  O  O15  1  0.899742  0.684838  0.468199  1
  O  O16  1  0.684763  0.264734  0.047989  1
  O  O17  1  0.952747  0.948582  0.156297  1
