# generated using pymatgen
data_LiCo2OF5
_symmetry_space_group_name_H-M   'P 1'
_cell_length_a   4.56096423
_cell_length_b   16.90329911
_cell_length_c   4.99134114
_cell_angle_alpha   89.72634357
_cell_angle_beta   90.00000000
_cell_angle_gamma   90.00000000
_symmetry_Int_Tables_number   1
_chemical_formula_structural   LiCo2OF5
_chemical_formula_sum   'Li4 Co8 O4 F20'
_cell_volume   384.80476575
_cell_formula_units_Z   4
loop_
 _symmetry_equiv_pos_site_id
 _symmetry_equiv_pos_as_xyz
  1  'x, y, z'
loop_
 _atom_site_type_symbol
 _atom_site_label
 _atom_site_symmetry_multiplicity
 _atom_site_fract_x
 _atom_site_fract_y
 _atom_site_fract_z
 _atom_site_occupancy
  Li  Li0  1  0.983484  0.384560  0.255954  1
  Li  Li1  1  0.996442  0.615904  0.745987  1
  Li  Li2  1  0.516516  0.884560  0.255954  1
  Li  Li3  1  0.503558  0.115904  0.745987  1
  Co  Co4  1  0.022181  0.282492  0.778220  1
  Co  Co5  1  0.027080  0.059982  0.232218  1
  Co  Co6  1  0.012618  0.712132  0.242126  1
  Co  Co7  1  0.001014  0.950618  0.742699  1
  Co  Co8  1  0.487382  0.212132  0.242126  1
  Co  Co9  1  0.472920  0.559982  0.232218  1
  Co  Co10  1  0.477819  0.782492  0.778220  1
  Co  Co11  1  0.498986  0.450618  0.742699  1
  O  O12  1  0.255504  0.783383  0.073225  1
  O  O13  1  0.229078  0.630381  0.105054  1
  O  O14  1  0.270922  0.130381  0.105054  1
  O  O15  1  0.244496  0.283383  0.073225  1
  F  F16  1  0.226440  0.960026  0.072494  1
  F  F17  1  0.228347  0.038282  0.586141  1
  F  F18  1  0.266438  0.207280  0.564313  1
  F  F19  1  0.238868  0.376657  0.592394  1
  F  F20  1  0.261132  0.876657  0.592394  1
  F  F21  1  0.233562  0.707280  0.564313  1
  F  F22  1  0.273560  0.460026  0.072494  1
  F  F23  1  0.271653  0.538282  0.586141  1
  F  F24  1  0.721965  0.466731  0.423401  1
  F  F25  1  0.727993  0.534697  0.914770  1
  F  F26  1  0.757769  0.288088  0.423818  1
  F  F27  1  0.775283  0.704691  0.931647  1
  F  F28  1  0.730197  0.131025  0.408672  1
  F  F29  1  0.741994  0.873070  0.906870  1
  F  F30  1  0.758006  0.373070  0.906870  1
  F  F31  1  0.769803  0.631025  0.408672  1
  F  F32  1  0.742231  0.788088  0.423818  1
  F  F33  1  0.724717  0.204691  0.931647  1
  F  F34  1  0.772007  0.034697  0.914770  1
  F  F35  1  0.778035  0.966731  0.423401  1
