# generated using pymatgen
data_Ba2LiFe2N3
_symmetry_space_group_name_H-M   'P 1'
_cell_length_a   6.79779506
_cell_length_b   6.80630484
_cell_length_c   6.80630484
_cell_angle_alpha   119.47094384
_cell_angle_beta   90.84407168
_cell_angle_gamma   90.84407177
_symmetry_Int_Tables_number   1
_chemical_formula_structural   Ba2LiFe2N3
_chemical_formula_sum   'Ba4 Li2 Fe4 N6'
_cell_volume   274.04795843
_cell_formula_units_Z   2
loop_
 _symmetry_equiv_pos_site_id
 _symmetry_equiv_pos_as_xyz
  1  'x, y, z'
loop_
 _atom_site_type_symbol
 _atom_site_label
 _atom_site_symmetry_multiplicity
 _atom_site_fract_x
 _atom_site_fract_y
 _atom_site_fract_z
 _atom_site_occupancy
  Li  Li0  1  0.250000  0.807002  0.192998  1
  Li  Li1  1  0.750000  0.192998  0.807002  1
  N  N2  1  0.250000  0.396707  0.603293  1
  N  N3  1  0.750000  0.603293  0.396707  1
  N  N4  1  0.495501  0.007147  0.712027  1
  N  N5  1  0.995501  0.712027  0.007147  1
  N  N6  1  0.504499  0.992853  0.287973  1
  N  N7  1  0.004499  0.287973  0.992853  1
  Fe  Fe8  1  0.898748  0.567915  0.160804  1
  Fe  Fe9  1  0.101252  0.432085  0.839196  1
  Fe  Fe10  1  0.601252  0.839196  0.432085  1
  Fe  Fe11  1  0.398748  0.160804  0.567915  1
  Ba  Ba12  1  0.100646  0.826122  0.680718  1
  Ba  Ba13  1  0.399354  0.319282  0.173878  1
  Ba  Ba14  1  0.899354  0.173878  0.319282  1
  Ba  Ba15  1  0.600646  0.680718  0.826122  1
