# generated using pymatgen
data_LiCu2P3(HO5)2
_symmetry_space_group_name_H-M   'P 1'
_cell_length_a   8.37546916
_cell_length_b   7.54975915
_cell_length_c   7.54788467
_cell_angle_alpha   110.17720983
_cell_angle_beta   108.51540082
_cell_angle_gamma   75.63407501
_symmetry_Int_Tables_number   1
_chemical_formula_structural   LiCu2P3(HO5)2
_chemical_formula_sum   'Li2 Cu4 P6 H4 O20'
_cell_volume   419.61456636
_cell_formula_units_Z   2
loop_
 _symmetry_equiv_pos_site_id
 _symmetry_equiv_pos_as_xyz
  1  'x, y, z'
loop_
 _atom_site_type_symbol
 _atom_site_label
 _atom_site_symmetry_multiplicity
 _atom_site_fract_x
 _atom_site_fract_y
 _atom_site_fract_z
 _atom_site_occupancy
  Li  Li0  1  0.334280  0.301182  0.909457  1
  Li  Li1  1  0.665720  0.698818  0.090543  1
  Cu  Cu2  1  0.002433  0.699108  0.423768  1
  Cu  Cu3  1  0.406967  0.574191  0.629153  1
  Cu  Cu4  1  0.593033  0.425809  0.370847  1
  Cu  Cu5  1  0.997567  0.300892  0.576232  1
  P  P6  1  0.079557  0.704342  0.873141  1
  P  P7  1  0.288760  0.253476  0.282830  1
  P  P8  1  0.328410  0.831070  0.263308  1
  P  P9  1  0.671590  0.168931  0.736691  1
  P  P10  1  0.711240  0.746524  0.717170  1
  P  P11  1  0.920443  0.295658  0.126859  1
  H  H12  1  0.151284  0.015394  0.753210  1
  H  H13  1  0.246802  0.001697  0.605640  1
  H  H14  1  0.753198  0.998303  0.394360  1
  H  H15  1  0.848716  0.984606  0.246790  1
  O  O16  1  0.196485  0.098734  0.710584  1
  O  O17  1  0.126431  0.494070  0.853905  1
  O  O18  1  0.117372  0.223849  0.112358  1
  O  O19  1  0.109143  0.777234  0.724519  1
  O  O20  1  0.244256  0.408013  0.458101  1
  O  O21  1  0.350554  0.056233  0.334429  1
  O  O22  1  0.156081  0.832903  0.087997  1
  O  O23  1  0.525363  0.290709  0.814594  1
  O  O24  1  0.283670  0.800360  0.426522  1
  O  O25  1  0.414207  0.281603  0.189517  1
  O  O26  1  0.585793  0.718397  0.810483  1
  O  O27  1  0.716330  0.199640  0.573478  1
  O  O28  1  0.474637  0.709291  0.185406  1
  O  O29  1  0.843919  0.167097  0.912003  1
  O  O30  1  0.649446  0.943767  0.665571  1
  O  O31  1  0.755744  0.591987  0.541899  1
  O  O32  1  0.890857  0.222766  0.275481  1
  O  O33  1  0.882628  0.776151  0.887642  1
  O  O34  1  0.873569  0.505930  0.146095  1
  O  O35  1  0.803515  0.901266  0.289416  1
