# generated using pymatgen
data_LiMn3P3O11
_symmetry_space_group_name_H-M   'P 1'
_cell_length_a   10.12679991
_cell_length_b   9.84601177
_cell_length_c   10.13638049
_cell_angle_alpha   90.00000000
_cell_angle_beta   64.05359396
_cell_angle_gamma   90.00000000
_symmetry_Int_Tables_number   1
_chemical_formula_structural   LiMn3P3O11
_chemical_formula_sum   'Li4 Mn12 P12 O44'
_cell_volume   908.81098919
_cell_formula_units_Z   4
loop_
 _symmetry_equiv_pos_site_id
 _symmetry_equiv_pos_as_xyz
  1  'x, y, z'
loop_
 _atom_site_type_symbol
 _atom_site_label
 _atom_site_symmetry_multiplicity
 _atom_site_fract_x
 _atom_site_fract_y
 _atom_site_fract_z
 _atom_site_occupancy
  Li  Li0  1  0.034810  0.695258  0.615204  1
  Li  Li1  1  0.534810  0.804742  0.115204  1
  Li  Li2  1  0.465190  0.195258  0.884796  1
  Li  Li3  1  0.965190  0.304742  0.384796  1
  Mn  Mn4  1  0.131422  0.617367  0.151397  1
  Mn  Mn5  1  0.016989  0.860886  0.890450  1
  Mn  Mn6  1  0.186858  0.135086  0.729121  1
  Mn  Mn7  1  0.368578  0.117367  0.348603  1
  Mn  Mn8  1  0.313142  0.635086  0.770879  1
  Mn  Mn9  1  0.516989  0.639114  0.390450  1
  Mn  Mn10  1  0.483011  0.360886  0.609550  1
  Mn  Mn11  1  0.686858  0.364914  0.229121  1
  Mn  Mn12  1  0.631422  0.882633  0.651397  1
  Mn  Mn13  1  0.813142  0.864914  0.270879  1
  Mn  Mn14  1  0.983011  0.139114  0.109550  1
  Mn  Mn15  1  0.868578  0.382633  0.848603  1
  P  P16  1  0.140162  0.935389  0.260952  1
  P  P17  1  0.359838  0.435389  0.239048  1
  P  P18  1  0.200545  0.430435  0.559638  1
  P  P19  1  0.325531  0.845381  0.557219  1
  P  P20  1  0.174469  0.345381  0.942781  1
  P  P21  1  0.700545  0.069565  0.059638  1
  P  P22  1  0.299455  0.930435  0.940362  1
  P  P23  1  0.825531  0.654619  0.057219  1
  P  P24  1  0.674469  0.154619  0.442781  1
  P  P25  1  0.799455  0.569565  0.440362  1
  P  P26  1  0.640162  0.564611  0.760952  1
  P  P27  1  0.859838  0.064611  0.739048  1
  O  O28  1  0.136224  0.288002  0.096156  1
  O  O29  1  0.136203  0.783196  0.287209  1
  O  O30  1  0.282660  0.969053  0.100346  1
  O  O31  1  0.169378  0.029203  0.363453  1
  O  O32  1  0.994237  0.021741  0.764296  1
  O  O33  1  0.051651  0.489728  0.663191  1
  O  O34  1  0.330622  0.529203  0.136547  1
  O  O35  1  0.217340  0.469053  0.399654  1
  O  O36  1  0.363797  0.283196  0.212791  1
  O  O37  1  0.054419  0.287214  0.896760  1
  O  O38  1  0.221831  0.276124  0.559949  1
  O  O39  1  0.176713  0.783806  0.675328  1
  O  O40  1  0.363776  0.788002  0.403844  1
  O  O41  1  0.322955  0.002497  0.557291  1
  O  O42  1  0.171518  0.001377  0.917929  1
  O  O43  1  0.328482  0.501377  0.582071  1
  O  O44  1  0.494237  0.478259  0.264296  1
  O  O45  1  0.177045  0.502497  0.942709  1
  O  O46  1  0.551651  0.010272  0.163191  1
  O  O47  1  0.323287  0.283806  0.824672  1
  O  O48  1  0.554419  0.212786  0.396760  1
  O  O49  1  0.721831  0.223876  0.059949  1
  O  O50  1  0.278169  0.776124  0.940051  1
  O  O51  1  0.445581  0.787214  0.603240  1
  O  O52  1  0.676713  0.716194  0.175328  1
  O  O53  1  0.448349  0.989728  0.836809  1
  O  O54  1  0.822955  0.497503  0.057291  1
  O  O55  1  0.505763  0.521741  0.735704  1
  O  O56  1  0.671518  0.498623  0.417929  1
  O  O57  1  0.828482  0.998623  0.082071  1
  O  O58  1  0.677045  0.997503  0.442709  1
  O  O59  1  0.636224  0.211998  0.596156  1
  O  O60  1  0.823287  0.216194  0.324672  1
  O  O61  1  0.778169  0.723876  0.440051  1
  O  O62  1  0.945581  0.712786  0.103240  1
  O  O63  1  0.636203  0.716804  0.787209  1
  O  O64  1  0.782660  0.530947  0.600346  1
  O  O65  1  0.669378  0.470797  0.863453  1
  O  O66  1  0.948349  0.510272  0.336809  1
  O  O67  1  0.005763  0.978259  0.235704  1
  O  O68  1  0.830622  0.970797  0.636547  1
  O  O69  1  0.717340  0.030947  0.899654  1
  O  O70  1  0.863797  0.216804  0.712791  1
  O  O71  1  0.863776  0.711998  0.903844  1
