# generated using pymatgen
data_Mn8O13F3
_symmetry_space_group_name_H-M   'P 1'
_cell_length_a   4.51998968
_cell_length_b   11.07718352
_cell_length_c   5.00121104
_cell_angle_alpha   89.95180954
_cell_angle_beta   89.66195475
_cell_angle_gamma   89.25791148
_symmetry_Int_Tables_number   1
_chemical_formula_structural   Mn8O13F3
_chemical_formula_sum   'Mn8 O13 F3'
_cell_volume   250.37897758
_cell_formula_units_Z   1
loop_
 _symmetry_equiv_pos_site_id
 _symmetry_equiv_pos_as_xyz
  1  'x, y, z'
loop_
 _atom_site_type_symbol
 _atom_site_label
 _atom_site_symmetry_multiplicity
 _atom_site_fract_x
 _atom_site_fract_y
 _atom_site_fract_z
 _atom_site_occupancy
  Mn  Mn0  1  0.030612  0.424191  0.755861  1
  Mn  Mn1  1  0.010490  0.081803  0.256622  1
  Mn  Mn2  1  0.005298  0.573989  0.237615  1
  Mn  Mn3  1  0.000585  0.924665  0.735790  1
  Mn  Mn4  1  0.482038  0.816931  0.261177  1
  Mn  Mn5  1  0.496429  0.165459  0.758884  1
  Mn  Mn6  1  0.501925  0.323926  0.238968  1
  Mn  Mn7  1  0.485721  0.683737  0.760524  1
  O  O8  1  0.222032  0.052192  0.924780  1
  O  O9  1  0.238780  0.446003  0.417452  1
  O  O10  1  0.234774  0.560542  0.916234  1
  O  O11  1  0.228469  0.942336  0.417803  1
  O  O12  1  0.281903  0.196709  0.426230  1
  O  O13  1  0.286546  0.302900  0.920669  1
  O  O14  1  0.258496  0.695415  0.427587  1
  O  O15  1  0.256312  0.805523  0.927121  1
  O  O16  1  0.736734  0.193554  0.077497  1
  O  O17  1  0.722945  0.694845  0.079638  1
  O  O18  1  0.718824  0.805602  0.578758  1
  O  O19  1  0.771210  0.055403  0.576033  1
  O  O20  1  0.780919  0.444548  0.071814  1
  F  F21  1  0.745280  0.310838  0.574579  1
  F  F22  1  0.753596  0.561127  0.579540  1
  F  F23  1  0.750081  0.937762  0.078826  1
