# generated using pymatgen
data_Ca3Sn2S7
_symmetry_space_group_name_H-M   'P 1'
_cell_length_a   6.92868229
_cell_length_b   7.03252679
_cell_length_c   12.50822303
_cell_angle_alpha   106.32683078
_cell_angle_beta   90.00000000
_cell_angle_gamma   90.00000000
_symmetry_Int_Tables_number   1
_chemical_formula_structural   Ca3Sn2S7
_chemical_formula_sum   'Ca6 Sn4 S14'
_cell_volume   584.89953621
_cell_formula_units_Z   2
loop_
 _symmetry_equiv_pos_site_id
 _symmetry_equiv_pos_as_xyz
  1  'x, y, z'
loop_
 _atom_site_type_symbol
 _atom_site_label
 _atom_site_symmetry_multiplicity
 _atom_site_fract_x
 _atom_site_fract_y
 _atom_site_fract_z
 _atom_site_occupancy
  Ca  Ca0  1  0.250000  0.208857  0.000000  1
  Ca  Ca1  1  0.750000  0.791143  0.000000  1
  Ca  Ca2  1  0.250000  0.415569  0.374938  1
  Ca  Ca3  1  0.750000  0.959369  0.374938  1
  Ca  Ca4  1  0.750000  0.584431  0.625062  1
  Ca  Ca5  1  0.250000  0.040631  0.625062  1
  Sn  Sn6  1  0.250000  0.846627  0.206762  1
  Sn  Sn7  1  0.750000  0.360135  0.206762  1
  Sn  Sn8  1  0.750000  0.153373  0.793238  1
  Sn  Sn9  1  0.250000  0.639865  0.793238  1
  S  S10  1  0.250000  0.620684  0.000000  1
  S  S11  1  0.750000  0.379316  0.000000  1
  S  S12  1  0.250000  0.049942  0.407468  1
  S  S13  1  0.750000  0.357526  0.407468  1
  S  S14  1  0.750000  0.950058  0.592532  1
  S  S15  1  0.250000  0.642474  0.592532  1
  S  S16  1  0.500000  0.363083  0.726166  1
  S  S17  1  0.000000  0.363083  0.726166  1
  S  S18  1  0.500000  0.636917  0.273834  1
  S  S19  1  0.000000  0.636917  0.273834  1
  S  S20  1  0.000000  0.073226  0.146451  1
  S  S21  1  0.500000  0.073226  0.146451  1
  S  S22  1  0.000000  0.926774  0.853549  1
  S  S23  1  0.500000  0.926774  0.853549  1
