# generated using pymatgen
data_LiMnP2O7
_symmetry_space_group_name_H-M   'P 1'
_cell_length_a   9.82503996
_cell_length_b   9.74508483
_cell_length_c   11.16766296
_cell_angle_alpha   89.73506227
_cell_angle_beta   102.11590107
_cell_angle_gamma   90.42574808
_symmetry_Int_Tables_number   1
_chemical_formula_structural   LiMnP2O7
_chemical_formula_sum   'Li8 Mn8 P16 O56'
_cell_volume   1045.40567993
_cell_formula_units_Z   8
loop_
 _symmetry_equiv_pos_site_id
 _symmetry_equiv_pos_as_xyz
  1  'x, y, z'
loop_
 _atom_site_type_symbol
 _atom_site_label
 _atom_site_symmetry_multiplicity
 _atom_site_fract_x
 _atom_site_fract_y
 _atom_site_fract_z
 _atom_site_occupancy
  Li  Li0  1  0.086304  0.109233  0.023066  1
  Li  Li1  1  0.412294  0.591230  0.975996  1
  Li  Li2  1  0.340579  0.922302  0.464154  1
  Li  Li3  1  0.629610  0.048562  0.508934  1
  Li  Li4  1  0.644629  0.114097  0.042956  1
  Li  Li5  1  0.905907  0.891484  0.974647  1
  Li  Li6  1  0.848479  0.580311  0.468127  1
  Li  Li7  1  0.895837  0.282972  0.549138  1
  Mn  Mn8  1  0.203103  0.932006  0.673666  1
  Mn  Mn9  1  0.272648  0.228523  0.838502  1
  Mn  Mn10  1  0.227236  0.713100  0.169628  1
  Mn  Mn11  1  0.311021  0.423026  0.337833  1
  Mn  Mn12  1  0.702460  0.571797  0.675888  1
  Mn  Mn13  1  0.758343  0.288143  0.828051  1
  Mn  Mn14  1  0.716313  0.772677  0.164064  1
  Mn  Mn15  1  0.813646  0.073107  0.331726  1
  P  P16  1  0.022707  0.447149  0.753374  1
  P  P17  1  0.119374  0.714145  0.882885  1
  P  P18  1  0.063886  0.933517  0.243213  1
  P  P19  1  0.135462  0.154481  0.430493  1
  P  P20  1  0.381166  0.641033  0.571664  1
  P  P21  1  0.428238  0.418815  0.754340  1
  P  P22  1  0.523146  0.053620  0.755078  1
  P  P23  1  0.380693  0.211881  0.119527  1
  P  P24  1  0.613635  0.785052  0.882296  1
  P  P25  1  0.471432  0.940917  0.244656  1
  P  P26  1  0.566461  0.568802  0.244114  1
  P  P27  1  0.632160  0.347987  0.424646  1
  P  P28  1  0.882696  0.856828  0.577325  1
  P  P29  1  0.933636  0.075979  0.759934  1
  P  P30  1  0.883723  0.291580  0.114951  1
  P  P31  1  0.968484  0.563271  0.239729  1
  O  O32  1  0.014655  0.424730  0.620191  1
  O  O33  1  0.036736  0.852906  0.570824  1
  O  O34  1  0.079457  0.091544  0.732973  1
  O  O35  1  0.103004  0.344171  0.844532  1
  O  O36  1  0.097652  0.592645  0.783254  1
  O  O37  1  0.190838  0.828078  0.820397  1
  O  O38  1  0.227259  0.659426  0.997212  1
  O  O39  1  0.024025  0.259084  0.093714  1
  O  O40  1  0.129247  0.074700  0.301292  1
  O  O41  1  0.059365  0.938572  0.107681  1
  O  O42  1  0.114487  0.556786  0.202616  1
  O  O43  1  0.197954  0.292299  0.409663  1
  O  O44  1  0.166809  0.819669  0.301784  1
  O  O45  1  0.222698  0.058635  0.527603  1
  O  O46  1  0.297290  0.563163  0.461693  1
  O  O47  1  0.329147  0.301232  0.694427  1
  O  O48  1  0.327028  0.784428  0.585256  1
  O  O49  1  0.373519  0.044529  0.786518  1
  O  O50  1  0.365219  0.559883  0.694364  1
  O  O51  1  0.411457  0.417518  0.886893  1
  O  O52  1  0.475729  0.750224  0.909874  1
  O  O53  1  0.269086  0.164732  0.004129  1
  O  O54  1  0.320350  0.325662  0.186839  1
  O  O55  1  0.391444  0.083108  0.213034  1
  O  O56  1  0.418360  0.575128  0.272183  1
  O  O57  1  0.381881  0.833345  0.162714  1
  O  O58  1  0.523594  0.083401  0.624706  1
  O  O59  1  0.485933  0.332936  0.443321  1
  O  O60  1  0.539253  0.643487  0.570926  1
  O  O61  1  0.489341  0.926999  0.381070  1
  O  O62  1  0.613287  0.150207  0.852825  1
  O  O63  1  0.577752  0.408076  0.733388  1
  O  O64  1  0.596190  0.907224  0.782748  1
  O  O65  1  0.689914  0.674447  0.825166  1
  O  O66  1  0.716631  0.848616  0.998233  1
  O  O67  1  0.518593  0.235368  0.087894  1
  O  O68  1  0.570029  0.584987  0.110635  1
  O  O69  1  0.631415  0.423988  0.295125  1
  O  O70  1  0.614787  0.947694  0.201828  1
  O  O71  1  0.699460  0.206218  0.411917  1
  O  O72  1  0.670343  0.680861  0.310532  1
  O  O73  1  0.729932  0.434034  0.523272  1
  O  O74  1  0.794583  0.946244  0.474081  1
  O  O75  1  0.831563  0.189105  0.694742  1
  O  O76  1  0.823391  0.714240  0.587537  1
  O  O77  1  0.867407  0.456837  0.782643  1
  O  O78  1  0.923922  0.071453  0.893136  1
  O  O79  1  0.868481  0.932443  0.702483  1
  O  O80  1  0.982789  0.746392  0.911934  1
  O  O81  1  0.774716  0.335849  0.999381  1
  O  O82  1  0.809855  0.172902  0.175380  1
  O  O83  1  0.895417  0.414257  0.211138  1
  O  O84  1  0.877920  0.664192  0.149783  1
  O  O85  1  0.916725  0.920462  0.274870  1
  O  O86  1  0.984927  0.168382  0.444858  1
  O  O87  1  0.976359  0.586181  0.372178  1
