# generated using pymatgen
data_Fe13(SnO10)2
_symmetry_space_group_name_H-M   'P 1'
_cell_length_a   6.12827612
_cell_length_b   30.51737153
_cell_length_c   10.53495149
_cell_angle_alpha   29.86249097
_cell_angle_beta   54.86831534
_cell_angle_gamma   59.99784155
_symmetry_Int_Tables_number   1
_chemical_formula_structural   Fe13(SnO10)2
_chemical_formula_sum   'Fe26 Sn4 O40'
_cell_volume   802.30646185
_cell_formula_units_Z   2
loop_
 _symmetry_equiv_pos_site_id
 _symmetry_equiv_pos_as_xyz
  1  'x, y, z'
loop_
 _atom_site_type_symbol
 _atom_site_label
 _atom_site_symmetry_multiplicity
 _atom_site_fract_x
 _atom_site_fract_y
 _atom_site_fract_z
 _atom_site_occupancy
  Fe  Fe0  1  0.994718  0.001519  0.005064  1
  Fe  Fe1  1  0.255282  0.998481  0.244936  1
  Fe  Fe2  1  0.009051  0.200501  0.989600  1
  Fe  Fe3  1  0.125000  0.000000  0.625000  1
  Fe  Fe4  1  0.620442  0.104628  0.114864  1
  Fe  Fe5  1  0.249217  0.199509  0.247770  1
  Fe  Fe6  1  0.005881  0.399171  0.004757  1
  Fe  Fe7  1  0.115114  0.200714  0.628671  1
  Fe  Fe8  1  0.625000  0.000000  0.625000  1
  Fe  Fe9  1  0.608567  0.304929  0.122477  1
  Fe  Fe10  1  0.241912  0.397326  0.257613  1
  Fe  Fe11  1  0.008088  0.602674  0.992387  1
  Fe  Fe12  1  0.623494  0.202395  0.627254  1
  Fe  Fe13  1  0.637059  0.298310  0.624331  1
  Fe  Fe14  1  0.625000  0.500000  0.125000  1
  Fe  Fe15  1  0.244119  0.600829  0.245244  1
  Fe  Fe16  1  0.000783  0.800491  0.002230  1
  Fe  Fe17  1  0.631636  0.400507  0.617653  1
  Fe  Fe18  1  0.240949  0.799499  0.260400  1
  Fe  Fe19  1  0.625000  0.500000  0.625000  1
  Fe  Fe20  1  0.641433  0.695071  0.127523  1
  Fe  Fe21  1  0.618364  0.599493  0.632347  1
  Fe  Fe22  1  0.134886  0.799286  0.621329  1
  Fe  Fe23  1  0.612941  0.701690  0.625669  1
  Fe  Fe24  1  0.629558  0.895372  0.135136  1
  Fe  Fe25  1  0.626506  0.797605  0.622746  1
  Sn  Sn26  1  0.621702  0.098703  0.632455  1
  Sn  Sn27  1  0.127131  0.398694  0.625135  1
  Sn  Sn28  1  0.122869  0.601306  0.624865  1
  Sn  Sn29  1  0.628298  0.901297  0.617545  1
  O  O30  1  0.376394  0.093810  0.385538  1
  O  O31  1  0.411700  0.996746  0.868116  1
  O  O32  1  0.388874  0.200805  0.372855  1
  O  O33  1  0.390815  0.297753  0.370331  1
  O  O34  1  0.863684  0.089068  0.411561  1
  O  O35  1  0.383506  0.108340  0.842484  1
  O  O36  1  0.866361  0.994709  0.873432  1
  O  O37  1  0.860264  0.199559  0.376407  1
  O  O38  1  0.375130  0.397799  0.386027  1
  O  O39  1  0.405683  0.198672  0.877904  1
  O  O40  1  0.844652  0.105690  0.883522  1
  O  O41  1  0.881141  0.298748  0.381027  1
  O  O42  1  0.374141  0.303308  0.863302  1
  O  O43  1  0.370718  0.495241  0.380520  1
  O  O44  1  0.863579  0.398873  0.382845  1
  O  O45  1  0.853093  0.194052  0.885404  1
  O  O46  1  0.393740  0.399592  0.873515  1
  O  O47  1  0.375861  0.603604  0.370204  1
  O  O48  1  0.861592  0.305475  0.882145  1
  O  O49  1  0.388408  0.694525  0.367855  1
  O  O50  1  0.877598  0.496818  0.387302  1
  O  O51  1  0.372402  0.503182  0.862698  1
  O  O52  1  0.874139  0.396396  0.879796  1
  O  O53  1  0.856260  0.600408  0.376485  1
  O  O54  1  0.396907  0.805948  0.364596  1
  O  O55  1  0.386421  0.601127  0.867155  1
  O  O56  1  0.879282  0.504759  0.869480  1
  O  O57  1  0.875859  0.696692  0.386698  1
  O  O58  1  0.368859  0.701252  0.868973  1
  O  O59  1  0.405348  0.894310  0.366478  1
  O  O60  1  0.844317  0.801328  0.372096  1
  O  O61  1  0.874870  0.602201  0.863973  1
  O  O62  1  0.383639  0.005291  0.376568  1
  O  O63  1  0.389736  0.800441  0.873593  1
  O  O64  1  0.859185  0.702247  0.879669  1
  O  O65  1  0.866494  0.891660  0.407516  1
  O  O66  1  0.386316  0.910932  0.838439  1
  O  O67  1  0.861126  0.799195  0.877145  1
  O  O68  1  0.838300  0.003254  0.381884  1
  O  O69  1  0.873606  0.906190  0.864462  1
