# generated using pymatgen
data_Mn8O13F3
_symmetry_space_group_name_H-M   'P 1'
_cell_length_a   7.01113005
_cell_length_b   7.28511806
_cell_length_c   6.74005907
_cell_angle_alpha   64.10474169
_cell_angle_beta   65.72511286
_cell_angle_gamma   101.72399062
_symmetry_Int_Tables_number   1
_chemical_formula_structural   Mn8O13F3
_chemical_formula_sum   'Mn8 O13 F3'
_cell_volume   249.67817395
_cell_formula_units_Z   1
loop_
 _symmetry_equiv_pos_site_id
 _symmetry_equiv_pos_as_xyz
  1  'x, y, z'
loop_
 _atom_site_type_symbol
 _atom_site_label
 _atom_site_symmetry_multiplicity
 _atom_site_fract_x
 _atom_site_fract_y
 _atom_site_fract_z
 _atom_site_occupancy
  Mn  Mn0  1  0.298645  0.450660  0.247936  1
  Mn  Mn1  1  0.208877  0.062075  0.738480  1
  Mn  Mn2  1  0.193361  0.550795  0.768993  1
  Mn  Mn3  1  0.297863  0.949452  0.252181  1
  Mn  Mn4  1  0.696544  0.053432  0.754286  1
  Mn  Mn5  1  0.794369  0.434133  0.260578  1
  Mn  Mn6  1  0.793913  0.962018  0.251775  1
  Mn  Mn7  1  0.712566  0.572943  0.730582  1
  O  O8  1  0.627160  0.010660  0.084089  1
  O  O9  1  0.129681  0.522422  0.080893  1
  O  O10  1  0.040285  0.147285  0.574361  1
  O  O11  1  0.099894  0.211407  0.922292  1
  O  O12  1  0.463369  0.347296  0.418829  1
  O  O13  1  0.728682  0.122273  0.428575  1
  O  O14  1  0.267868  0.878680  0.583817  1
  O  O15  1  0.774553  0.383200  0.576081  1
  O  O16  1  0.536766  0.652559  0.577195  1
  O  O17  1  0.603807  0.713062  0.916365  1
  O  O18  1  0.962235  0.849688  0.412934  1
  O  O19  1  0.863276  0.474016  0.925474  1
  O  O20  1  0.363287  0.973481  0.923112  1
  F  F21  1  0.419601  0.299912  0.048007  1
  F  F22  1  0.218328  0.596826  0.451494  1
  F  F23  1  0.905072  0.781725  0.071669  1
