# generated using pymatgen
data_Li3Mn2(P2O7)2
_symmetry_space_group_name_H-M   'P 1'
_cell_length_a   9.86006280
_cell_length_b   9.86105016
_cell_length_c   11.37230242
_cell_angle_alpha   90.13759188
_cell_angle_beta   103.22206311
_cell_angle_gamma   89.57153402
_symmetry_Int_Tables_number   1
_chemical_formula_structural   Li3Mn2(P2O7)2
_chemical_formula_sum   'Li12 Mn8 P16 O56'
_cell_volume   1076.39306689
_cell_formula_units_Z   4
loop_
 _symmetry_equiv_pos_site_id
 _symmetry_equiv_pos_as_xyz
  1  'x, y, z'
loop_
 _atom_site_type_symbol
 _atom_site_label
 _atom_site_symmetry_multiplicity
 _atom_site_fract_x
 _atom_site_fract_y
 _atom_site_fract_z
 _atom_site_occupancy
  Li  Li0  1  0.115402  0.720583  0.448285  1
  Li  Li1  1  0.179798  0.412172  0.550628  1
  Li  Li2  1  0.088910  0.108310  0.025419  1
  Li  Li3  1  0.411314  0.608944  0.972920  1
  Li  Li4  1  0.350781  0.933708  0.471180  1
  Li  Li5  1  0.649602  0.064011  0.529757  1
  Li  Li6  1  0.587266  0.393817  0.031404  1
  Li  Li7  1  0.853797  0.589982  0.956662  1
  Li  Li8  1  0.647915  0.089554  0.042449  1
  Li  Li9  1  0.913520  0.894196  0.970547  1
  Li  Li10  1  0.817851  0.587347  0.448016  1
  Li  Li11  1  0.884556  0.279396  0.551159  1
  Mn  Mn12  1  0.201557  0.925001  0.674883  1
  Mn  Mn13  1  0.259182  0.214907  0.825272  1
  Mn  Mn14  1  0.246474  0.712941  0.175018  1
  Mn  Mn15  1  0.298092  0.421469  0.325064  1
  Mn  Mn16  1  0.703325  0.579535  0.673330  1
  Mn  Mn17  1  0.754483  0.284680  0.824742  1
  Mn  Mn18  1  0.741440  0.783175  0.174259  1
  Mn  Mn19  1  0.796236  0.074994  0.326107  1
  P  P20  1  0.026746  0.450055  0.755464  1
  P  P21  1  0.120117  0.709841  0.886813  1
  P  P22  1  0.061141  0.930720  0.241829  1
  P  P23  1  0.121875  0.148153  0.426152  1
  P  P24  1  0.378278  0.645984  0.574890  1
  P  P25  1  0.438370  0.431215  0.759364  1
  P  P26  1  0.521648  0.048845  0.755911  1
  P  P27  1  0.380041  0.209989  0.110606  1
  P  P28  1  0.616664  0.792529  0.891639  1
  P  P29  1  0.476012  0.950761  0.246613  1
  P  P30  1  0.562363  0.570078  0.242504  1
  P  P31  1  0.619665  0.352379  0.421182  1
  P  P32  1  0.879023  0.850719  0.576689  1
  P  P33  1  0.938114  0.070428  0.756549  1
  P  P34  1  0.882752  0.292016  0.110591  1
  P  P35  1  0.977839  0.546361  0.243544  1
  O  O36  1  0.020458  0.418902  0.623615  1
  O  O37  1  0.033071  0.838994  0.564461  1
  O  O38  1  0.084221  0.089093  0.730376  1
  O  O39  1  0.111780  0.346652  0.844776  1
  O  O40  1  0.102711  0.593044  0.781871  1
  O  O41  1  0.175655  0.829878  0.827816  1
  O  O42  1  0.228239  0.653938  0.997829  1
  O  O43  1  0.019742  0.265374  0.080680  1
  O  O44  1  0.117202  0.076535  0.296668  1
  O  O45  1  0.063547  0.935879  0.109656  1
  O  O46  1  0.132721  0.536131  0.225547  1
  O  O47  1  0.182168  0.288975  0.415506  1
  O  O48  1  0.166009  0.821400  0.307600  1
  O  O49  1  0.212380  0.055090  0.521214  1
  O  O50  1  0.276599  0.560820  0.478933  1
  O  O51  1  0.328213  0.324883  0.698223  1
  O  O52  1  0.313672  0.787946  0.580273  1
  O  O53  1  0.367283  0.043324  0.778457  1
  O  O54  1  0.376835  0.576224  0.703811  1
  O  O55  1  0.441627  0.437453  0.892531  1
  O  O56  1  0.480556  0.766965  0.922901  1
  O  O57  1  0.271313  0.156109  0.998154  1
  O  O58  1  0.324020  0.330941  0.169683  1
  O  O59  1  0.396064  0.093137  0.212766  1
  O  O60  1  0.417148  0.586221  0.272147  1
  O  O61  1  0.395540  0.845517  0.158000  1
  O  O62  1  0.522017  0.080132  0.627406  1
  O  O63  1  0.467020  0.350312  0.432563  1
  O  O64  1  0.527885  0.650673  0.561891  1
  O  O65  1  0.483294  0.929984  0.378324  1
  O  O66  1  0.606660  0.141428  0.855092  1
  O  O67  1  0.582325  0.412797  0.728434  1
  O  O68  1  0.589689  0.899823  0.779648  1
  O  O69  1  0.688824  0.672305  0.843095  1
  O  O70  1  0.723319  0.863100  0.998542  1
  O  O71  1  0.519795  0.227303  0.079280  1
  O  O72  1  0.560986  0.564922  0.109370  1
  O  O73  1  0.621552  0.421296  0.293287  1
  O  O74  1  0.625170  0.964434  0.216822  1
  O  O75  1  0.680056  0.208667  0.416245  1
  O  O76  1  0.671121  0.672734  0.307326  1
  O  O77  1  0.720191  0.434934  0.518149  1
  O  O78  1  0.788737  0.941533  0.481268  1
  O  O79  1  0.833896  0.177171  0.687797  1
  O  O80  1  0.822772  0.708175  0.587162  1
  O  O81  1  0.877590  0.464651  0.783050  1
  O  O82  1  0.933721  0.066803  0.888631  1
  O  O83  1  0.883173  0.922165  0.705658  1
  O  O84  1  0.980015  0.728099  0.917915  1
  O  O85  1  0.777177  0.364013  0.004058  1
  O  O86  1  0.810930  0.172417  0.158853  1
  O  O87  1  0.908425  0.399545  0.224508  1
  O  O88  1  0.893955  0.639574  0.144052  1
  O  O89  1  0.915616  0.911420  0.269247  1
  O  O90  1  0.969572  0.161492  0.439082  1
  O  O91  1  0.975065  0.587105  0.371575  1
