# generated using pymatgen
data_InC6(NCl3)2
_symmetry_space_group_name_H-M   'P 1'
_cell_length_a   17.12381957
_cell_length_b   17.12381957
_cell_length_c   17.12381957
_cell_angle_alpha   101.10584107
_cell_angle_beta   101.10584107
_cell_angle_gamma   127.93419232
_symmetry_Int_Tables_number   1
_chemical_formula_structural   InC6(NCl3)2
_chemical_formula_sum   'In8 C48 N16 Cl48'
_cell_volume   3558.45749575
_cell_formula_units_Z   8
loop_
 _symmetry_equiv_pos_site_id
 _symmetry_equiv_pos_as_xyz
  1  'x, y, z'
loop_
 _atom_site_type_symbol
 _atom_site_label
 _atom_site_symmetry_multiplicity
 _atom_site_fract_x
 _atom_site_fract_y
 _atom_site_fract_z
 _atom_site_occupancy
  In  In0  1  0.500000  0.000000  0.000000  1
  In  In1  1  0.000000  0.000000  0.500000  1
  In  In2  1  0.500000  0.000000  0.500000  1
  In  In3  1  0.000000  0.500000  0.500000  1
  In  In4  1  0.000000  0.500000  0.000000  1
  In  In5  1  0.500000  0.500000  0.500000  1
  In  In6  1  0.500000  0.500000  0.000000  1
  In  In7  1  0.000000  0.000000  0.000000  1
  C  C8  1  0.896109  0.216879  0.569452  1
  C  C9  1  0.396109  0.826657  0.679230  1
  C  C10  1  0.716879  0.396109  0.069452  1
  C  C11  1  0.216879  0.147427  0.320770  1
  C  C12  1  0.103891  0.783121  0.430548  1
  C  C13  1  0.603891  0.173343  0.320770  1
  C  C14  1  0.283121  0.603891  0.930548  1
  C  C15  1  0.783121  0.852573  0.679230  1
  C  C16  1  0.647427  0.716879  0.820770  1
  C  C17  1  0.147427  0.326657  0.930548  1
  C  C18  1  0.326657  0.896109  0.179230  1
  C  C19  1  0.826657  0.647427  0.430548  1
  C  C20  1  0.352573  0.283121  0.179230  1
  C  C21  1  0.852573  0.673343  0.069452  1
  C  C22  1  0.673343  0.103891  0.820770  1
  C  C23  1  0.173343  0.352573  0.569452  1
  C  C24  1  0.756972  0.016303  0.490119  1
  C  C25  1  0.256972  0.766853  0.740669  1
  C  C26  1  0.516303  0.256972  0.990119  1
  C  C27  1  0.016303  0.026185  0.259331  1
  C  C28  1  0.243028  0.983697  0.509881  1
  C  C29  1  0.743028  0.233147  0.259331  1
  C  C30  1  0.483697  0.743028  0.009881  1
  C  C31  1  0.983697  0.973815  0.740669  1
  C  C32  1  0.526185  0.516303  0.759331  1
  C  C33  1  0.026185  0.266853  0.009881  1
  C  C34  1  0.266853  0.756972  0.240669  1
  C  C35  1  0.766853  0.526185  0.509881  1
  C  C36  1  0.473815  0.483697  0.240669  1
  C  C37  1  0.973815  0.733147  0.990119  1
  C  C38  1  0.733147  0.243028  0.759331  1
  C  C39  1  0.233147  0.473815  0.490119  1
  C  C40  1  0.965685  0.314976  0.605385  1
  C  C41  1  0.465685  0.860300  0.650709  1
  C  C42  1  0.814976  0.465685  0.105385  1
  C  C43  1  0.314976  0.209591  0.349291  1
  C  C44  1  0.034315  0.685024  0.394615  1
  C  C45  1  0.534315  0.139700  0.349291  1
  C  C46  1  0.185024  0.534315  0.894615  1
  C  C47  1  0.685024  0.790409  0.650709  1
  C  C48  1  0.709591  0.814976  0.849291  1
  C  C49  1  0.209591  0.360300  0.894615  1
  C  C50  1  0.360300  0.965685  0.150709  1
  C  C51  1  0.860300  0.709591  0.394615  1
  C  C52  1  0.290409  0.185024  0.150709  1
  C  C53  1  0.790409  0.639700  0.105385  1
  C  C54  1  0.639700  0.034315  0.849291  1
  C  C55  1  0.139700  0.290409  0.605385  1
  N  N56  1  0.823978  0.112313  0.529772  1
  N  N57  1  0.323978  0.794206  0.711665  1
  N  N58  1  0.612313  0.323978  0.029772  1
  N  N59  1  0.112313  0.082541  0.288335  1
  N  N60  1  0.176022  0.887687  0.470228  1
  N  N61  1  0.676022  0.205794  0.288335  1
  N  N62  1  0.387687  0.676022  0.970228  1
  N  N63  1  0.887687  0.917459  0.711665  1
  N  N64  1  0.582541  0.612313  0.788335  1
  N  N65  1  0.082541  0.294206  0.970228  1
  N  N66  1  0.294206  0.823978  0.211665  1
  N  N67  1  0.794206  0.582541  0.470228  1
  N  N68  1  0.417459  0.387687  0.211665  1
  N  N69  1  0.917459  0.705794  0.029772  1
  N  N70  1  0.705794  0.176022  0.788335  1
  N  N71  1  0.205794  0.417459  0.529772  1
  Cl  Cl72  1  0.557220  0.950228  0.109002  1
  Cl  Cl73  1  0.057220  0.948218  0.606992  1
  Cl  Cl74  1  0.450228  0.057220  0.609002  1
  Cl  Cl75  1  0.950228  0.341226  0.393008  1
  Cl  Cl76  1  0.442780  0.049772  0.890998  1
  Cl  Cl77  1  0.942780  0.051782  0.393008  1
  Cl  Cl78  1  0.549772  0.942780  0.390998  1
  Cl  Cl79  1  0.049772  0.658774  0.606992  1
  Cl  Cl80  1  0.841226  0.450228  0.893008  1
  Cl  Cl81  1  0.341226  0.448218  0.390998  1
  Cl  Cl82  1  0.448218  0.557220  0.106992  1
  Cl  Cl83  1  0.948218  0.841226  0.890998  1
  Cl  Cl84  1  0.158774  0.549772  0.106992  1
  Cl  Cl85  1  0.658774  0.551782  0.609002  1
  Cl  Cl86  1  0.551782  0.442780  0.893008  1
  Cl  Cl87  1  0.051782  0.158774  0.109002  1
  Cl  Cl88  1  0.410346  0.060408  0.114419  1
  Cl  Cl89  1  0.910346  0.795928  0.349938  1
  Cl  Cl90  1  0.560408  0.910346  0.614419  1
  Cl  Cl91  1  0.060408  0.445990  0.650062  1
  Cl  Cl92  1  0.589654  0.939592  0.885581  1
  Cl  Cl93  1  0.089654  0.204072  0.650062  1
  Cl  Cl94  1  0.439592  0.089654  0.385581  1
  Cl  Cl95  1  0.939592  0.554010  0.349938  1
  Cl  Cl96  1  0.945990  0.560408  0.150062  1
  Cl  Cl97  1  0.445990  0.295928  0.385581  1
  Cl  Cl98  1  0.295928  0.410346  0.849938  1
  Cl  Cl99  1  0.795928  0.945990  0.885581  1
  Cl  Cl100  1  0.054010  0.439592  0.849938  1
  Cl  Cl101  1  0.554010  0.704072  0.614419  1
  Cl  Cl102  1  0.704072  0.589654  0.150062  1
  Cl  Cl103  1  0.204072  0.054010  0.114419  1
  Cl  Cl104  1  0.318642  0.822194  0.930693  1
  Cl  Cl105  1  0.818642  0.887948  0.496448  1
  Cl  Cl106  1  0.322194  0.818642  0.430693  1
  Cl  Cl107  1  0.822194  0.391500  0.503552  1
  Cl  Cl108  1  0.681358  0.177806  0.069307  1
  Cl  Cl109  1  0.181358  0.112052  0.503552  1
  Cl  Cl110  1  0.677806  0.181358  0.569307  1
  Cl  Cl111  1  0.177806  0.608500  0.496448  1
  Cl  Cl112  1  0.891500  0.322194  0.003552  1
  Cl  Cl113  1  0.391500  0.387948  0.569307  1
  Cl  Cl114  1  0.387948  0.318642  0.996448  1
  Cl  Cl115  1  0.887948  0.891500  0.069307  1
  Cl  Cl116  1  0.108500  0.677806  0.996448  1
  Cl  Cl117  1  0.608500  0.612052  0.430693  1
  Cl  Cl118  1  0.612052  0.681358  0.003552  1
  Cl  Cl119  1  0.112052  0.108500  0.930693  1
