# generated using pymatgen
data_Fe6OF11
_symmetry_space_group_name_H-M   'P 1'
_cell_length_a   7.60230690
_cell_length_b   5.81995565
_cell_length_c   5.81995565
_cell_angle_alpha   71.62809150
_cell_angle_beta   72.81298718
_cell_angle_gamma   72.81298718
_symmetry_Int_Tables_number   1
_chemical_formula_structural   Fe6OF11
_chemical_formula_sum   'Fe6 O1 F11'
_cell_volume   227.57762614
_cell_formula_units_Z   1
loop_
 _symmetry_equiv_pos_site_id
 _symmetry_equiv_pos_as_xyz
  1  'x, y, z'
loop_
 _atom_site_type_symbol
 _atom_site_label
 _atom_site_symmetry_multiplicity
 _atom_site_fract_x
 _atom_site_fract_y
 _atom_site_fract_z
 _atom_site_occupancy
  Fe  Fe0  1  0.847269  0.642015  0.659597  1
  Fe  Fe1  1  0.668934  0.326357  0.335234  1
  Fe  Fe2  1  0.331066  0.664766  0.673643  1
  Fe  Fe3  1  0.152731  0.340403  0.357985  1
  Fe  Fe4  1  0.500000  0.997718  0.002282  1
  Fe  Fe5  1  0.000000  0.021165  0.978835  1
  O  O6  1  0.000000  0.309202  0.690798  1
  F  F7  1  0.674868  0.016267  0.631286  1
  F  F8  1  0.325132  0.368714  0.983733  1
  F  F9  1  0.305132  0.895280  0.905393  1
  F  F10  1  0.969171  0.238626  0.236488  1
  F  F11  1  0.633338  0.569797  0.563462  1
  F  F12  1  0.030829  0.763512  0.761374  1
  F  F13  1  0.366662  0.436538  0.430203  1
  F  F14  1  0.694868  0.094607  0.104720  1
  F  F15  1  0.326396  0.976807  0.375827  1
  F  F16  1  0.673604  0.624173  0.023193  1
  F  F17  1  0.000000  0.714052  0.285948  1
