# generated using pymatgen
data_LiVP2HO8
_symmetry_space_group_name_H-M   'P 1'
_cell_length_a   9.75459228
_cell_length_b   7.96969612
_cell_length_c   7.78885572
_cell_angle_alpha   90.10794556
_cell_angle_beta   67.59009347
_cell_angle_gamma   90.42914205
_symmetry_Int_Tables_number   1
_chemical_formula_structural   LiVP2HO8
_chemical_formula_sum   'Li4 V4 P8 H4 O32'
_cell_volume   559.77010858
_cell_formula_units_Z   4
loop_
 _symmetry_equiv_pos_site_id
 _symmetry_equiv_pos_as_xyz
  1  'x, y, z'
loop_
 _atom_site_type_symbol
 _atom_site_label
 _atom_site_symmetry_multiplicity
 _atom_site_fract_x
 _atom_site_fract_y
 _atom_site_fract_z
 _atom_site_occupancy
  Li  Li0  1  0.227594  0.367417  0.651403  1
  Li  Li1  1  0.272988  0.871779  0.850242  1
  Li  Li2  1  0.777084  0.636497  0.345687  1
  Li  Li3  1  0.729014  0.366131  0.654400  1
  V  V4  1  0.247568  0.497011  0.013994  1
  V  V5  1  0.253566  0.996949  0.486276  1
  V  V6  1  0.748900  0.501739  0.002278  1
  V  V7  1  0.750661  0.002896  0.495691  1
  P  P8  1  0.068649  0.846995  0.230791  1
  P  P9  1  0.068688  0.651348  0.738430  1
  P  P10  1  0.431736  0.350301  0.268425  1
  P  P11  1  0.570221  0.854653  0.227687  1
  P  P12  1  0.431392  0.154302  0.764884  1
  P  P13  1  0.565642  0.659171  0.738842  1
  P  P14  1  0.932073  0.347807  0.266568  1
  P  P15  1  0.930685  0.151920  0.764920  1
  H  H16  1  0.012250  0.509440  0.511347  1
  H  H17  1  0.509355  0.510174  0.509836  1
  H  H18  1  0.495726  0.002838  0.995753  1
  H  H19  1  0.985792  0.011688  0.987288  1
  O  O20  1  0.094838  0.941350  0.052745  1
  O  O21  1  0.098282  0.331457  0.140565  1
  O  O22  1  0.138990  0.671316  0.186141  1
  O  O23  1  0.141463  0.942962  0.352660  1
  O  O24  1  0.096454  0.547875  0.558973  1
  O  O25  1  0.098575  0.173942  0.644878  1
  O  O26  1  0.142640  0.824609  0.690518  1
  O  O27  1  0.146257  0.548564  0.845763  1
  O  O28  1  0.357319  0.446163  0.150621  1
  O  O29  1  0.364319  0.173412  0.312031  1
  O  O30  1  0.404925  0.832802  0.361748  1
  O  O31  1  0.406541  0.444173  0.448204  1
  O  O32  1  0.355664  0.052100  0.651817  1
  O  O33  1  0.353870  0.326046  0.812773  1
  O  O34  1  0.588668  0.946478  0.050806  1
  O  O35  1  0.598934  0.345176  0.140009  1
  O  O36  1  0.398172  0.675474  0.855554  1
  O  O37  1  0.406258  0.050093  0.939511  1
  O  O38  1  0.648758  0.680344  0.186191  1
  O  O39  1  0.646993  0.947966  0.346833  1
  O  O40  1  0.595245  0.556889  0.553759  1
  O  O41  1  0.598750  0.178620  0.641758  1
  O  O42  1  0.641088  0.829072  0.680741  1
  O  O43  1  0.639953  0.548912  0.841360  1
  O  O44  1  0.856646  0.453889  0.158914  1
  O  O45  1  0.861733  0.172905  0.314475  1
  O  O46  1  0.901477  0.827450  0.357563  1
  O  O47  1  0.904123  0.447715  0.446438  1
  O  O48  1  0.857296  0.057043  0.646617  1
  O  O49  1  0.850884  0.324084  0.813737  1
  O  O50  1  0.901033  0.660054  0.859016  1
  O  O51  1  0.902679  0.057430  0.947001  1
