# generated using pymatgen
data_V3(PO4)2
_symmetry_space_group_name_H-M   'P 1'
_cell_length_a   6.15167195
_cell_length_b   4.89287991
_cell_length_c   10.68788721
_cell_angle_alpha   90.00000000
_cell_angle_beta   90.68787174
_cell_angle_gamma   90.00000000
_symmetry_Int_Tables_number   1
_chemical_formula_structural   V3(PO4)2
_chemical_formula_sum   'V6 P4 O16'
_cell_volume   321.67572375
_cell_formula_units_Z   2
loop_
 _symmetry_equiv_pos_site_id
 _symmetry_equiv_pos_as_xyz
  1  'x, y, z'
loop_
 _atom_site_type_symbol
 _atom_site_label
 _atom_site_symmetry_multiplicity
 _atom_site_fract_x
 _atom_site_fract_y
 _atom_site_fract_z
 _atom_site_occupancy
  V  V0  1  0.245435  0.505311  0.776985  1
  V  V1  1  0.245435  0.994689  0.276985  1
  V  V2  1  0.500000  0.500000  0.500000  1
  V  V3  1  0.500000  0.000000  0.000000  1
  V  V4  1  0.754565  0.005311  0.723015  1
  V  V5  1  0.754565  0.494689  0.223015  1
  P  P6  1  0.254974  0.071662  0.598609  1
  P  P7  1  0.254974  0.428338  0.098609  1
  P  P8  1  0.745026  0.571662  0.901391  1
  P  P9  1  0.745026  0.928338  0.401391  1
  O  O10  1  0.062945  0.180997  0.676079  1
  O  O11  1  0.062945  0.319003  0.176079  1
  O  O12  1  0.255698  0.318664  0.962542  1
  O  O13  1  0.255698  0.181336  0.462542  1
  O  O14  1  0.275988  0.758078  0.605532  1
  O  O15  1  0.275988  0.741922  0.105532  1
  O  O16  1  0.460202  0.226797  0.661268  1
  O  O17  1  0.460202  0.273203  0.161268  1
  O  O18  1  0.539798  0.726797  0.838732  1
  O  O19  1  0.539798  0.773203  0.338732  1
  O  O20  1  0.724012  0.258078  0.894468  1
  O  O21  1  0.724012  0.241922  0.394468  1
  O  O22  1  0.744302  0.818664  0.537458  1
  O  O23  1  0.744302  0.681336  0.037458  1
  O  O24  1  0.937055  0.680997  0.823921  1
  O  O25  1  0.937055  0.819003  0.323921  1
