# generated using pymatgen
data_Mn12O5F19
_symmetry_space_group_name_H-M   'P 1'
_cell_length_a   4.84640213
_cell_length_b   5.87420332
_cell_length_c   16.00113799
_cell_angle_alpha   90.28247529
_cell_angle_beta   89.82469954
_cell_angle_gamma   88.65556359
_symmetry_Int_Tables_number   1
_chemical_formula_structural   Mn12O5F19
_chemical_formula_sum   'Mn12 O5 F19'
_cell_volume   455.39918676
_cell_formula_units_Z   1
loop_
 _symmetry_equiv_pos_site_id
 _symmetry_equiv_pos_as_xyz
  1  'x, y, z'
loop_
 _atom_site_type_symbol
 _atom_site_label
 _atom_site_symmetry_multiplicity
 _atom_site_fract_x
 _atom_site_fract_y
 _atom_site_fract_z
 _atom_site_occupancy
  Mn  Mn0  1  0.033414  0.191926  0.423372  1
  Mn  Mn1  1  0.983072  0.855580  0.252838  1
  Mn  Mn2  1  0.009561  0.169715  0.093616  1
  Mn  Mn3  1  0.983833  0.160698  0.745684  1
  Mn  Mn4  1  0.996517  0.838762  0.581254  1
  Mn  Mn5  1  0.014540  0.843886  0.908581  1
  Mn  Mn6  1  0.505788  0.351945  0.587701  1
  Mn  Mn7  1  0.487292  0.330610  0.916940  1
  Mn  Mn8  1  0.502869  0.326312  0.238290  1
  Mn  Mn9  1  0.500747  0.648784  0.083999  1
  Mn  Mn10  1  0.491051  0.635923  0.416973  1
  Mn  Mn11  1  0.485373  0.658942  0.751799  1
  O  O12  1  0.218653  0.889303  0.799656  1
  O  O13  1  0.292989  0.374625  0.137256  1
  O  O14  1  0.306309  0.396978  0.481114  1
  O  O15  1  0.699761  0.388917  0.695827  1
  O  O16  1  0.786790  0.125000  0.193746  1
  F  F17  1  0.240556  0.104956  0.309812  1
  F  F18  1  0.223113  0.120772  0.636040  1
  F  F19  1  0.219477  0.115575  0.981504  1
  F  F20  1  0.238295  0.878533  0.143545  1
  F  F21  1  0.239455  0.888121  0.471344  1
  F  F22  1  0.268110  0.595583  0.302298  1
  F  F23  1  0.266931  0.616519  0.641951  1
  F  F24  1  0.240164  0.392452  0.807817  1
  F  F25  1  0.268688  0.617727  0.971209  1
  F  F26  1  0.745403  0.390484  0.022889  1
  F  F27  1  0.738314  0.620620  0.193726  1
  F  F28  1  0.726287  0.372586  0.350753  1
  F  F29  1  0.743595  0.605575  0.524999  1
  F  F30  1  0.713420  0.615381  0.860249  1
  F  F31  1  0.771747  0.121087  0.528949  1
  F  F32  1  0.760423  0.867382  0.368390  1
  F  F33  1  0.780913  0.887986  0.025368  1
  F  F34  1  0.769088  0.110809  0.859196  1
  F  F35  1  0.747464  0.889948  0.691317  1
