# generated using pymatgen
data_TeI2
_symmetry_space_group_name_H-M   'P 1'
_cell_length_a   8.86229304
_cell_length_b   8.86229304
_cell_length_c   4.17631413
_cell_angle_alpha   90.00000000
_cell_angle_beta   90.00000000
_cell_angle_gamma   90.00000000
_symmetry_Int_Tables_number   1
_chemical_formula_structural   TeI2
_chemical_formula_sum   'Te2 I4'
_cell_volume   328.00870543
_cell_formula_units_Z   2
loop_
 _symmetry_equiv_pos_site_id
 _symmetry_equiv_pos_as_xyz
  1  'x, y, z'
loop_
 _atom_site_type_symbol
 _atom_site_label
 _atom_site_symmetry_multiplicity
 _atom_site_fract_x
 _atom_site_fract_y
 _atom_site_fract_z
 _atom_site_occupancy
  Te  Te0  1  0.000000  0.000000  0.000000  1
  Te  Te1  1  0.499999  0.499999  0.500001  1
  I  I2  1  0.327707  0.327707  0.000000  1
  I  I3  1  0.672294  0.672294  0.000000  1
  I  I4  1  0.827707  0.172293  0.500001  1
  I  I5  1  0.172293  0.827707  0.500001  1
