# generated using pymatgen
data_LiCrP3H8O13
_symmetry_space_group_name_H-M   'P 1'
_cell_length_a   9.68026625
_cell_length_b   8.67382911
_cell_length_c   7.53608515
_cell_angle_alpha   107.48263234
_cell_angle_beta   89.43666270
_cell_angle_gamma   102.74609282
_symmetry_Int_Tables_number   1
_chemical_formula_structural   LiCrP3H8O13
_chemical_formula_sum   'Li2 Cr2 P6 H16 O26'
_cell_volume   587.58098857
_cell_formula_units_Z   2
loop_
 _symmetry_equiv_pos_site_id
 _symmetry_equiv_pos_as_xyz
  1  'x, y, z'
loop_
 _atom_site_type_symbol
 _atom_site_label
 _atom_site_symmetry_multiplicity
 _atom_site_fract_x
 _atom_site_fract_y
 _atom_site_fract_z
 _atom_site_occupancy
  Li  Li0  1  0.308588  0.394350  0.711926  1
  Li  Li1  1  0.691412  0.605650  0.288074  1
  Cr  Cr2  1  0.000000  0.500000  0.000000  1
  Cr  Cr3  1  0.500000  0.000000  0.500000  1
  P  P4  1  0.058509  0.723936  0.714896  1
  P  P5  1  0.249429  0.357812  0.201846  1
  P  P6  1  0.220290  0.999122  0.011986  1
  P  P7  1  0.779710  0.000878  0.988014  1
  P  P8  1  0.750571  0.642188  0.798154  1
  P  P9  1  0.941491  0.276064  0.285104  1
  H  H10  1  0.049335  0.815535  0.203246  1
  H  H11  1  0.033382  0.705082  0.338767  1
  H  H12  1  0.228100  0.910067  0.537292  1
  H  H13  1  0.371650  0.683696  0.187320  1
  H  H14  1  0.247156  0.005127  0.388252  1
  H  H15  1  0.416645  0.864460  0.756550  1
  H  H16  1  0.456848  0.827805  0.114606  1
  H  H17  1  0.526878  0.754315  0.654341  1
  H  H18  1  0.473122  0.245685  0.345659  1
  H  H19  1  0.543152  0.172195  0.885394  1
  H  H20  1  0.583355  0.135540  0.243450  1
  H  H21  1  0.752844  0.994873  0.611748  1
  H  H22  1  0.628350  0.316304  0.812680  1
  H  H23  1  0.771900  0.089933  0.462708  1
  H  H24  1  0.966618  0.294918  0.661233  1
  H  H25  1  0.950665  0.184465  0.796754  1
  O  O26  1  0.989754  0.710477  0.220702  1
  O  O27  1  0.090707  0.913203  0.852363  1
  O  O28  1  0.103760  0.615594  0.816907  1
  O  O29  1  0.120091  0.722746  0.531966  1
  O  O30  1  0.170331  0.970796  0.190815  1
  O  O31  1  0.111341  0.318392  0.320956  1
  O  O32  1  0.239686  0.491338  0.115065  1
  O  O33  1  0.355419  0.953937  0.942722  1
  O  O34  1  0.227661  0.190847  0.023694  1
  O  O35  1  0.285902  0.012547  0.515065  1
  O  O36  1  0.373815  0.378466  0.330470  1
  O  O37  1  0.460685  0.770504  0.208448  1
  O  O38  1  0.459806  0.820670  0.635109  1
  O  O39  1  0.540194  0.179330  0.364891  1
  O  O40  1  0.539315  0.229496  0.791552  1
  O  O41  1  0.626185  0.621534  0.669530  1
  O  O42  1  0.714098  0.987453  0.484935  1
  O  O43  1  0.772339  0.809153  0.976306  1
  O  O44  1  0.644581  0.046063  0.057278  1
  O  O45  1  0.760314  0.508662  0.884935  1
  O  O46  1  0.888659  0.681608  0.679044  1
  O  O47  1  0.829669  0.029204  0.809185  1
  O  O48  1  0.879909  0.277254  0.468034  1
  O  O49  1  0.896240  0.384406  0.183093  1
  O  O50  1  0.909293  0.086797  0.147637  1
  O  O51  1  0.010246  0.289523  0.779298  1
