# generated using pymatgen
data_Li4Mn3Cr2Fe3O16
_symmetry_space_group_name_H-M   'P 1'
_cell_length_a   5.87940616
_cell_length_b   5.84590303
_cell_length_c   9.52224271
_cell_angle_alpha   90.02935698
_cell_angle_beta   89.45684760
_cell_angle_gamma   119.80301816
_symmetry_Int_Tables_number   1
_chemical_formula_structural   Li4Mn3Cr2Fe3O16
_chemical_formula_sum   'Li4 Mn3 Cr2 Fe3 O16'
_cell_volume   283.98079469
_cell_formula_units_Z   1
loop_
 _symmetry_equiv_pos_site_id
 _symmetry_equiv_pos_as_xyz
  1  'x, y, z'
loop_
 _atom_site_type_symbol
 _atom_site_label
 _atom_site_symmetry_multiplicity
 _atom_site_fract_x
 _atom_site_fract_y
 _atom_site_fract_z
 _atom_site_occupancy
  Li  Li0  1  0.337996  0.669474  0.895285  1
  Li  Li1  1  0.997627  0.998881  0.997028  1
  Li  Li2  1  -0.001047  0.999065  0.495285  1
  Li  Li3  1  0.670402  0.334980  0.393536  1
  Mn  Mn4  1  0.659259  0.829663  0.214241  1
  Mn  Mn5  1  0.830754  0.661910  0.714343  1
  Mn  Mn6  1  0.830122  0.168177  0.714383  1
  Cr  Cr7  1  0.329874  0.664358  0.486013  1
  Cr  Cr8  1  0.662077  0.331805  0.985917  1
  Fe  Fe9  1  0.166918  0.829890  0.213762  1
  Fe  Fe10  1  0.166836  0.337084  0.213645  1
  Fe  Fe11  1  0.335765  0.168501  0.713169  1
  O  O12  1  0.154563  0.830139  0.599754  1
  O  O13  1  0.040634  0.519636  0.344409  1
  O  O14  1  0.343633  0.672055  0.104052  1
  O  O15  1  0.987105  0.993578  0.309233  1
  O  O16  1  0.988522  0.993542  0.810667  1
  O  O17  1  0.156062  0.323383  0.600240  1
  O  O18  1  0.490021  0.963168  0.340645  1
  O  O19  1  0.490492  0.526821  0.340577  1
  O  O20  1  0.327927  0.164473  0.097632  1
  O  O21  1  0.678457  0.839815  0.605057  1
  O  O22  1  0.529136  0.491326  0.839807  1
  O  O23  1  0.526609  0.039027  0.838957  1
  O  O24  1  0.678662  0.339969  0.607356  1
  O  O25  1  0.829195  0.670918  0.099682  1
  O  O26  1  0.963680  0.480729  0.833800  1
  O  O27  1  0.828719  0.157934  0.099365  1
