# generated using pymatgen
data_LiV2(PO4)3
_symmetry_space_group_name_H-M   'P 1'
_cell_length_a   8.53684454
_cell_length_b   12.13000007
_cell_length_c   8.57074446
_cell_angle_alpha   90.00000000
_cell_angle_beta   90.00000000
_cell_angle_gamma   89.85390840
_symmetry_Int_Tables_number   1
_chemical_formula_structural   LiV2(PO4)3
_chemical_formula_sum   'Li4 V8 P12 O48'
_cell_volume   887.51420116
_cell_formula_units_Z   4
loop_
 _symmetry_equiv_pos_site_id
 _symmetry_equiv_pos_as_xyz
  1  'x, y, z'
loop_
 _atom_site_type_symbol
 _atom_site_label
 _atom_site_symmetry_multiplicity
 _atom_site_fract_x
 _atom_site_fract_y
 _atom_site_fract_z
 _atom_site_occupancy
  Li  Li0  1  0.068944  0.703091  0.088653  1
  Li  Li1  1  0.431056  0.796909  0.588653  1
  Li  Li2  1  0.568944  0.203090  0.411347  1
  Li  Li3  1  0.931056  0.296909  0.911347  1
  V  V4  1  0.254075  0.888844  0.032424  1
  V  V5  1  0.245925  0.611156  0.532424  1
  V  V6  1  0.257570  0.383428  0.968799  1
  V  V7  1  0.242430  0.116572  0.468799  1
  V  V8  1  0.757570  0.883428  0.531201  1
  V  V9  1  0.742430  0.616572  0.031201  1
  V  V10  1  0.754075  0.388844  0.467576  1
  V  V11  1  0.745925  0.111156  0.967576  1
  P  P12  1  0.034007  0.494604  0.247551  1
  P  P13  1  0.110468  0.853839  0.390950  1
  P  P14  1  0.107232  0.144529  0.109011  1
  P  P15  1  0.389532  0.646161  0.890950  1
  P  P16  1  0.392768  0.355471  0.609011  1
  P  P17  1  0.465993  0.005396  0.747551  1
  P  P18  1  0.534007  0.994604  0.252449  1
  P  P19  1  0.607232  0.644529  0.390989  1
  P  P20  1  0.610468  0.353839  0.109050  1
  P  P21  1  0.892768  0.855471  0.890989  1
  P  P22  1  0.889532  0.146161  0.609050  1
  P  P23  1  0.965993  0.505396  0.752449  1
  O  O24  1  0.056055  0.429821  0.866895  1
  O  O25  1  0.073855  0.869104  0.896944  1
  O  O26  1  0.074607  0.591772  0.675712  1
  O  O27  1  0.063842  0.170491  0.577632  1
  O  O28  1  0.109170  0.575772  0.362707  1
  O  O29  1  0.154472  0.972365  0.430365  1
  O  O30  1  0.133585  0.830652  0.213515  1
  O  O31  1  0.143601  0.241580  0.998144  1
  O  O32  1  0.160162  0.171929  0.277211  1
  O  O33  1  0.165365  0.432987  0.160004  1
  O  O34  1  0.191601  0.040205  0.054537  1
  O  O35  1  0.212176  0.775165  0.492703  1
  O  O36  1  0.287824  0.724835  0.992703  1
  O  O37  1  0.308399  0.459795  0.554537  1
  O  O38  1  0.334635  0.067013  0.660004  1
  O  O39  1  0.339838  0.328071  0.777211  1
  O  O40  1  0.366415  0.669348  0.713515  1
  O  O41  1  0.345528  0.527635  0.930365  1
  O  O42  1  0.356399  0.258420  0.498144  1
  O  O43  1  0.390830  0.924228  0.862707  1
  O  O44  1  0.425393  0.908228  0.175712  1
  O  O45  1  0.426145  0.630896  0.396944  1
  O  O46  1  0.436158  0.329509  0.077632  1
  O  O47  1  0.443945  0.070179  0.366895  1
  O  O48  1  0.556055  0.929821  0.633105  1
  O  O49  1  0.563842  0.670491  0.922368  1
  O  O50  1  0.573855  0.369104  0.603056  1
  O  O51  1  0.574607  0.091772  0.824288  1
  O  O52  1  0.609170  0.075772  0.137293  1
  O  O53  1  0.643601  0.741580  0.501856  1
  O  O54  1  0.654472  0.472365  0.069635  1
  O  O55  1  0.633585  0.330652  0.286485  1
  O  O56  1  0.660162  0.671929  0.222789  1
  O  O57  1  0.665365  0.932987  0.339996  1
  O  O58  1  0.691601  0.540205  0.445463  1
  O  O59  1  0.712176  0.275165  0.007297  1
  O  O60  1  0.787824  0.224835  0.507297  1
  O  O61  1  0.808399  0.959795  0.945463  1
  O  O62  1  0.834635  0.567013  0.839996  1
  O  O63  1  0.839838  0.828071  0.722789  1
  O  O64  1  0.856399  0.758420  0.001856  1
  O  O65  1  0.866415  0.169348  0.786485  1
  O  O66  1  0.845528  0.027635  0.569635  1
  O  O67  1  0.890830  0.424228  0.637293  1
  O  O68  1  0.936158  0.829509  0.422368  1
  O  O69  1  0.925393  0.408228  0.324288  1
  O  O70  1  0.926145  0.130896  0.103056  1
  O  O71  1  0.943945  0.570179  0.133105  1
