# generated using pymatgen
data_CuS2
_symmetry_space_group_name_H-M   'P 1'
_cell_length_a   3.55441394
_cell_length_b   5.47906594
_cell_length_c   5.46539670
_cell_angle_alpha   80.85491025
_cell_angle_beta   89.99999873
_cell_angle_gamma   89.99999877
_symmetry_Int_Tables_number   1
_chemical_formula_structural   CuS2
_chemical_formula_sum   'Cu2 S4'
_cell_volume   105.08495330
_cell_formula_units_Z   2
loop_
 _symmetry_equiv_pos_site_id
 _symmetry_equiv_pos_as_xyz
  1  'x, y, z'
loop_
 _atom_site_type_symbol
 _atom_site_label
 _atom_site_symmetry_multiplicity
 _atom_site_fract_x
 _atom_site_fract_y
 _atom_site_fract_z
 _atom_site_occupancy
  Cu  Cu0  1  0.000000  0.875296  0.375132  1
  Cu  Cu1  1  0.000000  0.374433  0.874976  1
  S  S2  1  0.500000  0.044641  0.545059  1
  S  S3  1  0.500000  0.544298  0.044955  1
  S  S4  1  1.000000  0.955393  0.954851  1
  S  S5  1  1.000000  0.455940  0.455026  1
