# generated using pymatgen
data_PmH
_symmetry_space_group_name_H-M   'P 1'
_cell_length_a   3.82258283
_cell_length_b   3.82260226
_cell_length_c   6.04921324
_cell_angle_alpha   90.00110092
_cell_angle_beta   89.99860161
_cell_angle_gamma   119.99989830
_symmetry_Int_Tables_number   1
_chemical_formula_structural   PmH
_chemical_formula_sum   'Pm2 H2'
_cell_volume   76.55013967
_cell_formula_units_Z   2
loop_
 _symmetry_equiv_pos_site_id
 _symmetry_equiv_pos_as_xyz
  1  'x, y, z'
loop_
 _atom_site_type_symbol
 _atom_site_label
 _atom_site_symmetry_multiplicity
 _atom_site_fract_x
 _atom_site_fract_y
 _atom_site_fract_z
 _atom_site_occupancy
  Pm  Pm0  1  1.000000  0.999997  0.382352  1
  Pm  Pm1  1  0.333326  0.666673  0.882329  1
  H  H2  1  0.000001  0.999998  0.992659  1
  H  H3  1  0.333339  0.666660  0.492660  1
