# generated using pymatgen
data_Li7Ni2P7O24
_symmetry_space_group_name_H-M   'P 1'
_cell_length_a   15.11314700
_cell_length_b   5.06777001
_cell_length_c   12.21751514
_cell_angle_alpha   90.00000000
_cell_angle_beta   97.09134660
_cell_angle_gamma   90.00000000
_symmetry_Int_Tables_number   1
_chemical_formula_structural   Li7Ni2P7O24
_chemical_formula_sum   'Li14 Ni4 P14 O48'
_cell_volume   928.58106507
_cell_formula_units_Z   2
loop_
 _symmetry_equiv_pos_site_id
 _symmetry_equiv_pos_as_xyz
  1  'x, y, z'
loop_
 _atom_site_type_symbol
 _atom_site_label
 _atom_site_symmetry_multiplicity
 _atom_site_fract_x
 _atom_site_fract_y
 _atom_site_fract_z
 _atom_site_occupancy
  Li  Li0  1  0.057995  0.727486  0.519334  1
  Li  Li1  1  0.136182  0.825829  0.887494  1
  Li  Li2  1  0.057995  0.272514  0.019334  1
  Li  Li3  1  0.136182  0.174171  0.387494  1
  Li  Li4  1  0.407177  0.156983  0.558711  1
  Li  Li5  1  0.407177  0.843017  0.058711  1
  Li  Li6  1  0.500000  0.701568  0.750000  1
  Li  Li7  1  0.500000  0.298432  0.250000  1
  Li  Li8  1  0.592823  0.156983  0.941289  1
  Li  Li9  1  0.592823  0.843017  0.441289  1
  Li  Li10  1  0.863818  0.825829  0.612506  1
  Li  Li11  1  0.942005  0.727486  0.980666  1
  Li  Li12  1  0.863818  0.174171  0.112506  1
  Li  Li13  1  0.942005  0.272514  0.480666  1
  Ni  Ni14  1  0.284015  0.638050  0.708779  1
  Ni  Ni15  1  0.284015  0.361950  0.208779  1
  Ni  Ni16  1  0.715985  0.638050  0.791221  1
  Ni  Ni17  1  0.715985  0.361950  0.291221  1
  P  P18  1  0.000000  0.443590  0.750000  1
  P  P19  1  0.000000  0.556410  0.250000  1
  P  P20  1  0.138532  0.134655  0.656086  1
  P  P21  1  0.138532  0.865345  0.156086  1
  P  P22  1  0.272643  0.379599  0.949785  1
  P  P23  1  0.272643  0.620401  0.449785  1
  P  P24  1  0.393146  0.146173  0.805848  1
  P  P25  1  0.393146  0.853827  0.305848  1
  P  P26  1  0.606854  0.146173  0.694152  1
  P  P27  1  0.606854  0.853827  0.194152  1
  P  P28  1  0.727357  0.379599  0.550215  1
  P  P29  1  0.727357  0.620401  0.050215  1
  P  P30  1  0.861468  0.134655  0.843914  1
  P  P31  1  0.861468  0.865345  0.343914  1
  O  O32  1  0.015478  0.591559  0.858278  1
  O  O33  1  0.015478  0.408441  0.358278  1
  O  O34  1  0.081758  0.240205  0.753077  1
  O  O35  1  0.076718  0.131254  0.547203  1
  O  O36  1  0.081758  0.759795  0.253077  1
  O  O37  1  0.076718  0.868746  0.047203  1
  O  O38  1  0.168280  0.864876  0.702586  1
  O  O39  1  0.188410  0.257502  0.984041  1
  O  O40  1  0.215963  0.323498  0.651013  1
  O  O41  1  0.168280  0.135124  0.202586  1
  O  O42  1  0.188410  0.742498  0.484041  1
  O  O43  1  0.247809  0.606755  0.867143  1
  O  O44  1  0.215963  0.676502  0.151013  1
  O  O45  1  0.247809  0.393245  0.367143  1
  O  O46  1  0.314370  0.136988  0.885091  1
  O  O47  1  0.314370  0.863012  0.385091  1
  O  O48  1  0.360868  0.962649  0.707641  1
  O  O49  1  0.344360  0.532639  0.541861  1
  O  O50  1  0.401133  0.433191  0.767354  1
  O  O51  1  0.360868  0.037351  0.207641  1
  O  O52  1  0.344360  0.467361  0.041861  1
  O  O53  1  0.401133  0.566809  0.267354  1
  O  O54  1  0.475077  0.032375  0.874176  1
  O  O55  1  0.475077  0.967625  0.374176  1
  O  O56  1  0.524923  0.032375  0.625824  1
  O  O57  1  0.524923  0.967625  0.125824  1
  O  O58  1  0.598867  0.433191  0.732646  1
  O  O59  1  0.655640  0.532639  0.958139  1
  O  O60  1  0.639132  0.962649  0.792359  1
  O  O61  1  0.598867  0.566809  0.232646  1
  O  O62  1  0.655640  0.467361  0.458139  1
  O  O63  1  0.639132  0.037351  0.292359  1
  O  O64  1  0.685630  0.136988  0.614909  1
  O  O65  1  0.685630  0.863012  0.114909  1
  O  O66  1  0.752191  0.606755  0.632857  1
  O  O67  1  0.784037  0.323498  0.848987  1
  O  O68  1  0.752191  0.393245  0.132857  1
  O  O69  1  0.811590  0.257502  0.515959  1
  O  O70  1  0.831720  0.864876  0.797414  1
  O  O71  1  0.784037  0.676502  0.348987  1
  O  O72  1  0.811590  0.742498  0.015959  1
  O  O73  1  0.831720  0.135124  0.297414  1
  O  O74  1  0.923282  0.131254  0.952797  1
  O  O75  1  0.918242  0.240205  0.746923  1
  O  O76  1  0.923282  0.868746  0.452797  1
  O  O77  1  0.918242  0.759795  0.246923  1
  O  O78  1  0.984522  0.591559  0.641722  1
  O  O79  1  0.984522  0.408441  0.141722  1
