# generated using pymatgen
data_LiMn2(BO3)2
_symmetry_space_group_name_H-M   'P 1'
_cell_length_a   5.80472716
_cell_length_b   5.30948214
_cell_length_c   12.44055307
_cell_angle_alpha   77.70374678
_cell_angle_beta   92.59823924
_cell_angle_gamma   89.60392470
_symmetry_Int_Tables_number   1
_chemical_formula_structural   LiMn2(BO3)2
_chemical_formula_sum   'Li3 Mn6 B6 O18'
_cell_volume   374.18416739
_cell_formula_units_Z   3
loop_
 _symmetry_equiv_pos_site_id
 _symmetry_equiv_pos_as_xyz
  1  'x, y, z'
loop_
 _atom_site_type_symbol
 _atom_site_label
 _atom_site_symmetry_multiplicity
 _atom_site_fract_x
 _atom_site_fract_y
 _atom_site_fract_z
 _atom_site_occupancy
  Li  Li0  1  0.139780  0.572692  0.174440  1
  Li  Li1  1  0.186674  0.094534  0.485202  1
  Li  Li2  1  0.849893  0.422453  0.819752  1
  Mn  Mn3  1  0.035207  0.948640  0.716607  1
  Mn  Mn4  1  0.317053  0.723628  0.945368  1
  Mn  Mn5  1  0.367155  0.621239  0.380371  1
  Mn  Mn6  1  0.642127  0.385169  0.609873  1
  Mn  Mn7  1  0.683278  0.268039  0.056723  1
  Mn  Mn8  1  0.951242  0.032425  0.286638  1
  B  B9  1  0.145133  0.525247  0.605376  1
  B  B10  1  0.185823  0.140904  0.066501  1
  B  B11  1  0.461508  0.186056  0.276249  1
  B  B12  1  0.537088  0.815404  0.726940  1
  B  B13  1  0.810455  0.854113  0.936433  1
  B  B14  1  0.863918  0.477477  0.390645  1
  O  O15  1  0.025627  0.639596  0.327693  1
  O  O16  1  0.012479  0.256044  0.119848  1
  O  O17  1  0.133576  0.788585  0.593643  1
  O  O18  1  0.193322  0.884478  0.071884  1
  O  O19  1  0.289019  0.418025  0.537328  1
  O  O20  1  0.325600  0.018678  0.347983  1
  O  O21  1  0.350466  0.312954  0.016299  1
  O  O22  1  0.354699  0.919832  0.775694  1
  O  O23  1  0.431505  0.448798  0.260688  1
  O  O24  1  0.564261  0.558559  0.736196  1
  O  O25  1  0.617598  0.088693  0.213568  1
  O  O26  1  0.667886  0.675126  0.996021  1
  O  O27  1  0.700097  0.990945  0.676708  1
  O  O28  1  0.688881  0.593292  0.438612  1
  O  O29  1  0.793418  0.115156  0.932192  1
  O  O30  1  0.888442  0.218891  0.408881  1
  O  O31  1  0.969315  0.756421  0.871582  1
  O  O32  1  0.007745  0.360160  0.676303  1
