# generated using pymatgen
data_LiMnPO4
_symmetry_space_group_name_H-M   'P 1'
_cell_length_a   8.60523380
_cell_length_b   5.32762458
_cell_length_c   8.23573404
_cell_angle_alpha   90.00000000
_cell_angle_beta   105.90864746
_cell_angle_gamma   90.00000000
_symmetry_Int_Tables_number   1
_chemical_formula_structural   LiMnPO4
_chemical_formula_sum   'Li4 Mn4 P4 O16'
_cell_volume   363.10998807
_cell_formula_units_Z   4
loop_
 _symmetry_equiv_pos_site_id
 _symmetry_equiv_pos_as_xyz
  1  'x, y, z'
loop_
 _atom_site_type_symbol
 _atom_site_label
 _atom_site_symmetry_multiplicity
 _atom_site_fract_x
 _atom_site_fract_y
 _atom_site_fract_z
 _atom_site_occupancy
  Li  Li0  1  0.212328  0.339264  0.869354  1
  Li  Li1  1  0.381356  0.824840  0.361284  1
  Li  Li2  1  0.712328  0.660736  0.869354  1
  Li  Li3  1  0.881355  0.175159  0.361284  1
  Mn  Mn4  1  0.070311  0.839845  0.962094  1
  Mn  Mn5  1  0.266586  0.323622  0.489244  1
  Mn  Mn6  1  0.570311  0.160155  0.962094  1
  Mn  Mn7  1  0.766586  0.676378  0.489244  1
  P  P8  1  0.005795  0.675578  0.251177  1
  P  P9  1  0.336510  0.820081  0.740121  1
  P  P10  1  0.505795  0.324422  0.251177  1
  P  P11  1  0.836510  0.179919  0.740121  1
  O  O12  1  0.004141  0.201060  0.873597  1
  O  O13  1  0.043234  0.401743  0.317445  1
  O  O14  1  0.203361  0.697587  0.809248  1
  O  O15  1  0.301330  0.109376  0.710596  1
  O  O16  1  0.162247  0.800816  0.227418  1
  O  O17  1  0.342647  0.686742  0.575497  1
  O  O18  1  0.504141  0.798940  0.873597  1
  O  O19  1  0.437917  0.177644  0.380288  1
  O  O20  1  0.386038  0.311618  0.071438  1
  O  O21  1  0.543234  0.598257  0.317445  1
  O  O22  1  0.703361  0.302413  0.809248  1
  O  O23  1  0.801330  0.890624  0.710596  1
  O  O24  1  0.662247  0.199184  0.227418  1
  O  O25  1  0.842647  0.313258  0.575497  1
  O  O26  1  0.937917  0.822356  0.380288  1
  O  O27  1  0.886038  0.688382  0.071438  1
