# generated using pymatgen
data_Li2Mn2P2(H4O5)3
_symmetry_space_group_name_H-M   'P 1'
_cell_length_a   4.89574368
_cell_length_b   11.46328397
_cell_length_c   12.17377323
_cell_angle_alpha   86.05898392
_cell_angle_beta   90.00069260
_cell_angle_gamma   77.59526839
_symmetry_Int_Tables_number   1
_chemical_formula_structural   Li2Mn2P2(H4O5)3
_chemical_formula_sum   'Li4 Mn4 P4 H24 O30'
_cell_volume   665.60377918
_cell_formula_units_Z   2
loop_
 _symmetry_equiv_pos_site_id
 _symmetry_equiv_pos_as_xyz
  1  'x, y, z'
loop_
 _atom_site_type_symbol
 _atom_site_label
 _atom_site_symmetry_multiplicity
 _atom_site_fract_x
 _atom_site_fract_y
 _atom_site_fract_z
 _atom_site_occupancy
  Li  Li0  1  0.980298  0.781163  0.929169  1
  Li  Li1  1  0.244558  0.781113  0.429458  1
  Li  Li2  1  0.753610  0.218731  0.569965  1
  Li  Li3  1  0.024816  0.217528  0.071982  1
  Mn  Mn4  1  0.075584  0.499365  0.876314  1
  Mn  Mn5  1  0.574374  0.500608  0.622267  1
  Mn  Mn6  1  0.425256  0.499108  0.375885  1
  Mn  Mn7  1  0.924411  0.499996  0.123157  1
  P  P8  1  0.510141  0.668783  0.786943  1
  P  P9  1  0.820512  0.668364  0.287363  1
  P  P10  1  0.177344  0.331531  0.711549  1
  P  P11  1  0.491104  0.329794  0.213052  1
  H  H12  1  0.566935  0.963939  0.850731  1
  H  H13  1  0.231861  0.929138  0.770364  1
  H  H14  1  0.469547  0.963111  0.348112  1
  H  H15  1  0.117213  0.866383  0.625265  1
  H  H16  1  0.843234  0.924290  0.273258  1
  H  H17  1  0.013656  0.868321  0.124211  1
  H  H18  1  0.965812  0.764823  0.606380  1
  H  H19  1  0.276108  0.768690  0.108993  1
  H  H20  1  0.634492  0.465653  0.934149  1
  H  H21  1  0.100185  0.535504  0.566763  1
  H  H22  1  0.900980  0.464734  0.432496  1
  H  H23  1  0.364925  0.534424  0.069772  1
  H  H24  1  0.738790  0.234061  0.890670  1
  H  H25  1  0.031998  0.237552  0.392757  1
  H  H26  1  0.987149  0.128859  0.874740  1
  H  H27  1  0.160768  0.075769  0.726249  1
  H  H28  1  0.882792  0.135126  0.374445  1
  H  H29  1  0.531925  0.035873  0.650396  1
  H  H30  1  0.729403  0.008455  0.942703  1
  H  H31  1  0.771407  0.070483  0.228201  1
  H  H32  1  0.742191  0.988912  0.559961  1
  H  H33  1  0.436175  0.034539  0.149432  1
  H  H34  1  0.268773  0.010411  0.441402  1
  H  H35  1  0.273517  0.991368  0.056759  1
  O  O36  1  0.714674  0.935324  0.907656  1
  O  O37  1  0.347503  0.936992  0.405441  1
  O  O38  1  0.018207  0.834288  0.568737  1
  O  O39  1  0.287374  0.776478  0.813946  1
  O  O40  1  0.148777  0.835384  0.068840  1
  O  O41  1  0.584320  0.665889  0.661650  1
  O  O42  1  0.936348  0.774656  0.316094  1
  O  O43  1  0.785749  0.655529  0.856271  1
  O  O44  1  0.748618  0.665899  0.162089  1
  O  O45  1  0.556655  0.655489  0.356074  1
  O  O46  1  0.403743  0.547421  0.809757  1
  O  O47  1  0.250327  0.566094  0.529545  1
  O  O48  1  0.047707  0.546342  0.309805  1
  O  O49  1  0.818320  0.433994  0.970033  1
  O  O50  1  0.184325  0.564492  0.031042  1
  O  O51  1  0.950354  0.453290  0.688723  1
  O  O52  1  0.748840  0.434133  0.469236  1
  O  O53  1  0.595824  0.451871  0.189807  1
  O  O54  1  0.439350  0.344117  0.641928  1
  O  O55  1  0.249428  0.334298  0.836569  1
  O  O56  1  0.214247  0.343051  0.144063  1
  O  O57  1  0.059303  0.224617  0.684427  1
  O  O58  1  0.416025  0.333512  0.338343  1
  O  O59  1  0.855573  0.163899  0.930231  1
  O  O60  1  0.713512  0.223082  0.186236  1
  O  O61  1  0.982522  0.166856  0.430755  1
  O  O62  1  0.656555  0.062502  0.594618  1
  O  O63  1  0.302776  0.002249  0.749841  1
  O  O64  1  0.284719  0.063274  0.094005  1
  O  O65  1  0.701318  0.996936  0.247374  1
