# generated using pymatgen
data_Mn3As(HO2)4
_symmetry_space_group_name_H-M   'P 1'
_cell_length_a   9.62566504
_cell_length_b   13.34383481
_cell_length_c   5.43925902
_cell_angle_alpha   90.00000000
_cell_angle_beta   90.00000000
_cell_angle_gamma   90.00000000
_symmetry_Int_Tables_number   1
_chemical_formula_structural   Mn3As(HO2)4
_chemical_formula_sum   'Mn12 As4 H16 O32'
_cell_volume   698.63629231
_cell_formula_units_Z   4
loop_
 _symmetry_equiv_pos_site_id
 _symmetry_equiv_pos_as_xyz
  1  'x, y, z'
loop_
 _atom_site_type_symbol
 _atom_site_label
 _atom_site_symmetry_multiplicity
 _atom_site_fract_x
 _atom_site_fract_y
 _atom_site_fract_z
 _atom_site_occupancy
  Mn  Mn0  1  0.021914  0.129707  0.483282  1
  Mn  Mn1  1  0.021914  0.370293  0.483282  1
  Mn  Mn2  1  0.478086  0.629707  0.983282  1
  Mn  Mn3  1  0.478086  0.870293  0.983282  1
  Mn  Mn4  1  0.521914  0.129707  0.016718  1
  Mn  Mn5  1  0.521914  0.370293  0.016718  1
  Mn  Mn6  1  0.978086  0.870293  0.516718  1
  Mn  Mn7  1  0.978086  0.629707  0.516718  1
  Mn  Mn8  1  0.000000  0.000000  0.000000  1
  Mn  Mn9  1  0.000000  0.500000  0.000000  1
  Mn  Mn10  1  0.500000  0.500000  0.500000  1
  Mn  Mn11  1  0.500000  0.000000  0.500000  1
  As  As12  1  0.151914  0.750000  0.025440  1
  As  As13  1  0.348086  0.250000  0.525440  1
  As  As14  1  0.651914  0.750000  0.474560  1
  As  As15  1  0.848086  0.250000  0.974560  1
  H  H16  1  0.171510  0.135176  0.046714  1
  H  H17  1  0.171510  0.364824  0.046714  1
  H  H18  1  0.200648  0.522535  0.693414  1
  H  H19  1  0.200648  0.977465  0.693414  1
  H  H20  1  0.299352  0.022535  0.193414  1
  H  H21  1  0.299352  0.477465  0.193414  1
  H  H22  1  0.328490  0.635176  0.546714  1
  H  H23  1  0.328490  0.864824  0.546714  1
  H  H24  1  0.671510  0.135176  0.453286  1
  H  H25  1  0.671510  0.364824  0.453286  1
  H  H26  1  0.700648  0.522535  0.806586  1
  H  H27  1  0.700648  0.977465  0.806586  1
  H  H28  1  0.799352  0.022535  0.306586  1
  H  H29  1  0.799352  0.477465  0.306586  1
  H  H30  1  0.828490  0.864824  0.953286  1
  H  H31  1  0.828490  0.635176  0.953286  1
  O  O32  1  0.090790  0.644072  0.172711  1
  O  O33  1  0.090790  0.855928  0.172711  1
  O  O34  1  0.099189  0.505215  0.686386  1
  O  O35  1  0.099189  0.994785  0.686386  1
  O  O36  1  0.099838  0.750000  0.719707  1
  O  O37  1  0.143800  0.081590  0.158832  1
  O  O38  1  0.143800  0.418410  0.158832  1
  O  O39  1  0.168314  0.250000  0.554625  1
  O  O40  1  0.331686  0.750000  0.054625  1
  O  O41  1  0.356200  0.581590  0.658832  1
  O  O42  1  0.356200  0.918410  0.658832  1
  O  O43  1  0.400162  0.250000  0.219707  1
  O  O44  1  0.400811  0.005215  0.186386  1
  O  O45  1  0.400811  0.494785  0.186386  1
  O  O46  1  0.409210  0.144072  0.672711  1
  O  O47  1  0.409210  0.355928  0.672711  1
  O  O48  1  0.590790  0.855928  0.327289  1
  O  O49  1  0.590790  0.644072  0.327289  1
  O  O50  1  0.599189  0.505215  0.813614  1
  O  O51  1  0.599189  0.994785  0.813614  1
  O  O52  1  0.599838  0.750000  0.780293  1
  O  O53  1  0.643800  0.081590  0.341168  1
  O  O54  1  0.643800  0.418410  0.341168  1
  O  O55  1  0.668314  0.250000  0.945375  1
  O  O56  1  0.831686  0.750000  0.445375  1
  O  O57  1  0.856200  0.581590  0.841168  1
  O  O58  1  0.856200  0.918410  0.841168  1
  O  O59  1  0.900162  0.250000  0.280293  1
  O  O60  1  0.900811  0.005215  0.313614  1
  O  O61  1  0.900811  0.494785  0.313614  1
  O  O62  1  0.909210  0.144072  0.827289  1
  O  O63  1  0.909210  0.355928  0.827289  1
