# generated using pymatgen
data_Na3CoO3
_symmetry_space_group_name_H-M   'P 1'
_cell_length_a   6.62600689
_cell_length_b   6.62600689
_cell_length_c   4.77971878
_cell_angle_alpha   90.00000000
_cell_angle_beta   90.00000000
_cell_angle_gamma   78.44935357
_symmetry_Int_Tables_number   1
_chemical_formula_structural   Na3CoO3
_chemical_formula_sum   'Na6 Co2 O6'
_cell_volume   205.59878167
_cell_formula_units_Z   2
loop_
 _symmetry_equiv_pos_site_id
 _symmetry_equiv_pos_as_xyz
  1  'x, y, z'
loop_
 _atom_site_type_symbol
 _atom_site_label
 _atom_site_symmetry_multiplicity
 _atom_site_fract_x
 _atom_site_fract_y
 _atom_site_fract_z
 _atom_site_occupancy
  Na  Na0  1  0.114572  0.666433  0.250000  1
  Na  Na1  1  0.333567  0.885428  0.750000  1
  Na  Na2  1  0.600155  0.600155  0.250000  1
  Na  Na3  1  0.399845  0.399845  0.750000  1
  Na  Na4  1  0.666433  0.114572  0.250000  1
  Na  Na5  1  0.885428  0.333567  0.750000  1
  Co  Co6  1  0.197294  0.197294  0.250000  1
  Co  Co7  1  0.802706  0.802706  0.750000  1
  O  O8  1  0.067798  0.686066  0.750000  1
  O  O9  1  0.313934  0.932202  0.250000  1
  O  O10  1  0.372602  0.372602  0.250000  1
  O  O11  1  0.627398  0.627398  0.750000  1
  O  O12  1  0.932202  0.313934  0.250000  1
  O  O13  1  0.686066  0.067798  0.750000  1
