# generated using pymatgen
data_LiFe2(BO3)2
_symmetry_space_group_name_H-M   'P 1'
_cell_length_a   5.24859023
_cell_length_b   9.14136440
_cell_length_c   11.31330947
_cell_angle_alpha   67.27366581
_cell_angle_beta   76.52561729
_cell_angle_gamma   89.94531722
_symmetry_Int_Tables_number   1
_chemical_formula_structural   LiFe2(BO3)2
_chemical_formula_sum   'Li4 Fe8 B8 O24'
_cell_volume   484.47416409
_cell_formula_units_Z   4
loop_
 _symmetry_equiv_pos_site_id
 _symmetry_equiv_pos_as_xyz
  1  'x, y, z'
loop_
 _atom_site_type_symbol
 _atom_site_label
 _atom_site_symmetry_multiplicity
 _atom_site_fract_x
 _atom_site_fract_y
 _atom_site_fract_z
 _atom_site_occupancy
  Li  Li0  1  0.705892  0.724914  0.912520  1
  Li  Li1  1  0.518943  0.494873  0.654021  1
  Li  Li2  1  0.020765  0.996833  0.657104  1
  Li  Li3  1  0.228501  0.243728  0.166715  1
  Fe  Fe4  1  0.978530  0.647863  0.371984  1
  Fe  Fe5  1  0.731464  0.073673  0.881680  1
  Fe  Fe6  1  0.538154  0.844560  0.620945  1
  Fe  Fe7  1  0.747475  0.442982  0.140980  1
  Fe  Fe8  1  0.223955  0.559493  0.880497  1
  Fe  Fe9  1  0.488526  0.146659  0.380435  1
  Fe  Fe10  1  0.038796  0.348878  0.626363  1
  Fe  Fe11  1  0.248922  0.929018  0.129304  1
  B  B12  1  0.982774  0.316907  0.378522  1
  B  B13  1  0.733859  0.405364  0.871874  1
  B  B14  1  0.525237  0.181307  0.631639  1
  B  B15  1  0.765946  0.109998  0.127045  1
  B  B16  1  0.473118  0.810633  0.377525  1
  B  B17  1  0.233808  0.893700  0.876419  1
  B  B18  1  0.021823  0.681806  0.631397  1
  B  B19  1  0.268081  0.600879  0.123509  1
  O  O20  1  0.980304  0.915276  0.861604  1
  O  O21  1  0.870740  0.291226  0.838981  1
  O  O22  1  0.850514  0.507054  0.914398  1
  O  O23  1  0.902414  0.812191  0.638028  1
  O  O24  1  0.914465  0.578944  0.587019  1
  O  O25  1  0.757935  0.146053  0.675700  1
  O  O26  1  0.741779  0.320493  0.346832  1
  O  O27  1  0.482667  0.423672  0.857614  1
  O  O28  1  0.368351  0.774330  0.845723  1
  O  O29  1  0.543549  0.927047  0.419124  1
  O  O30  1  0.626009  0.689416  0.383154  1
  O  O31  1  0.365974  0.986268  0.918291  1
  O  O32  1  0.649958  0.021726  0.072716  1
  O  O33  1  0.405751  0.311458  0.633448  1
  O  O34  1  0.417667  0.075721  0.587073  1
  O  O35  1  0.601814  0.208665  0.175525  1
  O  O36  1  0.532587  0.621139  0.102895  1
  O  O37  1  0.255568  0.647065  0.674980  1
  O  O38  1  0.239980  0.818738  0.338062  1
  O  O39  1  0.054198  0.426861  0.423871  1
  O  O40  1  0.147545  0.206501  0.361363  1
  O  O41  1  0.157959  0.489018  0.084161  1
  O  O42  1  0.099352  0.690745  0.175646  1
  O  O43  1  0.020552  0.103469  0.132191  1
