# generated using pymatgen
data_Li2MnSiO4
_symmetry_space_group_name_H-M   'P 1'
_cell_length_a   10.61267055
_cell_length_b   5.41888502
_cell_length_c   13.12695778
_cell_angle_alpha   89.99926809
_cell_angle_beta   90.00051800
_cell_angle_gamma   89.99888175
_symmetry_Int_Tables_number   1
_chemical_formula_structural   Li2MnSiO4
_chemical_formula_sum   'Li16 Mn8 Si8 O32'
_cell_volume   754.91613378
_cell_formula_units_Z   8
loop_
 _symmetry_equiv_pos_site_id
 _symmetry_equiv_pos_as_xyz
  1  'x, y, z'
loop_
 _atom_site_type_symbol
 _atom_site_label
 _atom_site_symmetry_multiplicity
 _atom_site_fract_x
 _atom_site_fract_y
 _atom_site_fract_z
 _atom_site_occupancy
  Li  Li0  1  0.967775  0.957833  0.563027  1
  Li  Li1  1  0.948078  0.447435  0.940139  1
  Li  Li2  1  0.212074  0.364287  0.297719  1
  Li  Li3  1  0.208013  0.853585  0.203112  1
  Li  Li4  1  0.291988  0.853585  0.703113  1
  Li  Li5  1  0.287928  0.364288  0.797719  1
  Li  Li6  1  0.532109  0.957109  0.063014  1
  Li  Li7  1  0.551947  0.447419  0.440132  1
  Li  Li8  1  0.448093  0.552563  0.940112  1
  Li  Li9  1  0.467827  0.042570  0.563034  1
  Li  Li10  1  0.712111  0.635771  0.297684  1
  Li  Li11  1  0.708007  0.146402  0.203125  1
  Li  Li12  1  0.791988  0.146404  0.703119  1
  Li  Li13  1  0.787925  0.635716  0.797723  1
  Li  Li14  1  0.032216  0.042572  0.063038  1
  Li  Li15  1  0.051946  0.552587  0.440128  1
  Mn  Mn16  1  0.038430  0.956510  0.813340  1
  Mn  Mn17  1  0.205654  0.527721  0.056229  1
  Mn  Mn18  1  0.294409  0.527776  0.556267  1
  Mn  Mn19  1  0.461496  0.956316  0.313310  1
  Mn  Mn20  1  0.538529  0.043634  0.813309  1
  Mn  Mn21  1  0.705554  0.472131  0.056216  1
  Mn  Mn22  1  0.794454  0.472341  0.556269  1
  Mn  Mn23  1  0.961494  0.043521  0.313317  1
  Si  Si24  1  0.035509  0.466912  0.688667  1
  Si  Si25  1  0.208298  0.034547  0.439570  1
  Si  Si26  1  0.291735  0.034514  0.939567  1
  Si  Si27  1  0.464476  0.466788  0.188684  1
  Si  Si28  1  0.535514  0.533147  0.688677  1
  Si  Si29  1  0.708281  0.965477  0.439575  1
  Si  Si30  1  0.791671  0.965444  0.939600  1
  Si  Si31  1  0.964500  0.533133  0.188658  1
  O  O32  1  0.024649  0.404995  0.292658  1
  O  O33  1  0.010137  0.826659  0.187993  1
  O  O34  1  0.065468  0.917101  0.437265  1
  O  O35  1  0.025427  0.406552  0.084962  1
  O  O36  1  0.190024  0.516761  0.691558  1
  O  O37  1  0.231284  0.001104  0.823525  1
  O  O38  1  0.199775  0.338157  0.450612  1
  O  O39  1  0.205023  0.911227  0.030333  1
  O  O40  1  0.295025  0.911226  0.530335  1
  O  O41  1  0.300234  0.338107  0.950565  1
  O  O42  1  0.268697  0.001101  0.323533  1
  O  O43  1  0.309957  0.516737  0.191568  1
  O  O44  1  0.474651  0.406478  0.584976  1
  O  O45  1  0.434545  0.917168  0.937238  1
  O  O46  1  0.489852  0.826657  0.687992  1
  O  O47  1  0.475358  0.405004  0.792662  1
  O  O48  1  0.524645  0.594934  0.292657  1
  O  O49  1  0.510145  0.173312  0.188005  1
  O  O50  1  0.565464  0.082855  0.437277  1
  O  O51  1  0.525330  0.593416  0.084967  1
  O  O52  1  0.690035  0.483255  0.691565  1
  O  O53  1  0.731313  0.998888  0.823538  1
  O  O54  1  0.699752  0.661869  0.450617  1
  O  O55  1  0.704944  0.088698  0.030351  1
  O  O56  1  0.795026  0.088800  0.530332  1
  O  O57  1  0.800241  0.661837  0.950609  1
  O  O58  1  0.768697  0.998902  0.323539  1
  O  O59  1  0.809983  0.483251  0.191549  1
  O  O60  1  0.974602  0.593467  0.584961  1
  O  O61  1  0.934471  0.083048  0.937333  1
  O  O62  1  0.989854  0.173367  0.687996  1
  O  O63  1  0.975365  0.595027  0.792659  1
