# generated using pymatgen
data_Y(Bi5O8)3
_symmetry_space_group_name_H-M   'P 1'
_cell_length_a   7.76817439
_cell_length_b   7.93483318
_cell_length_c   11.36640894
_cell_angle_alpha   89.11314904
_cell_angle_beta   90.00000000
_cell_angle_gamma   90.00000000
_symmetry_Int_Tables_number   1
_chemical_formula_structural   Y(Bi5O8)3
_chemical_formula_sum   'Y1 Bi15 O24'
_cell_volume   700.53206284
_cell_formula_units_Z   1
loop_
 _symmetry_equiv_pos_site_id
 _symmetry_equiv_pos_as_xyz
  1  'x, y, z'
loop_
 _atom_site_type_symbol
 _atom_site_label
 _atom_site_symmetry_multiplicity
 _atom_site_fract_x
 _atom_site_fract_y
 _atom_site_fract_z
 _atom_site_occupancy
  Y  Y0  1  0.000000  0.289155  0.114421  1
  Bi  Bi1  1  0.000000  0.753911  0.125303  1
  Bi  Bi2  1  0.000000  0.260263  0.619908  1
  Bi  Bi3  1  0.000000  0.740754  0.619751  1
  Bi  Bi4  1  0.243656  0.506396  0.370812  1
  Bi  Bi5  1  0.245413  0.495846  0.872503  1
  Bi  Bi6  1  0.251755  0.010760  0.375945  1
  Bi  Bi7  1  0.254227  0.995321  0.879176  1
  Bi  Bi8  1  0.500000  0.231165  0.134820  1
  Bi  Bi9  1  0.500000  0.237965  0.628703  1
  Bi  Bi10  1  0.500000  0.756998  0.630441  1
  Bi  Bi11  1  0.500000  0.755022  0.130561  1
  Bi  Bi12  1  0.748245  0.010760  0.375945  1
  Bi  Bi13  1  0.745773  0.995321  0.879176  1
  Bi  Bi14  1  0.756344  0.506396  0.370812  1
  Bi  Bi15  1  0.754587  0.495846  0.872503  1
  O  O16  1  0.000000  0.516637  0.212625  1
  O  O17  1  0.000000  0.498816  0.458328  1
  O  O18  1  0.000000  0.498624  0.707856  1
  O  O19  1  0.000000  0.495908  0.956578  1
  O  O20  1  0.203535  0.195216  0.238485  1
  O  O21  1  0.206291  0.201657  0.749909  1
  O  O22  1  0.208543  0.803206  0.250667  1
  O  O23  1  0.204410  0.794987  0.750499  1
  O  O24  1  0.276128  0.288560  0.004455  1
  O  O25  1  0.295167  0.293714  0.496183  1
  O  O26  1  0.296295  0.696722  0.001206  1
  O  O27  1  0.295018  0.698066  0.501842  1
  O  O28  1  0.500000  0.998809  0.544391  1
  O  O29  1  0.500000  0.997039  0.043032  1
  O  O30  1  0.500000  0.008636  0.294277  1
  O  O31  1  0.500000  0.999401  0.795640  1
  O  O32  1  0.723872  0.288560  0.004455  1
  O  O33  1  0.704833  0.293714  0.496183  1
  O  O34  1  0.703705  0.696722  0.001206  1
  O  O35  1  0.704982  0.698066  0.501842  1
  O  O36  1  0.796465  0.195216  0.238485  1
  O  O37  1  0.791457  0.803206  0.250667  1
  O  O38  1  0.793709  0.201657  0.749909  1
  O  O39  1  0.795590  0.794987  0.750499  1
