# generated using pymatgen
data_Yb2MgS4
_symmetry_space_group_name_H-M   'P 1'
_cell_length_a   7.93544474
_cell_length_b   7.93544473
_cell_length_c   7.93544473
_cell_angle_alpha   59.99999997
_cell_angle_beta   59.99999998
_cell_angle_gamma   59.99999996
_symmetry_Int_Tables_number   1
_chemical_formula_structural   Yb2MgS4
_chemical_formula_sum   'Yb4 Mg2 S8'
_cell_volume   353.34489066
_cell_formula_units_Z   2
loop_
 _symmetry_equiv_pos_site_id
 _symmetry_equiv_pos_as_xyz
  1  'x, y, z'
loop_
 _atom_site_type_symbol
 _atom_site_label
 _atom_site_symmetry_multiplicity
 _atom_site_fract_x
 _atom_site_fract_y
 _atom_site_fract_z
 _atom_site_occupancy
  Mg  Mg0  1  0.875000  0.875000  0.875000  1
  Mg  Mg1  1  0.125000  0.125000  0.125000  1
  S  S2  1  0.252104  0.252104  0.743687  1
  S  S3  1  0.747896  0.747896  0.747896  1
  S  S4  1  0.747896  0.747896  0.256313  1
  S  S5  1  0.252104  0.743687  0.252104  1
  S  S6  1  0.252104  0.252104  0.252104  1
  S  S7  1  0.256313  0.747896  0.747896  1
  S  S8  1  0.747896  0.256313  0.747896  1
  S  S9  1  0.743687  0.252104  0.252104  1
  Yb  Yb10  1  0.500000  0.500000  0.500000  1
  Yb  Yb11  1  0.500000  0.000000  0.500000  1
  Yb  Yb12  1  0.000000  0.500000  0.500000  1
  Yb  Yb13  1  0.500000  0.500000  0.000000  1
