# generated using pymatgen
data_Li2Mn(SiO3)2
_symmetry_space_group_name_H-M   'P 1'
_cell_length_a   5.21892931
_cell_length_b   10.49345115
_cell_length_c   5.21875477
_cell_angle_alpha   104.11386817
_cell_angle_beta   88.96749569
_cell_angle_gamma   75.85889582
_symmetry_Int_Tables_number   1
_chemical_formula_structural   Li2Mn(SiO3)2
_chemical_formula_sum   'Li4 Mn2 Si4 O12'
_cell_volume   267.85966868
_cell_formula_units_Z   2
loop_
 _symmetry_equiv_pos_site_id
 _symmetry_equiv_pos_as_xyz
  1  'x, y, z'
loop_
 _atom_site_type_symbol
 _atom_site_label
 _atom_site_symmetry_multiplicity
 _atom_site_fract_x
 _atom_site_fract_y
 _atom_site_fract_z
 _atom_site_occupancy
  Li  Li0  1  0.531605  0.833009  0.916345  1
  Li  Li1  1  0.114879  0.666164  0.831189  1
  Li  Li2  1  0.830991  0.333208  0.116089  1
  Li  Li3  1  0.913988  0.166037  0.531888  1
  Mn  Mn4  1  0.724355  0.499622  0.725923  1
  Mn  Mn5  1  0.974681  0.999470  0.975431  1
  Si  Si6  1  0.171445  0.833111  0.396776  1
  Si  Si7  1  0.754794  0.665898  0.313570  1
  Si  Si8  1  0.312286  0.333207  0.754035  1
  Si  Si9  1  0.396075  0.165934  0.170095  1
  O  O10  1  0.057478  0.985162  0.582846  1
  O  O11  1  0.188017  0.826035  0.081169  1
  O  O12  1  0.987714  0.733380  0.470232  1
  O  O13  1  0.471420  0.765429  0.486383  1
  O  O14  1  0.764474  0.672983  0.004397  1
  O  O15  1  0.793109  0.513620  0.347534  1
  O  O16  1  0.345970  0.485447  0.793105  1
  O  O17  1  0.003555  0.325942  0.764178  1
  O  O18  1  0.485332  0.234261  0.469346  1
  O  O19  1  0.470025  0.264807  0.984721  1
  O  O20  1  0.080191  0.173110  0.187645  1
  O  O21  1  0.582292  0.013665  0.058098  1
