# generated using pymatgen
data_Na8SnO6
_symmetry_space_group_name_H-M   'P 1'
_cell_length_a   6.35187127
_cell_length_b   6.77260671
_cell_length_c   6.35187087
_cell_angle_alpha   117.96540588
_cell_angle_beta   59.99999651
_cell_angle_gamma   117.96540772
_symmetry_Int_Tables_number   1
_chemical_formula_structural   Na8SnO6
_chemical_formula_sum   'Na8 Sn1 O6'
_cell_volume   198.94671896
_cell_formula_units_Z   1
loop_
 _symmetry_equiv_pos_site_id
 _symmetry_equiv_pos_as_xyz
  1  'x, y, z'
loop_
 _atom_site_type_symbol
 _atom_site_label
 _atom_site_symmetry_multiplicity
 _atom_site_fract_x
 _atom_site_fract_y
 _atom_site_fract_z
 _atom_site_occupancy
  Na  Na0  1  0.341074  0.023222  0.341074  1
  Na  Na1  1  0.093005  0.345384  0.497947  1
  Na  Na2  1  0.245566  0.654616  0.906995  1
  Na  Na3  1  0.502053  0.654616  0.245566  1
  Na  Na4  1  0.497947  0.345384  0.754434  1
  Na  Na5  1  0.754434  0.345384  0.093005  1
  Na  Na6  1  0.906995  0.654616  0.502053  1
  Na  Na7  1  0.658926  0.976778  0.658926  1
  Sn  Sn8  1  0.000000  0.000000  0.000000  1
  O  O9  1  0.220715  0.782065  0.648014  1
  O  O10  1  0.351986  0.217935  0.086664  1
  O  O11  1  0.086664  0.217935  0.779285  1
  O  O12  1  0.913336  0.782065  0.220715  1
  O  O13  1  0.648014  0.782065  0.913336  1
  O  O14  1  0.779285  0.217935  0.351986  1
