# generated using pymatgen
data_V6O5F19
_symmetry_space_group_name_H-M   'P 1'
_cell_length_a   5.53360487
_cell_length_b   5.37556729
_cell_length_c   14.85943629
_cell_angle_alpha   89.61164768
_cell_angle_beta   100.51402664
_cell_angle_gamma   92.54004598
_symmetry_Int_Tables_number   1
_chemical_formula_structural   V6O5F19
_chemical_formula_sum   'V6 O5 F19'
_cell_volume   434.16408190
_cell_formula_units_Z   1
loop_
 _symmetry_equiv_pos_site_id
 _symmetry_equiv_pos_as_xyz
  1  'x, y, z'
loop_
 _atom_site_type_symbol
 _atom_site_label
 _atom_site_symmetry_multiplicity
 _atom_site_fract_x
 _atom_site_fract_y
 _atom_site_fract_z
 _atom_site_occupancy
  V  V0  1  0.012925  0.054051  0.994585  1
  V  V1  1  0.199750  0.455852  0.329232  1
  V  V2  1  0.278087  0.035383  0.662484  1
  V  V3  1  0.474356  0.561694  0.006223  1
  V  V4  1  0.711884  0.965611  0.336933  1
  V  V5  1  0.819662  0.510783  0.668077  1
  O  O6  1  0.035895  0.205600  0.642593  1
  O  O7  1  0.208145  0.286045  0.979562  1
  O  O8  1  0.361787  0.226603  0.311514  1
  O  O9  1  0.295702  0.785507  0.023605  1
  O  O10  1  0.949946  0.799040  0.354754  1
  F  F11  1  0.133147  0.719731  0.690175  1
  F  F12  1  0.041452  0.054419  0.115084  1
  F  F13  1  0.189255  0.434012  0.447678  1
  F  F14  1  0.392708  0.070403  0.780407  1
  F  F15  1  0.119023  0.593026  0.219637  1
  F  F16  1  0.307237  0.912358  0.555238  1
  F  F17  1  0.453644  0.556447  0.886041  1
  F  F18  1  0.516428  0.297470  0.642844  1
  F  F19  1  0.723007  0.201051  0.973875  1
  F  F20  1  0.465487  0.710566  0.360341  1
  F  F21  1  0.656534  0.783330  0.692717  1
  F  F22  1  0.548594  0.403912  0.112488  1
  F  F23  1  0.706288  0.093654  0.446393  1
  F  F24  1  0.888897  0.400636  0.782006  1
  F  F25  1  0.592863  0.926348  0.218559  1
  F  F26  1  0.798867  0.570740  0.549658  1
  F  F27  1  0.959685  0.898016  0.887692  1
  F  F28  1  0.875066  0.278428  0.306280  1
  F  F29  1  0.783680  0.709283  0.023329  1
