# generated using pymatgen
data_Li2Mn3(BO3)3
_symmetry_space_group_name_H-M   'P 1'
_cell_length_a   8.28454729
_cell_length_b   8.83805948
_cell_length_c   6.32098916
_cell_angle_alpha   68.14368933
_cell_angle_beta   91.05188883
_cell_angle_gamma   62.91446381
_symmetry_Int_Tables_number   1
_chemical_formula_structural   Li2Mn3(BO3)3
_chemical_formula_sum   'Li4 Mn6 B6 O18'
_cell_volume   372.42672589
_cell_formula_units_Z   2
loop_
 _symmetry_equiv_pos_site_id
 _symmetry_equiv_pos_as_xyz
  1  'x, y, z'
loop_
 _atom_site_type_symbol
 _atom_site_label
 _atom_site_symmetry_multiplicity
 _atom_site_fract_x
 _atom_site_fract_y
 _atom_site_fract_z
 _atom_site_occupancy
  Li  Li0  1  0.984896  0.715511  0.378758  1
  Li  Li1  1  0.978084  0.713533  0.900497  1
  Li  Li2  1  0.721916  0.296343  0.620201  1
  Li  Li3  1  0.294091  0.983162  0.248988  1
  Mn  Mn4  1  0.371444  0.625579  0.191603  1
  Mn  Mn5  1  0.363925  0.641735  0.693262  1
  Mn  Mn6  1  0.648778  0.028009  0.468024  1
  Mn  Mn7  1  0.599411  0.022356  0.970546  1
  Mn  Mn8  1  0.014521  0.329340  0.349367  1
  Mn  Mn9  1  0.004713  0.361808  0.829375  1
  B  B10  1  0.670868  0.676380  0.927388  1
  B  B11  1  0.669710  0.667360  0.404497  1
  B  B12  1  0.330881  0.343829  0.577862  1
  B  B13  1  0.331057  0.329485  0.076932  1
  B  B14  1  0.993688  0.992742  0.005091  1
  B  B15  1  0.002797  0.988485  0.506295  1
  O  O16  1  0.895378  0.895437  0.044635  1
  O  O17  1  0.934117  0.862059  0.561413  1
  O  O18  1  0.859960  0.560049  0.464849  1
  O  O19  1  0.857987  0.548524  0.984816  1
  O  O20  1  0.612529  0.867946  0.810852  1
  O  O21  1  0.579718  0.863889  0.281197  1
  O  O22  1  0.878282  0.176377  0.442507  1
  O  O23  1  0.902154  0.185249  0.905759  1
  O  O24  1  0.560485  0.583102  0.470316  1
  O  O25  1  0.539933  0.618898  0.975587  1
  O  O26  1  0.188016  0.894571  0.066924  1
  O  O27  1  0.189732  0.923578  0.515833  1
  O  O28  1  0.525883  0.224523  0.637853  1
  O  O29  1  0.521313  0.212419  0.097477  1
  O  O30  1  0.259671  0.538118  0.453565  1
  O  O31  1  0.263129  0.521796  0.993935  1
  O  O32  1  0.216636  0.272209  0.644855  1
  O  O33  1  0.217987  0.251977  0.140751  1
