# generated using pymatgen
data_Ni2S
_symmetry_space_group_name_H-M   'P 1'
_cell_length_a   4.67009518
_cell_length_b   2.86373659
_cell_length_c   8.41648274
_cell_angle_alpha   90.00000000
_cell_angle_beta   154.30356242
_cell_angle_gamma   72.14532984
_symmetry_Int_Tables_number   1
_chemical_formula_structural   Ni2S
_chemical_formula_sum   'Ni2 S1'
_cell_volume   34.51173373
_cell_formula_units_Z   1
loop_
 _symmetry_equiv_pos_site_id
 _symmetry_equiv_pos_as_xyz
  1  'x, y, z'
loop_
 _atom_site_type_symbol
 _atom_site_label
 _atom_site_symmetry_multiplicity
 _atom_site_fract_x
 _atom_site_fract_y
 _atom_site_fract_z
 _atom_site_occupancy
  Ni  Ni0  1  0.000000  0.000000  0.484551  1
  Ni  Ni1  1  0.000000  0.000000  0.182341  1
  S  S2  1  0.000000  0.000000  0.833107  1
