# generated using pymatgen
data_Mn12O7F17
_symmetry_space_group_name_H-M   'P 1'
_cell_length_a   4.84262452
_cell_length_b   5.82236721
_cell_length_c   15.82110398
_cell_angle_alpha   91.18039360
_cell_angle_beta   90.76568929
_cell_angle_gamma   84.79961561
_symmetry_Int_Tables_number   1
_chemical_formula_structural   Mn12O7F17
_chemical_formula_sum   'Mn12 O7 F17'
_cell_volume   444.12448416
_cell_formula_units_Z   1
loop_
 _symmetry_equiv_pos_site_id
 _symmetry_equiv_pos_as_xyz
  1  'x, y, z'
loop_
 _atom_site_type_symbol
 _atom_site_label
 _atom_site_symmetry_multiplicity
 _atom_site_fract_x
 _atom_site_fract_y
 _atom_site_fract_z
 _atom_site_occupancy
  Mn  Mn0  1  0.996983  0.176883  0.416814  1
  Mn  Mn1  1  0.032097  0.833544  0.245171  1
  Mn  Mn2  1  0.995849  0.153613  0.084297  1
  Mn  Mn3  1  0.005086  0.151122  0.746696  1
  Mn  Mn4  1  0.008185  0.817005  0.583204  1
  Mn  Mn5  1  0.010016  0.829270  0.904718  1
  Mn  Mn6  1  0.510196  0.351224  0.595462  1
  Mn  Mn7  1  0.508515  0.327295  0.926897  1
  Mn  Mn8  1  0.494678  0.352103  0.257026  1
  Mn  Mn9  1  0.507150  0.663453  0.084246  1
  Mn  Mn10  1  0.508893  0.650710  0.406963  1
  Mn  Mn11  1  0.486762  0.651487  0.746957  1
  O  O12  1  0.222305  0.887073  0.133774  1
  O  O13  1  0.223849  0.888738  0.795906  1
  O  O14  1  0.282315  0.607063  0.308900  1
  O  O15  1  0.292685  0.604714  0.642665  1
  O  O16  1  0.725040  0.390875  0.036616  1
  O  O17  1  0.713485  0.390509  0.357337  1
  O  O18  1  0.733633  0.390388  0.696578  1
  F  F19  1  0.236667  0.109695  0.307231  1
  F  F20  1  0.223110  0.109794  0.637819  1
  F  F21  1  0.213368  0.113353  0.974379  1
  F  F22  1  0.243046  0.878418  0.468422  1
  F  F23  1  0.264991  0.381615  0.149997  1
  F  F24  1  0.276780  0.379635  0.487981  1
  F  F25  1  0.249571  0.381571  0.815860  1
  F  F26  1  0.268600  0.618039  0.980479  1
  F  F27  1  0.726898  0.627977  0.190540  1
  F  F28  1  0.733016  0.616299  0.514382  1
  F  F29  1  0.699222  0.620802  0.856571  1
  F  F30  1  0.765033  0.125080  0.196249  1
  F  F31  1  0.762078  0.118953  0.531699  1
  F  F32  1  0.786344  0.890430  0.356188  1
  F  F33  1  0.759050  0.895503  0.018682  1
  F  F34  1  0.771886  0.118718  0.852879  1
  F  F35  1  0.762617  0.897047  0.690413  1
