# generated using pymatgen
data_Li4V3P8O29
_symmetry_space_group_name_H-M   'P 1'
_cell_length_a   9.78957206
_cell_length_b   9.73904540
_cell_length_c   14.17419812
_cell_angle_alpha   89.81037831
_cell_angle_beta   90.53623860
_cell_angle_gamma   59.74251443
_symmetry_Int_Tables_number   1
_chemical_formula_structural   Li4V3P8O29
_chemical_formula_sum   'Li8 V6 P16 O58'
_cell_volume   1167.18254496
_cell_formula_units_Z   2
loop_
 _symmetry_equiv_pos_site_id
 _symmetry_equiv_pos_as_xyz
  1  'x, y, z'
loop_
 _atom_site_type_symbol
 _atom_site_label
 _atom_site_symmetry_multiplicity
 _atom_site_fract_x
 _atom_site_fract_y
 _atom_site_fract_z
 _atom_site_occupancy
  Li  Li0  1  0.904911  0.764293  0.054449  1
  Li  Li1  1  0.768146  0.323669  0.054117  1
  Li  Li2  1  0.325661  0.906931  0.059367  1
  Li  Li3  1  0.685601  0.232076  0.442295  1
  Li  Li4  1  0.333045  0.766474  0.562346  1
  Li  Li5  1  0.318922  0.335701  0.607848  1
  Li  Li6  1  0.002503  0.997909  0.983736  1
  Li  Li7  1  0.002028  0.987337  0.514292  1
  V  V8  1  0.565477  0.436347  0.246455  1
  V  V9  1  0.430815  0.568439  0.752739  1
  V  V10  1  0.569908  0.997213  0.753000  1
  V  V11  1  0.436785  0.001905  0.252472  1
  V  V12  1  0.999299  0.561405  0.255932  1
  V  V13  1  0.998683  0.432242  0.746909  1
  P  P14  1  0.921425  0.772707  0.840981  1
  P  P15  1  0.778826  0.916147  0.342036  1
  P  P16  1  0.918866  0.301811  0.346449  1
  P  P17  1  0.668239  0.669087  0.132145  1
  P  P18  1  0.661816  0.670550  0.629764  1
  P  P19  1  0.779654  0.307201  0.838913  1
  P  P20  1  0.683392  0.222050  0.658631  1
  P  P21  1  0.310758  0.917056  0.844901  1
  P  P22  1  0.691379  0.083030  0.155539  1
  P  P23  1  0.316257  0.772807  0.345004  1
  P  P24  1  0.215862  0.696810  0.163911  1
  P  P25  1  0.338353  0.331355  0.369022  1
  P  P26  1  0.330722  0.332803  0.866854  1
  P  P27  1  0.085970  0.696588  0.656384  1
  P  P28  1  0.217704  0.088978  0.661124  1
  P  P29  1  0.082531  0.222329  0.160640  1
  O  O30  1  0.998419  0.804033  0.576476  1
  O  O31  1  0.914392  0.740319  0.335312  1
  O  O32  1  0.787219  0.992533  0.073307  1
  O  O33  1  0.746473  0.912799  0.829811  1
  O  O34  1  0.923783  0.614847  0.826646  1
  O  O35  1  0.814251  0.673488  0.177770  1
  O  O36  1  0.918728  0.462719  0.329393  1
  O  O37  1  0.993216  0.212239  0.077964  1
  O  O38  1  0.919460  0.339710  0.826359  1
  O  O39  1  0.652692  0.819629  0.679962  1
  O  O40  1  0.618691  0.918241  0.328618  1
  O  O41  1  0.812946  0.528492  0.678186  1
  O  O42  1  0.670538  0.677596  0.027279  1
  O  O43  1  0.667526  0.675124  0.525784  1
  O  O44  1  0.675956  0.512537  0.167857  1
  O  O45  1  0.466201  0.918248  0.830303  1
  O  O46  1  0.515102  0.814510  0.173904  1
  O  O47  1  0.744106  0.340016  0.334746  1
  O  O48  1  0.794260  0.199164  0.749156  1
  O  O49  1  0.769125  0.210858  0.570235  1
  O  O50  1  0.803822  0.216708  0.928631  1
  O  O51  1  0.622343  0.462701  0.828444  1
  O  O52  1  0.514674  0.665747  0.666385  1
  O  O53  1  0.657642  0.256701  0.156882  1
  O  O54  1  0.471544  0.618245  0.327785  1
  O  O55  1  0.345461  0.915041  0.326095  1
  O  O56  1  0.796259  0.002305  0.250053  1
  O  O57  1  0.788565  0.002227  0.425693  1
  O  O58  1  0.203888  0.992542  0.584264  1
  O  O59  1  0.650857  0.081572  0.666428  1
  O  O60  1  0.521500  0.376365  0.670420  1
  O  O61  1  0.344894  0.744952  0.830051  1
  O  O62  1  0.488903  0.327421  0.332865  1
  O  O63  1  0.378866  0.539072  0.172702  1
  O  O64  1  0.202221  0.802704  0.083890  1
  O  O65  1  0.241460  0.788291  0.437659  1
  O  O66  1  0.194611  0.788863  0.262326  1
  O  O67  1  0.261191  0.658257  0.659183  1
  O  O68  1  0.477340  0.184080  0.819928  1
  O  O69  1  0.534893  0.081252  0.171092  1
  O  O70  1  0.328975  0.480463  0.824447  1
  O  O71  1  0.328997  0.322052  0.970486  1
  O  O72  1  0.332812  0.328404  0.473863  1
  O  O73  1  0.188668  0.479449  0.323119  1
  O  O74  1  0.371832  0.096492  0.667522  1
  O  O75  1  0.335410  0.185548  0.322189  1
  O  O76  1  0.080039  0.658061  0.163226  1
  O  O77  1  0.014502  0.791062  0.754952  1
  O  O78  1  0.987513  0.790873  0.932408  1
  O  O79  1  0.091986  0.533736  0.664485  1
  O  O80  1  0.185121  0.333313  0.815553  1
  O  O81  1  0.075932  0.384557  0.174079  1
  O  O82  1  0.258237  0.086000  0.160978  1
  O  O83  1  0.228944  0.981797  0.935976  1
  O  O84  1  0.194598  0.020037  0.760113  1
  O  O85  1  0.079008  0.265222  0.659175  1
  O  O86  1  0.995224  0.213828  0.433877  1
  O  O87  1  0.007811  0.197019  0.255297  1
