# generated using pymatgen
data_LiCoSiO4
_symmetry_space_group_name_H-M   'P 1'
_cell_length_a   8.49714962
_cell_length_b   5.36810460
_cell_length_c   7.88721593
_cell_angle_alpha   90.00000000
_cell_angle_beta   105.00652249
_cell_angle_gamma   90.00000000
_symmetry_Int_Tables_number   1
_chemical_formula_structural   LiCoSiO4
_chemical_formula_sum   'Li4 Co4 Si4 O16'
_cell_volume   347.49494715
_cell_formula_units_Z   4
loop_
 _symmetry_equiv_pos_site_id
 _symmetry_equiv_pos_as_xyz
  1  'x, y, z'
loop_
 _atom_site_type_symbol
 _atom_site_label
 _atom_site_symmetry_multiplicity
 _atom_site_fract_x
 _atom_site_fract_y
 _atom_site_fract_z
 _atom_site_occupancy
  Li  Li0  1  0.203290  0.344912  0.868592  1
  Li  Li1  1  0.392319  0.832571  0.365556  1
  Li  Li2  1  0.703290  0.655088  0.868592  1
  Li  Li3  1  0.892319  0.167429  0.365556  1
  Co  Co4  1  0.067883  0.855184  0.968313  1
  Co  Co5  1  0.273400  0.329788  0.490476  1
  Co  Co6  1  0.567883  0.144816  0.968313  1
  Co  Co7  1  0.773400  0.670212  0.490476  1
  Si  Si8  1  0.018853  0.665516  0.253670  1
  Si  Si9  1  0.320744  0.829861  0.737655  1
  Si  Si10  1  0.518853  0.334484  0.253670  1
  Si  Si11  1  0.820744  0.170139  0.737655  1
  O  O12  1  0.002004  0.167623  0.882864  1
  O  O13  1  0.070968  0.382763  0.333630  1
  O  O14  1  0.184570  0.706987  0.828574  1
  O  O15  1  0.277339  0.125080  0.684652  1
  O  O16  1  0.175764  0.815300  0.214481  1
  O  O17  1  0.333422  0.659081  0.569270  1
  O  O18  1  0.502004  0.832377  0.882864  1
  O  O19  1  0.431092  0.192569  0.390571  1
  O  O20  1  0.402154  0.321378  0.050500  1
  O  O21  1  0.570968  0.617237  0.333630  1
  O  O22  1  0.684570  0.293013  0.828574  1
  O  O23  1  0.777339  0.874920  0.684652  1
  O  O24  1  0.675764  0.184700  0.214481  1
  O  O25  1  0.833422  0.340919  0.569270  1
  O  O26  1  0.931092  0.807431  0.390571  1
  O  O27  1  0.902154  0.678622  0.050500  1
