# generated using pymatgen
data_Li2FeF4
_symmetry_space_group_name_H-M   'P 1'
_cell_length_a   8.78959044
_cell_length_b   7.49218843
_cell_length_c   15.61222363
_cell_angle_alpha   90.00000000
_cell_angle_beta   90.35472780
_cell_angle_gamma   90.00000000
_symmetry_Int_Tables_number   1
_chemical_formula_structural   Li2FeF4
_chemical_formula_sum   'Li24 Fe12 F48'
_cell_volume   1028.09623913
_cell_formula_units_Z   12
loop_
 _symmetry_equiv_pos_site_id
 _symmetry_equiv_pos_as_xyz
  1  'x, y, z'
loop_
 _atom_site_type_symbol
 _atom_site_label
 _atom_site_symmetry_multiplicity
 _atom_site_fract_x
 _atom_site_fract_y
 _atom_site_fract_z
 _atom_site_occupancy
  Li  Li0  1  0.065968  0.653078  0.911319  1
  Li  Li1  1  0.053627  0.234146  0.912374  1
  Li  Li2  1  0.080134  0.830518  0.258599  1
  Li  Li3  1  0.077325  0.247761  0.269577  1
  Li  Li4  1  0.099112  0.669697  0.576821  1
  Li  Li5  1  0.115734  0.256663  0.572965  1
  Li  Li6  1  0.384266  0.756664  0.927035  1
  Li  Li7  1  0.400888  0.169698  0.923179  1
  Li  Li8  1  0.422675  0.747761  0.230423  1
  Li  Li9  1  0.419866  0.330518  0.241401  1
  Li  Li10  1  0.446373  0.734146  0.587626  1
  Li  Li11  1  0.434032  0.153078  0.588681  1
  Li  Li12  1  0.565968  0.846922  0.411319  1
  Li  Li13  1  0.553627  0.265854  0.412374  1
  Li  Li14  1  0.580134  0.669482  0.758599  1
  Li  Li15  1  0.577325  0.252239  0.769577  1
  Li  Li16  1  0.599112  0.830303  0.076821  1
  Li  Li17  1  0.615734  0.243337  0.072965  1
  Li  Li18  1  0.884266  0.743336  0.427035  1
  Li  Li19  1  0.900888  0.330302  0.423179  1
  Li  Li20  1  0.922675  0.752239  0.730423  1
  Li  Li21  1  0.919866  0.169482  0.741401  1
  Li  Li22  1  0.946373  0.765854  0.087626  1
  Li  Li23  1  0.934032  0.346922  0.088681  1
  Fe  Fe24  1  0.239969  0.956294  0.415473  1
  Fe  Fe25  1  0.288168  0.953079  0.734718  1
  Fe  Fe26  1  0.248015  0.053291  0.085607  1
  Fe  Fe27  1  0.211832  0.453079  0.765282  1
  Fe  Fe28  1  0.251985  0.553291  0.414393  1
  Fe  Fe29  1  0.260031  0.456294  0.084527  1
  Fe  Fe30  1  0.739969  0.543706  0.915473  1
  Fe  Fe31  1  0.748015  0.446709  0.585607  1
  Fe  Fe32  1  0.788168  0.546921  0.234718  1
  Fe  Fe33  1  0.751985  0.946709  0.914393  1
  Fe  Fe34  1  0.711832  0.046921  0.265282  1
  Fe  Fe35  1  0.760031  0.043706  0.584527  1
  F  F36  1  0.053989  0.553465  0.120309  1
  F  F37  1  0.069228  0.926594  0.147705  1
  F  F38  1  0.086894  0.768346  0.465581  1
  F  F39  1  0.071226  0.035371  0.332498  1
  F  F40  1  0.083001  0.400400  0.366568  1
  F  F41  1  0.118553  0.690298  0.790507  1
  F  F42  1  0.095120  0.238540  0.031033  1
  F  F43  1  0.091167  0.290247  0.695040  1
  F  F44  1  0.212216  0.466657  0.539159  1
  F  F45  1  0.245062  0.588809  0.969117  1
  F  F46  1  0.255083  0.775182  0.644742  1
  F  F47  1  0.236038  0.250958  0.189102  1
  F  F48  1  0.244917  0.275182  0.855258  1
  F  F49  1  0.263962  0.750958  0.310898  1
  F  F50  1  0.254938  0.088809  0.530883  1
  F  F51  1  0.287784  0.966657  0.960841  1
  F  F52  1  0.408833  0.790247  0.804960  1
  F  F53  1  0.381447  0.190298  0.709493  1
  F  F54  1  0.404880  0.738540  0.468967  1
  F  F55  1  0.416999  0.900400  0.133432  1
  F  F56  1  0.428774  0.535371  0.167502  1
  F  F57  1  0.413106  0.268346  0.034419  1
  F  F58  1  0.430772  0.426594  0.352295  1
  F  F59  1  0.446011  0.053465  0.379691  1
  F  F60  1  0.553989  0.946535  0.620309  1
  F  F61  1  0.569228  0.573406  0.647705  1
  F  F62  1  0.586894  0.731654  0.965581  1
  F  F63  1  0.571226  0.464629  0.832498  1
  F  F64  1  0.583001  0.099600  0.866568  1
  F  F65  1  0.595120  0.261460  0.531033  1
  F  F66  1  0.618553  0.809702  0.290507  1
  F  F67  1  0.591167  0.209753  0.195040  1
  F  F68  1  0.712216  0.033343  0.039159  1
  F  F69  1  0.745062  0.911191  0.469117  1
  F  F70  1  0.736038  0.249042  0.689102  1
  F  F71  1  0.755083  0.724818  0.144742  1
  F  F72  1  0.763962  0.749042  0.810898  1
  F  F73  1  0.744917  0.224818  0.355258  1
  F  F74  1  0.754938  0.411191  0.030883  1
  F  F75  1  0.787784  0.533343  0.460841  1
  F  F76  1  0.908833  0.709753  0.304960  1
  F  F77  1  0.904880  0.761460  0.968967  1
  F  F78  1  0.881447  0.309702  0.209493  1
  F  F79  1  0.916999  0.599600  0.633432  1
  F  F80  1  0.928774  0.964629  0.667502  1
  F  F81  1  0.913106  0.231654  0.534419  1
  F  F82  1  0.930772  0.073406  0.852295  1
  F  F83  1  0.946011  0.446535  0.879691  1
