# generated using pymatgen
data_KBiO3
_symmetry_space_group_name_H-M   'P 1'
_cell_length_a   8.77023122
_cell_length_b   8.77023122
_cell_length_c   8.94538683
_cell_angle_alpha   109.61138854
_cell_angle_beta   109.82062306
_cell_angle_gamma   108.16831186
_symmetry_Int_Tables_number   1
_chemical_formula_structural   KBiO3
_chemical_formula_sum   'K6 Bi6 O18'
_cell_volume   534.81429380
_cell_formula_units_Z   6
loop_
 _symmetry_equiv_pos_site_id
 _symmetry_equiv_pos_as_xyz
  1  'x, y, z'
loop_
 _atom_site_type_symbol
 _atom_site_label
 _atom_site_symmetry_multiplicity
 _atom_site_fract_x
 _atom_site_fract_y
 _atom_site_fract_z
 _atom_site_occupancy
  K  K0  1  0.500000  0.000000  0.000000  1
  K  K1  1  0.989167  0.987992  0.308907  1
  K  K2  1  0.320916  0.319741  0.308907  1
  K  K3  1  0.000000  0.500000  0.000000  1
  K  K4  1  0.010833  0.012008  0.691093  1
  K  K5  1  0.679084  0.680259  0.691093  1
  Bi  Bi6  1  0.841139  0.341139  0.500000  1
  Bi  Bi7  1  0.659808  0.499933  0.159740  1
  Bi  Bi8  1  0.501918  0.158982  0.660899  1
  Bi  Bi9  1  0.498082  0.841018  0.339101  1
  Bi  Bi10  1  0.158861  0.658861  0.500000  1
  Bi  Bi11  1  0.340192  0.500067  0.840260  1
  O  O12  1  0.716760  0.048241  0.339914  1
  O  O13  1  0.640847  0.994629  0.635477  1
  O  O14  1  0.359153  0.005371  0.364523  1
  O  O15  1  0.360404  0.360404  0.000000  1
  O  O16  1  0.639596  0.639596  0.000000  1
  O  O17  1  0.622013  0.338073  0.289211  1
  O  O18  1  0.951139  0.667199  0.289211  1
  O  O19  1  0.708328  0.376846  0.660086  1
  O  O20  1  0.335130  0.714118  0.049248  1
  O  O21  1  0.667140  0.712796  0.379937  1
  O  O22  1  0.332860  0.287204  0.620063  1
  O  O23  1  0.664870  0.285882  0.950752  1
  O  O24  1  0.291672  0.623154  0.339914  1
  O  O25  1  0.003951  0.359984  0.363936  1
  O  O26  1  0.377987  0.661927  0.710789  1
  O  O27  1  0.048861  0.332801  0.710789  1
  O  O28  1  0.996049  0.640016  0.636064  1
  O  O29  1  0.283240  0.951759  0.660086  1
