# generated using pymatgen
data_LiNiPO4
_symmetry_space_group_name_H-M   'P 1'
_cell_length_a   9.64312124
_cell_length_b   9.64312099
_cell_length_c   22.66705436
_cell_angle_alpha   90.00000000
_cell_angle_beta   90.00000000
_cell_angle_gamma   119.99999929
_symmetry_Int_Tables_number   1
_chemical_formula_structural   LiNiPO4
_chemical_formula_sum   'Li24 Ni24 P24 O96'
_cell_volume   1825.41226333
_cell_formula_units_Z   24
loop_
 _symmetry_equiv_pos_site_id
 _symmetry_equiv_pos_as_xyz
  1  'x, y, z'
loop_
 _atom_site_type_symbol
 _atom_site_label
 _atom_site_symmetry_multiplicity
 _atom_site_fract_x
 _atom_site_fract_y
 _atom_site_fract_z
 _atom_site_occupancy
  Li  Li0  1  0.101260  0.817399  0.277879  1
  Li  Li1  1  0.091749  0.758973  0.919471  1
  Li  Li2  1  0.130151  0.759406  0.596081  1
  Li  Li3  1  0.307634  0.665165  0.754115  1
  Li  Li4  1  0.334835  0.642470  0.087449  1
  Li  Li5  1  0.357530  0.692366  0.420782  1
  Li  Li6  1  0.182601  0.283861  0.611212  1
  Li  Li7  1  0.240594  0.370745  0.929414  1
  Li  Li8  1  0.241027  0.332776  0.252805  1
  Li  Li9  1  0.629255  0.869849  0.262748  1
  Li  Li10  1  0.667224  0.908251  0.586138  1
  Li  Li11  1  0.283861  0.101260  0.444545  1
  Li  Li12  1  0.716139  0.898740  0.944545  1
  Li  Li13  1  0.332776  0.091749  0.086138  1
  Li  Li14  1  0.370745  0.130151  0.762748  1
  Li  Li15  1  0.758973  0.667224  0.752805  1
  Li  Li16  1  0.759406  0.629255  0.429414  1
  Li  Li17  1  0.817399  0.716139  0.111212  1
  Li  Li18  1  0.642470  0.307634  0.920782  1
  Li  Li19  1  0.665165  0.357530  0.587449  1
  Li  Li20  1  0.692366  0.334835  0.254115  1
  Li  Li21  1  0.869849  0.240594  0.096081  1
  Li  Li22  1  0.908251  0.241027  0.419471  1
  Li  Li23  1  0.898740  0.182601  0.777879  1
  Ni  Ni24  1  0.992745  0.023186  0.713605  1
  Ni  Ni25  1  0.021365  0.565932  0.045489  1
  Ni  Ni26  1  0.051029  0.462776  0.192433  1
  Ni  Ni27  1  0.057518  0.497884  0.851539  1
  Ni  Ni28  1  0.411747  0.948971  0.859100  1
  Ni  Ni29  1  0.440366  0.942482  0.518205  1
  Ni  Ni30  1  0.976815  0.969560  0.046938  1
  Ni  Ni31  1  0.969560  0.992745  0.880271  1
  Ni  Ni32  1  0.544567  0.978635  0.712156  1
  Ni  Ni33  1  0.434068  0.455433  0.378823  1
  Ni  Ni34  1  0.502116  0.559635  0.184872  1
  Ni  Ni35  1  0.537224  0.588253  0.525767  1
  Ni  Ni36  1  0.462776  0.411747  0.025767  1
  Ni  Ni37  1  0.497884  0.440366  0.684872  1
  Ni  Ni38  1  0.565932  0.544567  0.878823  1
  Ni  Ni39  1  0.455433  0.021365  0.212156  1
  Ni  Ni40  1  0.030440  0.007255  0.380271  1
  Ni  Ni41  1  0.023186  0.030440  0.546938  1
  Ni  Ni42  1  0.559635  0.057518  0.018205  1
  Ni  Ni43  1  0.588253  0.051029  0.359100  1
  Ni  Ni44  1  0.942482  0.502116  0.351539  1
  Ni  Ni45  1  0.948971  0.537224  0.692433  1
  Ni  Ni46  1  0.978635  0.434068  0.545489  1
  Ni  Ni47  1  0.007255  0.976815  0.213605  1
  P  P48  1  0.089707  0.791707  0.788135  1
  P  P49  1  0.082381  0.754076  0.468844  1
  P  P50  1  0.139861  0.793483  0.137587  1
  P  P51  1  0.288382  0.651122  0.292224  1
  P  P52  1  0.362741  0.711618  0.958891  1
  P  P53  1  0.348878  0.637259  0.625557  1
  P  P54  1  0.206517  0.346378  0.470921  1
  P  P55  1  0.208293  0.298000  0.121469  1
  P  P56  1  0.245924  0.328304  0.802177  1
  P  P57  1  0.653622  0.860139  0.804254  1
  P  P58  1  0.671696  0.917619  0.135511  1
  P  P59  1  0.702000  0.910293  0.454802  1
  P  P60  1  0.298000  0.089707  0.954802  1
  P  P61  1  0.328304  0.082381  0.635511  1
  P  P62  1  0.346378  0.139861  0.304254  1
  P  P63  1  0.754076  0.671696  0.302177  1
  P  P64  1  0.791707  0.702000  0.621469  1
  P  P65  1  0.793483  0.653622  0.970921  1
  P  P66  1  0.651122  0.362741  0.125557  1
  P  P67  1  0.637259  0.288382  0.458891  1
  P  P68  1  0.711618  0.348878  0.792224  1
  P  P69  1  0.860139  0.206517  0.637587  1
  P  P70  1  0.917619  0.245924  0.968844  1
  P  P71  1  0.910293  0.208293  0.288135  1
  O  O72  1  0.050408  0.794533  0.080381  1
  O  O73  1  0.078581  0.917220  0.474032  1
  O  O74  1  0.011823  0.679154  0.841571  1
  O  O75  1  0.127464  0.972640  0.930519  1
  O  O76  1  0.036894  0.790443  0.190649  1
  O  O77  1  0.014116  0.655776  0.525451  1
  O  O78  1  0.243725  0.942823  0.807999  1
  O  O79  1  0.126177  0.646431  0.301209  1
  O  O80  1  0.122160  0.694130  0.741321  1
  O  O81  1  0.313214  0.974985  0.581890  1
  O  O82  1  0.314947  0.931345  0.139765  1
  O  O83  1  0.145174  0.633178  0.132914  1
  O  O84  1  0.259852  0.797002  0.460863  1
  O  O85  1  0.172439  0.587552  0.611812  1
  O  O86  1  0.068655  0.383603  0.473098  1
  O  O87  1  0.274693  0.732079  0.903672  1
  O  O88  1  0.025015  0.338229  0.915224  1
  O  O89  1  0.057177  0.300902  0.141333  1
  O  O90  1  0.027360  0.154824  0.263853  1
  O  O91  1  0.082780  0.161361  0.807365  1
  O  O92  1  0.254869  0.669081  0.013493  1
  O  O93  1  0.267921  0.542612  0.237005  1
  O  O94  1  0.330919  0.585788  0.346826  1
  O  O95  1  0.202998  0.462852  0.794196  1
  O  O96  1  0.414212  0.745131  0.680160  1
  O  O97  1  0.415113  0.827561  0.278479  1
  O  O98  1  0.488004  0.854826  0.799581  1
  O  O99  1  0.305870  0.428031  0.074655  1
  O  O100  1  0.353569  0.479747  0.634543  1
  O  O101  1  0.366822  0.511996  0.466248  1
  O  O102  1  0.209557  0.246451  0.523982  1
  O  O103  1  0.412448  0.584887  0.945145  1
  O  O104  1  0.457388  0.725307  0.570339  1
  O  O105  1  0.520253  0.873823  0.967876  1
  O  O106  1  0.571969  0.877840  0.407988  1
  O  O107  1  0.154824  0.127464  0.097186  1
  O  O108  1  0.205467  0.255875  0.413715  1
  O  O109  1  0.320846  0.332669  0.174905  1
  O  O110  1  0.161361  0.078581  0.640698  1
  O  O111  1  0.344224  0.358340  0.858785  1
  O  O112  1  0.537148  0.740148  0.127529  1
  O  O113  1  0.300902  0.243725  0.974666  1
  O  O114  1  0.641660  0.985884  0.192118  1
  O  O115  1  0.338229  0.313214  0.748557  1
  O  O116  1  0.383603  0.314947  0.306431  1
  O  O117  1  0.667331  0.988177  0.508238  1
  O  O118  1  0.753549  0.963106  0.857315  1
  O  O119  1  0.255875  0.050408  0.247048  1
  O  O120  1  0.744125  0.949592  0.747048  1
  O  O121  1  0.246451  0.036894  0.357315  1
  O  O122  1  0.332669  0.011823  0.008238  1
  O  O123  1  0.616397  0.685053  0.806431  1
  O  O124  1  0.661771  0.686786  0.248557  1
  O  O125  1  0.358340  0.014116  0.692118  1
  O  O126  1  0.699098  0.756275  0.474666  1
  O  O127  1  0.462852  0.259852  0.627529  1
  O  O128  1  0.655776  0.641660  0.358785  1
  O  O129  1  0.838639  0.921419  0.140698  1
  O  O130  1  0.679154  0.667331  0.674905  1
  O  O131  1  0.794533  0.744125  0.913715  1
  O  O132  1  0.845176  0.872536  0.597186  1
  O  O133  1  0.428031  0.122160  0.907988  1
  O  O134  1  0.479747  0.126177  0.467876  1
  O  O135  1  0.542612  0.274693  0.070339  1
  O  O136  1  0.587552  0.415113  0.445145  1
  O  O137  1  0.790443  0.753549  0.023982  1
  O  O138  1  0.633178  0.488004  0.966248  1
  O  O139  1  0.646431  0.520253  0.134543  1
  O  O140  1  0.694130  0.571969  0.574655  1
  O  O141  1  0.511996  0.145174  0.299581  1
  O  O142  1  0.584887  0.172439  0.778479  1
  O  O143  1  0.585788  0.254869  0.180160  1
  O  O144  1  0.797002  0.537148  0.294196  1
  O  O145  1  0.669081  0.414212  0.846826  1
  O  O146  1  0.732079  0.457388  0.737005  1
  O  O147  1  0.745131  0.330919  0.513493  1
  O  O148  1  0.917220  0.838639  0.307365  1
  O  O149  1  0.972640  0.845176  0.763853  1
  O  O150  1  0.942823  0.699098  0.641333  1
  O  O151  1  0.974985  0.661771  0.415224  1
  O  O152  1  0.725307  0.267921  0.403672  1
  O  O153  1  0.931345  0.616397  0.973098  1
  O  O154  1  0.827561  0.412448  0.111812  1
  O  O155  1  0.740148  0.202998  0.960863  1
  O  O156  1  0.854826  0.366822  0.632914  1
  O  O157  1  0.685053  0.068655  0.639765  1
  O  O158  1  0.686786  0.025015  0.081890  1
  O  O159  1  0.877840  0.305870  0.241321  1
  O  O160  1  0.873823  0.353569  0.801209  1
  O  O161  1  0.756275  0.057177  0.307999  1
  O  O162  1  0.985884  0.344224  0.025451  1
  O  O163  1  0.963106  0.209557  0.690649  1
  O  O164  1  0.872536  0.027360  0.430519  1
  O  O165  1  0.988177  0.320846  0.341571  1
  O  O166  1  0.921419  0.082780  0.974032  1
  O  O167  1  0.949592  0.205467  0.580381  1
