# generated using pymatgen
data_TaFeO4
_symmetry_space_group_name_H-M   'P 1'
_cell_length_a   6.69828420
_cell_length_b   6.69828420
_cell_length_c   10.37328067
_cell_angle_alpha   108.83611821
_cell_angle_beta   71.16388179
_cell_angle_gamma   90.00000000
_symmetry_Int_Tables_number   1
_chemical_formula_structural   TaFeO4
_chemical_formula_sum   'Ta6 Fe6 O24'
_cell_volume   414.07036689
_cell_formula_units_Z   6
loop_
 _symmetry_equiv_pos_site_id
 _symmetry_equiv_pos_as_xyz
  1  'x, y, z'
loop_
 _atom_site_type_symbol
 _atom_site_label
 _atom_site_symmetry_multiplicity
 _atom_site_fract_x
 _atom_site_fract_y
 _atom_site_fract_z
 _atom_site_occupancy
  Ta  Ta0  1  0.410396  0.089604  0.179208  1
  Ta  Ta1  1  0.831912  0.168088  0.336175  1
  Ta  Ta2  1  0.172644  0.827356  0.654713  1
  Ta  Ta3  1  0.660396  0.339604  0.679208  1
  Ta  Ta4  1  0.922644  0.577356  0.154713  1
  Ta  Ta5  1  0.581912  0.918088  0.836175  1
  Fe  Fe6  1  0.002461  0.997539  0.995078  1
  Fe  Fe7  1  0.246088  0.253912  0.507824  1
  Fe  Fe8  1  0.085805  0.414195  0.828390  1
  Fe  Fe9  1  0.496088  0.503912  0.007824  1
  Fe  Fe10  1  0.335805  0.664195  0.328391  1
  Fe  Fe11  1  0.752461  0.747539  0.495078  1
  O  O12  1  0.112510  0.085288  0.170574  1
  O  O13  1  0.998356  0.302643  0.003286  1
  O  O14  1  0.166566  0.132713  0.666868  1
  O  O15  1  0.166566  0.534155  0.666868  1
  O  O16  1  0.335127  0.361031  0.329746  1
  O  O17  1  0.664712  0.033084  0.670574  1
  O  O18  1  0.998356  0.700644  0.003286  1
  O  O19  1  0.500175  0.191662  0.999650  1
  O  O20  1  0.558338  0.249825  0.499650  1
  O  O21  1  0.049356  0.751644  0.503286  1
  O  O22  1  0.215845  0.583434  0.166868  1
  O  O23  1  0.388969  0.414873  0.829746  1
  O  O24  1  0.716916  0.085288  0.170574  1
  O  O25  1  0.781284  0.414873  0.829746  1
  O  O26  1  0.617287  0.583434  0.166868  1
  O  O27  1  0.285081  0.914590  0.829180  1
  O  O28  1  0.447357  0.751644  0.503286  1
  O  O29  1  0.942012  0.249825  0.499650  1
  O  O30  1  0.500175  0.807988  0.999650  1
  O  O31  1  0.335127  0.968716  0.329746  1
  O  O32  1  0.835410  0.464919  0.329180  1
  O  O33  1  0.664712  0.637490  0.670574  1
  O  O34  1  0.835410  0.864262  0.329180  1
  O  O35  1  0.885738  0.914590  0.829180  1
