# generated using pymatgen
data_Zn3(PO6)2
_symmetry_space_group_name_H-M   'P 1'
_cell_length_a   10.47271626
_cell_length_b   17.07675018
_cell_length_c   4.90214634
_cell_angle_alpha   90.00000000
_cell_angle_beta   90.00000000
_cell_angle_gamma   90.00000000
_symmetry_Int_Tables_number   1
_chemical_formula_structural   Zn3(PO6)2
_chemical_formula_sum   'Zn12 P8 O48'
_cell_volume   876.69965182
_cell_formula_units_Z   4
loop_
 _symmetry_equiv_pos_site_id
 _symmetry_equiv_pos_as_xyz
  1  'x, y, z'
loop_
 _atom_site_type_symbol
 _atom_site_label
 _atom_site_symmetry_multiplicity
 _atom_site_fract_x
 _atom_site_fract_y
 _atom_site_fract_z
 _atom_site_occupancy
  Zn  Zn0  1  0.527130  0.250000  0.498391  1
  Zn  Zn1  1  0.027130  0.250000  0.001609  1
  Zn  Zn2  1  0.472869  0.750000  0.501609  1
  Zn  Zn3  1  0.972870  0.750000  0.998391  1
  Zn  Zn4  1  0.744597  0.154228  0.997846  1
  Zn  Zn5  1  0.244597  0.345772  0.502154  1
  Zn  Zn6  1  0.255403  0.654228  0.002154  1
  Zn  Zn7  1  0.755403  0.845772  0.497846  1
  Zn  Zn8  1  0.255403  0.845772  0.002154  1
  Zn  Zn9  1  0.755403  0.654228  0.497846  1
  Zn  Zn10  1  0.744597  0.345772  0.997846  1
  Zn  Zn11  1  0.244597  0.154228  0.502154  1
  P  P12  1  0.595338  0.000045  0.250219  1
  P  P13  1  0.095338  0.499955  0.249781  1
  P  P14  1  0.404662  0.500045  0.749781  1
  P  P15  1  0.904662  -0.000045  0.750219  1
  P  P16  1  0.404662  -0.000045  0.749781  1
  P  P17  1  0.904662  0.500045  0.750219  1
  P  P18  1  0.595338  0.499955  0.250219  1
  P  P19  1  0.095338  0.000045  0.249781  1
  O  O20  1  0.500000  0.000000  0.500000  1
  O  O21  1  0.000000  0.500000  0.000000  1
  O  O22  1  0.500000  0.500000  0.500000  1
  O  O23  1  0.000000  0.000000  0.000000  1
  O  O24  1  0.500000  0.000000  0.000000  1
  O  O25  1  0.000000  0.500000  0.500000  1
  O  O26  1  0.500000  0.500000  0.000000  1
  O  O27  1  0.000000  0.000000  0.500000  1
  O  O28  1  0.668400  0.075675  0.253696  1
  O  O29  1  0.168400  0.424325  0.246304  1
  O  O30  1  0.331600  0.575675  0.746304  1
  O  O31  1  0.831600  0.924325  0.753696  1
  O  O32  1  0.331600  0.924325  0.746304  1
  O  O33  1  0.831600  0.575675  0.753696  1
  O  O34  1  0.668400  0.424325  0.253696  1
  O  O35  1  0.168400  0.075675  0.246304  1
  O  O36  1  0.830210  0.075131  0.748797  1
  O  O37  1  0.330210  0.424869  0.751203  1
  O  O38  1  0.169790  0.575131  0.251203  1
  O  O39  1  0.669790  0.924869  0.248797  1
  O  O40  1  0.169790  0.924869  0.251203  1
  O  O41  1  0.669790  0.575131  0.248797  1
  O  O42  1  0.830210  0.424869  0.748797  1
  O  O43  1  0.330210  0.075131  0.751203  1
  O  O44  1  0.661284  0.250000  0.209325  1
  O  O45  1  0.161284  0.250000  0.290675  1
  O  O46  1  0.338716  0.750000  0.790675  1
  O  O47  1  0.838716  0.750000  0.709325  1
  O  O48  1  0.837744  0.250000  0.817540  1
  O  O49  1  0.337744  0.250000  0.682460  1
  O  O50  1  0.162256  0.750000  0.182460  1
  O  O51  1  0.662256  0.750000  0.317540  1
  O  O52  1  0.590902  0.176809  0.773110  1
  O  O53  1  0.090902  0.323191  0.726890  1
  O  O54  1  0.409098  0.676809  0.226890  1
  O  O55  1  0.909098  0.823191  0.273110  1
  O  O56  1  0.409098  0.823191  0.226890  1
  O  O57  1  0.909098  0.676809  0.273110  1
  O  O58  1  0.590902  0.323191  0.773110  1
  O  O59  1  0.090902  0.176809  0.726890  1
  O  O60  1  0.902457  0.184186  0.215158  1
  O  O61  1  0.402457  0.315814  0.284842  1
  O  O62  1  0.097543  0.684186  0.784842  1
  O  O63  1  0.597543  0.815814  0.715158  1
  O  O64  1  0.097543  0.815814  0.784842  1
  O  O65  1  0.597543  0.684186  0.715158  1
  O  O66  1  0.902457  0.315814  0.215158  1
  O  O67  1  0.402457  0.184186  0.284842  1
