# generated using pymatgen
data_Li3V3P8O29
_symmetry_space_group_name_H-M   'P 1'
_cell_length_a   9.76579836
_cell_length_b   9.76314839
_cell_length_c   14.16125181
_cell_angle_alpha   90.05926584
_cell_angle_beta   90.25659000
_cell_angle_gamma   60.14193618
_symmetry_Int_Tables_number   1
_chemical_formula_structural   Li3V3P8O29
_chemical_formula_sum   'Li6 V6 P16 O58'
_cell_volume   1170.96664487
_cell_formula_units_Z   2
loop_
 _symmetry_equiv_pos_site_id
 _symmetry_equiv_pos_as_xyz
  1  'x, y, z'
loop_
 _atom_site_type_symbol
 _atom_site_label
 _atom_site_symmetry_multiplicity
 _atom_site_fract_x
 _atom_site_fract_y
 _atom_site_fract_z
 _atom_site_occupancy
  Li  Li0  1  0.912226  0.771059  0.061771  1
  Li  Li1  1  0.905112  0.328757  0.555757  1
  Li  Li2  1  0.311612  0.914987  0.060696  1
  Li  Li3  1  0.329604  0.763701  0.557767  1
  Li  Li4  1  0.683558  0.092760  0.943735  1
  Li  Li5  1  0.970367  0.982245  0.495562  1
  V  V6  1  0.567703  0.433568  0.247025  1
  V  V7  1  0.434230  0.564349  0.754436  1
  V  V8  1  0.568499  0.994010  0.740308  1
  V  V9  1  0.431997  0.004477  0.256391  1
  V  V10  1  0.004536  0.560415  0.253279  1
  V  V11  1  0.001365  0.435568  0.753097  1
  P  P12  1  0.911305  0.773223  0.842180  1
  P  P13  1  0.779319  0.912927  0.340725  1
  P  P14  1  0.912947  0.311022  0.340575  1
  P  P15  1  0.664625  0.672357  0.130984  1
  P  P16  1  0.666062  0.661329  0.629000  1
  P  P17  1  0.773320  0.314104  0.843000  1
  P  P18  1  0.690464  0.227661  0.658775  1
  P  P19  1  0.320481  0.913373  0.843099  1
  P  P20  1  0.681275  0.087938  0.159260  1
  P  P21  1  0.314303  0.770537  0.342910  1
  P  P22  1  0.227001  0.685970  0.160007  1
  P  P23  1  0.336687  0.335091  0.369953  1
  P  P24  1  0.339054  0.326884  0.868903  1
  P  P25  1  0.085541  0.691757  0.659422  1
  P  P26  1  0.221172  0.086068  0.661035  1
  P  P27  1  0.085439  0.226493  0.157395  1
  O  O28  1  0.004382  0.788236  0.575096  1
  O  O29  1  0.913306  0.739063  0.330685  1
  O  O30  1  0.753938  0.001873  0.069106  1
  O  O31  1  0.742704  0.919042  0.833999  1
  O  O32  1  0.901899  0.620151  0.820293  1
  O  O33  1  0.817781  0.667327  0.170464  1
  O  O34  1  0.910814  0.470821  0.325853  1
  O  O35  1  0.000236  0.232263  0.070840  1
  O  O36  1  0.913674  0.345292  0.833594  1
  O  O37  1  0.671010  0.810691  0.672689  1
  O  O38  1  0.617747  0.918165  0.330082  1
  O  O39  1  0.814846  0.510456  0.669308  1
  O  O40  1  0.657398  0.675871  0.026112  1
  O  O41  1  0.661413  0.665517  0.524119  1
  O  O42  1  0.658586  0.526867  0.176689  1
  O  O43  1  0.479377  0.905027  0.817579  1
  O  O44  1  0.517758  0.821514  0.175148  1
  O  O45  1  0.741741  0.343327  0.329169  1
  O  O46  1  0.794629  0.205063  0.752306  1
  O  O47  1  0.787473  0.215187  0.574813  1
  O  O48  1  0.763088  0.235385  0.929403  1
  O  O49  1  0.618945  0.475656  0.823588  1
  O  O50  1  0.512764  0.671282  0.671037  1
  O  O51  1  0.656451  0.256721  0.164026  1
  O  O52  1  0.470896  0.615173  0.327793  1
  O  O53  1  0.345197  0.911825  0.330782  1
  O  O54  1  0.797771  0.994271  0.245291  1
  O  O55  1  0.796578  0.992638  0.424937  1
  O  O56  1  0.217181  0.991787  0.579681  1
  O  O57  1  0.653375  0.090013  0.665647  1
  O  O58  1  0.534326  0.384969  0.671684  1
  O  O59  1  0.344558  0.744093  0.830102  1
  O  O60  1  0.482137  0.333777  0.324038  1
  O  O61  1  0.380500  0.525608  0.176439  1
  O  O62  1  0.233896  0.773382  0.076449  1
  O  O63  1  0.233745  0.783006  0.434419  1
  O  O64  1  0.201147  0.787826  0.255991  1
  O  O65  1  0.260651  0.654358  0.664468  1
  O  O66  1  0.485334  0.178588  0.827320  1
  O  O67  1  0.522256  0.095649  0.179292  1
  O  O68  1  0.340543  0.475237  0.822331  1
  O  O69  1  0.336700  0.333174  0.973246  1
  O  O70  1  0.331945  0.335427  0.474344  1
  O  O71  1  0.186014  0.483056  0.324819  1
  O  O72  1  0.380666  0.087262  0.671189  1
  O  O73  1  0.331899  0.187022  0.325987  1
  O  O74  1  0.083276  0.658934  0.160274  1
  O  O75  1  0.008022  0.789978  0.756244  1
  O  O76  1  0.986540  0.762011  0.935040  1
  O  O77  1  0.081733  0.535220  0.673624  1
  O  O78  1  0.185337  0.336866  0.822266  1
  O  O79  1  0.091841  0.380962  0.179428  1
  O  O80  1  0.258421  0.083958  0.163859  1
  O  O81  1  0.256909  0.986369  0.935417  1
  O  O82  1  0.200596  0.013993  0.759103  1
  O  O83  1  0.082330  0.258766  0.660936  1
  O  O84  1  0.983873  0.234637  0.432817  1
  O  O85  1  0.007352  0.201227  0.253390  1
