# generated using pymatgen
data_K6Al32O51
_symmetry_space_group_name_H-M   'P 1'
_cell_length_a   12.01334896
_cell_length_b   9.83503762
_cell_length_c   9.83505889
_cell_angle_alpha   120.00367692
_cell_angle_beta   82.15439498
_cell_angle_gamma   82.15461513
_symmetry_Int_Tables_number   1
_chemical_formula_structural   K6Al32O51
_chemical_formula_sum   'K6 Al32 O51'
_cell_volume   968.07837086
_cell_formula_units_Z   1
loop_
 _symmetry_equiv_pos_site_id
 _symmetry_equiv_pos_as_xyz
  1  'x, y, z'
loop_
 _atom_site_type_symbol
 _atom_site_label
 _atom_site_symmetry_multiplicity
 _atom_site_fract_x
 _atom_site_fract_y
 _atom_site_fract_z
 _atom_site_occupancy
  K  K0  1  0.486963  0.188114  0.188115  1
  K  K1  1  0.525760  0.181643  0.491403  1
  K  K2  1  0.487534  0.504171  0.820405  1
  K  K3  1  0.525757  0.491399  0.181632  1
  K  K4  1  0.525839  0.801224  0.801221  1
  K  K5  1  0.487533  0.820400  0.504162  1
  Al  Al6  1  0.997830  0.001019  0.001019  1
  Al  Al7  1  0.206778  0.099322  0.099320  1
  Al  Al8  1  0.208813  0.096433  0.596733  1
  Al  Al9  1  0.204454  0.264597  0.430036  1
  Al  Al10  1  0.997847  0.334001  0.667064  1
  Al  Al11  1  0.948040  0.017838  0.683949  1
  Al  Al12  1  0.653439  0.115538  0.782213  1
  Al  Al13  1  0.347674  0.217504  0.884581  1
  Al  Al14  1  0.049915  0.316747  0.982357  1
  Al  Al15  1  0.787208  0.074547  0.241121  1
  Al  Al16  1  0.787215  0.241115  0.074523  1
  Al  Al17  1  0.787204  0.237923  0.567045  1
  Al  Al18  1  0.206467  0.431403  0.765031  1
  Al  Al19  1  0.204453  0.430037  0.264597  1
  Al  Al20  1  0.208814  0.596734  0.096431  1
  Al  Al21  1  0.936572  0.353939  0.353939  1
  Al  Al22  1  0.050210  0.651022  0.651021  1
  Al  Al23  1  0.341921  0.552344  0.552342  1
  Al  Al24  1  0.997846  0.667060  0.333994  1
  Al  Al25  1  0.792954  0.402600  0.904960  1
  Al  Al26  1  0.787398  0.570801  0.733540  1
  Al  Al27  1  0.206466  0.765034  0.431401  1
  Al  Al28  1  0.787198  0.567040  0.237927  1
  Al  Al29  1  0.206483  0.764651  0.932220  1
  Al  Al30  1  0.206483  0.932223  0.764650  1
  Al  Al31  1  0.948042  0.683952  0.017837  1
  Al  Al32  1  0.347676  0.884580  0.217499  1
  Al  Al33  1  0.049917  0.982357  0.316744  1
  Al  Al34  1  0.653440  0.782217  0.115536  1
  Al  Al35  1  0.787399  0.733552  0.570799  1
  Al  Al36  1  0.792958  0.904956  0.402586  1
  Al  Al37  1  0.792997  0.899642  0.899643  1
  O  O38  1  0.289687  0.067202  0.733909  1
  O  O39  1  0.288673  0.073673  0.237356  1
  O  O40  1  0.100063  0.123451  0.965806  1
  O  O41  1  0.100069  0.142739  0.476201  1
  O  O42  1  0.104434  0.295776  0.295777  1
  O  O43  1  0.719886  0.089217  0.089211  1
  O  O44  1  0.895702  0.027439  0.368110  1
  O  O45  1  0.280248  0.240052  0.572267  1
  O  O46  1  0.499776  0.166852  0.833706  1
  O  O47  1  0.288673  0.237360  0.073673  1
  O  O48  1  0.902295  0.033452  0.875785  1
  O  O49  1  0.711833  0.094218  0.595047  1
  O  O50  1  0.101004  0.300015  0.789211  1
  O  O51  1  0.280060  0.402887  0.402887  1
  O  O52  1  0.902294  0.186426  0.186429  1
  O  O53  1  0.715553  0.244623  0.427909  1
  O  O54  1  0.097703  0.457014  0.634695  1
  O  O55  1  0.289687  0.406146  0.902950  1
  O  O56  1  0.902424  0.209035  0.698695  1
  O  O57  1  0.100070  0.476199  0.142734  1
  O  O58  1  0.711868  0.263921  0.928316  1
  O  O59  1  0.486316  0.504241  0.504244  1
  O  O60  1  0.719953  0.426866  0.763971  1
  O  O61  1  0.280247  0.572268  0.240051  1
  O  O62  1  0.108220  0.630598  0.966848  1
  O  O63  1  0.895700  0.368108  0.027434  1
  O  O64  1  0.281067  0.573221  0.743475  1
  O  O65  1  0.902219  0.365463  0.544541  1
  O  O66  1  0.097701  0.634691  0.457009  1
  O  O67  1  0.715546  0.427892  0.244606  1
  O  O68  1  0.902333  0.523055  0.856408  1
  O  O69  1  0.289688  0.733910  0.067197  1
  O  O70  1  0.101006  0.789213  0.300015  1
  O  O71  1  0.902216  0.544532  0.365445  1
  O  O72  1  0.711833  0.595053  0.094224  1
  O  O73  1  0.281067  0.743478  0.573218  1
  O  O74  1  0.098636  0.812417  0.812415  1
  O  O75  1  0.715611  0.611406  0.611399  1
  O  O76  1  0.280239  0.907360  0.907357  1
  O  O77  1  0.895596  0.708763  0.708757  1
  O  O78  1  0.499777  0.833697  0.166845  1
  O  O79  1  0.108218  0.966849  0.630596  1
  O  O80  1  0.719953  0.763973  0.426859  1
  O  O81  1  0.100064  0.965805  0.123448  1
  O  O82  1  0.902427  0.698702  0.209033  1
  O  O83  1  0.711846  0.764692  0.930291  1
  O  O84  1  0.289686  0.902954  0.406143  1
  O  O85  1  0.902331  0.856405  0.523054  1
  O  O86  1  0.902295  0.875781  0.033437  1
  O  O87  1  0.711848  0.930298  0.764695  1
  O  O88  1  0.711867  0.928329  0.263918  1
