# generated using pymatgen
data_Li3Mn4(BO3)4
_symmetry_space_group_name_H-M   'P 1'
_cell_length_a   9.06395949
_cell_length_b   7.92521200
_cell_length_c   8.28649773
_cell_angle_alpha   98.36806554
_cell_angle_beta   68.01516581
_cell_angle_gamma   114.00781924
_symmetry_Int_Tables_number   1
_chemical_formula_structural   Li3Mn4(BO3)4
_chemical_formula_sum   'Li6 Mn8 B8 O24'
_cell_volume   504.19902193
_cell_formula_units_Z   2
loop_
 _symmetry_equiv_pos_site_id
 _symmetry_equiv_pos_as_xyz
  1  'x, y, z'
loop_
 _atom_site_type_symbol
 _atom_site_label
 _atom_site_symmetry_multiplicity
 _atom_site_fract_x
 _atom_site_fract_y
 _atom_site_fract_z
 _atom_site_occupancy
  Li  Li0  1  0.188808  0.948176  0.625210  1
  Li  Li1  1  0.699314  0.711490  0.371903  1
  Li  Li2  1  0.808166  0.557276  0.872133  1
  Li  Li3  1  0.203514  0.461390  0.123604  1
  Li  Li4  1  0.310391  0.309478  0.619789  1
  Li  Li5  1  0.692712  0.196496  0.876199  1
  Mn  Mn6  1  0.669733  0.844514  0.086137  1
  Mn  Mn7  1  0.822043  0.915508  0.664757  1
  Mn  Mn8  1  0.319299  0.669241  0.417532  1
  Mn  Mn9  1  0.823741  0.409448  0.163803  1
  Mn  Mn10  1  0.186303  0.601084  0.840252  1
  Mn  Mn11  1  0.686855  0.331323  0.572088  1
  Mn  Mn12  1  0.166872  0.078181  0.322659  1
  Mn  Mn13  1  0.327071  0.158335  0.913009  1
  B  B14  1  0.499477  0.914693  0.655217  1
  B  B15  1  0.994242  0.662172  0.409651  1
  B  B16  1  0.999404  0.830276  0.086713  1
  B  B17  1  0.492323  0.416596  0.158866  1
  B  B18  1  0.512641  0.581833  0.833359  1
  B  B19  1  0.998879  0.170168  0.905275  1
  B  B20  1  0.010028  0.335999  0.598388  1
  B  B21  1  0.493397  0.080410  0.354130  1
  O  O22  1  0.863096  0.879179  0.176515  1
  O  O23  1  0.469688  0.905296  0.277692  1
  O  O24  1  0.163413  0.937146  0.093623  1
  O  O25  1  0.619842  0.839731  0.580063  1
  O  O26  1  0.332790  0.822809  0.645265  1
  O  O27  1  0.830051  0.566379  0.397572  1
  O  O28  1  0.023905  0.830007  0.499556  1
  O  O29  1  0.517022  0.577138  0.257460  1
  O  O30  1  0.976537  0.664755  0.990896  1
  O  O31  1  0.678762  0.690479  0.840886  1
  O  O32  1  0.118861  0.591320  0.333683  1
  O  O33  1  0.627896  0.364222  0.060482  1
  O  O34  1  0.378445  0.632457  0.928300  1
  O  O35  1  0.873394  0.389051  0.687955  1
  O  O36  1  0.327256  0.312387  0.150095  1
  O  O37  1  0.029155  0.334682  0.998741  1
  O  O38  1  0.487322  0.415497  0.740302  1
  O  O39  1  0.986903  0.163353  0.522790  1
  O  O40  1  0.178723  0.452156  0.594542  1
  O  O41  1  0.658634  0.193964  0.347552  1
  O  O42  1  0.356312  0.134185  0.437956  1
  O  O43  1  0.832292  0.070418  0.898458  1
  O  O44  1  0.533198  0.083451  0.743192  1
  O  O45  1  0.131510  0.113440  0.810373  1
