# generated using pymatgen
data_KNaPrTaO5
_symmetry_space_group_name_H-M   'P 1'
_cell_length_a   5.81810056
_cell_length_b   5.81810056
_cell_length_c   8.33948816
_cell_angle_alpha   90.00000000
_cell_angle_beta   90.00000000
_cell_angle_gamma   90.00000000
_symmetry_Int_Tables_number   1
_chemical_formula_structural   KNaPrTaO5
_chemical_formula_sum   'K2 Na2 Pr2 Ta2 O10'
_cell_volume   282.29412708
_cell_formula_units_Z   2
loop_
 _symmetry_equiv_pos_site_id
 _symmetry_equiv_pos_as_xyz
  1  'x, y, z'
loop_
 _atom_site_type_symbol
 _atom_site_label
 _atom_site_symmetry_multiplicity
 _atom_site_fract_x
 _atom_site_fract_y
 _atom_site_fract_z
 _atom_site_occupancy
  K  K0  1  0.749999  0.250000  0.000000  1
  K  K1  1  0.250000  0.749999  0.000000  1
  Na  Na2  1  0.749999  0.749999  0.240898  1
  Na  Na3  1  0.250000  0.250000  0.759103  1
  Pr  Pr4  1  0.749999  0.250000  0.500000  1
  Pr  Pr5  1  0.250000  0.749999  0.500000  1
  Ta  Ta6  1  0.250000  0.250000  0.255427  1
  Ta  Ta7  1  0.749999  0.749999  0.744572  1
  O  O8  1  0.250000  0.250000  0.032794  1
  O  O9  1  0.020785  0.020785  0.326130  1
  O  O10  1  0.479214  0.020785  0.326130  1
  O  O11  1  0.020785  0.479214  0.326130  1
  O  O12  1  0.479214  0.479214  0.326130  1
  O  O13  1  0.520784  0.520784  0.673870  1
  O  O14  1  0.979216  0.520784  0.673870  1
  O  O15  1  0.520784  0.979216  0.673870  1
  O  O16  1  0.979216  0.979216  0.673870  1
  O  O17  1  0.749999  0.749999  0.967206  1
