# generated using pymatgen
data_Ca10V6O25
_symmetry_space_group_name_H-M   'P 1'
_cell_length_a   6.95979499
_cell_length_b   10.06000197
_cell_length_c   10.06001203
_cell_angle_alpha   120.00026076
_cell_angle_beta   90.00014097
_cell_angle_gamma   89.99993270
_symmetry_Int_Tables_number   1
_chemical_formula_structural   Ca10V6O25
_chemical_formula_sum   'Ca10 V6 O25'
_cell_volume   609.98970234
_cell_formula_units_Z   1
loop_
 _symmetry_equiv_pos_site_id
 _symmetry_equiv_pos_as_xyz
  1  'x, y, z'
loop_
 _atom_site_type_symbol
 _atom_site_label
 _atom_site_symmetry_multiplicity
 _atom_site_fract_x
 _atom_site_fract_y
 _atom_site_fract_z
 _atom_site_occupancy
  Ca  Ca0  1  0.751859  0.209034  0.982515  1
  Ca  Ca1  1  0.249110  0.725260  0.009312  1
  Ca  Ca2  1  0.751861  0.773478  0.790963  1
  Ca  Ca3  1  0.249114  0.284053  0.274739  1
  Ca  Ca4  1  0.751856  0.017484  0.226516  1
  Ca  Ca5  1  0.249111  0.990690  0.715949  1
  Ca  Ca6  1  0.998070  0.666667  0.333333  1
  Ca  Ca7  1  0.995013  0.333336  0.666669  1
  Ca  Ca8  1  0.511847  0.666668  0.333337  1
  Ca  Ca9  1  0.495612  0.333328  0.666664  1
  V  V10  1  0.250336  0.971838  0.356981  1
  V  V11  1  0.748299  0.030774  0.620348  1
  V  V12  1  0.250339  0.385143  0.028164  1
  V  V13  1  0.748296  0.589571  0.969225  1
  V  V14  1  0.250344  0.643026  0.614859  1
  V  V15  1  0.748298  0.379650  0.410426  1
  O  O16  1  0.948874  0.260627  0.352916  1
  O  O17  1  0.051450  0.761030  0.667116  1
  O  O18  1  0.948870  0.092292  0.739374  1
  O  O19  1  0.051440  0.906083  0.238978  1
  O  O20  1  0.948873  0.647074  0.907703  1
  O  O21  1  0.051447  0.332892  0.093913  1
  O  O22  1  0.741745  0.473786  0.611089  1
  O  O23  1  0.264103  0.547669  0.411105  1
  O  O24  1  0.741745  0.137301  0.526212  1
  O  O25  1  0.264101  0.863436  0.452330  1
  O  O26  1  0.741735  0.388911  0.862697  1
  O  O27  1  0.264100  0.588898  0.136567  1
  O  O28  1  0.552964  0.086949  0.743764  1
  O  O29  1  0.435307  0.919419  0.225577  1
  O  O30  1  0.552964  0.656823  0.913056  1
  O  O31  1  0.435312  0.306157  0.080580  1
  O  O32  1  0.552965  0.256232  0.343179  1
  O  O33  1  0.435317  0.774424  0.693839  1
  O  O34  1  0.751747  0.834319  0.495386  1
  O  O35  1  0.246576  0.167658  0.490279  1
  O  O36  1  0.751746  0.661060  0.165680  1
  O  O37  1  0.246577  0.322622  0.832343  1
  O  O38  1  0.751746  0.504615  0.338936  1
  O  O39  1  0.246582  0.509724  0.677384  1
  O  O40  1  0.774099  0.999998  0.999999  1
