# generated using pymatgen
data_RbUTe3Au
_symmetry_space_group_name_H-M   'P 1'
_cell_length_a   4.42816249
_cell_length_b   8.58708331
_cell_length_c   11.42901873
_cell_angle_alpha   90.00000000
_cell_angle_beta   90.00000000
_cell_angle_gamma   75.05814767
_symmetry_Int_Tables_number   1
_chemical_formula_structural   RbUTe3Au
_chemical_formula_sum   'Rb2 U2 Te6 Au2'
_cell_volume   419.89413383
_cell_formula_units_Z   2
loop_
 _symmetry_equiv_pos_site_id
 _symmetry_equiv_pos_as_xyz
  1  'x, y, z'
loop_
 _atom_site_type_symbol
 _atom_site_label
 _atom_site_symmetry_multiplicity
 _atom_site_fract_x
 _atom_site_fract_y
 _atom_site_fract_z
 _atom_site_occupancy
  Rb  Rb0  1  0.245612  0.508776  0.250000  1
  Rb  Rb1  1  0.754388  0.491224  0.750000  1
  U  U2  1  0.000000  0.000000  0.000000  1
  U  U3  1  0.000000  0.000000  0.500000  1
  Te  Te4  1  0.626533  0.746932  0.046179  1
  Te  Te5  1  0.930927  0.138145  0.250000  1
  Te  Te6  1  0.626533  0.746932  0.453821  1
  Te  Te7  1  0.373466  0.253068  0.546178  1
  Te  Te8  1  0.069072  0.861855  0.750000  1
  Te  Te9  1  0.373466  0.253068  0.953822  1
  Au  Au10  1  0.536623  0.926753  0.250000  1
  Au  Au11  1  0.463377  0.073246  0.750000  1
