# generated using pymatgen
data_LiSn3Sb(PO4)6
_symmetry_space_group_name_H-M   'P 1'
_cell_length_a   8.97603609
_cell_length_b   8.97603614
_cell_length_c   8.97603579
_cell_angle_alpha   58.29545030
_cell_angle_beta   58.29544502
_cell_angle_gamma   58.29544629
_symmetry_Int_Tables_number   1
_chemical_formula_structural   LiSn3Sb(PO4)6
_chemical_formula_sum   'Li1 Sn3 Sb1 P6 O24'
_cell_volume   491.41135284
_cell_formula_units_Z   1
loop_
 _symmetry_equiv_pos_site_id
 _symmetry_equiv_pos_as_xyz
  1  'x, y, z'
loop_
 _atom_site_type_symbol
 _atom_site_label
 _atom_site_symmetry_multiplicity
 _atom_site_fract_x
 _atom_site_fract_y
 _atom_site_fract_z
 _atom_site_occupancy
  Li  Li0  1  0.002355  0.002355  0.002355  1
  Sn  Sn1  1  0.146070  0.146070  0.146070  1
  Sn  Sn2  1  0.357266  0.357266  0.357266  1
  Sn  Sn3  1  0.641913  0.641913  0.641913  1
  Sb  Sb4  1  0.853732  0.853732  0.853732  1
  P  P5  1  0.037836  0.750983  0.458108  1
  P  P6  1  0.458108  0.037836  0.750983  1
  P  P7  1  0.750983  0.458108  0.037836  1
  P  P8  1  0.244854  0.544985  0.960760  1
  P  P9  1  0.544985  0.960760  0.244854  1
  P  P10  1  0.960760  0.244854  0.544985  1
  O  O11  1  0.131041  0.268085  0.520036  1
  O  O12  1  0.268085  0.520036  0.131041  1
  O  O13  1  0.058950  0.921202  0.275565  1
  O  O14  1  0.520036  0.131041  0.268085  1
  O  O15  1  0.215556  0.580794  0.442679  1
  O  O16  1  0.011370  0.787839  0.625026  1
  O  O17  1  0.275565  0.058950  0.921202  1
  O  O18  1  0.442679  0.215556  0.580794  1
  O  O19  1  0.580794  0.442679  0.215556  1
  O  O20  1  0.206723  0.384502  0.985664  1
  O  O21  1  0.071418  0.731727  0.937706  1
  O  O22  1  0.384502  0.985664  0.206723  1
  O  O23  1  0.625026  0.011370  0.787839  1
  O  O24  1  0.921202  0.275565  0.058950  1
  O  O25  1  0.787839  0.625026  0.011370  1
  O  O26  1  0.410408  0.572349  0.781019  1
  O  O27  1  0.572349  0.781019  0.410408  1
  O  O28  1  0.731727  0.937706  0.071418  1
  O  O29  1  0.985664  0.206723  0.384502  1
  O  O30  1  0.781019  0.410408  0.572349  1
  O  O31  1  0.489571  0.868568  0.723342  1
  O  O32  1  0.937706  0.071418  0.731727  1
  O  O33  1  0.723342  0.489571  0.868568  1
  O  O34  1  0.868568  0.723342  0.489571  1
