# generated using pymatgen
data_Ca3Sn4S11
_symmetry_space_group_name_H-M   'P 1'
_cell_length_a   9.10138803
_cell_length_b   10.42408855
_cell_length_c   9.89385753
_cell_angle_alpha   99.04432318
_cell_angle_beta   106.80523611
_cell_angle_gamma   100.28606967
_symmetry_Int_Tables_number   1
_chemical_formula_structural   Ca3Sn4S11
_chemical_formula_sum   'Ca6 Sn8 S22'
_cell_volume   862.13495218
_cell_formula_units_Z   2
loop_
 _symmetry_equiv_pos_site_id
 _symmetry_equiv_pos_as_xyz
  1  'x, y, z'
loop_
 _atom_site_type_symbol
 _atom_site_label
 _atom_site_symmetry_multiplicity
 _atom_site_fract_x
 _atom_site_fract_y
 _atom_site_fract_z
 _atom_site_occupancy
  Ca  Ca0  1  0.313840  0.028093  0.156592  1
  Ca  Ca1  1  0.686160  0.971907  0.843408  1
  Ca  Ca2  1  0.873884  0.126505  0.284490  1
  Ca  Ca3  1  0.126116  0.873495  0.715510  1
  Ca  Ca4  1  0.306722  0.481082  0.602388  1
  Ca  Ca5  1  0.693278  0.518918  0.397612  1
  Sn  Sn6  1  0.834669  0.639644  0.853932  1
  Sn  Sn7  1  0.165331  0.360356  0.146068  1
  Sn  Sn8  1  0.923350  0.271771  0.756385  1
  Sn  Sn9  1  0.076650  0.728229  0.243615  1
  Sn  Sn10  1  0.427027  0.657468  0.045636  1
  Sn  Sn11  1  0.572973  0.342532  0.954364  1
  Sn  Sn12  1  0.588530  0.846908  0.420083  1
  Sn  Sn13  1  0.411470  0.153092  0.579917  1
  S  S14  1  0.572793  0.908347  0.172352  1
  S  S15  1  0.427207  0.091653  0.827648  1
  S  S16  1  0.948956  0.945274  0.063527  1
  S  S17  1  0.051044  0.054726  0.936473  1
  S  S18  1  0.206407  0.249741  0.357116  1
  S  S19  1  0.793593  0.750259  0.642884  1
  S  S20  1  0.694302  0.587426  0.114263  1
  S  S21  1  0.305698  0.412574  0.885737  1
  S  S22  1  0.530059  0.706011  0.833271  1
  S  S23  1  0.469941  0.293989  0.166729  1
  S  S24  1  0.936202  0.912861  0.420561  1
  S  S25  1  0.063798  0.087139  0.579439  1
  S  S26  1  0.607556  0.237217  0.346784  1
  S  S27  1  0.392444  0.762783  0.653216  1
  S  S28  1  0.316186  0.918717  0.399976  1
  S  S29  1  0.683814  0.081283  0.600024  1
  S  S30  1  0.183208  0.747810  0.975938  1
  S  S31  1  0.816792  0.252190  0.024062  1
  S  S32  1  0.621461  0.397114  0.718421  1
  S  S33  1  0.378539  0.602886  0.281579  1
  S  S34  1  0.991986  0.510295  0.393209  1
  S  S35  1  0.008014  0.489705  0.606791  1
