# generated using pymatgen
data_TbBS3
_symmetry_space_group_name_H-M   'P 1'
_cell_length_a   7.24764155
_cell_length_b   6.10526999
_cell_length_c   8.75519388
_cell_angle_alpha   90.00000000
_cell_angle_beta   90.00000000
_cell_angle_gamma   90.00000000
_symmetry_Int_Tables_number   1
_chemical_formula_structural   TbBS3
_chemical_formula_sum   'Tb4 B4 S12'
_cell_volume   387.40689697
_cell_formula_units_Z   4
loop_
 _symmetry_equiv_pos_site_id
 _symmetry_equiv_pos_as_xyz
  1  'x, y, z'
loop_
 _atom_site_type_symbol
 _atom_site_label
 _atom_site_symmetry_multiplicity
 _atom_site_fract_x
 _atom_site_fract_y
 _atom_site_fract_z
 _atom_site_occupancy
  Tb  Tb0  1  0.380247  0.943720  0.716182  1
  Tb  Tb1  1  0.880247  0.556278  0.716182  1
  Tb  Tb2  1  0.119754  0.443721  0.216182  1
  Tb  Tb3  1  0.619752  0.056280  0.216182  1
  B  B4  1  0.643826  0.602279  0.048153  1
  B  B5  1  0.356174  0.397722  0.548154  1
  B  B6  1  0.143826  0.897721  0.048153  1
  B  B7  1  0.856173  0.102280  0.548154  1
  S  S8  1  0.324109  0.169703  0.415794  1
  S  S9  1  0.294202  0.134860  0.019581  1
  S  S10  1  0.675890  0.830298  0.915793  1
  S  S11  1  0.705797  0.865139  0.519580  1
  S  S12  1  0.205797  0.634862  0.519580  1
  S  S13  1  0.507112  0.377625  0.711190  1
  S  S14  1  0.794202  0.365139  0.019581  1
  S  S15  1  0.007112  0.122374  0.711190  1
  S  S16  1  0.824110  0.330297  0.415794  1
  S  S17  1  0.175889  0.669702  0.915793  1
  S  S18  1  0.992889  0.877626  0.211191  1
  S  S19  1  0.492888  0.622374  0.211191  1
