# generated using pymatgen
data_Li4Ti4Cr5O18
_symmetry_space_group_name_H-M   'P 1'
_cell_length_a   9.12013178
_cell_length_b   25.13047326
_cell_length_c   2.96953835
_cell_angle_alpha   90.00000000
_cell_angle_beta   90.00000000
_cell_angle_gamma   90.00000000
_symmetry_Int_Tables_number   1
_chemical_formula_structural   Li4Ti4Cr5O18
_chemical_formula_sum   'Li8 Ti8 Cr10 O36'
_cell_volume   680.59807959
_cell_formula_units_Z   2
loop_
 _symmetry_equiv_pos_site_id
 _symmetry_equiv_pos_as_xyz
  1  'x, y, z'
loop_
 _atom_site_type_symbol
 _atom_site_label
 _atom_site_symmetry_multiplicity
 _atom_site_fract_x
 _atom_site_fract_y
 _atom_site_fract_z
 _atom_site_occupancy
  Li  Li0  1  0.195629  0.994837  0.000000  1
  Li  Li1  1  0.203440  0.196522  0.000000  1
  Li  Li2  1  0.296560  0.696522  0.000000  1
  Li  Li3  1  0.304371  0.494837  0.000000  1
  Li  Li4  1  0.695629  0.505163  0.000000  1
  Li  Li5  1  0.703440  0.303478  0.000000  1
  Li  Li6  1  0.796560  0.803478  0.000000  1
  Li  Li7  1  0.804371  0.005163  0.000000  1
  Ti  Ti8  1  0.004378  0.102578  0.000000  1
  Ti  Ti9  1  0.149296  0.804926  0.500000  1
  Ti  Ti10  1  0.350704  0.304926  0.500000  1
  Ti  Ti11  1  0.495622  0.602578  0.000000  1
  Ti  Ti12  1  0.504378  0.397422  0.000000  1
  Ti  Ti13  1  0.649296  0.695074  0.500000  1
  Ti  Ti14  1  0.850704  0.195074  0.500000  1
  Ti  Ti15  1  0.995622  0.897422  0.000000  1
  Cr  Cr16  1  0.000000  0.500000  0.000000  1
  Cr  Cr17  1  0.012952  0.310301  0.000000  1
  Cr  Cr18  1  0.143622  0.587376  0.500000  1
  Cr  Cr19  1  0.356378  0.087376  0.500000  1
  Cr  Cr20  1  0.487048  0.810301  0.000000  1
  Cr  Cr21  1  0.500000  0.000000  0.000000  1
  Cr  Cr22  1  0.512952  0.189699  0.000000  1
  Cr  Cr23  1  0.643622  0.912624  0.500000  1
  Cr  Cr24  1  0.856378  0.412624  0.500000  1
  Cr  Cr25  1  0.987048  0.689699  0.000000  1
  O  O26  1  0.994097  0.420882  0.000000  1
  O  O27  1  0.005903  0.579118  0.000000  1
  O  O28  1  0.052886  0.941202  0.500000  1
  O  O29  1  0.048924  0.159449  0.500000  1
  O  O30  1  0.116077  0.664785  0.500000  1
  O  O31  1  0.099210  0.755686  0.000000  1
  O  O32  1  0.148008  0.506949  0.500000  1
  O  O33  1  0.145667  0.286006  0.500000  1
  O  O34  1  0.184464  0.854273  0.000000  1
  O  O35  1  0.206320  0.085385  0.000000  1
  O  O36  1  0.293680  0.585385  0.000000  1
  O  O37  1  0.315536  0.354273  0.000000  1
  O  O38  1  0.354333  0.786007  0.500000  1
  O  O39  1  0.351992  0.006948  0.500000  1
  O  O40  1  0.400790  0.255686  0.000000  1
  O  O41  1  0.383923  0.164785  0.500000  1
  O  O42  1  0.451076  0.659449  0.500000  1
  O  O43  1  0.447114  0.441202  0.500000  1
  O  O44  1  0.494097  0.079118  0.000000  1
  O  O45  1  0.505903  0.920882  0.000000  1
  O  O46  1  0.552886  0.558798  0.500000  1
  O  O47  1  0.548924  0.340551  0.500000  1
  O  O48  1  0.616077  0.835215  0.500000  1
  O  O49  1  0.599210  0.744314  0.000000  1
  O  O50  1  0.648008  0.993051  0.500000  1
  O  O51  1  0.645667  0.213994  0.500000  1
  O  O52  1  0.684464  0.645727  0.000000  1
  O  O53  1  0.706320  0.414615  0.000000  1
  O  O54  1  0.793680  0.914615  0.000000  1
  O  O55  1  0.815536  0.145727  0.000000  1
  O  O56  1  0.854333  0.713993  0.500000  1
  O  O57  1  0.851992  0.493051  0.500000  1
  O  O58  1  0.900790  0.244314  0.000000  1
  O  O59  1  0.883923  0.335215  0.500000  1
  O  O60  1  0.951076  0.840551  0.500000  1
  O  O61  1  0.947114  0.058798  0.500000  1
