# generated using pymatgen
data_PuO2
_symmetry_space_group_name_H-M   'P 1'
_cell_length_a   5.07974489
_cell_length_b   5.07988082
_cell_length_c   3.54583889
_cell_angle_alpha   89.99995886
_cell_angle_beta   90.00077484
_cell_angle_gamma   90.01667583
_symmetry_Int_Tables_number   1
_chemical_formula_structural   PuO2
_chemical_formula_sum   'Pu2 O4'
_cell_volume   91.49859106
_cell_formula_units_Z   2
loop_
 _symmetry_equiv_pos_site_id
 _symmetry_equiv_pos_as_xyz
  1  'x, y, z'
loop_
 _atom_site_type_symbol
 _atom_site_label
 _atom_site_symmetry_multiplicity
 _atom_site_fract_x
 _atom_site_fract_y
 _atom_site_fract_z
 _atom_site_occupancy
  Pu  Pu0  1  0.000013  -0.000062  -0.000018  1
  Pu  Pu1  1  0.500013  0.500032  0.499999  1
  O  O2  1  0.310671  0.310668  0.999997  1
  O  O3  1  0.689314  0.689334  0.000014  1
  O  O4  1  0.810796  0.189219  0.499997  1
  O  O5  1  0.189194  0.810811  0.500005  1
