# generated using pymatgen
data_K4UO5
_symmetry_space_group_name_H-M   'P 1'
_cell_length_a   6.55987088
_cell_length_b   6.55850025
_cell_length_c   9.84494641
_cell_angle_alpha   101.71859710
_cell_angle_beta   108.89391442
_cell_angle_gamma   102.18483704
_symmetry_Int_Tables_number   1
_chemical_formula_structural   K4UO5
_chemical_formula_sum   'K8 U2 O10'
_cell_volume   374.45495523
_cell_formula_units_Z   2
loop_
 _symmetry_equiv_pos_site_id
 _symmetry_equiv_pos_as_xyz
  1  'x, y, z'
loop_
 _atom_site_type_symbol
 _atom_site_label
 _atom_site_symmetry_multiplicity
 _atom_site_fract_x
 _atom_site_fract_y
 _atom_site_fract_z
 _atom_site_occupancy
  O  O0  1  0.212902  0.197738  0.841590  1
  O  O1  1  0.787098  0.802262  0.158410  1
  O  O2  1  0.908201  0.788697  0.612782  1
  O  O3  1  0.091799  0.211303  0.387218  1
  O  O4  1  0.406240  0.206833  0.236281  1
  O  O5  1  0.593760  0.793167  0.763719  1
  O  O6  1  0.069545  0.821523  0.964772  1
  O  O7  1  0.930455  0.178477  0.035228  1
  O  O8  1  0.245572  0.805397  0.305124  1
  O  O9  1  0.754428  0.194603  0.694876  1
  K  K10  1  0.698826  0.485979  0.902427  1
  K  K11  1  0.895424  0.505789  0.300127  1
  K  K12  1  0.698882  0.001502  0.402824  1
  K  K13  1  0.301118  0.998498  0.597176  1
  K  K14  1  0.301174  0.514021  0.097573  1
  K  K15  1  0.500000  0.500000  0.500000  1
  K  K16  1  0.500000  0.000000  0.000000  1
  K  K17  1  0.104576  0.494211  0.699873  1
  U  U18  1  0.904761  0.994028  0.804551  1
  U  U19  1  0.095239  0.005972  0.195449  1
