# generated using pymatgen
data_Li4Mn2Nb3Cr3O16
_symmetry_space_group_name_H-M   'P 1'
_cell_length_a   6.09290564
_cell_length_b   6.14223213
_cell_length_c   10.04940402
_cell_angle_alpha   89.99868923
_cell_angle_beta   90.12329960
_cell_angle_gamma   120.26694643
_symmetry_Int_Tables_number   1
_chemical_formula_structural   Li4Mn2Nb3Cr3O16
_chemical_formula_sum   'Li4 Mn2 Nb3 Cr3 O16'
_cell_volume   324.82224549
_cell_formula_units_Z   1
loop_
 _symmetry_equiv_pos_site_id
 _symmetry_equiv_pos_as_xyz
  1  'x, y, z'
loop_
 _atom_site_type_symbol
 _atom_site_label
 _atom_site_symmetry_multiplicity
 _atom_site_fract_x
 _atom_site_fract_y
 _atom_site_fract_z
 _atom_site_occupancy
  Li  Li0  1  0.333697  0.666866  0.903489  1
  Li  Li1  1  0.013801  0.006915  0.004416  1
  Li  Li2  1  0.018605  0.009315  0.491394  1
  Li  Li3  1  0.672758  0.336384  0.373408  1
  Mn  Mn4  1  0.313578  0.656807  0.481025  1
  Mn  Mn5  1  0.657499  0.328766  0.016189  1
  Nb  Nb6  1  0.657737  0.828860  0.216270  1
  Nb  Nb7  1  0.825184  0.660145  0.715339  1
  Nb  Nb8  1  0.825142  0.165020  0.715310  1
  Cr  Cr9  1  0.167769  0.831903  0.215056  1
  Cr  Cr10  1  0.167749  0.335877  0.215051  1
  Cr  Cr11  1  0.333446  0.166742  0.714994  1
  O  O12  1  0.148567  0.841492  0.608211  1
  O  O13  1  0.035494  0.517754  0.328543  1
  O  O14  1  0.336929  0.668476  0.104465  1
  O  O15  1  0.000399  0.000199  0.313008  1
  O  O16  1  0.999845  0.999932  0.817465  1
  O  O17  1  0.148554  0.307100  0.608211  1
  O  O18  1  0.492661  0.971261  0.331698  1
  O  O19  1  0.492650  0.521397  0.331691  1
  O  O20  1  0.310732  0.155379  0.108290  1
  O  O21  1  0.683466  0.841755  0.604832  1
  O  O22  1  0.520893  0.490096  0.826903  1
  O  O23  1  0.520906  0.030841  0.826909  1
  O  O24  1  0.667941  0.333995  0.604327  1
  O  O25  1  0.840292  0.689892  0.103594  1
  O  O26  1  0.973443  0.486727  0.824157  1
  O  O27  1  0.840265  0.150403  0.103597  1
