# generated using pymatgen
data_Ta2CrNO5
_symmetry_space_group_name_H-M   'P 1'
_cell_length_a   4.77434494
_cell_length_b   4.77434494
_cell_length_c   9.21771878
_cell_angle_alpha   90.00000000
_cell_angle_beta   90.00000000
_cell_angle_gamma   90.28493728
_symmetry_Int_Tables_number   1
_chemical_formula_structural   Ta2CrNO5
_chemical_formula_sum   'Ta4 Cr2 N2 O10'
_cell_volume   210.10949056
_cell_formula_units_Z   2
loop_
 _symmetry_equiv_pos_site_id
 _symmetry_equiv_pos_as_xyz
  1  'x, y, z'
loop_
 _atom_site_type_symbol
 _atom_site_label
 _atom_site_symmetry_multiplicity
 _atom_site_fract_x
 _atom_site_fract_y
 _atom_site_fract_z
 _atom_site_occupancy
  Ta  Ta0  1  0.997369  0.002631  0.326456  1
  Ta  Ta1  1  0.997369  0.002631  0.673544  1
  Ta  Ta2  1  0.515911  0.484089  0.168781  1
  Ta  Ta3  1  0.515911  0.484089  0.831219  1
  Cr  Cr4  1  0.000337  0.999663  0.000000  1
  Cr  Cr5  1  0.496781  0.503219  0.500000  1
  N  N6  1  0.801689  0.198311  0.168618  1
  N  N7  1  0.801689  0.198311  0.831382  1
  O  O8  1  0.195394  0.804606  0.500000  1
  O  O9  1  0.196515  0.803485  0.828014  1
  O  O10  1  0.196515  0.803485  0.171986  1
  O  O11  1  0.300891  0.306854  0.332724  1
  O  O12  1  0.300891  0.306854  0.667276  1
  O  O13  1  0.302690  0.312862  0.000000  1
  O  O14  1  0.687138  0.697310  0.000000  1
  O  O15  1  0.693146  0.699109  0.332724  1
  O  O16  1  0.693146  0.699109  0.667276  1
  O  O17  1  0.806617  0.193383  0.500000  1
