# generated using pymatgen
data_Li2Fe3O3F5
_symmetry_space_group_name_H-M   'P 1'
_cell_length_a   6.01598591
_cell_length_b   6.01539860
_cell_length_c   5.99901070
_cell_angle_alpha   118.91792309
_cell_angle_beta   89.65850553
_cell_angle_gamma   59.20275951
_symmetry_Int_Tables_number   1
_chemical_formula_structural   Li2Fe3O3F5
_chemical_formula_sum   'Li2 Fe3 O3 F5'
_cell_volume   153.66944451
_cell_formula_units_Z   1
loop_
 _symmetry_equiv_pos_site_id
 _symmetry_equiv_pos_as_xyz
  1  'x, y, z'
loop_
 _atom_site_type_symbol
 _atom_site_label
 _atom_site_symmetry_multiplicity
 _atom_site_fract_x
 _atom_site_fract_y
 _atom_site_fract_z
 _atom_site_occupancy
  Li  Li0  1  0.880091  0.747589  0.382620  1
  Li  Li1  1  0.364934  0.262762  0.382681  1
  Fe  Fe2  1  0.362581  0.762381  0.399859  1
  Fe  Fe3  1  0.749473  0.478341  0.728851  1
  Fe  Fe4  1  0.382030  0.243491  0.861437  1
  O  O5  1  0.605371  0.765665  0.619269  1
  O  O6  1  0.611706  0.244735  0.632859  1
  O  O7  1  0.146378  0.224701  0.619369  1
  F  F8  1  0.617523  0.749309  0.131916  1
  F  F9  1  0.150990  0.725671  0.138486  1
  F  F10  1  0.138641  0.725058  0.586191  1
  F  F11  1  0.153073  0.280942  0.128059  1
  F  F12  1  0.587205  0.289356  0.138402  1
