# generated using pymatgen
data_Pr11In9Ni4
_symmetry_space_group_name_H-M   'P 1'
_cell_length_a   13.50971057
_cell_length_b   13.50971057
_cell_length_c   3.78843919
_cell_angle_alpha   90.00000000
_cell_angle_beta   90.00000000
_cell_angle_gamma   67.42522693
_symmetry_Int_Tables_number   1
_chemical_formula_structural   Pr11In9Ni4
_chemical_formula_sum   'Pr11 In9 Ni4'
_cell_volume   638.45833158
_cell_formula_units_Z   1
loop_
 _symmetry_equiv_pos_site_id
 _symmetry_equiv_pos_as_xyz
  1  'x, y, z'
loop_
 _atom_site_type_symbol
 _atom_site_label
 _atom_site_symmetry_multiplicity
 _atom_site_fract_x
 _atom_site_fract_y
 _atom_site_fract_z
 _atom_site_occupancy
  Pr  Pr0  1  0.000000  0.000000  0.000000  1
  Pr  Pr1  1  0.312819  0.687181  0.000000  1
  Pr  Pr2  1  0.687181  0.312819  0.000000  1
  Pr  Pr3  1  0.416330  0.922572  0.000000  1
  Pr  Pr4  1  0.583669  0.077428  0.000000  1
  Pr  Pr5  1  0.077428  0.583669  0.000000  1
  Pr  Pr6  1  0.922572  0.416330  0.000000  1
  Pr  Pr7  1  0.374278  0.374278  0.000000  1
  Pr  Pr8  1  0.625722  0.625722  0.000000  1
  Pr  Pr9  1  0.161130  0.161130  0.000000  1
  Pr  Pr10  1  0.838870  0.838870  0.000000  1
  In  In11  1  0.367002  0.162179  0.499999  1
  In  In12  1  0.632998  0.837820  0.499999  1
  In  In13  1  0.837820  0.632998  0.499999  1
  In  In14  1  0.162179  0.367002  0.499999  1
  In  In15  1  0.220183  0.918573  0.499999  1
  In  In16  1  0.779817  0.081427  0.499999  1
  In  In17  1  0.081427  0.779817  0.499999  1
  In  In18  1  0.918573  0.220183  0.499999  1
  In  In19  1  0.500000  0.500000  0.499999  1
  Ni  Ni20  1  0.448423  0.754562  0.499999  1
  Ni  Ni21  1  0.551578  0.245439  0.499999  1
  Ni  Ni22  1  0.245439  0.551578  0.499999  1
  Ni  Ni23  1  0.754562  0.448423  0.499999  1
