# generated using pymatgen
data_AgSbO3
_symmetry_space_group_name_H-M   'P 1'
_cell_length_a   8.16570655
_cell_length_b   8.31747724
_cell_length_c   8.31747724
_cell_angle_alpha   110.25227504
_cell_angle_beta   109.42826259
_cell_angle_gamma   109.47356661
_symmetry_Int_Tables_number   1
_chemical_formula_structural   AgSbO3
_chemical_formula_sum   'Ag6 Sb6 O18'
_cell_volume   430.82493566
_cell_formula_units_Z   6
loop_
 _symmetry_equiv_pos_site_id
 _symmetry_equiv_pos_as_xyz
  1  'x, y, z'
loop_
 _atom_site_type_symbol
 _atom_site_label
 _atom_site_symmetry_multiplicity
 _atom_site_fract_x
 _atom_site_fract_y
 _atom_site_fract_z
 _atom_site_occupancy
  Ag  Ag0  1  0.378643  0.997835  0.997450  1
  Ag  Ag1  1  0.001804  0.283262  0.015172  1
  Ag  Ag2  1  0.998196  0.013368  0.281459  1
  Ag  Ag3  1  0.006208  0.637087  0.003983  1
  Ag  Ag4  1  0.993792  0.997775  0.630878  1
  Ag  Ag5  1  0.621357  0.618807  0.619192  1
  Sb  Sb6  1  0.658999  0.160310  0.496501  1
  Sb  Sb7  1  0.834829  0.489098  0.331317  1
  Sb  Sb8  1  0.500000  0.659522  0.159522  1
  Sb  Sb9  1  0.500000  0.338271  0.838271  1
  Sb  Sb10  1  0.341001  0.837503  0.501311  1
  Sb  Sb11  1  0.165171  0.496488  0.654268  1
  O  O12  1  0.712881  0.328244  0.039647  1
  O  O13  1  0.355271  0.997339  0.363495  1
  O  O14  1  0.644729  0.008223  0.642066  1
  O  O15  1  0.355080  0.359768  0.993489  1
  O  O16  1  0.644920  0.638409  0.004688  1
  O  O17  1  0.956922  0.288714  0.665535  1
  O  O18  1  0.614839  0.278217  0.325677  1
  O  O19  1  0.711149  0.660832  0.379871  1
  O  O20  1  0.327980  0.042451  0.712345  1
  O  O21  1  0.672020  0.384365  0.714471  1
  O  O22  1  0.326858  0.619855  0.279357  1
  O  O23  1  0.673142  0.952498  0.292998  1
  O  O24  1  0.287119  0.326765  0.615363  1
  O  O25  1  0.000000  0.351595  0.351595  1
  O  O26  1  0.043078  0.708613  0.331792  1
  O  O27  1  0.385161  0.710838  0.663378  1
  O  O28  1  0.000000  0.631029  0.631029  1
  O  O29  1  0.288851  0.668722  0.949683  1
