# generated using pymatgen
data_LiFePH2O5
_symmetry_space_group_name_H-M   'P 1'
_cell_length_a   11.02135811
_cell_length_b   8.21505712
_cell_length_c   5.08611687
_cell_angle_alpha   90.00000000
_cell_angle_beta   90.00000000
_cell_angle_gamma   90.00000000
_symmetry_Int_Tables_number   1
_chemical_formula_structural   LiFePH2O5
_chemical_formula_sum   'Li4 Fe4 P4 H8 O20'
_cell_volume   460.50254704
_cell_formula_units_Z   4
loop_
 _symmetry_equiv_pos_site_id
 _symmetry_equiv_pos_as_xyz
  1  'x, y, z'
loop_
 _atom_site_type_symbol
 _atom_site_label
 _atom_site_symmetry_multiplicity
 _atom_site_fract_x
 _atom_site_fract_y
 _atom_site_fract_z
 _atom_site_occupancy
  Li  Li0  1  0.184758  0.677291  0.260032  1
  Li  Li1  1  0.315242  0.177291  0.760032  1
  Li  Li2  1  0.684758  0.822709  0.260032  1
  Li  Li3  1  0.815242  0.322709  0.760032  1
  Fe  Fe4  1  0.120146  0.868867  0.754321  1
  Fe  Fe5  1  0.379854  0.368867  0.254321  1
  Fe  Fe6  1  0.620146  0.631133  0.754321  1
  Fe  Fe7  1  0.879854  0.131133  0.254321  1
  P  P8  1  0.173181  0.079109  0.257087  1
  P  P9  1  0.326819  0.579109  0.757087  1
  P  P10  1  0.673181  0.420891  0.257087  1
  P  P11  1  0.826819  0.920891  0.757087  1
  H  H12  1  0.016678  0.454062  0.590773  1
  H  H13  1  0.043454  0.329690  0.823611  1
  H  H14  1  0.456546  0.829690  0.323611  1
  H  H15  1  0.483322  0.954062  0.090773  1
  H  H16  1  0.516678  0.045938  0.590773  1
  H  H17  1  0.543454  0.170310  0.823611  1
  H  H18  1  0.956546  0.670310  0.323611  1
  H  H19  1  0.983322  0.545938  0.090773  1
  O  O20  1  0.014605  0.589473  0.257891  1
  O  O21  1  0.055099  0.172555  0.189523  1
  O  O22  1  0.167455  0.903531  0.140631  1
  O  O23  1  0.191795  0.064115  0.559855  1
  O  O24  1  0.217575  0.672695  0.636709  1
  O  O25  1  0.282425  0.172695  0.136709  1
  O  O26  1  0.308205  0.564115  0.059855  1
  O  O27  1  0.332545  0.403531  0.640631  1
  O  O28  1  0.444901  0.672555  0.689523  1
  O  O29  1  0.485395  0.089473  0.757891  1
  O  O30  1  0.514605  0.910527  0.257891  1
  O  O31  1  0.555099  0.327445  0.189523  1
  O  O32  1  0.667455  0.596469  0.140631  1
  O  O33  1  0.691795  0.435885  0.559855  1
  O  O34  1  0.717575  0.827305  0.636709  1
  O  O35  1  0.782425  0.327305  0.136709  1
  O  O36  1  0.808205  0.935885  0.059855  1
  O  O37  1  0.832545  0.096469  0.640631  1
  O  O38  1  0.944901  0.827445  0.689523  1
  O  O39  1  0.985395  0.410527  0.757891  1
