# generated using pymatgen
data_Cd2PbO4
_symmetry_space_group_name_H-M   'P 1'
_cell_length_a   5.75198595
_cell_length_b   10.17753657
_cell_length_c   3.36526395
_cell_angle_alpha   90.00572554
_cell_angle_beta   89.99414104
_cell_angle_gamma   90.01190243
_symmetry_Int_Tables_number   1
_chemical_formula_structural   Cd2PbO4
_chemical_formula_sum   'Cd4 Pb2 O8'
_cell_volume   197.00606982
_cell_formula_units_Z   2
loop_
 _symmetry_equiv_pos_site_id
 _symmetry_equiv_pos_as_xyz
  1  'x, y, z'
loop_
 _atom_site_type_symbol
 _atom_site_label
 _atom_site_symmetry_multiplicity
 _atom_site_fract_x
 _atom_site_fract_y
 _atom_site_fract_z
 _atom_site_occupancy
  Cd  Cd0  1  0.059900  0.322860  0.499980  1
  Cd  Cd1  1  0.440155  0.822908  0.499985  1
  Cd  Cd2  1  0.559916  0.177072  0.500002  1
  Cd  Cd3  1  0.940142  0.677175  0.499996  1
  Pb  Pb4  1  -0.000237  0.000031  0.000074  1
  Pb  Pb5  1  0.499950  0.500024  0.000064  1
  O  O6  1  0.146233  0.801301  0.999952  1
  O  O7  1  0.246697  0.038532  0.499971  1
  O  O8  1  0.253443  0.538463  0.499941  1
  O  O9  1  0.353791  0.301335  0.999946  1
  O  O10  1  0.646187  0.698636  0.000091  1
  O  O11  1  0.746593  0.461467  0.499863  1
  O  O12  1  0.753451  0.961502  0.500106  1
  O  O13  1  0.853780  0.198695  0.000029  1
