# generated using pymatgen
data_Fe6OF11
_symmetry_space_group_name_H-M   'P 1'
_cell_length_a   10.81910740
_cell_length_b   6.79221124
_cell_length_c   3.25262795
_cell_angle_alpha   89.92454989
_cell_angle_beta   89.98649019
_cell_angle_gamma   71.74649036
_symmetry_Int_Tables_number   1
_chemical_formula_structural   Fe6OF11
_chemical_formula_sum   'Fe6 O1 F11'
_cell_volume   226.99374352
_cell_formula_units_Z   1
loop_
 _symmetry_equiv_pos_site_id
 _symmetry_equiv_pos_as_xyz
  1  'x, y, z'
loop_
 _atom_site_type_symbol
 _atom_site_label
 _atom_site_symmetry_multiplicity
 _atom_site_fract_x
 _atom_site_fract_y
 _atom_site_fract_z
 _atom_site_occupancy
  Fe  Fe0  1  0.000785  0.011541  0.995594  1
  Fe  Fe1  1  0.000139  0.472102  0.494890  1
  Fe  Fe2  1  0.332980  0.334672  0.998607  1
  Fe  Fe3  1  0.667501  0.166024  0.498862  1
  Fe  Fe4  1  0.334144  0.833423  0.500002  1
  Fe  Fe5  1  0.668075  0.666830  0.998079  1
  O  O6  1  0.999542  0.314362  0.995976  1
  F  F7  1  0.335880  0.035130  0.999317  1
  F  F8  1  0.001169  0.693927  0.001029  1
  F  F9  1  0.195909  0.407495  0.498246  1
  F  F10  1  0.467662  0.267465  0.499038  1
  F  F11  1  0.136285  0.927966  0.496753  1
  F  F12  1  0.336307  0.630964  0.000060  1
  F  F13  1  0.666027  0.369702  0.997858  1
  F  F14  1  0.865477  0.062138  0.495676  1
  F  F15  1  0.533734  0.734861  0.498204  1
  F  F16  1  0.804788  0.605465  0.498110  1
  F  F17  1  0.665650  0.966088  0.999282  1
