# generated using pymatgen
data_Li6TiFe5O12
_symmetry_space_group_name_H-M   'P 1'
_cell_length_a   5.15927250
_cell_length_b   5.16677466
_cell_length_c   10.19668522
_cell_angle_alpha   93.69433414
_cell_angle_beta   85.53456025
_cell_angle_gamma   59.96879889
_symmetry_Int_Tables_number   1
_chemical_formula_structural   Li6TiFe5O12
_chemical_formula_sum   'Li6 Ti1 Fe5 O12'
_cell_volume   232.91732515
_cell_formula_units_Z   1
loop_
 _symmetry_equiv_pos_site_id
 _symmetry_equiv_pos_as_xyz
  1  'x, y, z'
loop_
 _atom_site_type_symbol
 _atom_site_label
 _atom_site_symmetry_multiplicity
 _atom_site_fract_x
 _atom_site_fract_y
 _atom_site_fract_z
 _atom_site_occupancy
  Li  Li0  1  0.057388  0.288044  0.756742  1
  Li  Li1  1  0.719598  0.948076  0.758154  1
  Li  Li2  1  0.610597  0.382000  0.245027  1
  Li  Li3  1  0.388023  0.615498  0.754789  1
  Li  Li4  1  0.280465  0.052970  0.244109  1
  Li  Li5  1  0.943472  0.712749  0.241117  1
  Ti  Ti6  1  0.004262  0.004063  0.999961  1
  Fe  Fe7  1  0.500161  0.500346  0.499931  1
  Fe  Fe8  1  0.332870  0.332638  0.000013  1
  Fe  Fe9  1  0.664550  0.664672  0.000063  1
  Fe  Fe10  1  0.833700  0.833663  0.499711  1
  Fe  Fe11  1  0.166388  0.166757  0.500356  1
  O  O12  1  0.867826  0.133969  0.387835  1
  O  O13  1  0.728403  0.290842  0.886820  1
  O  O14  1  0.462969  0.202101  0.614727  1
  O  O15  1  0.798160  0.534933  0.613295  1
  O  O16  1  0.360839  0.948035  0.885848  1
  O  O17  1  0.024124  0.651144  0.889871  1
  O  O18  1  0.946293  0.358661  0.114168  1
  O  O19  1  0.649560  0.021983  0.110071  1
  O  O20  1  0.203480  0.464320  0.385218  1
  O  O21  1  0.536000  0.800088  0.386826  1
  O  O22  1  0.288938  0.726445  0.113168  1
  O  O23  1  0.131939  0.865990  0.612178  1
