# generated using pymatgen
data_Li3VOF4
_symmetry_space_group_name_H-M   'P 1'
_cell_length_a   7.68066405
_cell_length_b   10.22067891
_cell_length_c   10.77929398
_cell_angle_alpha   90.52018213
_cell_angle_beta   70.88577120
_cell_angle_gamma   89.35987124
_symmetry_Int_Tables_number   1
_chemical_formula_structural   Li3VOF4
_chemical_formula_sum   'Li24 V8 O8 F32'
_cell_volume   799.41671504
_cell_formula_units_Z   8
loop_
 _symmetry_equiv_pos_site_id
 _symmetry_equiv_pos_as_xyz
  1  'x, y, z'
loop_
 _atom_site_type_symbol
 _atom_site_label
 _atom_site_symmetry_multiplicity
 _atom_site_fract_x
 _atom_site_fract_y
 _atom_site_fract_z
 _atom_site_occupancy
  Li  Li0  1  0.110028  0.220731  0.133813  1
  Li  Li1  1  0.186690  0.608139  0.088283  1
  Li  Li2  1  0.091769  0.936370  0.337992  1
  Li  Li3  1  0.098007  0.558293  0.350262  1
  Li  Li4  1  0.407254  0.053570  0.157827  1
  Li  Li5  1  0.413738  0.427513  0.159653  1
  Li  Li6  1  0.381264  0.246199  0.381297  1
  Li  Li7  1  0.838417  0.560066  0.090729  1
  Li  Li8  1  0.848964  0.939732  0.096340  1
  Li  Li9  1  0.387761  0.775161  0.371457  1
  Li  Li10  1  0.346569  0.944036  0.595915  1
  Li  Li11  1  0.357382  0.556396  0.583811  1
  Li  Li12  1  0.673104  0.045871  0.398766  1
  Li  Li13  1  0.665194  0.437277  0.405633  1
  Li  Li14  1  0.614638  0.249042  0.625465  1
  Li  Li15  1  0.155556  0.053074  0.903922  1
  Li  Li16  1  0.155671  0.426554  0.897245  1
  Li  Li17  1  0.635750  0.732048  0.616331  1
  Li  Li18  1  0.901043  0.057177  0.657840  1
  Li  Li19  1  0.893915  0.446191  0.661932  1
  Li  Li20  1  0.592684  0.947150  0.841579  1
  Li  Li21  1  0.588588  0.564395  0.844793  1
  Li  Li22  1  0.866279  0.248471  0.877793  1
  Li  Li23  1  0.875256  0.769278  0.871354  1
  V  V24  1  0.505758  0.745975  0.096651  1
  V  V25  1  0.996798  0.249505  0.403291  1
  V  V26  1  0.743299  0.251709  0.154865  1
  V  V27  1  0.763772  0.747422  0.341355  1
  V  V28  1  0.242942  0.248207  0.653182  1
  V  V29  1  0.251388  0.747173  0.847595  1
  V  V30  1  0.008739  0.751237  0.595454  1
  V  V31  1  0.488926  0.258340  0.906374  1
  O  O32  1  0.613892  0.258436  0.032206  1
  O  O33  1  0.639817  0.743375  0.216360  1
  O  O34  1  0.127037  0.245695  0.523420  1
  O  O35  1  0.127329  0.749794  0.722600  1
  O  O36  1  0.865618  0.250613  0.281897  1
  O  O37  1  0.892342  0.749792  0.465135  1
  O  O38  1  0.357839  0.256023  0.784227  1
  O  O39  1  0.378800  0.734643  0.972156  1
  F  F40  1  0.176836  0.115659  0.283629  1
  F  F41  1  0.184569  0.376392  0.288760  1
  F  F42  1  0.672302  0.894088  0.992258  1
  F  F43  1  0.695138  0.613014  0.981252  1
  F  F44  1  0.327964  0.877861  0.219494  1
  F  F45  1  0.326487  0.607693  0.205893  1
  F  F46  1  0.934447  0.119509  0.040884  1
  F  F47  1  0.934110  0.377273  0.040237  1
  F  F48  1  0.181776  0.895257  0.493043  1
  F  F49  1  0.195313  0.612040  0.487964  1
  F  F50  1  0.561366  0.113259  0.262298  1
  F  F51  1  0.566044  0.392032  0.265970  1
  F  F52  1  0.441061  0.118154  0.542766  1
  F  F53  1  0.439086  0.374938  0.540731  1
  F  F54  1  0.052779  0.386044  0.758900  1
  F  F55  1  0.063570  0.108781  0.759387  1
  F  F56  1  0.944908  0.598970  0.234430  1
  F  F57  1  0.890094  0.921397  0.264452  1
  F  F58  1  0.586616  0.613353  0.457889  1
  F  F59  1  0.557412  0.870071  0.461033  1
  F  F60  1  0.422566  0.895262  0.749072  1
  F  F61  1  0.436325  0.610655  0.731871  1
  F  F62  1  0.814014  0.114289  0.514919  1
  F  F63  1  0.823452  0.394238  0.511124  1
  F  F64  1  0.056127  0.878577  0.954858  1
  F  F65  1  0.074648  0.606552  0.954083  1
  F  F66  1  0.679273  0.123797  0.794448  1
  F  F67  1  0.675295  0.384023  0.789593  1
  F  F68  1  0.320459  0.413908  0.007714  1
  F  F69  1  0.314864  0.113073  0.011482  1
  F  F70  1  0.814912  0.881741  0.711133  1
  F  F71  1  0.810502  0.624407  0.703113  1
