# generated using pymatgen
data_Li3Mn4(BO3)4
_symmetry_space_group_name_H-M   'P 1'
_cell_length_a   5.89150782
_cell_length_b   9.16935564
_cell_length_c   5.21755794
_cell_angle_alpha   89.88477215
_cell_angle_beta   112.41124730
_cell_angle_gamma   103.75050077
_symmetry_Int_Tables_number   1
_chemical_formula_structural   Li3Mn4(BO3)4
_chemical_formula_sum   'Li3 Mn4 B4 O12'
_cell_volume   251.86767002
_cell_formula_units_Z   1
loop_
 _symmetry_equiv_pos_site_id
 _symmetry_equiv_pos_as_xyz
  1  'x, y, z'
loop_
 _atom_site_type_symbol
 _atom_site_label
 _atom_site_symmetry_multiplicity
 _atom_site_fract_x
 _atom_site_fract_y
 _atom_site_fract_z
 _atom_site_occupancy
  Li  Li0  1  0.680374  0.685510  0.753482  1
  Li  Li1  1  0.348053  0.311136  0.253323  1
  Li  Li2  1  0.315103  0.805314  0.742655  1
  Mn  Mn3  1  0.763761  0.372847  0.785689  1
  Mn  Mn4  1  0.754586  0.889770  0.279931  1
  Mn  Mn5  1  0.251288  0.116736  0.732266  1
  Mn  Mn6  1  0.243073  0.622036  0.219277  1
  B  B7  1  0.735445  0.034708  0.766947  1
  B  B8  1  0.743116  0.547815  0.275717  1
  B  B9  1  0.260516  0.455020  0.730964  1
  B  B10  1  0.256419  0.964371  0.223680  1
  O  O11  1  0.877560  0.071201  0.601244  1
  O  O12  1  0.830219  0.570240  0.057639  1
  O  O13  1  0.711401  0.411252  0.377989  1
  O  O14  1  0.620710  0.142900  0.815715  1
  O  O15  1  0.678982  0.667972  0.375816  1
  O  O16  1  0.266600  0.101692  0.119520  1
  O  O17  1  0.695459  0.893986  0.857074  1
  O  O18  1  0.322663  0.337660  0.624306  1
  O  O19  1  0.327198  0.850388  0.121177  1
  O  O20  1  0.298169  0.597703  0.640432  1
  O  O21  1  0.175632  0.429338  0.948348  1
  O  O22  1  0.175158  0.937405  0.445074  1
