# generated using pymatgen
data_Li5Mn6(BO3)6
_symmetry_space_group_name_H-M   'P 1'
_cell_length_a   8.23458321
_cell_length_b   8.80916880
_cell_length_c   6.35332937
_cell_angle_alpha   68.74751289
_cell_angle_beta   89.78507438
_cell_angle_gamma   116.73834045
_symmetry_Int_Tables_number   1
_chemical_formula_structural   Li5Mn6(BO3)6
_chemical_formula_sum   'Li5 Mn6 B6 O18'
_cell_volume   375.81260710
_cell_formula_units_Z   1
loop_
 _symmetry_equiv_pos_site_id
 _symmetry_equiv_pos_as_xyz
  1  'x, y, z'
loop_
 _atom_site_type_symbol
 _atom_site_label
 _atom_site_symmetry_multiplicity
 _atom_site_fract_x
 _atom_site_fract_y
 _atom_site_fract_z
 _atom_site_occupancy
  Li  Li0  1  0.705414  0.724440  0.384890  1
  Li  Li1  1  0.014622  0.299677  0.095044  1
  Li  Li2  1  0.015417  0.300823  0.604199  1
  Li  Li3  1  0.285733  0.980914  0.254844  1
  Li  Li4  1  0.284471  0.981463  0.764889  1
  Mn  Mn5  1  0.977651  0.642913  0.685217  1
  Mn  Mn6  1  0.978199  0.631227  0.183087  1
  Mn  Mn7  1  0.642334  0.998296  0.502606  1
  Mn  Mn8  1  0.636352  0.997702  0.997023  1
  Mn  Mn9  1  0.392711  0.376804  0.812404  1
  Mn  Mn10  1  0.370737  0.360295  0.316084  1
  B  B11  1  0.666322  0.328528  0.080288  1
  B  B12  1  0.665359  0.332667  0.591101  1
  B  B13  1  0.012937  0.009510  0.000115  1
  B  B14  1  0.009708  0.009833  0.490883  1
  B  B15  1  0.324383  0.661702  0.426566  1
  B  B16  1  0.321263  0.659469  0.910241  1
  O  O17  1  0.737520  0.206638  0.145211  1
  O  O18  1  0.739985  0.214472  0.641068  1
  O  O19  1  0.775045  0.517014  0.995491  1
  O  O20  1  0.773171  0.524135  0.492591  1
  O  O21  1  0.822110  0.893660  0.534562  1
  O  O22  1  0.823300  0.904406  0.066886  1
  O  O23  1  0.469567  0.253615  0.102824  1
  O  O24  1  0.469519  0.256286  0.642530  1
  O  O25  1  0.412374  0.549751  0.488065  1
  O  O26  1  0.393909  0.536302  0.962288  1
  O  O27  1  0.438076  0.849638  0.822676  1
  O  O28  1  0.438616  0.851901  0.324905  1
  O  O29  1  0.083898  0.203534  0.400314  1
  O  O30  1  0.101162  0.205024  0.894492  1
  O  O31  1  0.134178  0.580647  0.464532  1
  O  O32  1  0.131162  0.584363  0.955189  1
  O  O33  1  0.121818  0.921116  0.041568  1
  O  O34  1  0.130974  0.934858  0.533517  1
