# generated using pymatgen
data_Li5V3P8O29
_symmetry_space_group_name_H-M   'P 1'
_cell_length_a   9.78789769
_cell_length_b   9.77499351
_cell_length_c   14.07686948
_cell_angle_alpha   90.15717100
_cell_angle_beta   89.80428639
_cell_angle_gamma   59.92496702
_symmetry_Int_Tables_number   1
_chemical_formula_structural   Li5V3P8O29
_chemical_formula_sum   'Li10 V6 P16 O58'
_cell_volume   1165.48172143
_cell_formula_units_Z   2
loop_
 _symmetry_equiv_pos_site_id
 _symmetry_equiv_pos_as_xyz
  1  'x, y, z'
loop_
 _atom_site_type_symbol
 _atom_site_label
 _atom_site_symmetry_multiplicity
 _atom_site_fract_x
 _atom_site_fract_y
 _atom_site_fract_z
 _atom_site_occupancy
  Li  Li0  1  0.901843  0.764466  0.058970  1
  Li  Li1  1  0.759245  0.904768  0.559725  1
  Li  Li2  1  0.900139  0.336005  0.558924  1
  Li  Li3  1  0.758407  0.334559  0.060207  1
  Li  Li4  1  0.335908  0.900512  0.060155  1
  Li  Li5  1  0.337651  0.763557  0.559430  1
  Li  Li6  1  0.098196  0.666923  0.440183  1
  Li  Li7  1  0.098990  0.235024  0.940182  1
  Li  Li8  1  0.976171  0.979935  0.994659  1
  Li  Li9  1  0.977563  0.044090  0.494802  1
  V  V10  1  0.561621  0.435661  0.251126  1
  V  V11  1  0.435451  0.564172  0.752142  1
  V  V12  1  0.562387  0.004037  0.750772  1
  V  V13  1  0.438989  0.001492  0.253699  1
  V  V14  1  0.999742  0.565426  0.246370  1
  V  V15  1  0.998689  0.434005  0.747591  1
  P  P16  1  0.909579  0.776729  0.841042  1
  P  P17  1  0.776490  0.912660  0.345039  1
  P  P18  1  0.908849  0.314922  0.340903  1
  P  P19  1  0.664547  0.666932  0.130955  1
  P  P20  1  0.665611  0.669043  0.630270  1
  P  P21  1  0.774198  0.312454  0.846040  1
  P  P22  1  0.696423  0.221182  0.661824  1
  P  P23  1  0.312928  0.914155  0.842102  1
  P  P24  1  0.697201  0.082972  0.161648  1
  P  P25  1  0.310191  0.775802  0.343182  1
  P  P26  1  0.222419  0.694038  0.157757  1
  P  P27  1  0.331467  0.336932  0.368779  1
  P  P28  1  0.328119  0.334822  0.868685  1
  P  P29  1  0.088964  0.685475  0.659506  1
  P  P30  1  0.222697  0.082729  0.657253  1
  P  P31  1  0.088649  0.223067  0.159063  1
  O  O32  1  0.999915  0.769804  0.571011  1
  O  O33  1  0.921385  0.742171  0.333093  1
  O  O34  1  0.807845  0.991083  0.081912  1
  O  O35  1  0.738303  0.918762  0.829023  1
  O  O36  1  0.913355  0.619784  0.830561  1
  O  O37  1  0.811888  0.675623  0.167624  1
  O  O38  1  0.912929  0.467783  0.330044  1
  O  O39  1  0.997984  0.231325  0.070504  1
  O  O40  1  0.918972  0.337939  0.834501  1
  O  O41  1  0.674404  0.814642  0.672881  1
  O  O42  1  0.624362  0.905853  0.331356  1
  O  O43  1  0.810799  0.512971  0.669384  1
  O  O44  1  0.662818  0.661934  0.024769  1
  O  O45  1  0.670918  0.672519  0.524039  1
  O  O46  1  0.672980  0.513252  0.173246  1
  O  O47  1  0.470539  0.913265  0.826551  1
  O  O48  1  0.512822  0.813309  0.173158  1
  O  O49  1  0.737345  0.345583  0.329310  1
  O  O50  1  0.791351  0.195467  0.760003  1
  O  O51  1  0.804629  0.204365  0.581428  1
  O  O52  1  0.790388  0.228149  0.937785  1
  O  O53  1  0.621379  0.469104  0.831412  1
  O  O54  1  0.511307  0.678242  0.668978  1
  O  O55  1  0.659978  0.258102  0.159888  1
  O  O56  1  0.467873  0.616293  0.326553  1
  O  O57  1  0.341326  0.912454  0.338844  1
  O  O58  1  0.792481  0.013529  0.260248  1
  O  O59  1  0.790268  0.980791  0.437679  1
  O  O60  1  0.211663  0.989377  0.576379  1
  O  O61  1  0.658528  0.084144  0.659233  1
  O  O62  1  0.543627  0.382555  0.669965  1
  O  O63  1  0.343150  0.744470  0.835506  1
  O  O64  1  0.479419  0.334812  0.318042  1
  O  O65  1  0.382626  0.538390  0.169263  1
  O  O66  1  0.213202  0.797453  0.077090  1
  O  O67  1  0.230205  0.769541  0.433925  1
  O  O68  1  0.196587  0.790117  0.256795  1
  O  O69  1  0.257552  0.659872  0.658917  1
  O  O70  1  0.477075  0.185629  0.817757  1
  O  O71  1  0.544926  0.075293  0.167548  1
  O  O72  1  0.326999  0.479273  0.823019  1
  O  O73  1  0.338672  0.318914  0.973699  1
  O  O74  1  0.342179  0.337130  0.473879  1
  O  O75  1  0.185322  0.488565  0.330622  1
  O  O76  1  0.382830  0.077285  0.668787  1
  O  O77  1  0.333773  0.188837  0.322651  1
  O  O78  1  0.084665  0.659080  0.154943  1
  O  O79  1  0.004295  0.794583  0.751722  1
  O  O80  1  0.976700  0.796951  0.931976  1
  O  O81  1  0.090721  0.527799  0.673916  1
  O  O82  1  0.184255  0.323837  0.830144  1
  O  O83  1  0.090125  0.379941  0.174311  1
  O  O84  1  0.256495  0.081830  0.158317  1
  O  O85  1  0.231456  0.996717  0.933361  1
  O  O86  1  0.198244  0.011139  0.756213  1
  O  O87  1  0.084075  0.255510  0.655652  1
  O  O88  1  0.976020  0.227603  0.431783  1
  O  O89  1  0.002807  0.201583  0.251397  1
