# generated using pymatgen
data_RbZnH2Se2ClO6
_symmetry_space_group_name_H-M   'P 1'
_cell_length_a   6.53671797
_cell_length_b   6.10784505
_cell_length_c   10.94837892
_cell_angle_alpha   90.00000000
_cell_angle_beta   103.17252533
_cell_angle_gamma   90.00000000
_symmetry_Int_Tables_number   1
_chemical_formula_structural   RbZnH2Se2ClO6
_chemical_formula_sum   'Rb2 Zn2 H4 Se4 Cl2 O12'
_cell_volume   425.61558812
_cell_formula_units_Z   2
loop_
 _symmetry_equiv_pos_site_id
 _symmetry_equiv_pos_as_xyz
  1  'x, y, z'
loop_
 _atom_site_type_symbol
 _atom_site_label
 _atom_site_symmetry_multiplicity
 _atom_site_fract_x
 _atom_site_fract_y
 _atom_site_fract_z
 _atom_site_occupancy
  Rb  Rb0  1  0.000000  0.164948  0.250000  1
  Rb  Rb1  1  0.000000  0.835053  0.750000  1
  Zn  Zn2  1  0.499999  0.566482  0.250000  1
  Zn  Zn3  1  0.499999  0.433516  0.750000  1
  H  H4  1  0.067782  0.661372  0.089994  1
  H  H5  1  0.932218  0.661372  0.410007  1
  H  H6  1  0.067782  0.338627  0.589994  1
  H  H7  1  0.932218  0.338627  0.910006  1
  Se  Se8  1  0.703218  0.687847  0.010029  1
  Se  Se9  1  0.296783  0.687847  0.489971  1
  Se  Se10  1  0.703217  0.312154  0.510028  1
  Se  Se11  1  0.296783  0.312154  0.989972  1
  Cl  Cl12  1  0.499999  0.944283  0.250000  1
  Cl  Cl13  1  0.499999  0.055718  0.750000  1
  O  O14  1  0.963647  0.787136  0.076337  1
  O  O15  1  0.679973  0.484744  0.114174  1
  O  O16  1  0.242645  0.456611  0.115689  1
  O  O17  1  0.757355  0.456611  0.384311  1
  O  O18  1  0.320027  0.484744  0.385826  1
  O  O19  1  0.036353  0.787136  0.423662  1
  O  O20  1  0.963648  0.212865  0.576337  1
  O  O21  1  0.679973  0.515257  0.614174  1
  O  O22  1  0.242646  0.543388  0.615689  1
  O  O23  1  0.757355  0.543388  0.884310  1
  O  O24  1  0.320027  0.515257  0.885826  1
  O  O25  1  0.036353  0.212865  0.923663  1
