# generated using pymatgen
data_MnPSe3
_symmetry_space_group_name_H-M   'P 1'
_cell_length_a   8.36236254
_cell_length_b   8.36236254
_cell_length_c   8.36236254
_cell_angle_alpha   45.08955478
_cell_angle_beta   45.08955482
_cell_angle_gamma   45.08955482
_symmetry_Int_Tables_number   1
_chemical_formula_structural   MnPSe3
_chemical_formula_sum   'Mn2 P2 Se6'
_cell_volume   267.00663974
_cell_formula_units_Z   2
loop_
 _symmetry_equiv_pos_site_id
 _symmetry_equiv_pos_as_xyz
  1  'x, y, z'
loop_
 _atom_site_type_symbol
 _atom_site_label
 _atom_site_symmetry_multiplicity
 _atom_site_fract_x
 _atom_site_fract_y
 _atom_site_fract_z
 _atom_site_occupancy
  P  P0  1  0.549762  0.549762  0.549762  1
  P  P1  1  0.450238  0.450238  0.450238  1
  Mn  Mn2  1  0.833034  0.833034  0.833034  1
  Mn  Mn3  1  0.166966  0.166966  0.166966  1
  Se  Se4  1  0.423101  0.758389  0.090576  1
  Se  Se5  1  0.090576  0.423101  0.758389  1
  Se  Se6  1  0.758389  0.090576  0.423101  1
  Se  Se7  1  0.576899  0.241611  0.909424  1
  Se  Se8  1  0.909424  0.576899  0.241611  1
  Se  Se9  1  0.241611  0.909424  0.576899  1
