# generated using pymatgen
data_CuH10SeO9
_symmetry_space_group_name_H-M   'P 1'
_cell_length_a   6.12881845
_cell_length_b   6.19740164
_cell_length_c   11.01871887
_cell_angle_alpha   77.12220573
_cell_angle_beta   82.00333575
_cell_angle_gamma   72.32933576
_symmetry_Int_Tables_number   1
_chemical_formula_structural   CuH10SeO9
_chemical_formula_sum   'Cu2 H20 Se2 O18'
_cell_volume   387.59177854
_cell_formula_units_Z   2
loop_
 _symmetry_equiv_pos_site_id
 _symmetry_equiv_pos_as_xyz
  1  'x, y, z'
loop_
 _atom_site_type_symbol
 _atom_site_label
 _atom_site_symmetry_multiplicity
 _atom_site_fract_x
 _atom_site_fract_y
 _atom_site_fract_z
 _atom_site_occupancy
  Cu  Cu0  1  0.500000  0.000000  0.500000  1
  Cu  Cu1  1  0.500000  0.500000  0.000000  1
  H  H2  1  0.075579  0.598348  0.104634  1
  H  H3  1  0.174653  0.314338  0.124233  1
  H  H4  1  0.181342  0.325736  0.377210  1
  H  H5  1  0.160969  0.410341  0.620015  1
  H  H6  1  0.185384  0.595714  0.691541  1
  H  H7  1  0.432046  0.311000  0.301976  1
  H  H8  1  0.263417  0.728887  0.490422  1
  H  H9  1  0.265349  0.901016  0.355687  1
  H  H10  1  0.343746  0.857992  0.115973  1
  H  H11  1  0.377883  0.206152  0.906593  1
  H  H12  1  0.622117  0.793848  0.093407  1
  H  H13  1  0.656254  0.142008  0.884027  1
  H  H14  1  0.734651  0.098984  0.644313  1
  H  H15  1  0.736583  0.271113  0.509578  1
  H  H16  1  0.567954  0.689000  0.698024  1
  H  H17  1  0.814616  0.404286  0.308459  1
  H  H18  1  0.839031  0.589659  0.379985  1
  H  H19  1  0.818658  0.674265  0.622790  1
  H  H20  1  0.825347  0.685662  0.875767  1
  H  H21  1  0.924421  0.401652  0.895366  1
  Se  Se22  1  0.118472  0.997122  0.784452  1
  Se  Se23  1  0.881528  0.002878  0.215548  1
  O  O24  1  0.150640  0.032655  0.198672  1
  O  O25  1  0.170336  0.123310  0.637348  1
  O  O26  1  0.213898  0.463048  0.098939  1
  O  O27  1  0.132158  0.160839  0.884248  1
  O  O28  1  0.121687  0.580345  0.617733  1
  O  O29  1  0.349662  0.293305  0.385506  1
  O  O30  1  0.355191  0.818036  0.428596  1
  O  O31  1  0.302043  0.731841  0.811868  1
  O  O32  1  0.482317  0.763125  0.072811  1
  O  O33  1  0.517683  0.236875  0.927189  1
  O  O34  1  0.697957  0.268159  0.188132  1
  O  O35  1  0.644809  0.181964  0.571404  1
  O  O36  1  0.650338  0.706695  0.614494  1
  O  O37  1  0.878313  0.419655  0.382267  1
  O  O38  1  0.867842  0.839161  0.115751  1
  O  O39  1  0.786102  0.536952  0.901061  1
  O  O40  1  0.829664  0.876690  0.362652  1
  O  O41  1  0.849360  0.967345  0.801328  1
