# generated using pymatgen
data_NaHo4Ge2O11
_symmetry_space_group_name_H-M   'P 1'
_cell_length_a   6.78436884
_cell_length_b   21.84077939
_cell_length_c   6.90959624
_cell_angle_alpha   90.00000000
_cell_angle_beta   90.00000000
_cell_angle_gamma   90.00000000
_symmetry_Int_Tables_number   1
_chemical_formula_structural   NaHo4Ge2O11
_chemical_formula_sum   'Na4 Ho16 Ge8 O44'
_cell_volume   1023.83566316
_cell_formula_units_Z   4
loop_
 _symmetry_equiv_pos_site_id
 _symmetry_equiv_pos_as_xyz
  1  'x, y, z'
loop_
 _atom_site_type_symbol
 _atom_site_label
 _atom_site_symmetry_multiplicity
 _atom_site_fract_x
 _atom_site_fract_y
 _atom_site_fract_z
 _atom_site_occupancy
  Na  Na0  1  0.641884  0.250000  0.804976  1
  Na  Na1  1  0.141884  0.250000  0.695024  1
  Na  Na2  1  0.358116  0.750000  0.195024  1
  Na  Na3  1  0.858116  0.750000  0.304976  1
  Ho  Ho4  1  0.717907  0.013238  0.374964  1
  Ho  Ho5  1  0.217907  0.486762  0.125036  1
  Ho  Ho6  1  0.282093  0.513238  0.625036  1
  Ho  Ho7  1  0.782093  0.986762  0.874964  1
  Ho  Ho8  1  0.282093  0.986762  0.625036  1
  Ho  Ho9  1  0.782093  0.513238  0.874964  1
  Ho  Ho10  1  0.717907  0.486762  0.374964  1
  Ho  Ho11  1  0.217907  0.013238  0.125036  1
  Ho  Ho12  1  0.907478  0.149523  0.129889  1
  Ho  Ho13  1  0.407478  0.350477  0.370111  1
  Ho  Ho14  1  0.092522  0.649523  0.870111  1
  Ho  Ho15  1  0.592522  0.850477  0.629889  1
  Ho  Ho16  1  0.092522  0.850477  0.870111  1
  Ho  Ho17  1  0.592522  0.649523  0.629889  1
  Ho  Ho18  1  0.907478  0.350477  0.129889  1
  Ho  Ho19  1  0.407478  0.149523  0.370111  1
  Ge  Ge20  1  0.921110  0.126377  0.595387  1
  Ge  Ge21  1  0.421110  0.373623  0.904613  1
  Ge  Ge22  1  0.078890  0.626377  0.404613  1
  Ge  Ge23  1  0.578890  0.873623  0.095387  1
  Ge  Ge24  1  0.078890  0.873623  0.404613  1
  Ge  Ge25  1  0.578890  0.626377  0.095387  1
  Ge  Ge26  1  0.921110  0.373623  0.595387  1
  Ge  Ge27  1  0.421110  0.126377  0.904613  1
  O  O28  1  0.721131  0.118041  0.426095  1
  O  O29  1  0.221131  0.381959  0.073905  1
  O  O30  1  0.278869  0.618041  0.573905  1
  O  O31  1  0.778869  0.881959  0.926095  1
  O  O32  1  0.278869  0.881959  0.573905  1
  O  O33  1  0.778869  0.618041  0.926095  1
  O  O34  1  0.721131  0.381959  0.426095  1
  O  O35  1  0.221131  0.118041  0.073905  1
  O  O36  1  0.891773  0.044446  0.115605  1
  O  O37  1  0.391773  0.455554  0.384395  1
  O  O38  1  0.108227  0.544446  0.884395  1
  O  O39  1  0.608227  0.955554  0.615605  1
  O  O40  1  0.108227  0.955554  0.884395  1
  O  O41  1  0.608227  0.544446  0.615605  1
  O  O42  1  0.891773  0.455554  0.115605  1
  O  O43  1  0.391773  0.044446  0.384395  1
  O  O44  1  0.977659  0.250000  0.138370  1
  O  O45  1  0.477659  0.250000  0.361630  1
  O  O46  1  0.022341  0.750000  0.861630  1
  O  O47  1  0.522341  0.750000  0.638370  1
  O  O48  1  0.583326  0.159794  0.075932  1
  O  O49  1  0.083326  0.340206  0.424068  1
  O  O50  1  0.416674  0.659794  0.924068  1
  O  O51  1  0.916674  0.840206  0.575932  1
  O  O52  1  0.416674  0.840206  0.924068  1
  O  O53  1  0.916674  0.659794  0.575932  1
  O  O54  1  0.583326  0.340206  0.075932  1
  O  O55  1  0.083326  0.159794  0.424068  1
  O  O56  1  0.895999  0.171394  0.800960  1
  O  O57  1  0.395999  0.328606  0.699040  1
  O  O58  1  0.104001  0.671394  0.199040  1
  O  O59  1  0.604001  0.828606  0.300960  1
  O  O60  1  0.104001  0.828606  0.199040  1
  O  O61  1  0.604001  0.671394  0.300960  1
  O  O62  1  0.895999  0.328606  0.800960  1
  O  O63  1  0.395999  0.171394  0.699040  1
  O  O64  1  0.954447  0.046027  0.640991  1
  O  O65  1  0.454447  0.453973  0.859009  1
  O  O66  1  0.045553  0.546027  0.359009  1
  O  O67  1  0.545553  0.953973  0.140991  1
  O  O68  1  0.045553  0.953973  0.359009  1
  O  O69  1  0.545553  0.546027  0.140991  1
  O  O70  1  0.954447  0.453973  0.640991  1
  O  O71  1  0.454447  0.046027  0.859009  1
