# generated using pymatgen
data_LiV2OF5
_symmetry_space_group_name_H-M   'P 1'
_cell_length_a   4.75465521
_cell_length_b   4.75465521
_cell_length_c   18.61395584
_cell_angle_alpha   89.77885004
_cell_angle_beta   90.22114996
_cell_angle_gamma   89.99877474
_symmetry_Int_Tables_number   1
_chemical_formula_structural   LiV2OF5
_chemical_formula_sum   'Li4 V8 O4 F20'
_cell_volume   420.79470573
_cell_formula_units_Z   4
loop_
 _symmetry_equiv_pos_site_id
 _symmetry_equiv_pos_as_xyz
  1  'x, y, z'
loop_
 _atom_site_type_symbol
 _atom_site_label
 _atom_site_symmetry_multiplicity
 _atom_site_fract_x
 _atom_site_fract_y
 _atom_site_fract_z
 _atom_site_occupancy
  Li  Li0  1  0.004462  0.003040  0.999994  1
  Li  Li1  1  0.996960  0.995538  0.499994  1
  Li  Li2  1  0.503757  0.496698  0.250066  1
  Li  Li3  1  0.503302  0.496243  0.750066  1
  V  V4  1  0.978210  0.975244  0.167036  1
  V  V5  1  0.008121  0.991525  0.339699  1
  V  V6  1  0.024756  0.021790  0.667036  1
  V  V7  1  0.008475  0.991879  0.839699  1
  V  V8  1  0.509141  0.507438  0.089752  1
  V  V9  1  0.475642  0.520961  0.417115  1
  V  V10  1  0.479039  0.524358  0.917115  1
  V  V11  1  0.492562  0.490859  0.589752  1
  O  O12  1  0.208223  0.790301  0.406023  1
  O  O13  1  0.209699  0.791777  0.906023  1
  O  O14  1  0.293006  0.290124  0.655996  1
  O  O15  1  0.709876  0.706994  0.155996  1
  F  F16  1  0.199643  0.802754  0.084322  1
  F  F17  1  0.197246  0.800357  0.584322  1
  F  F18  1  0.193179  0.804543  0.251026  1
  F  F19  1  0.195457  0.806821  0.751026  1
  F  F20  1  0.312021  0.313967  0.002472  1
  F  F21  1  0.304571  0.306455  0.500813  1
  F  F22  1  0.289421  0.287457  0.164874  1
  F  F23  1  0.303467  0.301200  0.834711  1
  F  F24  1  0.301727  0.300827  0.334361  1
  F  F25  1  0.698800  0.696533  0.334711  1
  F  F26  1  0.699173  0.698273  0.834361  1
  F  F27  1  0.712543  0.710579  0.664874  1
  F  F28  1  0.686033  0.687979  0.502472  1
  F  F29  1  0.693545  0.695429  0.000813  1
  F  F30  1  0.815441  0.189663  0.752218  1
  F  F31  1  0.810337  0.184559  0.252218  1
  F  F32  1  0.787771  0.209777  0.414850  1
  F  F33  1  0.790223  0.212229  0.914850  1
  F  F34  1  0.801299  0.197130  0.584672  1
  F  F35  1  0.802870  0.198701  0.084672  1
