# generated using pymatgen
data_LiMn3(BO3)3
_symmetry_space_group_name_H-M   'P 1'
_cell_length_a   9.31096658
_cell_length_b   7.93390379
_cell_length_c   5.91996288
_cell_angle_alpha   81.39334175
_cell_angle_beta   77.38766509
_cell_angle_gamma   115.40365898
_symmetry_Int_Tables_number   1
_chemical_formula_structural   LiMn3(BO3)3
_chemical_formula_sum   'Li2 Mn6 B6 O18'
_cell_volume   370.52648732
_cell_formula_units_Z   2
loop_
 _symmetry_equiv_pos_site_id
 _symmetry_equiv_pos_as_xyz
  1  'x, y, z'
loop_
 _atom_site_type_symbol
 _atom_site_label
 _atom_site_symmetry_multiplicity
 _atom_site_fract_x
 _atom_site_fract_y
 _atom_site_fract_z
 _atom_site_occupancy
  Li  Li0  1  0.954906  0.829175  0.487362  1
  Li  Li1  1  0.378427  0.837491  0.845972  1
  Mn  Mn2  1  0.268315  0.162580  0.083402  1
  Mn  Mn3  1  0.413532  0.210063  0.522152  1
  Mn  Mn4  1  0.065018  0.504086  0.249931  1
  Mn  Mn5  1  0.919801  0.456603  0.811181  1
  Mn  Mn6  1  0.588059  0.809233  0.443772  1
  Mn  Mn7  1  0.745274  0.857434  0.889561  1
  B  B8  1  0.939346  0.127594  0.130829  1
  B  B9  1  0.720331  0.189977  0.562170  1
  B  B10  1  0.393987  0.539073  0.202504  1
  B  B11  1  0.613003  0.476689  0.771163  1
  B  B12  1  0.261777  0.808168  0.451396  1
  B  B13  1  0.071557  0.858499  0.881937  1
  O  O14  1  0.022041  0.043334  0.221502  1
  O  O15  1  0.775835  0.015837  0.130311  1
  O  O16  1  0.641572  0.987635  0.675962  1
  O  O17  1  0.322645  0.337975  0.293880  1
  O  O18  1  0.647048  0.271646  0.447772  1
  O  O19  1  0.311292  0.623333  0.111831  1
  O  O20  1  0.887836  0.302802  0.557276  1
  O  O21  1  0.557499  0.650829  0.203022  1
  O  O22  1  0.007816  0.661239  0.988921  1
  O  O23  1  0.010689  0.328692  0.039453  1
  O  O24  1  0.445497  0.363865  0.776057  1
  O  O25  1  0.094870  0.683648  0.460651  1
  O  O26  1  0.686285  0.395021  0.885562  1
  O  O27  1  0.345133  0.737834  0.564884  1
  O  O28  1  0.691761  0.679032  0.657372  1
  O  O29  1  0.325518  0.005428  0.344412  1
  O  O30  1  0.238464  0.983019  0.872683  1
  O  O31  1  0.988200  0.928833  0.768449  1
