# generated using pymatgen
data_Ba2GdB2ClO6
_symmetry_space_group_name_H-M   'P 1'
_cell_length_a   6.53377627
_cell_length_b   5.38648179
_cell_length_c   11.52362586
_cell_angle_alpha   90.00000000
_cell_angle_beta   95.81834100
_cell_angle_gamma   90.00000000
_symmetry_Int_Tables_number   1
_chemical_formula_structural   Ba2GdB2ClO6
_chemical_formula_sum   'Ba4 Gd2 B4 Cl2 O12'
_cell_volume   403.47392294
_cell_formula_units_Z   2
loop_
 _symmetry_equiv_pos_site_id
 _symmetry_equiv_pos_as_xyz
  1  'x, y, z'
loop_
 _atom_site_type_symbol
 _atom_site_label
 _atom_site_symmetry_multiplicity
 _atom_site_fract_x
 _atom_site_fract_y
 _atom_site_fract_z
 _atom_site_occupancy
  Ba  Ba0  1  0.098038  0.250001  0.708387  1
  Ba  Ba1  1  0.901962  0.750002  0.291615  1
  Ba  Ba2  1  0.338346  0.250001  0.073172  1
  Ba  Ba3  1  0.661655  0.750002  0.926828  1
  Gd  Gd4  1  0.341992  0.250001  0.410850  1
  Gd  Gd5  1  0.658007  0.750002  0.589150  1
  B  B6  1  0.371748  0.750002  0.222263  1
  B  B7  1  0.628252  0.250001  0.777737  1
  B  B8  1  0.786529  0.250001  0.424472  1
  B  B9  1  0.213469  0.750002  0.575528  1
  Cl  Cl10  1  0.848196  0.250001  0.083120  1
  Cl  Cl11  1  0.151803  0.750002  0.916879  1
  O  O12  1  0.285406  0.529318  0.258221  1
  O  O13  1  0.714595  0.029318  0.741779  1
  O  O14  1  0.714595  0.470681  0.741779  1
  O  O15  1  0.285406  0.970681  0.258221  1
  O  O16  1  0.674268  0.469406  0.432572  1
  O  O17  1  0.325731  0.969406  0.567428  1
  O  O18  1  0.325731  0.530593  0.567428  1
  O  O19  1  0.674268  0.030593  0.432572  1
  O  O20  1  0.987071  0.250001  0.402357  1
  O  O21  1  0.012928  0.750002  0.597643  1
  O  O22  1  0.523076  0.750002  0.146627  1
  O  O23  1  0.476923  0.250001  0.853373  1
