# generated using pymatgen
data_LiB3H3SeO9
_symmetry_space_group_name_H-M   'P 1'
_cell_length_a   11.48451211
_cell_length_b   8.96324799
_cell_length_c   14.65539213
_cell_angle_alpha   90.00000000
_cell_angle_beta   90.00000000
_cell_angle_gamma   90.00000000
_symmetry_Int_Tables_number   1
_chemical_formula_structural   LiB3H3SeO9
_chemical_formula_sum   'Li8 B24 H24 Se8 O72'
_cell_volume   1508.60452370
_cell_formula_units_Z   8
loop_
 _symmetry_equiv_pos_site_id
 _symmetry_equiv_pos_as_xyz
  1  'x, y, z'
loop_
 _atom_site_type_symbol
 _atom_site_label
 _atom_site_symmetry_multiplicity
 _atom_site_fract_x
 _atom_site_fract_y
 _atom_site_fract_z
 _atom_site_occupancy
  Li  Li0  1  0.000000  0.174620  0.250000  1
  Li  Li1  1  0.000000  0.500047  0.250000  1
  Li  Li2  1  0.000000  0.499953  0.750000  1
  Li  Li3  1  0.000000  0.825380  0.750000  1
  Li  Li4  1  0.500000  0.674620  0.250000  1
  Li  Li5  1  0.500000  0.999953  0.750000  1
  Li  Li6  1  0.500000  0.325380  0.750000  1
  Li  Li7  1  0.500000  0.000047  0.250000  1
  B  B8  1  0.146728  0.043913  0.083252  1
  B  B9  1  0.146728  0.956087  0.583252  1
  B  B10  1  0.143423  0.534704  0.074805  1
  B  B11  1  0.143423  0.465296  0.574805  1
  B  B12  1  0.239398  0.082499  0.450969  1
  B  B13  1  0.239398  0.917501  0.950969  1
  B  B14  1  0.260602  0.417501  0.950969  1
  B  B15  1  0.260602  0.582499  0.450969  1
  B  B16  1  0.356577  0.034704  0.074805  1
  B  B17  1  0.356577  0.965296  0.574805  1
  B  B18  1  0.353272  0.543913  0.083252  1
  B  B19  1  0.353272  0.456087  0.583252  1
  B  B20  1  0.646728  0.456087  0.916748  1
  B  B21  1  0.646728  0.543913  0.416748  1
  B  B22  1  0.643423  0.034704  0.425195  1
  B  B23  1  0.643423  0.965296  0.925195  1
  B  B24  1  0.739398  0.417501  0.549031  1
  B  B25  1  0.739398  0.582499  0.049031  1
  B  B26  1  0.760602  0.082499  0.049031  1
  B  B27  1  0.760602  0.917501  0.549031  1
  B  B28  1  0.856577  0.465296  0.925195  1
  B  B29  1  0.856577  0.534704  0.425195  1
  B  B30  1  0.853272  0.043913  0.416748  1
  B  B31  1  0.853272  0.956087  0.916748  1
  H  H32  1  0.979621  0.067780  0.086483  1
  H  H33  1  0.979621  0.932220  0.586483  1
  H  H34  1  0.029601  0.555970  0.422964  1
  H  H35  1  0.029601  0.444030  0.922964  1
  H  H36  1  0.188619  0.261515  0.685625  1
  H  H37  1  0.188619  0.738485  0.185625  1
  H  H38  1  0.311381  0.238485  0.185625  1
  H  H39  1  0.311381  0.761515  0.685625  1
  H  H40  1  0.470399  0.055970  0.422964  1
  H  H41  1  0.470399  0.944030  0.922964  1
  H  H42  1  0.520379  0.567780  0.086483  1
  H  H43  1  0.520379  0.432220  0.586483  1
  H  H44  1  0.479621  0.432220  0.913517  1
  H  H45  1  0.479621  0.567780  0.413516  1
  H  H46  1  0.529601  0.055970  0.077036  1
  H  H47  1  0.529601  0.944030  0.577036  1
  H  H48  1  0.688619  0.761515  0.814375  1
  H  H49  1  0.688619  0.238485  0.314375  1
  H  H50  1  0.811381  0.261515  0.814375  1
  H  H51  1  0.811381  0.738485  0.314375  1
  H  H52  1  0.970399  0.444030  0.577036  1
  H  H53  1  0.970399  0.555970  0.077036  1
  H  H54  1  0.020379  0.067780  0.413516  1
  H  H55  1  0.020379  0.932220  0.913517  1
  Se  Se56  1  0.245423  0.330157  0.325394  1
  Se  Se57  1  0.245423  0.669843  0.825394  1
  Se  Se58  1  0.254577  0.169843  0.825394  1
  Se  Se59  1  0.254577  0.830157  0.325394  1
  Se  Se60  1  0.745423  0.169843  0.674606  1
  Se  Se61  1  0.745423  0.830157  0.174606  1
  Se  Se62  1  0.754577  0.330157  0.174606  1
  Se  Se63  1  0.754577  0.669843  0.674606  1
  O  O64  1  0.040011  0.568339  0.117456  1
  O  O65  1  0.040011  0.431661  0.617456  1
  O  O66  1  0.046913  0.091395  0.126174  1
  O  O67  1  0.046913  0.908605  0.626174  1
  O  O68  1  0.110468  0.334368  0.283601  1
  O  O69  1  0.110468  0.665632  0.783601  1
  O  O70  1  0.138740  0.967725  0.002684  1
  O  O71  1  0.138740  0.032275  0.502684  1
  O  O72  1  0.148514  0.541121  0.493495  1
  O  O73  1  0.148514  0.458879  0.993495  1
  O  O74  1  0.158022  0.827501  0.218951  1
  O  O75  1  0.158022  0.172499  0.718951  1
  O  O76  1  0.231744  0.020370  0.353627  1
  O  O77  1  0.231744  0.979630  0.853627  1
  O  O78  1  0.229461  0.246226  0.443231  1
  O  O79  1  0.229461  0.753774  0.943231  1
  O  O80  1  0.244291  0.420805  0.620364  1
  O  O81  1  0.244291  0.579195  0.120364  1
  O  O82  1  0.255709  0.079195  0.120364  1
  O  O83  1  0.255709  0.920805  0.620364  1
  O  O84  1  0.270539  0.746226  0.443231  1
  O  O85  1  0.270539  0.253774  0.943231  1
  O  O86  1  0.268256  0.479630  0.853627  1
  O  O87  1  0.268256  0.520370  0.353627  1
  O  O88  1  0.341978  0.327501  0.218951  1
  O  O89  1  0.341978  0.672499  0.718951  1
  O  O90  1  0.351486  0.041121  0.493495  1
  O  O91  1  0.351486  0.958879  0.993495  1
  O  O92  1  0.361260  0.532275  0.502684  1
  O  O93  1  0.361260  0.467725  0.002684  1
  O  O94  1  0.389532  0.834368  0.283601  1
  O  O95  1  0.389532  0.165632  0.783601  1
  O  O96  1  0.453087  0.591395  0.126174  1
  O  O97  1  0.453087  0.408605  0.626174  1
  O  O98  1  0.459989  0.068339  0.117456  1
  O  O99  1  0.459989  0.931661  0.617456  1
  O  O100  1  0.540011  0.068339  0.382544  1
  O  O101  1  0.540011  0.931661  0.882544  1
  O  O102  1  0.546913  0.591395  0.373826  1
  O  O103  1  0.546913  0.408605  0.873826  1
  O  O104  1  0.610468  0.834368  0.216399  1
  O  O105  1  0.610468  0.165632  0.716399  1
  O  O106  1  0.638740  0.467725  0.497316  1
  O  O107  1  0.638740  0.532275  0.997316  1
  O  O108  1  0.648514  0.041121  0.006505  1
  O  O109  1  0.648514  0.958879  0.506505  1
  O  O110  1  0.658022  0.327501  0.281049  1
  O  O111  1  0.658022  0.672499  0.781049  1
  O  O112  1  0.731744  0.479630  0.646373  1
  O  O113  1  0.731744  0.520370  0.146373  1
  O  O114  1  0.729461  0.253774  0.556769  1
  O  O115  1  0.729461  0.746226  0.056769  1
  O  O116  1  0.744291  0.920805  0.879636  1
  O  O117  1  0.744291  0.079195  0.379636  1
  O  O118  1  0.755709  0.420805  0.879636  1
  O  O119  1  0.755709  0.579195  0.379636  1
  O  O120  1  0.770539  0.246226  0.056769  1
  O  O121  1  0.770539  0.753774  0.556769  1
  O  O122  1  0.768256  0.020370  0.146373  1
  O  O123  1  0.768256  0.979630  0.646373  1
  O  O124  1  0.841978  0.172499  0.781049  1
  O  O125  1  0.841978  0.827501  0.281049  1
  O  O126  1  0.851486  0.458879  0.506505  1
  O  O127  1  0.851486  0.541121  0.006505  1
  O  O128  1  0.861260  0.032275  0.997316  1
  O  O129  1  0.861260  0.967725  0.497316  1
  O  O130  1  0.889532  0.334368  0.216399  1
  O  O131  1  0.889532  0.665632  0.716399  1
  O  O132  1  0.953087  0.091395  0.373826  1
  O  O133  1  0.953087  0.908605  0.873826  1
  O  O134  1  0.959989  0.431661  0.882544  1
  O  O135  1  0.959989  0.568339  0.382544  1
