# generated using pymatgen
data_Fe4O7F
_symmetry_space_group_name_H-M   'P 1'
_cell_length_a   8.89185927
_cell_length_b   5.52572549
_cell_length_c   5.52152659
_cell_angle_alpha   73.00912226
_cell_angle_beta   85.83847289
_cell_angle_gamma   85.80880760
_symmetry_Int_Tables_number   1
_chemical_formula_structural   Fe4O7F
_chemical_formula_sum   'Fe8 O14 F2'
_cell_volume   258.38577944
_cell_formula_units_Z   2
loop_
 _symmetry_equiv_pos_site_id
 _symmetry_equiv_pos_as_xyz
  1  'x, y, z'
loop_
 _atom_site_type_symbol
 _atom_site_label
 _atom_site_symmetry_multiplicity
 _atom_site_fract_x
 _atom_site_fract_y
 _atom_site_fract_z
 _atom_site_occupancy
  Fe  Fe0  1  0.618351  0.874748  0.886254  1
  Fe  Fe1  1  0.881702  0.611994  0.627261  1
  Fe  Fe2  1  0.502515  0.501365  0.508723  1
  Fe  Fe3  1  0.248395  0.739084  0.738954  1
  Fe  Fe4  1  0.751173  0.272991  0.231284  1
  Fe  Fe5  1  0.124378  0.367664  0.370422  1
  Fe  Fe6  1  0.383095  0.134296  0.138600  1
  Fe  Fe7  1  0.989794  0.991476  0.998925  1
  O  O8  1  0.749269  0.573188  0.933387  1
  O  O9  1  0.497119  0.191458  0.817599  1
  O  O10  1  0.471964  0.720471  0.722760  1
  O  O11  1  0.721461  0.475776  0.473601  1
  O  O12  1  0.967700  0.220109  0.214964  1
  O  O13  1  0.285035  0.517771  0.525035  1
  O  O14  1  0.028748  0.774930  0.776528  1
  O  O15  1  0.533616  0.289087  0.287410  1
  O  O16  1  0.770090  0.034886  0.029190  1
  O  O17  1  0.249697  0.054887  0.440087  1
  O  O18  1  0.493979  0.813912  0.203131  1
  O  O19  1  0.006695  0.294764  0.687697  1
  O  O20  1  0.249710  0.437464  0.058510  1
  O  O21  1  0.003148  0.685603  0.304750  1
  F  F22  1  0.749905  0.953072  0.552241  1
  F  F23  1  0.222464  0.969006  0.972688  1
