# generated using pymatgen
data_La3MnAlS7
_symmetry_space_group_name_H-M   'P 1'
_cell_length_a   10.24821954
_cell_length_b   10.24811507
_cell_length_c   6.03177541
_cell_angle_alpha   90.00000000
_cell_angle_beta   90.00000000
_cell_angle_gamma   120.00243230
_symmetry_Int_Tables_number   1
_chemical_formula_structural   La3MnAlS7
_chemical_formula_sum   'La6 Mn2 Al2 S14'
_cell_volume   548.60222264
_cell_formula_units_Z   2
loop_
 _symmetry_equiv_pos_site_id
 _symmetry_equiv_pos_as_xyz
  1  'x, y, z'
loop_
 _atom_site_type_symbol
 _atom_site_label
 _atom_site_symmetry_multiplicity
 _atom_site_fract_x
 _atom_site_fract_y
 _atom_site_fract_z
 _atom_site_occupancy
  La  La0  1  0.139954  0.374663  0.234584  1
  La  La1  1  0.860046  0.625336  0.734585  1
  La  La2  1  0.625354  0.765301  0.234586  1
  La  La3  1  0.234695  0.860054  0.234593  1
  La  La4  1  0.765305  0.139946  0.734594  1
  La  La5  1  0.374645  0.234698  0.734586  1
  Mn  Mn6  1  0.000024  0.000005  0.994934  1
  Mn  Mn7  1  0.999976  0.999995  0.494935  1
  Al  Al8  1  0.333342  0.666675  0.654998  1
  Al  Al9  1  0.666659  0.333326  0.154999  1
  S  S10  1  0.333341  0.666684  0.024429  1
  S  S11  1  0.666658  0.333314  0.524430  1
  S  S12  1  0.088848  0.235499  0.758703  1
  S  S13  1  0.911152  0.764501  0.258702  1
  S  S14  1  0.764513  0.853344  0.758703  1
  S  S15  1  0.146649  0.911145  0.758677  1
  S  S16  1  0.853350  0.088854  0.258678  1
  S  S17  1  0.235485  0.146655  0.258702  1
  S  S18  1  0.418562  0.519858  0.509286  1
  S  S19  1  0.581437  0.480140  0.009285  1
  S  S20  1  0.480173  0.898711  0.509230  1
  S  S21  1  0.101286  0.581434  0.509278  1
  S  S22  1  0.898713  0.418565  0.009277  1
  S  S23  1  0.519827  0.101289  0.009230  1
