# generated using pymatgen
data_Ca10V6O25
_symmetry_space_group_name_H-M   'P 1'
_cell_length_a   6.80407194
_cell_length_b   10.02516309
_cell_length_c   10.02523411
_cell_angle_alpha   120.00047448
_cell_angle_beta   90.00087227
_cell_angle_gamma   89.99968562
_symmetry_Int_Tables_number   1
_chemical_formula_structural   Ca10V6O25
_chemical_formula_sum   'Ca10 V6 O25'
_cell_volume   592.22047933
_cell_formula_units_Z   1
loop_
 _symmetry_equiv_pos_site_id
 _symmetry_equiv_pos_as_xyz
  1  'x, y, z'
loop_
 _atom_site_type_symbol
 _atom_site_label
 _atom_site_symmetry_multiplicity
 _atom_site_fract_x
 _atom_site_fract_y
 _atom_site_fract_z
 _atom_site_occupancy
  Ca  Ca0  1  0.727840  0.227102  0.981715  1
  Ca  Ca1  1  0.272160  0.772898  0.018285  1
  Ca  Ca2  1  0.727832  0.754615  0.772899  1
  Ca  Ca3  1  0.272168  0.245385  0.227101  1
  Ca  Ca4  1  0.727818  0.018286  0.245390  1
  Ca  Ca5  1  0.272182  0.981714  0.754610  1
  Ca  Ca6  1  0.986542  0.666659  0.333338  1
  Ca  Ca7  1  0.013458  0.333341  0.666662  1
  Ca  Ca8  1  0.491822  0.666679  0.333347  1
  Ca  Ca9  1  0.508178  0.333321  0.666653  1
  V  V10  1  0.241143  0.973494  0.375489  1
  V  V11  1  0.758857  0.026506  0.624511  1
  V  V12  1  0.241153  0.401985  0.026540  1
  V  V13  1  0.758847  0.598015  0.973460  1
  V  V14  1  0.241170  0.624521  0.597998  1
  V  V15  1  0.758830  0.375479  0.402002  1
  O  O16  1  0.945257  0.240389  0.314195  1
  O  O17  1  0.054743  0.759611  0.685805  1
  O  O18  1  0.945286  0.073807  0.759624  1
  O  O19  1  0.054714  0.926193  0.240376  1
  O  O20  1  0.945236  0.685791  0.926200  1
  O  O21  1  0.054764  0.314209  0.073800  1
  O  O22  1  0.775400  0.471979  0.605150  1
  O  O23  1  0.224600  0.528021  0.394850  1
  O  O24  1  0.775415  0.133182  0.528019  1
  O  O25  1  0.224585  0.866818  0.471981  1
  O  O26  1  0.775393  0.394868  0.866836  1
  O  O27  1  0.224607  0.605132  0.133164  1
  O  O28  1  0.552614  0.097977  0.740314  1
  O  O29  1  0.447386  0.902023  0.259686  1
  O  O30  1  0.552651  0.642344  0.902042  1
  O  O31  1  0.447350  0.357656  0.097958  1
  O  O32  1  0.552616  0.259690  0.357671  1
  O  O33  1  0.447384  0.740310  0.642329  1
  O  O34  1  0.743699  0.831802  0.500403  1
  O  O35  1  0.256301  0.168198  0.499597  1
  O  O36  1  0.743690  0.668608  0.168193  1
  O  O37  1  0.256310  0.331392  0.831807  1
  O  O38  1  0.743679  0.499602  0.331396  1
  O  O39  1  0.256321  0.500398  0.668604  1
  O  O40  1  0.500000  0.000000  0.000000  1
