# generated using pymatgen
data_K2U(SO6)2
_symmetry_space_group_name_H-M   'P 1'
_cell_length_a   14.02710557
_cell_length_b   11.75282671
_cell_length_c   7.30281895
_cell_angle_alpha   90.00000000
_cell_angle_beta   90.00000000
_cell_angle_gamma   90.00000000
_symmetry_Int_Tables_number   1
_chemical_formula_structural   K2U(SO6)2
_chemical_formula_sum   'K8 U4 S8 O48'
_cell_volume   1203.92915621
_cell_formula_units_Z   4
loop_
 _symmetry_equiv_pos_site_id
 _symmetry_equiv_pos_as_xyz
  1  'x, y, z'
loop_
 _atom_site_type_symbol
 _atom_site_label
 _atom_site_symmetry_multiplicity
 _atom_site_fract_x
 _atom_site_fract_y
 _atom_site_fract_z
 _atom_site_occupancy
  K  K0  1  0.928648  0.469081  0.259638  1
  K  K1  1  0.428648  0.030919  0.240362  1
  K  K2  1  0.071352  0.969081  0.740362  1
  K  K3  1  0.571352  0.530919  0.759638  1
  K  K4  1  0.071352  0.530919  0.740362  1
  K  K5  1  0.571352  0.969081  0.759638  1
  K  K6  1  0.928648  0.030919  0.259638  1
  K  K7  1  0.428648  0.469081  0.240362  1
  U  U8  1  0.244516  0.250000  0.909517  1
  U  U9  1  0.744516  0.250000  0.590483  1
  U  U10  1  0.755484  0.750000  0.090483  1
  U  U11  1  0.255484  0.750000  0.409517  1
  S  S12  1  0.175105  0.468969  0.242533  1
  S  S13  1  0.675105  0.031031  0.257467  1
  S  S14  1  0.824895  0.968969  0.757467  1
  S  S15  1  0.324895  0.531031  0.742533  1
  S  S16  1  0.824895  0.531031  0.757467  1
  S  S17  1  0.324895  0.968969  0.742533  1
  S  S18  1  0.175105  0.031031  0.242533  1
  S  S19  1  0.675105  0.468969  0.257467  1
  O  O20  1  0.114670  0.250000  0.893905  1
  O  O21  1  0.614670  0.250000  0.606095  1
  O  O22  1  0.885330  0.750000  0.106095  1
  O  O23  1  0.385330  0.750000  0.393905  1
  O  O24  1  0.373124  0.250000  0.935968  1
  O  O25  1  0.873124  0.250000  0.564032  1
  O  O26  1  0.626876  0.750000  0.064032  1
  O  O27  1  0.126876  0.750000  0.435968  1
  O  O28  1  0.254869  0.435409  0.788819  1
  O  O29  1  0.754869  0.064591  0.711181  1
  O  O30  1  0.745131  0.935409  0.211181  1
  O  O31  1  0.245131  0.564591  0.288819  1
  O  O32  1  0.745131  0.564591  0.211181  1
  O  O33  1  0.245131  0.935409  0.288819  1
  O  O34  1  0.254869  0.064591  0.788819  1
  O  O35  1  0.754869  0.435409  0.711181  1
  O  O36  1  0.237421  0.375751  0.168433  1
  O  O37  1  0.737421  0.124249  0.331567  1
  O  O38  1  0.762579  0.875751  0.831567  1
  O  O39  1  0.262579  0.624249  0.668433  1
  O  O40  1  0.762579  0.624249  0.831567  1
  O  O41  1  0.262579  0.875751  0.668433  1
  O  O42  1  0.237421  0.124249  0.168433  1
  O  O43  1  0.737421  0.375751  0.331567  1
  O  O44  1  0.106583  0.508545  0.105066  1
  O  O45  1  0.606583  0.991455  0.394934  1
  O  O46  1  0.893417  0.008545  0.894934  1
  O  O47  1  0.393417  0.491455  0.605066  1
  O  O48  1  0.893417  0.491455  0.894934  1
  O  O49  1  0.393417  0.008545  0.605066  1
  O  O50  1  0.106583  0.991455  0.105066  1
  O  O51  1  0.606583  0.508545  0.394934  1
  O  O52  1  0.126938  0.432872  0.411577  1
  O  O53  1  0.626938  0.067128  0.088423  1
  O  O54  1  0.873062  0.932872  0.588423  1
  O  O55  1  0.373062  0.567128  0.911577  1
  O  O56  1  0.873062  0.567128  0.588423  1
  O  O57  1  0.373062  0.932872  0.911577  1
  O  O58  1  0.126938  0.067128  0.411577  1
  O  O59  1  0.626938  0.432872  0.088423  1
  O  O60  1  0.247064  0.250000  0.594443  1
  O  O61  1  0.747064  0.250000  0.905557  1
  O  O62  1  0.752936  0.750000  0.405557  1
  O  O63  1  0.252936  0.750000  0.094443  1
  O  O64  1  0.930185  0.250000  0.100377  1
  O  O65  1  0.430185  0.250000  0.399623  1
  O  O66  1  0.069815  0.750000  0.899623  1
  O  O67  1  0.569815  0.750000  0.600377  1
