# generated using pymatgen
data_Li2Fe3SnO8
_symmetry_space_group_name_H-M   'P 1'
_cell_length_a   8.53140441
_cell_length_b   8.52150441
_cell_length_c   8.53775839
_cell_angle_alpha   90.00584005
_cell_angle_beta   90.26422197
_cell_angle_gamma   90.00079375
_symmetry_Int_Tables_number   1
_chemical_formula_structural   Li2Fe3SnO8
_chemical_formula_sum   'Li8 Fe12 Sn4 O32'
_cell_volume   620.69184950
_cell_formula_units_Z   4
loop_
 _symmetry_equiv_pos_site_id
 _symmetry_equiv_pos_as_xyz
  1  'x, y, z'
loop_
 _atom_site_type_symbol
 _atom_site_label
 _atom_site_symmetry_multiplicity
 _atom_site_fract_x
 _atom_site_fract_y
 _atom_site_fract_z
 _atom_site_occupancy
  Li  Li0  1  0.120825  0.875157  0.375503  1
  Li  Li1  1  0.248706  0.747185  0.751242  1
  Li  Li2  1  0.248808  0.249893  0.249378  1
  Li  Li3  1  0.375655  0.123353  0.879006  1
  Li  Li4  1  0.624026  0.623341  0.621664  1
  Li  Li5  1  0.751202  0.749459  0.249995  1
  Li  Li6  1  0.751356  0.247243  0.748711  1
  Li  Li7  1  0.879656  0.375482  0.124461  1
  Fe  Fe8  1  0.113905  0.619785  0.122976  1
  Fe  Fe9  1  0.119115  0.378689  0.882534  1
  Fe  Fe10  1  0.124688  0.115319  0.619366  1
  Fe  Fe11  1  0.376532  0.886427  0.117930  1
  Fe  Fe12  1  0.380875  0.623788  0.387301  1
  Fe  Fe13  1  0.387000  0.381714  0.624090  1
  Fe  Fe14  1  0.612679  0.881631  0.875773  1
  Fe  Fe15  1  0.619004  0.123892  0.112798  1
  Fe  Fe16  1  0.623411  0.386263  0.382064  1
  Fe  Fe17  1  0.875413  0.615555  0.880795  1
  Fe  Fe18  1  0.880883  0.878554  0.617326  1
  Fe  Fe19  1  0.886388  0.119611  0.377055  1
  Sn  Sn20  1  0.002107  0.502113  0.503402  1
  Sn  Sn21  1  0.494666  0.502237  0.003491  1
  Sn  Sn22  1  0.505273  0.002352  0.496568  1
  Sn  Sn23  1  0.997726  0.002040  0.996574  1
  O  O24  1  0.108228  0.126558  0.389303  1
  O  O25  1  0.097941  0.885412  0.627129  1
  O  O26  1  0.116310  0.603692  0.884374  1
  O  O27  1  0.126721  0.388236  0.100176  1
  O  O28  1  0.125394  0.146817  0.864481  1
  O  O29  1  0.133639  0.363071  0.644168  1
  O  O30  1  0.136627  0.625638  0.359868  1
  O  O31  1  0.136209  0.863553  0.124332  1
  O  O32  1  0.361184  0.132822  0.625016  1
  O  O33  1  0.354424  0.374002  0.864276  1
  O  O34  1  0.358619  0.638922  0.138660  1
  O  O35  1  0.373583  0.862117  0.363948  1
  O  O36  1  0.373589  0.613333  0.610829  1
  O  O37  1  0.384138  0.386059  0.386688  1
  O  O38  1  0.389443  0.110505  0.128568  1
  O  O39  1  0.386627  0.873789  0.888459  1
  O  O40  1  0.613280  0.373990  0.611254  1
  O  O41  1  0.610730  0.609984  0.371607  1
  O  O42  1  0.615541  0.886121  0.113285  1
  O  O43  1  0.626295  0.113357  0.889280  1
  O  O44  1  0.626546  0.362283  0.136336  1
  O  O45  1  0.641531  0.139163  0.361643  1
  O  O46  1  0.645598  0.874056  0.635594  1
  O  O47  1  0.638813  0.632619  0.875015  1
  O  O48  1  0.864055  0.363276  0.375534  1
  O  O49  1  0.863202  0.125454  0.140213  1
  O  O50  1  0.866204  0.863068  0.855731  1
  O  O51  1  0.874437  0.646832  0.635529  1
  O  O52  1  0.873250  0.888117  0.399672  1
  O  O53  1  0.883874  0.103568  0.615629  1
  O  O54  1  0.902090  0.385655  0.872814  1
  O  O55  1  0.891973  0.626930  0.110671  1
