# generated using pymatgen
data_Fe4S5
_symmetry_space_group_name_H-M   'P 1'
_cell_length_a   7.85387334
_cell_length_b   7.85835611
_cell_length_c   10.20474793
_cell_angle_alpha   89.26431617
_cell_angle_beta   91.28775236
_cell_angle_gamma   90.00549887
_symmetry_Int_Tables_number   1
_chemical_formula_structural   Fe4S5
_chemical_formula_sum   'Fe8 S10'
_cell_volume   629.61108996
_cell_formula_units_Z   2
loop_
 _symmetry_equiv_pos_site_id
 _symmetry_equiv_pos_as_xyz
  1  'x, y, z'
loop_
 _atom_site_type_symbol
 _atom_site_label
 _atom_site_symmetry_multiplicity
 _atom_site_fract_x
 _atom_site_fract_y
 _atom_site_fract_z
 _atom_site_occupancy
  Fe  Fe0  1  0.292097  0.096496  0.996272  1
  Fe  Fe1  1  0.594979  0.205013  0.995202  1
  Fe  Fe2  1  0.900885  0.293827  0.004511  1
  Fe  Fe3  1  0.204435  0.401952  0.005757  1
  Fe  Fe4  1  0.707810  0.903421  0.996342  1
  Fe  Fe5  1  0.404802  0.794549  0.994856  1
  Fe  Fe6  1  0.099235  0.706100  0.004245  1
  Fe  Fe7  1  0.795662  0.597753  0.005580  1
  S  S8  1  0.790020  0.110297  0.875404  1
  S  S9  1  0.108465  0.200971  0.124403  1
  S  S10  1  0.386069  0.297795  0.876851  1
  S  S11  1  0.704971  0.390469  0.122272  1
  S  S12  1  0.996479  0.501789  0.883934  1
  S  S13  1  0.203201  0.893574  0.874982  1
  S  S14  1  0.898737  0.794512  0.124174  1
  S  S15  1  0.607014  0.706220  0.876249  1
  S  S16  1  0.301871  0.605546  0.122291  1
  S  S17  1  0.503268  0.997717  0.116675  1
