# generated using pymatgen
data_Fe2O3F
_symmetry_space_group_name_H-M   'P 1'
_cell_length_a   4.69329920
_cell_length_b   4.69329920
_cell_length_c   15.00823545
_cell_angle_alpha   90.00000000
_cell_angle_beta   90.00000000
_cell_angle_gamma   94.24956644
_symmetry_Int_Tables_number   1
_chemical_formula_structural   Fe2O3F
_chemical_formula_sum   'Fe10 O15 F5'
_cell_volume   329.67839467
_cell_formula_units_Z   5
loop_
 _symmetry_equiv_pos_site_id
 _symmetry_equiv_pos_as_xyz
  1  'x, y, z'
loop_
 _atom_site_type_symbol
 _atom_site_label
 _atom_site_symmetry_multiplicity
 _atom_site_fract_x
 _atom_site_fract_y
 _atom_site_fract_z
 _atom_site_occupancy
  Fe  Fe0  1  0.002195  0.997805  0.999901  1
  Fe  Fe1  1  0.000321  0.999679  0.199931  1
  Fe  Fe2  1  0.000321  0.999679  0.400069  1
  Fe  Fe3  1  0.002195  0.997805  0.600099  1
  Fe  Fe4  1  0.012718  0.987282  0.800000  1
  Fe  Fe5  1  0.534216  0.465784  0.100131  1
  Fe  Fe6  1  0.534216  0.465784  0.499869  1
  Fe  Fe7  1  0.467401  0.532599  0.300000  1
  Fe  Fe8  1  0.472912  0.527088  0.699661  1
  Fe  Fe9  1  0.472912  0.527088  0.900339  1
  O  O10  1  0.178121  0.821879  0.300000  1
  O  O11  1  0.182972  0.817028  0.697441  1
  O  O12  1  0.182972  0.817028  0.902559  1
  O  O13  1  0.311264  0.302354  0.999605  1
  O  O14  1  0.307292  0.306865  0.200125  1
  O  O15  1  0.307292  0.306865  0.399875  1
  O  O16  1  0.311264  0.302354  0.600395  1
  O  O17  1  0.297266  0.316978  0.800000  1
  O  O18  1  0.697646  0.688736  0.999605  1
  O  O19  1  0.693135  0.692708  0.200125  1
  O  O20  1  0.693135  0.692708  0.399875  1
  O  O21  1  0.697646  0.688736  0.600395  1
  O  O22  1  0.683022  0.702734  0.800000  1
  O  O23  1  0.824320  0.175680  0.099182  1
  O  O24  1  0.824320  0.175680  0.500818  1
  F  F25  1  0.203069  0.796931  0.100259  1
  F  F26  1  0.203069  0.796931  0.499741  1
  F  F27  1  0.798771  0.201229  0.300000  1
  F  F28  1  0.802010  0.197990  0.898352  1
  F  F29  1  0.802010  0.197990  0.701648  1
