# generated using pymatgen
data_Rb2MgP4(HO2)8
_symmetry_space_group_name_H-M   'P 1'
_cell_length_a   6.96375472
_cell_length_b   7.46523690
_cell_length_c   7.81979807
_cell_angle_alpha   81.27005290
_cell_angle_beta   70.29679773
_cell_angle_gamma   85.62637631
_symmetry_Int_Tables_number   1
_chemical_formula_structural   Rb2MgP4(HO2)8
_chemical_formula_sum   'Rb2 Mg1 P4 H8 O16'
_cell_volume   378.14810928
_cell_formula_units_Z   1
loop_
 _symmetry_equiv_pos_site_id
 _symmetry_equiv_pos_as_xyz
  1  'x, y, z'
loop_
 _atom_site_type_symbol
 _atom_site_label
 _atom_site_symmetry_multiplicity
 _atom_site_fract_x
 _atom_site_fract_y
 _atom_site_fract_z
 _atom_site_occupancy
  Rb  Rb0  1  0.400706  0.281185  0.210844  1
  Rb  Rb1  1  0.599293  0.718816  0.789155  1
  Mg  Mg2  1  0.000007  0.499996  -0.000001  1
  P  P3  1  0.151219  0.736047  0.258990  1
  P  P4  1  0.732737  0.806139  0.257987  1
  P  P5  1  0.267278  0.193649  0.741942  1
  P  P6  1  0.848796  0.263963  0.741021  1
  H  H7  1  0.245396  0.965208  0.039128  1
  H  H8  1  0.877379  0.177125  0.211235  1
  H  H9  1  0.881458  0.309771  0.352097  1
  H  H10  1  0.414612  0.733339  0.423698  1
  H  H11  1  0.585383  0.266662  0.576299  1
  H  H12  1  0.118540  0.690229  0.647900  1
  H  H13  1  0.122623  0.822880  0.788765  1
  H  H14  1  0.754603  0.034797  0.960850  1
  O  O15  1  0.182727  0.616558  0.111365  1
  O  O16  1  0.746514  0.656111  0.144496  1
  O  O17  1  0.754332  0.998556  0.156963  1
  O  O18  1  0.250130  0.926197  0.171295  1
  O  O19  1  0.941091  0.287161  0.222627  1
  O  O20  1  0.908988  0.775349  0.355700  1
  O  O21  1  0.227734  0.659479  0.416031  1
  O  O22  1  0.539142  0.792593  0.436045  1
  O  O23  1  0.460844  0.207422  0.563973  1
  O  O24  1  0.772261  0.340529  0.583960  1
  O  O25  1  0.091010  0.224659  0.644310  1
  O  O26  1  0.058911  0.712821  0.777371  1
  O  O27  1  0.749862  0.073792  0.828726  1
  O  O28  1  0.245674  0.001531  0.843006  1
  O  O29  1  0.253479  0.344001  0.855592  1
  O  O30  1  0.817274  0.383434  0.888628  1
