# generated using pymatgen
data_TcF3
_symmetry_space_group_name_H-M   'P 1'
_cell_length_a   6.69368871
_cell_length_b   6.69184948
_cell_length_c   3.07034947
_cell_angle_alpha   89.99387429
_cell_angle_beta   90.00705713
_cell_angle_gamma   119.51526289
_symmetry_Int_Tables_number   1
_chemical_formula_structural   TcF3
_chemical_formula_sum   'Tc2 F6'
_cell_volume   119.68253584
_cell_formula_units_Z   2
loop_
 _symmetry_equiv_pos_site_id
 _symmetry_equiv_pos_as_xyz
  1  'x, y, z'
loop_
 _atom_site_type_symbol
 _atom_site_label
 _atom_site_symmetry_multiplicity
 _atom_site_fract_x
 _atom_site_fract_y
 _atom_site_fract_z
 _atom_site_occupancy
  Tc  Tc0  1  0.333592  0.667148  0.749992  1
  Tc  Tc1  1  0.647969  0.296830  0.250011  1
  F  F2  1  0.217870  0.431818  0.250009  1
  F  F3  1  0.577299  0.790582  0.250022  1
  F  F4  1  0.211916  0.790264  0.249932  1
  F  F5  1  0.787400  0.578060  0.749998  1
  F  F6  1  0.411551  0.220900  0.749972  1
  F  F7  1  0.812405  0.224398  0.750065  1
