# generated using pymatgen
data_Cr3(CoO6)2
_symmetry_space_group_name_H-M   'P 1'
_cell_length_a   8.75445188
_cell_length_b   12.44206363
_cell_length_c   9.01564915
_cell_angle_alpha   90.00000000
_cell_angle_beta   90.00000000
_cell_angle_gamma   90.65274194
_symmetry_Int_Tables_number   1
_chemical_formula_structural   Cr3(CoO6)2
_chemical_formula_sum   'Cr12 Co8 O48'
_cell_volume   981.95185862
_cell_formula_units_Z   4
loop_
 _symmetry_equiv_pos_site_id
 _symmetry_equiv_pos_as_xyz
  1  'x, y, z'
loop_
 _atom_site_type_symbol
 _atom_site_label
 _atom_site_symmetry_multiplicity
 _atom_site_fract_x
 _atom_site_fract_y
 _atom_site_fract_z
 _atom_site_occupancy
  Cr  Cr0  1  0.040401  0.491516  0.246602  1
  Cr  Cr1  1  0.110133  0.852362  0.376782  1
  Cr  Cr2  1  0.115090  0.141602  0.115565  1
  Cr  Cr3  1  0.389867  0.647638  0.876782  1
  Cr  Cr4  1  0.384910  0.358398  0.615565  1
  Cr  Cr5  1  0.459599  0.008484  0.746602  1
  Cr  Cr6  1  0.540401  0.991516  0.253398  1
  Cr  Cr7  1  0.615090  0.641602  0.384435  1
  Cr  Cr8  1  0.610133  0.352362  0.123218  1
  Cr  Cr9  1  0.884910  0.858398  0.884435  1
  Cr  Cr10  1  0.889867  0.147638  0.623218  1
  Cr  Cr11  1  0.959599  0.508484  0.753398  1
  Co  Co12  1  0.249240  0.885253  0.025397  1
  Co  Co13  1  0.250760  0.614747  0.525397  1
  Co  Co14  1  0.255114  0.379755  0.968712  1
  Co  Co15  1  0.244886  0.120245  0.468712  1
  Co  Co16  1  0.755114  0.879755  0.531288  1
  Co  Co17  1  0.744886  0.620245  0.031288  1
  Co  Co18  1  0.749240  0.385253  0.474603  1
  Co  Co19  1  0.750760  0.114747  0.974603  1
  O  O20  1  0.067129  0.442734  0.872064  1
  O  O21  1  0.065348  0.900596  0.886573  1
  O  O22  1  0.059771  0.604265  0.669898  1
  O  O23  1  0.066523  0.184525  0.578310  1
  O  O24  1  0.110823  0.581265  0.370180  1
  O  O25  1  0.132733  0.843154  0.188018  1
  O  O26  1  0.138791  0.978585  0.425185  1
  O  O27  1  0.132336  0.245757  0.002847  1
  O  O28  1  0.169286  0.177284  0.290085  1
  O  O29  1  0.187641  0.435618  0.155197  1
  O  O30  1  0.232686  0.773534  0.463197  1
  O  O31  1  0.267314  0.726466  0.963197  1
  O  O32  1  0.230465  0.044213  0.061579  1
  O  O33  1  0.269535  0.455787  0.561579  1
  O  O34  1  0.312359  0.064382  0.655197  1
  O  O35  1  0.330714  0.322716  0.790085  1
  O  O36  1  0.361209  0.521415  0.925185  1
  O  O37  1  0.367664  0.254243  0.502847  1
  O  O38  1  0.367267  0.656846  0.688018  1
  O  O39  1  0.389177  0.918735  0.870180  1
  O  O40  1  0.440229  0.895735  0.169898  1
  O  O41  1  0.434652  0.599404  0.386573  1
  O  O42  1  0.433477  0.315475  0.078310  1
  O  O43  1  0.432872  0.057266  0.372064  1
  O  O44  1  0.567129  0.942734  0.627936  1
  O  O45  1  0.566523  0.684525  0.921690  1
  O  O46  1  0.565348  0.400596  0.613427  1
  O  O47  1  0.559771  0.104265  0.830102  1
  O  O48  1  0.610823  0.081265  0.129820  1
  O  O49  1  0.632733  0.343154  0.311982  1
  O  O50  1  0.632336  0.745757  0.497153  1
  O  O51  1  0.638791  0.478585  0.074815  1
  O  O52  1  0.669286  0.677284  0.209915  1
  O  O53  1  0.687641  0.935618  0.344803  1
  O  O54  1  0.730465  0.544213  0.438421  1
  O  O55  1  0.769535  0.955787  0.938421  1
  O  O56  1  0.732686  0.273534  0.036803  1
  O  O57  1  0.767314  0.226466  0.536803  1
  O  O58  1  0.812359  0.564382  0.844803  1
  O  O59  1  0.830714  0.822716  0.709915  1
  O  O60  1  0.867664  0.754243  0.997153  1
  O  O61  1  0.861209  0.021415  0.574815  1
  O  O62  1  0.867267  0.156846  0.811982  1
  O  O63  1  0.889177  0.418735  0.629820  1
  O  O64  1  0.933477  0.815475  0.421690  1
  O  O65  1  0.940229  0.395735  0.330102  1
  O  O66  1  0.934652  0.099404  0.113427  1
  O  O67  1  0.932871  0.557266  0.127936  1
