# generated using pymatgen
data_Li2Mn3(BO3)3
_symmetry_space_group_name_H-M   'P 1'
_cell_length_a   8.26725360
_cell_length_b   8.68465511
_cell_length_c   6.30569614
_cell_angle_alpha   69.84632984
_cell_angle_beta   88.02911261
_cell_angle_gamma   116.70819854
_symmetry_Int_Tables_number   1
_chemical_formula_structural   Li2Mn3(BO3)3
_chemical_formula_sum   'Li4 Mn6 B6 O18'
_cell_volume   369.87780813
_cell_formula_units_Z   2
loop_
 _symmetry_equiv_pos_site_id
 _symmetry_equiv_pos_as_xyz
  1  'x, y, z'
loop_
 _atom_site_type_symbol
 _atom_site_label
 _atom_site_symmetry_multiplicity
 _atom_site_fract_x
 _atom_site_fract_y
 _atom_site_fract_z
 _atom_site_occupancy
  Li  Li0  1  0.696773  0.719777  0.369302  1
  Li  Li1  1  0.018140  0.308640  0.603841  1
  Li  Li2  1  0.019948  0.308528  0.078640  1
  Li  Li3  1  0.279924  0.977577  0.780956  1
  Mn  Mn4  1  0.988449  0.628933  0.189690  1
  Mn  Mn5  1  0.988422  0.669935  0.669023  1
  Mn  Mn6  1  0.618131  0.005950  0.015852  1
  Mn  Mn7  1  0.653373  0.993170  0.521046  1
  Mn  Mn8  1  0.392264  0.371970  0.806158  1
  Mn  Mn9  1  0.348679  0.313277  0.326572  1
  B  B10  1  0.006185  0.013111  0.488839  1
  B  B11  1  0.998350  0.010733  0.990625  1
  B  B12  1  0.672419  0.333012  0.067998  1
  B  B13  1  0.666342  0.332094  0.592785  1
  B  B14  1  0.329424  0.658367  0.430568  1
  B  B15  1  0.329122  0.656727  0.924231  1
  O  O16  1  0.740828  0.204840  0.134782  1
  O  O17  1  0.738839  0.210951  0.658650  1
  O  O18  1  0.788084  0.519539  0.004231  1
  O  O19  1  0.776321  0.524520  0.496402  1
  O  O20  1  0.823101  0.877238  0.536859  1
  O  O21  1  0.805598  0.918472  0.051407  1
  O  O22  1  0.482223  0.257088  0.071864  1
  O  O23  1  0.470851  0.251784  0.632344  1
  O  O24  1  0.401048  0.532581  0.487833  1
  O  O25  1  0.394128  0.528994  0.969317  1
  O  O26  1  0.460088  0.847242  0.347950  1
  O  O27  1  0.450892  0.849614  0.860597  1
  O  O28  1  0.060892  0.205613  0.388810  1
  O  O29  1  0.099626  0.208147  0.884102  1
  O  O30  1  0.141184  0.591244  0.456348  1
  O  O31  1  0.142895  0.596778  0.939657  1
  O  O32  1  0.142760  0.963886  0.537512  1
  O  O33  1  0.091076  0.909619  0.035235  1
