# generated using pymatgen
data_K2U2O5
_symmetry_space_group_name_H-M   'P 1'
_cell_length_a   8.62346929
_cell_length_b   4.35823549
_cell_length_c   4.35854163
_cell_angle_alpha   89.99991429
_cell_angle_beta   89.99966552
_cell_angle_gamma   90.00023276
_symmetry_Int_Tables_number   1
_chemical_formula_structural   K2U2O5
_chemical_formula_sum   'K2 U2 O5'
_cell_volume   163.80754911
_cell_formula_units_Z   1
loop_
 _symmetry_equiv_pos_site_id
 _symmetry_equiv_pos_as_xyz
  1  'x, y, z'
loop_
 _atom_site_type_symbol
 _atom_site_label
 _atom_site_symmetry_multiplicity
 _atom_site_fract_x
 _atom_site_fract_y
 _atom_site_fract_z
 _atom_site_occupancy
  K  K0  1  -0.000004  0.000000  0.999999  1
  K  K1  1  0.499928  0.999999  0.999998  1
  U  U2  1  0.249132  0.500013  0.500003  1
  U  U3  1  0.750975  0.499992  0.499991  1
  O  O4  1  0.224084  0.500001  0.999999  1
  O  O5  1  0.775872  0.499997  0.000004  1
  O  O6  1  0.500061  0.499998  0.500004  1
  O  O7  1  0.224079  0.999997  0.500002  1
  O  O8  1  0.775872  0.000002  0.500000  1
