# generated using pymatgen
data_LiH2N3O
_symmetry_space_group_name_H-M   'P 1'
_cell_length_a   9.31467701
_cell_length_b   9.31469550
_cell_length_c   5.62595183
_cell_angle_alpha   89.99999865
_cell_angle_beta   90.00002779
_cell_angle_gamma   120.00006879
_symmetry_Int_Tables_number   1
_chemical_formula_structural   LiH2N3O
_chemical_formula_sum   'Li6 H12 N18 O6'
_cell_volume   422.72973994
_cell_formula_units_Z   6
loop_
 _symmetry_equiv_pos_site_id
 _symmetry_equiv_pos_as_xyz
  1  'x, y, z'
loop_
 _atom_site_type_symbol
 _atom_site_label
 _atom_site_symmetry_multiplicity
 _atom_site_fract_x
 _atom_site_fract_y
 _atom_site_fract_z
 _atom_site_occupancy
  Li  Li0  1  0.333303  0.666692  0.000000  1
  Li  Li1  1  0.000000  0.000001  0.000000  1
  Li  Li2  1  -0.000000  0.000001  0.500000  1
  Li  Li3  1  0.333385  0.666693  0.500000  1
  Li  Li4  1  0.666615  0.333308  0.000000  1
  Li  Li5  1  0.666697  0.333389  0.500000  1
  H  H6  1  0.098397  0.810488  0.749999  1
  H  H7  1  0.189510  0.901603  0.250001  1
  H  H8  1  0.098396  0.287907  0.250000  1
  H  H9  1  0.189510  0.287907  0.750000  1
  H  H10  1  0.287908  0.189511  0.749999  1
  H  H11  1  0.287908  0.098397  0.250001  1
  H  H12  1  0.712092  0.901604  0.750001  1
  H  H13  1  0.712092  0.810489  0.249999  1
  H  H14  1  0.810490  0.712093  0.249999  1
  H  H15  1  0.901603  0.712093  0.750001  1
  H  H16  1  0.810490  0.098397  0.750000  1
  H  H17  1  0.901604  0.189511  0.250000  1
  N  N18  1  1.000000  0.592832  0.250000  1
  N  N19  1  0.000000  0.407179  0.750000  1
  N  N20  1  0.146812  0.668830  0.249997  1
  N  N21  1  0.331226  0.853190  0.749999  1
  N  N22  1  0.146814  0.478036  0.750002  1
  N  N23  1  0.331161  0.477990  0.250001  1
  N  N24  1  0.521971  0.853201  0.250001  1
  N  N25  1  0.522019  0.668835  0.749999  1
  N  N26  1  0.407208  0.407140  0.250000  1
  N  N27  1  0.592847  0.592807  0.750000  1
  N  N28  1  0.478029  0.331230  0.249999  1
  N  N29  1  0.477981  0.146815  0.750001  1
  N  N30  1  0.668774  0.521964  0.750001  1
  N  N31  1  0.407153  -0.000041  0.750000  1
  N  N32  1  0.592792  -0.000068  0.250000  1
  N  N33  1  0.853188  0.522018  0.250003  1
  N  N34  1  0.668839  0.146829  0.249999  1
  N  N35  1  0.853186  0.331222  0.749998  1
  O  O36  1  1.000000  0.824127  0.750000  1
  O  O37  1  0.000000  0.175873  0.250000  1
  O  O38  1  0.175873  0.175875  0.750000  1
  O  O39  1  0.175873  0.000001  0.250000  1
  O  O40  1  0.824127  0.824128  0.250001  1
  O  O41  1  0.824127  0.000002  0.750000  1
