# generated using pymatgen
data_Cs2SnAs2
_symmetry_space_group_name_H-M   'P 1'
_cell_length_a   7.08531377
_cell_length_b   7.90887541
_cell_length_c   9.16066786
_cell_angle_alpha   115.57395130
_cell_angle_beta   112.75085597
_cell_angle_gamma   89.99999999
_symmetry_Int_Tables_number   1
_chemical_formula_structural   Cs2SnAs2
_chemical_formula_sum   'Cs4 Sn2 As4'
_cell_volume   418.32875801
_cell_formula_units_Z   2
loop_
 _symmetry_equiv_pos_site_id
 _symmetry_equiv_pos_as_xyz
  1  'x, y, z'
loop_
 _atom_site_type_symbol
 _atom_site_label
 _atom_site_symmetry_multiplicity
 _atom_site_fract_x
 _atom_site_fract_y
 _atom_site_fract_z
 _atom_site_occupancy
  As  As0  1  0.401008  0.228362  0.802016  1
  As  As1  1  0.598992  0.771638  0.197984  1
  As  As2  1  0.098992  0.426346  0.197984  1
  As  As3  1  0.901008  0.573654  0.802016  1
  Sn  Sn4  1  0.250000  0.500000  0.000000  1
  Sn  Sn5  1  0.750000  0.500000  0.000000  1
  Cs  Cs6  1  0.145195  0.981230  0.290390  1
  Cs  Cs7  1  0.854805  0.018770  0.709610  1
  Cs  Cs8  1  0.354805  0.690840  0.709610  1
  Cs  Cs9  1  0.645195  0.309160  0.290390  1
