# generated using pymatgen
data_Fe10O9F11
_symmetry_space_group_name_H-M   'P 1'
_cell_length_a   4.81994655
_cell_length_b   4.81994655
_cell_length_c   15.35721050
_cell_angle_alpha   90.22110749
_cell_angle_beta   90.22110749
_cell_angle_gamma   94.69940822
_symmetry_Int_Tables_number   1
_chemical_formula_structural   Fe10O9F11
_chemical_formula_sum   'Fe10 O9 F11'
_cell_volume   355.57177530
_cell_formula_units_Z   1
loop_
 _symmetry_equiv_pos_site_id
 _symmetry_equiv_pos_as_xyz
  1  'x, y, z'
loop_
 _atom_site_type_symbol
 _atom_site_label
 _atom_site_symmetry_multiplicity
 _atom_site_fract_x
 _atom_site_fract_y
 _atom_site_fract_z
 _atom_site_occupancy
  Fe  Fe0  1  0.993582  0.993880  0.003165  1
  Fe  Fe1  1  0.000553  0.999447  0.200000  1
  Fe  Fe2  1  0.006120  0.006418  0.396835  1
  Fe  Fe3  1  0.979430  0.957705  0.604045  1
  Fe  Fe4  1  0.042295  0.020570  0.795955  1
  Fe  Fe5  1  0.498508  0.498740  0.104591  1
  Fe  Fe6  1  0.516888  0.505638  0.490282  1
  Fe  Fe7  1  0.501260  0.501492  0.295409  1
  Fe  Fe8  1  0.461195  0.538805  0.700000  1
  Fe  Fe9  1  0.494362  0.483112  0.909718  1
  O  O10  1  0.187386  0.812614  0.700000  1
  O  O11  1  0.293755  0.290375  0.999628  1
  O  O12  1  0.303965  0.303921  0.200282  1
  O  O13  1  0.302964  0.300262  0.403243  1
  O  O14  1  0.322254  0.322656  0.799798  1
  O  O15  1  0.699738  0.697036  0.996757  1
  O  O16  1  0.696079  0.696035  0.199718  1
  O  O17  1  0.709625  0.706245  0.400372  1
  O  O18  1  0.677344  0.677746  0.600202  1
  F  F19  1  0.200132  0.793568  0.092394  1
  F  F20  1  0.206432  0.799868  0.307606  1
  F  F21  1  0.190535  0.805422  0.504446  1
  F  F22  1  0.194578  0.809465  0.895554  1
  F  F23  1  0.282838  0.293951  0.601114  1
  F  F24  1  0.706049  0.717162  0.798886  1
  F  F25  1  0.794340  0.199955  0.092403  1
  F  F26  1  0.810141  0.184171  0.506408  1
  F  F27  1  0.800045  0.205660  0.307597  1
  F  F28  1  0.815829  0.189859  0.893592  1
  F  F29  1  0.811777  0.188223  0.700000  1
