# generated using pymatgen
data_Ca2SnS4
_symmetry_space_group_name_H-M   'P 1'
_cell_length_a   7.17077548
_cell_length_b   16.80750867
_cell_length_c   11.78263558
_cell_angle_alpha   90.00000000
_cell_angle_beta   90.00000000
_cell_angle_gamma   90.00000000
_symmetry_Int_Tables_number   1
_chemical_formula_structural   Ca2SnS4
_chemical_formula_sum   'Ca16 Sn8 S32'
_cell_volume   1420.07706865
_cell_formula_units_Z   8
loop_
 _symmetry_equiv_pos_site_id
 _symmetry_equiv_pos_as_xyz
  1  'x, y, z'
loop_
 _atom_site_type_symbol
 _atom_site_label
 _atom_site_symmetry_multiplicity
 _atom_site_fract_x
 _atom_site_fract_y
 _atom_site_fract_z
 _atom_site_occupancy
  Ca  Ca0  1  0.228120  0.876748  0.005161  1
  Ca  Ca1  1  0.771880  0.123252  0.505161  1
  Ca  Ca2  1  0.728120  0.623252  0.505161  1
  Ca  Ca3  1  0.271880  0.376748  0.005161  1
  Ca  Ca4  1  0.192699  0.619946  0.117384  1
  Ca  Ca5  1  0.807301  0.380054  0.617384  1
  Ca  Ca6  1  0.692699  0.880054  0.617384  1
  Ca  Ca7  1  0.307301  0.119946  0.117384  1
  Ca  Ca8  1  0.181461  0.811970  0.368584  1
  Ca  Ca9  1  0.818539  0.188030  0.868584  1
  Ca  Ca10  1  0.681461  0.688030  0.868584  1
  Ca  Ca11  1  0.318539  0.311970  0.368584  1
  Ca  Ca12  1  0.209934  0.550619  0.754844  1
  Ca  Ca13  1  0.790066  0.449381  0.254844  1
  Ca  Ca14  1  0.709934  0.949381  0.254844  1
  Ca  Ca15  1  0.290066  0.050619  0.754844  1
  Sn  Sn16  1  0.280801  0.528480  0.397202  1
  Sn  Sn17  1  0.719199  0.471520  0.897202  1
  Sn  Sn18  1  0.780801  0.971520  0.897202  1
  Sn  Sn19  1  0.219199  0.028480  0.397202  1
  Sn  Sn20  1  0.188389  0.763821  0.725440  1
  Sn  Sn21  1  0.811611  0.236179  0.225440  1
  Sn  Sn22  1  0.688389  0.736179  0.225440  1
  Sn  Sn23  1  0.311611  0.263821  0.725440  1
  S  S24  1  0.474235  0.740023  0.065140  1
  S  S25  1  0.525765  0.259977  0.565140  1
  S  S26  1  0.974235  0.759977  0.565140  1
  S  S27  1  0.025765  0.240023  0.065140  1
  S  S28  1  0.453083  0.017660  0.537874  1
  S  S29  1  0.546917  0.982340  0.037874  1
  S  S30  1  0.953083  0.482340  0.037874  1
  S  S31  1  0.046917  0.517660  0.537874  1
  S  S32  1  0.454853  0.677173  0.674420  1
  S  S33  1  0.545147  0.322827  0.174420  1
  S  S34  1  0.954853  0.822827  0.174420  1
  S  S35  1  0.045147  0.177173  0.674420  1
  S  S36  1  0.430633  0.533201  0.956625  1
  S  S37  1  0.569367  0.466799  0.456625  1
  S  S38  1  0.930633  0.966799  0.456625  1
  S  S39  1  0.069367  0.033201  0.956625  1
  S  S40  1  0.358692  0.659139  0.334273  1
  S  S41  1  0.641308  0.340861  0.834273  1
  S  S42  1  0.858692  0.840861  0.834273  1
  S  S43  1  0.141308  0.159139  0.334273  1
  S  S44  1  0.361807  0.881257  0.775046  1
  S  S45  1  0.638193  0.118743  0.275046  1
  S  S46  1  0.861807  0.618743  0.275046  1
  S  S47  1  0.138193  0.381257  0.775046  1
  S  S48  1  0.305180  0.952522  0.233190  1
  S  S49  1  0.694820  0.047478  0.733190  1
  S  S50  1  0.805180  0.547478  0.733190  1
  S  S51  1  0.194820  0.452522  0.233190  1
  S  S52  1  0.087563  0.682118  0.889016  1
  S  S53  1  0.912437  0.317882  0.389016  1
  S  S54  1  0.587563  0.817882  0.389016  1
  S  S55  1  0.412437  0.182118  0.889016  1
