# generated using pymatgen
data_Fe5O7F3
_symmetry_space_group_name_H-M   'P 1'
_cell_length_a   4.66629595
_cell_length_b   4.66629595
_cell_length_c   15.26319065
_cell_angle_alpha   90.07107228
_cell_angle_beta   90.07107228
_cell_angle_gamma   88.49820310
_symmetry_Int_Tables_number   1
_chemical_formula_structural   Fe5O7F3
_chemical_formula_sum   'Fe10 O14 F6'
_cell_volume   332.23090805
_cell_formula_units_Z   2
loop_
 _symmetry_equiv_pos_site_id
 _symmetry_equiv_pos_as_xyz
  1  'x, y, z'
loop_
 _atom_site_type_symbol
 _atom_site_label
 _atom_site_symmetry_multiplicity
 _atom_site_fract_x
 _atom_site_fract_y
 _atom_site_fract_z
 _atom_site_occupancy
  Fe  Fe0  1  0.985363  0.967186  0.006200  1
  Fe  Fe1  1  0.981007  0.976294  0.201111  1
  Fe  Fe2  1  0.023706  0.018993  0.398889  1
  Fe  Fe3  1  0.032814  0.014637  0.593800  1
  Fe  Fe4  1  0.014868  0.985132  0.800000  1
  Fe  Fe5  1  0.519145  0.508980  0.099164  1
  Fe  Fe6  1  0.491020  0.480855  0.500836  1
  Fe  Fe7  1  0.502100  0.497900  0.300000  1
  Fe  Fe8  1  0.474815  0.512960  0.704482  1
  Fe  Fe9  1  0.487040  0.525185  0.895518  1
  O  O10  1  0.193009  0.791238  0.104683  1
  O  O11  1  0.196742  0.803258  0.300000  1
  O  O12  1  0.208762  0.806991  0.495317  1
  O  O13  1  0.190928  0.820999  0.696130  1
  O  O14  1  0.179001  0.809072  0.903870  1
  O  O15  1  0.321747  0.313121  0.396226  1
  O  O16  1  0.314212  0.318145  0.602112  1
  O  O17  1  0.294292  0.307685  0.801970  1
  O  O18  1  0.681855  0.685788  0.997888  1
  O  O19  1  0.686879  0.678253  0.203774  1
  O  O20  1  0.692315  0.705708  0.798030  1
  O  O21  1  0.801160  0.183475  0.101929  1
  O  O22  1  0.816525  0.198840  0.498071  1
  O  O23  1  0.808851  0.191149  0.300000  1
  F  F24  1  0.296248  0.296595  -0.000063  1
  F  F25  1  0.300934  0.294361  0.198478  1
  F  F26  1  0.705639  0.699066  0.401522  1
  F  F27  1  0.703405  0.703752  0.600063  1
  F  F28  1  0.794383  0.198764  0.902121  1
  F  F29  1  0.801236  0.205617  0.697879  1
