# generated using pymatgen
data_LiFeP2O7
_symmetry_space_group_name_H-M   'P 1'
_cell_length_a   9.73130021
_cell_length_b   9.80888926
_cell_length_c   11.14129058
_cell_angle_alpha   89.63173738
_cell_angle_beta   101.50941160
_cell_angle_gamma   90.33327748
_symmetry_Int_Tables_number   1
_chemical_formula_structural   LiFeP2O7
_chemical_formula_sum   'Li8 Fe8 P16 O56'
_cell_volume   1042.05530557
_cell_formula_units_Z   8
loop_
 _symmetry_equiv_pos_site_id
 _symmetry_equiv_pos_as_xyz
  1  'x, y, z'
loop_
 _atom_site_type_symbol
 _atom_site_label
 _atom_site_symmetry_multiplicity
 _atom_site_fract_x
 _atom_site_fract_y
 _atom_site_fract_z
 _atom_site_occupancy
  Li  Li0  1  0.090372  0.107979  0.026993  1
  Li  Li1  1  0.405115  0.607210  0.970699  1
  Li  Li2  1  0.385413  0.205087  0.543419  1
  Li  Li3  1  0.590267  0.396578  0.029291  1
  Li  Li4  1  0.647803  0.094482  0.049323  1
  Li  Li5  1  0.910010  0.890393  0.971976  1
  Li  Li6  1  0.842029  0.577338  0.471547  1
  Li  Li7  1  0.885589  0.283618  0.547248  1
  Fe  Fe8  1  0.210644  0.913010  0.664743  1
  Fe  Fe9  1  0.247659  0.203222  0.823964  1
  Fe  Fe10  1  0.252340  0.709813  0.174540  1
  Fe  Fe11  1  0.290330  0.425425  0.331701  1
  Fe  Fe12  1  0.704086  0.589890  0.678505  1
  Fe  Fe13  1  0.750348  0.295582  0.823344  1
  Fe  Fe14  1  0.753173  0.788376  0.176278  1
  Fe  Fe15  1  0.789971  0.071796  0.335587  1
  P  P16  1  0.023080  0.446464  0.750631  1
  P  P17  1  0.115317  0.712110  0.881556  1
  P  P18  1  0.061013  0.922348  0.237890  1
  P  P19  1  0.122545  0.145351  0.425832  1
  P  P20  1  0.377913  0.644161  0.571594  1
  P  P21  1  0.436734  0.424695  0.761232  1
  P  P22  1  0.526574  0.056927  0.754568  1
  P  P23  1  0.382906  0.210805  0.118950  1
  P  P24  1  0.613579  0.793680  0.884329  1
  P  P25  1  0.475613  0.944682  0.253357  1
  P  P26  1  0.561432  0.576039  0.237498  1
  P  P27  1  0.621795  0.352413  0.423157  1
  P  P28  1  0.877931  0.857374  0.573939  1
  P  P29  1  0.936544  0.073997  0.761879  1
  P  P30  1  0.884833  0.287258  0.116080  1
  P  P31  1  0.975987  0.552739  0.246158  1
  O  O32  1  0.016274  0.421292  0.617059  1
  O  O33  1  0.032409  0.851218  0.566693  1
  O  O34  1  0.088420  0.084056  0.735911  1
  O  O35  1  0.103811  0.586671  0.786070  1
  O  O36  1  0.107700  0.339982  0.837838  1
  O  O37  1  0.182019  0.824659  0.815603  1
  O  O38  1  0.221083  0.664114  0.000079  1
  O  O39  1  0.025896  0.260554  0.090686  1
  O  O40  1  0.124523  0.058149  0.304737  1
  O  O41  1  0.059383  0.940688  0.103658  1
  O  O42  1  0.128764  0.536246  0.220949  1
  O  O43  1  0.188775  0.282268  0.402111  1
  O  O44  1  0.156306  0.803214  0.289147  1
  O  O45  1  0.214120  0.074509  0.534960  1
  O  O46  1  0.293574  0.564565  0.465467  1
  O  O47  1  0.345812  0.302341  0.705556  1
  O  O48  1  0.320660  0.783169  0.595817  1
  O  O49  1  0.372579  0.039927  0.779577  1
  O  O50  1  0.369259  0.558662  0.696734  1
  O  O51  1  0.436022  0.435403  0.895686  1
  O  O52  1  0.473371  0.762912  0.911285  1
  O  O53  1  0.276455  0.164474  0.000543  1
  O  O54  1  0.326720  0.329288  0.182993  1
  O  O55  1  0.394150  0.087953  0.215650  1
  O  O56  1  0.411058  0.588574  0.265346  1
  O  O57  1  0.394483  0.843037  0.158187  1
  O  O58  1  0.469581  0.340336  0.438299  1
  O  O59  1  0.534264  0.099565  0.627746  1
  O  O60  1  0.478380  0.917504  0.383969  1
  O  O61  1  0.535422  0.649897  0.570580  1
  O  O62  1  0.614332  0.150384  0.855972  1
  O  O63  1  0.590583  0.414702  0.735491  1
  O  O64  1  0.601227  0.911385  0.781137  1
  O  O65  1  0.684596  0.678373  0.826874  1
  O  O66  1  0.717354  0.852721  0.001355  1
  O  O67  1  0.525110  0.232667  0.087697  1
  O  O68  1  0.563054  0.568050  0.102915  1
  O  O69  1  0.620389  0.433658  0.296275  1
  O  O70  1  0.628050  0.965002  0.216984  1
  O  O71  1  0.688839  0.215387  0.404438  1
  O  O72  1  0.666142  0.687122  0.296634  1
  O  O73  1  0.719225  0.433845  0.523109  1
  O  O74  1  0.790051  0.934576  0.467144  1
  O  O75  1  0.844576  0.195757  0.704500  1
  O  O76  1  0.820939  0.713648  0.594749  1
  O  O77  1  0.869435  0.460713  0.779978  1
  O  O78  1  0.931402  0.063926  0.895616  1
  O  O79  1  0.867590  0.938836  0.697781  1
  O  O80  1  0.973768  0.739901  0.906872  1
  O  O81  1  0.776183  0.335055  0.998238  1
  O  O82  1  0.813305  0.169173  0.174900  1
  O  O83  1  0.893142  0.656802  0.153755  1
  O  O84  1  0.893089  0.409748  0.212055  1
  O  O85  1  0.908179  0.910836  0.265057  1
  O  O86  1  0.967008  0.159864  0.433875  1
  O  O87  1  0.970807  0.578935  0.376262  1
