# generated using pymatgen
data_Li5Fe4(P2O7)4
_symmetry_space_group_name_H-M   'P 1'
_cell_length_a   9.75738503
_cell_length_b   9.77429379
_cell_length_c   11.13685068
_cell_angle_alpha   90.36782977
_cell_angle_beta   101.64342222
_cell_angle_gamma   90.15714751
_symmetry_Int_Tables_number   1
_chemical_formula_structural   Li5Fe4(P2O7)4
_chemical_formula_sum   'Li10 Fe8 P16 O56'
_cell_volume   1040.25233354
_cell_formula_units_Z   2
loop_
 _symmetry_equiv_pos_site_id
 _symmetry_equiv_pos_as_xyz
  1  'x, y, z'
loop_
 _atom_site_type_symbol
 _atom_site_label
 _atom_site_symmetry_multiplicity
 _atom_site_fract_x
 _atom_site_fract_y
 _atom_site_fract_z
 _atom_site_occupancy
  Li  Li0  1  0.093093  0.104623  0.028386  1
  Li  Li1  1  0.419577  0.601122  0.977991  1
  Li  Li2  1  0.325095  0.916707  0.457129  1
  Li  Li3  1  0.387115  0.217691  0.548084  1
  Li  Li4  1  0.617402  0.790843  0.458219  1
  Li  Li5  1  0.849033  0.589358  0.956908  1
  Li  Li6  1  0.647427  0.097065  0.042071  1
  Li  Li7  1  0.906852  0.891137  0.970720  1
  Li  Li8  1  0.852249  0.570913  0.475448  1
  Li  Li9  1  0.882353  0.280562  0.547741  1
  Fe  Fe10  1  0.205548  0.914606  0.677667  1
  Fe  Fe11  1  0.254870  0.213686  0.826956  1
  Fe  Fe12  1  0.251473  0.705960  0.177517  1
  Fe  Fe13  1  0.293230  0.426269  0.330193  1
  Fe  Fe14  1  0.701911  0.577826  0.676557  1
  Fe  Fe15  1  0.744752  0.295836  0.826200  1
  Fe  Fe16  1  0.740530  0.779643  0.173751  1
  Fe  Fe17  1  0.793972  0.070246  0.328150  1
  P  P18  1  0.022060  0.447325  0.752936  1
  P  P19  1  0.118591  0.707292  0.886782  1
  P  P20  1  0.060573  0.924579  0.237420  1
  P  P21  1  0.123136  0.148057  0.422576  1
  P  P22  1  0.376681  0.645216  0.571095  1
  P  P23  1  0.432715  0.424828  0.762125  1
  P  P24  1  0.523707  0.048801  0.751526  1
  P  P25  1  0.384420  0.212990  0.116202  1
  P  P26  1  0.613529  0.792385  0.887381  1
  P  P27  1  0.471842  0.949196  0.244062  1
  P  P28  1  0.565445  0.577791  0.243169  1
  P  P29  1  0.622494  0.350260  0.419064  1
  P  P30  1  0.880360  0.858474  0.571812  1
  P  P31  1  0.939387  0.076030  0.761960  1
  P  P32  1  0.886655  0.287639  0.116408  1
  P  P33  1  0.974896  0.553386  0.241439  1
  O  O34  1  0.008072  0.423490  0.617976  1
  O  O35  1  0.034796  0.854077  0.566945  1
  O  O36  1  0.090658  0.086238  0.733727  1
  O  O37  1  0.107289  0.588768  0.783832  1
  O  O38  1  0.108747  0.341917  0.838128  1
  O  O39  1  0.177665  0.828345  0.826348  1
  O  O40  1  0.223602  0.657215  0.002898  1
  O  O41  1  0.028438  0.258168  0.092896  1
  O  O42  1  0.120967  0.068911  0.295450  1
  O  O43  1  0.062548  0.930629  0.102760  1
  O  O44  1  0.131777  0.538989  0.221784  1
  O  O45  1  0.190185  0.286362  0.407630  1
  O  O46  1  0.168208  0.816257  0.297647  1
  O  O47  1  0.219767  0.064913  0.522544  1
  O  O48  1  0.290290  0.562714  0.467348  1
  O  O49  1  0.340518  0.305269  0.697534  1
  O  O50  1  0.315131  0.787816  0.592182  1
  O  O51  1  0.370014  0.038631  0.778812  1
  O  O52  1  0.375678  0.565057  0.698133  1
  O  O53  1  0.417976  0.428817  0.893376  1
  O  O54  1  0.471069  0.763054  0.910421  1
  O  O55  1  0.275513  0.162924  0.999226  1
  O  O56  1  0.324747  0.330260  0.181188  1
  O  O57  1  0.389374  0.090039  0.216833  1
  O  O58  1  0.410121  0.587019  0.264092  1
  O  O59  1  0.389566  0.843495  0.154499  1
  O  O60  1  0.470898  0.339368  0.436805  1
  O  O61  1  0.523028  0.087103  0.621742  1
  O  O62  1  0.474941  0.916531  0.376902  1
  O  O63  1  0.529392  0.663595  0.560092  1
  O  O64  1  0.613827  0.144745  0.850423  1
  O  O65  1  0.586045  0.408436  0.740220  1
  O  O66  1  0.595128  0.902197  0.774569  1
  O  O67  1  0.690444  0.673375  0.839489  1
  O  O68  1  0.715551  0.863679  0.997401  1
  O  O69  1  0.525358  0.228372  0.087060  1
  O  O70  1  0.577170  0.590151  0.111301  1
  O  O71  1  0.616896  0.428955  0.291756  1
  O  O72  1  0.623084  0.968476  0.217821  1
  O  O73  1  0.691359  0.212748  0.403077  1
  O  O74  1  0.663067  0.682643  0.321669  1
  O  O75  1  0.718421  0.433396  0.520465  1
  O  O76  1  0.787268  0.934912  0.466102  1
  O  O77  1  0.844750  0.196816  0.706617  1
  O  O78  1  0.815783  0.718137  0.585337  1
  O  O79  1  0.876415  0.463128  0.793992  1
  O  O80  1  0.936697  0.063936  0.895837  1
  O  O81  1  0.871093  0.938901  0.697733  1
  O  O82  1  0.975622  0.728786  0.913524  1
  O  O83  1  0.787661  0.345461  0.997847  1
  O  O84  1  0.812471  0.167990  0.169489  1
  O  O85  1  0.893781  0.640055  0.136238  1
  O  O86  1  0.901627  0.402908  0.222162  1
  O  O87  1  0.912662  0.912954  0.267761  1
  O  O88  1  0.969955  0.157305  0.436746  1
  O  O89  1  0.967780  0.595504  0.368214  1
