# generated using pymatgen
data_LiFe(SiO3)2
_symmetry_space_group_name_H-M   'P 1'
_cell_length_a   7.41258208
_cell_length_b   7.39816054
_cell_length_c   7.06893280
_cell_angle_alpha   117.85246815
_cell_angle_beta   77.92197188
_cell_angle_gamma   99.18802822
_symmetry_Int_Tables_number   1
_chemical_formula_structural   LiFe(SiO3)2
_chemical_formula_sum   'Li3 Fe3 Si6 O18'
_cell_volume   334.30009668
_cell_formula_units_Z   3
loop_
 _symmetry_equiv_pos_site_id
 _symmetry_equiv_pos_as_xyz
  1  'x, y, z'
loop_
 _atom_site_type_symbol
 _atom_site_label
 _atom_site_symmetry_multiplicity
 _atom_site_fract_x
 _atom_site_fract_y
 _atom_site_fract_z
 _atom_site_occupancy
  Li  Li0  1  0.234873  0.759553  0.377110  1
  Li  Li1  1  0.500000  0.500000  0.500000  1
  Li  Li2  1  0.765127  0.240447  0.622890  1
  Fe  Fe3  1  0.212623  0.741927  0.945940  1
  Fe  Fe4  1  0.500000  0.500000  0.000000  1
  Fe  Fe5  1  0.787377  0.258073  0.054060  1
  Si  Si6  1  0.172174  0.289824  0.246225  1
  Si  Si7  1  0.162106  0.248397  0.683117  1
  Si  Si8  1  0.610981  0.975588  0.200137  1
  Si  Si9  1  0.389019  0.024412  0.799863  1
  Si  Si10  1  0.837894  0.751603  0.316883  1
  Si  Si11  1  0.827826  0.710176  0.753775  1
  O  O12  1  0.051869  0.770837  0.214283  1
  O  O13  1  0.034297  0.676278  0.762808  1
  O  O14  1  0.172636  0.246523  0.451545  1
  O  O15  1  0.239929  0.070845  0.029448  1
  O  O16  1  0.323119  0.477099  0.249707  1
  O  O17  1  0.437436  0.800783  0.144856  1
  O  O18  1  0.284752  0.452666  0.835821  1
  O  O19  1  0.417477  0.786963  0.718199  1
  O  O20  1  0.275634  0.048155  0.633139  1
  O  O21  1  0.724366  0.951845  0.366861  1
  O  O22  1  0.582523  0.213037  0.281801  1
  O  O23  1  0.715248  0.547334  0.164179  1
  O  O24  1  0.562564  0.199217  0.855144  1
  O  O25  1  0.676881  0.522901  0.750293  1
  O  O26  1  0.760071  0.929155  0.970552  1
  O  O27  1  0.827364  0.753477  0.548455  1
  O  O28  1  0.965703  0.323722  0.237192  1
  O  O29  1  0.948131  0.229163  0.785717  1
