# generated using pymatgen
data_Mn6OF11
_symmetry_space_group_name_H-M   'P 1'
_cell_length_a   4.95868183
_cell_length_b   5.88843026
_cell_length_c   16.23695906
_cell_angle_alpha   90.32656722
_cell_angle_beta   90.47215667
_cell_angle_gamma   90.84375932
_symmetry_Int_Tables_number   1
_chemical_formula_structural   Mn6OF11
_chemical_formula_sum   'Mn12 O2 F22'
_cell_volume   474.02502982
_cell_formula_units_Z   2
loop_
 _symmetry_equiv_pos_site_id
 _symmetry_equiv_pos_as_xyz
  1  'x, y, z'
loop_
 _atom_site_type_symbol
 _atom_site_label
 _atom_site_symmetry_multiplicity
 _atom_site_fract_x
 _atom_site_fract_y
 _atom_site_fract_z
 _atom_site_occupancy
  Mn  Mn0  1  0.015589  0.169725  0.411127  1
  Mn  Mn1  1  0.010233  0.853672  0.253397  1
  Mn  Mn2  1  0.999464  0.170679  0.084185  1
  Mn  Mn3  1  0.014785  0.167964  0.743886  1
  Mn  Mn4  1  0.009180  0.857208  0.584543  1
  Mn  Mn5  1  0.004945  0.832866  0.916247  1
  Mn  Mn6  1  0.485168  0.313504  0.586078  1
  Mn  Mn7  1  0.506939  0.330551  0.915214  1
  Mn  Mn8  1  0.481520  0.318810  0.255566  1
  Mn  Mn9  1  0.507307  0.668493  0.086774  1
  Mn  Mn10  1  0.505531  0.668908  0.420219  1
  Mn  Mn11  1  0.493828  0.669736  0.747808  1
  O  O12  1  0.210024  0.091398  0.301625  1
  O  O13  1  0.211183  0.089968  0.634054  1
  F  F14  1  0.233360  0.108525  0.975694  1
  F  F15  1  0.216860  0.884922  0.142571  1
  F  F16  1  0.222603  0.885698  0.476251  1
  F  F17  1  0.235589  0.895889  0.807930  1
  F  F18  1  0.281815  0.392616  0.141883  1
  F  F19  1  0.262333  0.609664  0.307403  1
  F  F20  1  0.280120  0.393963  0.473713  1
  F  F21  1  0.257678  0.606436  0.636976  1
  F  F22  1  0.267090  0.398499  0.807593  1
  F  F23  1  0.274876  0.606411  0.975296  1
  F  F24  1  0.732653  0.397701  0.027763  1
  F  F25  1  0.748888  0.621674  0.200815  1
  F  F26  1  0.716963  0.388837  0.362615  1
  F  F27  1  0.747615  0.627240  0.532731  1
  F  F28  1  0.727972  0.609507  0.858375  1
  F  F29  1  0.713058  0.385070  0.693829  1
  F  F30  1  0.761656  0.104288  0.192765  1
  F  F31  1  0.771147  0.109963  0.520011  1
  F  F32  1  0.771777  0.881308  0.356643  1
  F  F33  1  0.768207  0.896312  0.025700  1
  F  F34  1  0.780445  0.109873  0.855511  1
  F  F35  1  0.771601  0.882123  0.687209  1
