# generated using pymatgen
data_Na6(WO3)7
_symmetry_space_group_name_H-M   'P 1'
_cell_length_a   8.84589804
_cell_length_b   6.85561333
_cell_length_c   8.84597015
_cell_angle_alpha   104.96878965
_cell_angle_beta   66.42674460
_cell_angle_gamma   75.02957010
_symmetry_Int_Tables_number   1
_chemical_formula_structural   Na6(WO3)7
_chemical_formula_sum   'Na6 W7 O21'
_cell_volume   433.58449376
_cell_formula_units_Z   1
loop_
 _symmetry_equiv_pos_site_id
 _symmetry_equiv_pos_as_xyz
  1  'x, y, z'
loop_
 _atom_site_type_symbol
 _atom_site_label
 _atom_site_symmetry_multiplicity
 _atom_site_fract_x
 _atom_site_fract_y
 _atom_site_fract_z
 _atom_site_occupancy
  Na  Na0  1  0.427842  0.142712  0.857204  1
  Na  Na1  1  0.857201  0.285482  0.714932  1
  Na  Na2  1  0.714920  0.570594  0.427877  1
  Na  Na3  1  0.285087  0.429395  0.572114  1
  Na  Na4  1  0.142806  0.714508  0.285056  1
  Na  Na5  1  0.572148  0.857300  0.142802  1
  W  W6  1  0.715325  0.070566  0.425505  1
  W  W7  1  0.425447  0.645057  0.859278  1
  W  W8  1  0.859174  0.785821  0.715272  1
  W  W9  1  0.574432  0.355050  0.140912  1
  W  W10  1  0.284729  0.929463  0.574488  1
  W  W11  1  0.140826  0.214101  0.284612  1
  W  W12  1  0.000092  0.499914  -0.000066  1
  O  O13  1  0.710717  0.073570  0.929178  1
  O  O14  1  0.927919  0.638781  0.856120  1
  O  O15  1  0.143799  0.217528  0.784167  1
  O  O16  1  0.499995  0.000010  0.499998  1
  O  O17  1  0.571067  0.357646  0.643051  1
  O  O18  1  0.215899  0.566694  0.927936  1
  O  O19  1  0.929242  0.144404  0.360084  1
  O  O20  1  0.643134  0.714637  0.785842  1
  O  O21  1  0.214170  0.071195  0.429012  1
  O  O22  1  0.639894  0.215727  0.289280  1
  O  O23  1  0.360032  0.784418  0.710624  1
  O  O24  1  0.785891  0.928658  0.571105  1
  O  O25  1  -0.000081  0.500148  0.500123  1
  O  O26  1  0.356972  0.285390  0.214102  1
  O  O27  1  0.070680  0.855547  0.639959  1
  O  O28  1  0.428997  0.642228  0.356830  1
  O  O29  1  0.856138  0.782611  0.215956  1
  O  O30  1  0.784063  0.433328  0.072082  1
  O  O31  1  0.072078  0.361267  0.143837  1
  O  O32  1  0.500023  0.499970  0.000014  1
  O  O33  1  0.289342  0.926279  0.070715  1
