# generated using pymatgen
data_NaSbO2
_symmetry_space_group_name_H-M   'P 1'
_cell_length_a   16.61708271
_cell_length_b   6.76966926
_cell_length_c   5.50822310
_cell_angle_alpha   90.00000000
_cell_angle_beta   90.00000000
_cell_angle_gamma   90.00000000
_symmetry_Int_Tables_number   1
_chemical_formula_structural   NaSbO2
_chemical_formula_sum   'Na8 Sb8 O16'
_cell_volume   619.63188130
_cell_formula_units_Z   8
loop_
 _symmetry_equiv_pos_site_id
 _symmetry_equiv_pos_as_xyz
  1  'x, y, z'
loop_
 _atom_site_type_symbol
 _atom_site_label
 _atom_site_symmetry_multiplicity
 _atom_site_fract_x
 _atom_site_fract_y
 _atom_site_fract_z
 _atom_site_occupancy
  Na  Na0  1  0.204004  0.592909  0.239195  1
  Na  Na1  1  0.204004  0.907091  0.739195  1
  Na  Na2  1  0.295996  0.092909  0.239195  1
  Na  Na3  1  0.295996  0.407091  0.739195  1
  Na  Na4  1  0.704004  0.592909  0.260805  1
  Na  Na5  1  0.704004  0.907091  0.760805  1
  Na  Na6  1  0.795996  0.092909  0.260805  1
  Na  Na7  1  0.795996  0.407091  0.760805  1
  Sb  Sb8  1  0.083167  0.083250  0.249099  1
  Sb  Sb9  1  0.083167  0.416750  0.749099  1
  Sb  Sb10  1  0.416833  0.583250  0.249099  1
  Sb  Sb11  1  0.416833  0.916750  0.749099  1
  Sb  Sb12  1  0.583167  0.083250  0.250901  1
  Sb  Sb13  1  0.583167  0.416750  0.750901  1
  Sb  Sb14  1  0.916833  0.583250  0.250901  1
  Sb  Sb15  1  0.916833  0.916750  0.750901  1
  O  O16  1  0.124599  0.172247  0.922342  1
  O  O17  1  0.124599  0.327753  0.422342  1
  O  O18  1  0.174044  0.919572  0.318669  1
  O  O19  1  0.174044  0.580428  0.818669  1
  O  O20  1  0.325956  0.080428  0.818669  1
  O  O21  1  0.325956  0.419572  0.318669  1
  O  O22  1  0.375401  0.672247  0.922342  1
  O  O23  1  0.375401  0.827753  0.422342  1
  O  O24  1  0.624599  0.172247  0.577658  1
  O  O25  1  0.624599  0.327753  0.077658  1
  O  O26  1  0.674044  0.580428  0.681331  1
  O  O27  1  0.674044  0.919572  0.181331  1
  O  O28  1  0.825956  0.080428  0.681331  1
  O  O29  1  0.825956  0.419572  0.181331  1
  O  O30  1  0.875401  0.672247  0.577658  1
  O  O31  1  0.875401  0.827753  0.077658  1
