# generated using pymatgen
data_KSc(BH4)4
_symmetry_space_group_name_H-M   'P 1'
_cell_length_a   12.35313310
_cell_length_b   8.30527282
_cell_length_c   9.27154086
_cell_angle_alpha   90.00000000
_cell_angle_beta   90.00000000
_cell_angle_gamma   90.00000000
_symmetry_Int_Tables_number   1
_chemical_formula_structural   KSc(BH4)4
_chemical_formula_sum   'K4 Sc4 B16 H64'
_cell_volume   951.22430944
_cell_formula_units_Z   4
loop_
 _symmetry_equiv_pos_site_id
 _symmetry_equiv_pos_as_xyz
  1  'x, y, z'
loop_
 _atom_site_type_symbol
 _atom_site_label
 _atom_site_symmetry_multiplicity
 _atom_site_fract_x
 _atom_site_fract_y
 _atom_site_fract_z
 _atom_site_occupancy
  K  K0  1  0.110746  0.250000  0.637036  1
  K  K1  1  0.389255  0.750000  0.137036  1
  K  K2  1  0.610745  0.250000  0.862964  1
  K  K3  1  0.889254  0.750000  0.362964  1
  Sc  Sc4  1  0.055143  0.250000  0.171544  1
  Sc  Sc5  1  0.444858  0.750000  0.671544  1
  Sc  Sc6  1  0.555142  0.250000  0.328456  1
  Sc  Sc7  1  0.944857  0.750000  0.828455  1
  B  B8  1  0.177521  0.250000  0.981691  1
  B  B9  1  0.322480  0.750000  0.481691  1
  B  B10  1  0.677520  0.250000  0.518309  1
  B  B11  1  0.822480  0.750000  0.018309  1
  B  B12  1  0.382075  0.250000  0.420026  1
  B  B13  1  0.117924  0.750000  0.920026  1
  B  B14  1  0.882076  0.250000  0.079973  1
  B  B15  1  0.617925  0.750000  0.579974  1
  B  B16  1  0.078890  0.021295  0.317160  1
  B  B17  1  0.421110  0.978706  0.817159  1
  B  B18  1  0.578890  0.478706  0.182840  1
  B  B19  1  0.921109  0.521294  0.682840  1
  B  B20  1  0.921109  0.978706  0.682840  1
  B  B21  1  0.578890  0.021295  0.182840  1
  B  B22  1  0.421110  0.521294  0.817159  1
  B  B23  1  0.078890  0.478706  0.317160  1
  H  H24  1  0.053527  0.979649  0.193839  1
  H  H25  1  0.446474  0.020352  0.693839  1
  H  H26  1  0.553526  0.520351  0.306160  1
  H  H27  1  0.946474  0.479649  0.806160  1
  H  H28  1  0.946474  0.020352  0.806160  1
  H  H29  1  0.553526  0.979649  0.306160  1
  H  H30  1  0.446474  0.479649  0.693839  1
  H  H31  1  0.053527  0.520351  0.193839  1
  H  H32  1  0.163323  0.100215  0.307782  1
  H  H33  1  0.336678  0.899786  0.807782  1
  H  H34  1  0.663322  0.399786  0.192219  1
  H  H35  1  0.836678  0.600214  0.692219  1
  H  H36  1  0.836678  0.899786  0.692219  1
  H  H37  1  0.663322  0.100215  0.192219  1
  H  H38  1  0.336678  0.600214  0.807782  1
  H  H39  1  0.163323  0.399786  0.307782  1
  H  H40  1  0.237359  0.250000  0.879171  1
  H  H41  1  0.262641  0.750000  0.379171  1
  H  H42  1  0.737360  0.250000  0.620828  1
  H  H43  1  0.762641  0.750000  0.120829  1
  H  H44  1  0.117922  0.370047  0.983217  1
  H  H45  1  0.382079  0.629953  0.483217  1
  H  H46  1  0.617921  0.129953  0.516783  1
  H  H47  1  0.882078  0.870047  0.016782  1
  H  H48  1  0.882078  0.629953  0.016782  1
  H  H49  1  0.617921  0.370047  0.516783  1
  H  H50  1  0.382079  0.870047  0.483217  1
  H  H51  1  0.117922  0.129953  0.983217  1
  H  H52  1  0.228319  0.250000  0.096370  1
  H  H53  1  0.271682  0.750000  0.596370  1
  H  H54  1  0.728319  0.250000  0.403630  1
  H  H55  1  0.771681  0.750000  0.903630  1
  H  H56  1  0.435711  0.369422  0.455801  1
  H  H57  1  0.064288  0.630577  0.955801  1
  H  H58  1  0.935712  0.130577  0.044198  1
  H  H59  1  0.564288  0.869422  0.544198  1
  H  H60  1  0.564288  0.630577  0.544198  1
  H  H61  1  0.935712  0.369422  0.044198  1
  H  H62  1  0.064288  0.869422  0.955801  1
  H  H63  1  0.435711  0.130577  0.455801  1
  H  H64  1  0.091022  0.907680  0.396859  1
  H  H65  1  0.408977  0.092320  0.896859  1
  H  H66  1  0.591023  0.592320  0.103141  1
  H  H67  1  0.908978  0.407681  0.603142  1
  H  H68  1  0.908978  0.092320  0.603142  1
  H  H69  1  0.591023  0.907680  0.103141  1
  H  H70  1  0.408977  0.407681  0.896859  1
  H  H71  1  0.091022  0.592320  0.396859  1
  H  H72  1  0.378723  0.250000  0.286339  1
  H  H73  1  0.121277  0.750000  0.786339  1
  H  H74  1  0.878723  0.250000  0.213661  1
  H  H75  1  0.621277  0.750000  0.713661  1
  H  H76  1  0.293992  0.250000  0.474251  1
  H  H77  1  0.206009  0.750000  0.974251  1
  H  H78  1  0.793991  0.250000  0.025749  1
  H  H79  1  0.706008  0.750000  0.525749  1
  H  H80  1  0.006574  0.111981  0.361344  1
  H  H81  1  0.493426  0.888020  0.861343  1
  H  H82  1  0.506573  0.388019  0.138656  1
  H  H83  1  0.993427  0.611980  0.638656  1
  H  H84  1  0.993427  0.888020  0.638656  1
  H  H85  1  0.506573  0.111981  0.138656  1
  H  H86  1  0.493426  0.611980  0.861343  1
  H  H87  1  0.006574  0.388019  0.361344  1
