# generated using pymatgen
data_Ba2InBiS5
_symmetry_space_group_name_H-M   'P 1'
_cell_length_a   4.21224682
_cell_length_b   9.55251431
_cell_length_c   12.96383559
_cell_angle_alpha   90.00000000
_cell_angle_beta   90.00000000
_cell_angle_gamma   77.26286465
_symmetry_Int_Tables_number   1
_chemical_formula_structural   Ba2InBiS5
_chemical_formula_sum   'Ba4 In2 Bi2 S10'
_cell_volume   508.79653482
_cell_formula_units_Z   2
loop_
 _symmetry_equiv_pos_site_id
 _symmetry_equiv_pos_as_xyz
  1  'x, y, z'
loop_
 _atom_site_type_symbol
 _atom_site_label
 _atom_site_symmetry_multiplicity
 _atom_site_fract_x
 _atom_site_fract_y
 _atom_site_fract_z
 _atom_site_occupancy
  Ba  Ba0  1  0.129535  0.740929  0.189675  1
  Ba  Ba1  1  0.887241  0.225517  0.315568  1
  Ba  Ba2  1  0.870465  0.259071  0.689676  1
  Ba  Ba3  1  0.112759  0.774482  0.815568  1
  In  In4  1  0.443819  0.112361  0.055702  1
  In  In5  1  0.556181  0.887638  0.555702  1
  Bi  Bi6  1  0.216931  0.566139  0.478097  1
  Bi  Bi7  1  0.783069  0.433861  0.978097  1
  S  S8  1  0.642899  0.714201  0.999682  1
  S  S9  1  0.315894  0.368211  0.130661  1
  S  S10  1  0.503968  0.992065  0.223614  1
  S  S11  1  0.716037  0.567927  0.334805  1
  S  S12  1  0.045335  0.909329  0.448226  1
  S  S13  1  0.357101  0.285798  0.499682  1
  S  S14  1  0.684106  0.631788  0.630661  1
  S  S15  1  0.496032  0.007934  0.723615  1
  S  S16  1  0.283963  0.432073  0.834805  1
  S  S17  1  0.954665  0.090671  0.948226  1
