# generated using pymatgen
data_La2Mg(NiH4)2
_symmetry_space_group_name_H-M   'P 1'
_cell_length_a   11.75604480
_cell_length_b   7.74702399
_cell_length_c   11.92923302
_cell_angle_alpha   90.00000000
_cell_angle_beta   92.83054242
_cell_angle_gamma   90.00000000
_symmetry_Int_Tables_number   1
_chemical_formula_structural   La2Mg(NiH4)2
_chemical_formula_sum   'La16 Mg8 Ni16 H64'
_cell_volume   1085.12176134
_cell_formula_units_Z   8
loop_
 _symmetry_equiv_pos_site_id
 _symmetry_equiv_pos_as_xyz
  1  'x, y, z'
loop_
 _atom_site_type_symbol
 _atom_site_label
 _atom_site_symmetry_multiplicity
 _atom_site_fract_x
 _atom_site_fract_y
 _atom_site_fract_z
 _atom_site_occupancy
  La  La0  1  0.399999  0.173052  0.086806  1
  La  La1  1  0.896798  0.344583  0.111241  1
  La  La2  1  0.338508  0.679575  0.158159  1
  La  La3  1  0.833522  0.837200  0.181930  1
  La  La4  1  0.166478  0.337201  0.318070  1
  La  La5  1  0.661492  0.179575  0.341841  1
  La  La6  1  0.103202  0.844584  0.388758  1
  La  La7  1  0.600002  0.673053  0.413193  1
  La  La8  1  0.399999  0.326947  0.586807  1
  La  La9  1  0.896798  0.155416  0.611242  1
  La  La10  1  0.338508  0.820425  0.658159  1
  La  La11  1  0.833522  0.662799  0.681930  1
  La  La12  1  0.166478  0.162800  0.818070  1
  La  La13  1  0.661492  0.320425  0.841841  1
  La  La14  1  0.103202  0.655417  0.888759  1
  La  La15  1  0.600001  0.826948  0.913194  1
  Mg  Mg16  1  0.102567  0.002923  0.086710  1
  Mg  Mg17  1  0.611749  0.501877  0.118862  1
  Mg  Mg18  1  0.388250  0.001878  0.381138  1
  Mg  Mg19  1  0.897434  0.502922  0.413289  1
  Mg  Mg20  1  0.102566  0.497078  0.586711  1
  Mg  Mg21  1  0.611750  0.998122  0.618862  1
  Mg  Mg22  1  0.388251  0.498123  0.881138  1
  Mg  Mg23  1  0.897434  0.997077  0.913289  1
  Ni  Ni24  1  0.149873  0.351150  0.046253  1
  Ni  Ni25  1  0.676820  0.144404  0.080298  1
  Ni  Ni26  1  0.057221  0.644873  0.149313  1
  Ni  Ni27  1  0.572120  0.869513  0.180879  1
  Ni  Ni28  1  0.427880  0.369514  0.319121  1
  Ni  Ni29  1  0.942779  0.144872  0.350688  1
  Ni  Ni30  1  0.323181  0.644403  0.419703  1
  Ni  Ni31  1  0.850127  0.851150  0.453748  1
  Ni  Ni32  1  0.149873  0.148850  0.546252  1
  Ni  Ni33  1  0.676820  0.355597  0.580297  1
  Ni  Ni34  1  0.057221  0.855128  0.649312  1
  Ni  Ni35  1  0.572120  0.630486  0.680879  1
  Ni  Ni36  1  0.427880  0.130487  0.819121  1
  Ni  Ni37  1  0.942779  0.355127  0.850687  1
  Ni  Ni38  1  0.323180  0.855596  0.919702  1
  Ni  Ni39  1  0.850127  0.648850  0.953747  1
  H  H40  1  0.264791  0.925395  0.032546  1
  H  H41  1  0.592422  0.284710  0.037171  1
  H  H42  1  0.749709  0.628695  0.039777  1
  H  H43  1  0.959195  0.684388  0.043871  1
  H  H44  1  0.430309  0.464863  0.062495  1
  H  H45  1  0.935547  0.043640  0.072522  1
  H  H46  1  0.572751  0.004945  0.077502  1
  H  H47  1  0.157513  0.553350  0.083399  1
  H  H48  1  0.534330  0.722287  0.098479  1
  H  H49  1  0.186987  0.210547  0.132426  1
  H  H50  1  0.770011  0.135731  0.178771  1
  H  H51  1  0.129469  0.807171  0.184220  1
  H  H52  1  0.335557  0.375874  0.220143  1
  H  H53  1  0.453342  0.932491  0.229492  1
  H  H54  1  0.749334  0.515563  0.234033  1
  H  H55  1  0.978172  0.585306  0.246793  1
  H  H56  1  0.021828  0.085307  0.253207  1
  H  H57  1  0.250666  0.015563  0.265967  1
  H  H58  1  0.546658  0.432491  0.270508  1
  H  H59  1  0.664443  0.875875  0.279857  1
  H  H60  1  0.870531  0.307171  0.315779  1
  H  H61  1  0.229989  0.635731  0.321229  1
  H  H62  1  0.813013  0.710548  0.367573  1
  H  H63  1  0.465670  0.222287  0.401520  1
  H  H64  1  0.842486  0.053351  0.416601  1
  H  H65  1  0.427249  0.504946  0.422497  1
  H  H66  1  0.064453  0.543640  0.427478  1
  H  H67  1  0.569691  0.964862  0.437505  1
  H  H68  1  0.040805  0.184388  0.456128  1
  H  H69  1  0.250291  0.128696  0.460224  1
  H  H70  1  0.407578  0.784711  0.462829  1
  H  H71  1  0.735209  0.425396  0.467453  1
  H  H72  1  0.264791  0.574604  0.532547  1
  H  H73  1  0.592422  0.215289  0.537171  1
  H  H74  1  0.749709  0.871304  0.539776  1
  H  H75  1  0.959195  0.815612  0.543872  1
  H  H76  1  0.430309  0.035138  0.562495  1
  H  H77  1  0.935547  0.456360  0.572522  1
  H  H78  1  0.572751  0.495054  0.577502  1
  H  H79  1  0.157514  0.946649  0.583399  1
  H  H80  1  0.534330  0.777713  0.598479  1
  H  H81  1  0.186987  0.289452  0.632427  1
  H  H82  1  0.770011  0.364269  0.678771  1
  H  H83  1  0.129469  0.692829  0.684220  1
  H  H84  1  0.335557  0.124125  0.720143  1
  H  H85  1  0.453342  0.567509  0.729492  1
  H  H86  1  0.749334  0.984437  0.734034  1
  H  H87  1  0.978172  0.914693  0.746793  1
  H  H88  1  0.021828  0.414694  0.753207  1
  H  H89  1  0.250666  0.484437  0.765967  1
  H  H90  1  0.546658  0.067509  0.770508  1
  H  H91  1  0.664443  0.624126  0.779857  1
  H  H92  1  0.870531  0.192829  0.815780  1
  H  H93  1  0.229989  0.864269  0.821229  1
  H  H94  1  0.813013  0.789453  0.867574  1
  H  H95  1  0.465670  0.277713  0.901521  1
  H  H96  1  0.842487  0.446650  0.916601  1
  H  H97  1  0.427249  0.995055  0.922498  1
  H  H98  1  0.064454  0.956360  0.927478  1
  H  H99  1  0.569691  0.535137  0.937505  1
  H  H100  1  0.040805  0.315612  0.956129  1
  H  H101  1  0.250291  0.371305  0.960224  1
  H  H102  1  0.407578  0.715290  0.962829  1
  H  H103  1  0.735209  0.074605  0.967454  1
