# generated using pymatgen
data_ReTeSeCl4
_symmetry_space_group_name_H-M   'P 1'
_cell_length_a   10.49671733
_cell_length_b   10.49671733
_cell_length_c   10.49671733
_cell_angle_alpha   115.75264615
_cell_angle_beta   115.75264615
_cell_angle_gamma   97.52890172
_symmetry_Int_Tables_number   1
_chemical_formula_structural   ReTeSeCl4
_chemical_formula_sum   'Re4 Te4 Se4 Cl16'
_cell_volume   862.22681901
_cell_formula_units_Z   4
loop_
 _symmetry_equiv_pos_site_id
 _symmetry_equiv_pos_as_xyz
  1  'x, y, z'
loop_
 _atom_site_type_symbol
 _atom_site_label
 _atom_site_symmetry_multiplicity
 _atom_site_fract_x
 _atom_site_fract_y
 _atom_site_fract_z
 _atom_site_occupancy
  Re  Re0  1  0.308106  0.459068  0.912847  1
  Re  Re1  1  0.546221  0.395259  0.087152  1
  Re  Re2  1  0.604740  0.691893  0.150962  1
  Re  Re3  1  0.540932  0.453778  0.849037  1
  Te  Te4  1  0.081915  0.571968  0.914965  1
  Te  Te5  1  0.657002  0.166949  0.085034  1
  Te  Te6  1  0.833051  0.918085  0.490053  1
  Te  Te7  1  0.428033  0.342997  0.509947  1
  Se  Se8  1  0.448304  0.576511  0.221109  1
  Se  Se9  1  0.355403  0.227197  0.778893  1
  Se  Se10  1  0.772804  0.551695  0.128206  1
  Se  Se11  1  0.423490  0.644597  0.871793  1
  Cl  Cl12  1  0.146182  0.709384  0.200553  1
  Cl  Cl13  1  0.508831  0.945629  0.799446  1
  Cl  Cl14  1  0.054372  0.853817  0.563202  1
  Cl  Cl15  1  0.290615  0.491170  0.436798  1
  Cl  Cl16  1  0.103126  0.305103  0.910586  1
  Cl  Cl17  1  0.394516  0.192539  0.089414  1
  Cl  Cl18  1  0.807461  0.896874  0.201977  1
  Cl  Cl19  1  0.694896  0.605484  0.798022  1
  Cl  Cl20  1  0.079811  0.361447  0.627728  1
  Cl  Cl21  1  0.733718  0.452083  0.372272  1
  Cl  Cl22  1  0.547917  0.920187  0.281635  1
  Cl  Cl23  1  0.638553  0.266281  0.718363  1
  Cl  Cl24  1  0.123580  0.789582  0.896461  1
  Cl  Cl25  1  0.893121  0.227120  0.103540  1
  Cl  Cl26  1  0.772880  0.876420  0.666001  1
  Cl  Cl27  1  0.210419  0.106879  0.333999  1
