# generated using pymatgen
data_Li6Mn5Fe(BO3)6
_symmetry_space_group_name_H-M   'P 1'
_cell_length_a   8.27575387
_cell_length_b   8.85441184
_cell_length_c   6.36828763
_cell_angle_alpha   68.92368892
_cell_angle_beta   90.00000000
_cell_angle_gamma   62.23912496
_symmetry_Int_Tables_number   1
_chemical_formula_structural   Li6Mn5Fe(BO3)6
_chemical_formula_sum   'Li6 Mn5 Fe1 B6 O18'
_cell_volume   377.30105722
_cell_formula_units_Z   1
loop_
 _symmetry_equiv_pos_site_id
 _symmetry_equiv_pos_as_xyz
  1  'x, y, z'
loop_
 _atom_site_type_symbol
 _atom_site_label
 _atom_site_symmetry_multiplicity
 _atom_site_fract_x
 _atom_site_fract_y
 _atom_site_fract_z
 _atom_site_occupancy
  Li  Li0  1  0.716277  0.982464  0.758378  1
  Li  Li1  1  0.716277  0.982464  0.259157  1
  Li  Li2  1  0.983244  0.301069  0.598838  1
  Li  Li3  1  0.983244  0.301069  0.100094  1
  Li  Li4  1  0.301630  0.716498  0.891183  1
  Li  Li5  1  0.301630  0.716498  0.392319  1
  Mn  Mn6  1  0.628910  0.358903  0.820548  1
  Mn  Mn7  1  0.628413  0.359872  0.320064  1
  Mn  Mn8  1  0.358804  0.012097  0.993951  1
  Mn  Mn9  1  0.011978  0.628557  0.185722  1
  Mn  Mn10  1  0.011766  0.628360  0.685819  1
  Fe  Fe11  1  0.360004  0.008292  0.495853  1
  B  B12  1  0.665712  0.667475  0.418285  1
  B  B13  1  0.665712  0.667475  0.914241  1
  B  B14  1  0.333526  0.331955  0.582884  1
  B  B15  1  0.333526  0.331955  0.085161  1
  B  B16  1  0.999807  0.999964  0.000018  1
  B  B17  1  0.000474  0.001887  0.499057  1
  O  O18  1  0.887711  0.921024  0.539488  1
  O  O19  1  0.884232  0.921910  0.039045  1
  O  O20  1  0.859043  0.581735  0.958900  1
  O  O21  1  0.859043  0.581735  0.459364  1
  O  O22  1  0.922046  0.193613  0.903194  1
  O  O23  1  0.920694  0.195251  0.402375  1
  O  O24  1  0.557749  0.861353  0.323496  1
  O  O25  1  0.557749  0.861353  0.815150  1
  O  O26  1  0.580158  0.559539  0.970087  1
  O  O27  1  0.580158  0.559539  0.470375  1
  O  O28  1  0.527061  0.250414  0.624411  1
  O  O29  1  0.527061  0.250414  0.125174  1
  O  O30  1  0.194879  0.889250  0.555376  1
  O  O31  1  0.193186  0.884211  0.057894  1
  O  O32  1  0.222122  0.526069  0.487458  1
  O  O33  1  0.222122  0.526069  0.986473  1
  O  O34  1  0.252025  0.219832  0.637516  1
  O  O35  1  0.252025  0.219832  0.142652  1
