# generated using pymatgen
data_Li6V(OF)3
_symmetry_space_group_name_H-M   'P 1'
_cell_length_a   5.21866018
_cell_length_b   7.87553531
_cell_length_c   6.64960898
_cell_angle_alpha   90.13008220
_cell_angle_beta   106.58087230
_cell_angle_gamma   88.52284682
_symmetry_Int_Tables_number   1
_chemical_formula_structural   Li6V(OF)3
_chemical_formula_sum   'Li12 V2 O6 F6'
_cell_volume   261.84220973
_cell_formula_units_Z   2
loop_
 _symmetry_equiv_pos_site_id
 _symmetry_equiv_pos_as_xyz
  1  'x, y, z'
loop_
 _atom_site_type_symbol
 _atom_site_label
 _atom_site_symmetry_multiplicity
 _atom_site_fract_x
 _atom_site_fract_y
 _atom_site_fract_z
 _atom_site_occupancy
  Li  Li0  1  0.884450  0.659211  0.086538  1
  Li  Li1  1  0.751027  0.777438  0.663886  1
  Li  Li2  1  0.714222  0.242569  0.173328  1
  Li  Li3  1  0.072165  0.860381  0.454784  1
  Li  Li4  1  0.395398  0.089030  0.802934  1
  Li  Li5  1  0.443132  0.586897  0.323481  1
  Li  Li6  1  0.566060  0.393188  0.677979  1
  Li  Li7  1  0.610742  0.894012  0.195903  1
  Li  Li8  1  0.931936  0.147106  0.543966  1
  Li  Li9  1  0.279566  0.237441  0.348781  1
  Li  Li10  1  0.314771  0.767396  0.833275  1
  Li  Li11  1  0.101369  0.343724  0.908897  1
  V  V12  1  0.968615  0.489613  0.493836  1
  V  V13  1  0.977779  0.989881  0.994209  1
  O  O14  1  0.784207  0.702138  0.367821  1
  O  O15  1  0.967243  0.057679  0.276464  1
  O  O16  1  0.653953  0.354503  0.416160  1
  O  O17  1  0.660633  0.860687  0.920285  1
  O  O18  1  0.061471  0.949537  0.726651  1
  O  O19  1  0.219281  0.309294  0.646674  1
  F  F20  1  0.896772  0.551079  0.787065  1
  F  F21  1  0.233349  0.771974  0.117786  1
  F  F22  1  0.344304  0.149145  0.076067  1
  F  F23  1  0.331871  0.653128  0.573558  1
  F  F24  1  0.763940  0.220758  0.882501  1
  F  F25  1  0.071741  0.442188  0.207174  1
