# generated using pymatgen
data_LiCrP2O7
_symmetry_space_group_name_H-M   'P 1'
_cell_length_a   6.99941522
_cell_length_b   8.44954498
_cell_length_c   9.20830736
_cell_angle_alpha   90.00000000
_cell_angle_beta   112.52407210
_cell_angle_gamma   90.00000000
_symmetry_Int_Tables_number   1
_chemical_formula_structural   LiCrP2O7
_chemical_formula_sum   'Li4 Cr4 P8 O28'
_cell_volume   503.05400261
_cell_formula_units_Z   4
loop_
 _symmetry_equiv_pos_site_id
 _symmetry_equiv_pos_as_xyz
  1  'x, y, z'
loop_
 _atom_site_type_symbol
 _atom_site_label
 _atom_site_symmetry_multiplicity
 _atom_site_fract_x
 _atom_site_fract_y
 _atom_site_fract_z
 _atom_site_occupancy
  Li  Li0  1  0.105274  0.572674  0.904606  1
  Li  Li1  1  0.394726  0.072674  0.595394  1
  Li  Li2  1  0.605274  0.927326  0.404606  1
  Li  Li3  1  0.894726  0.427326  0.095394  1
  Cr  Cr4  1  0.119812  0.933696  0.816358  1
  Cr  Cr5  1  0.380188  0.433696  0.683642  1
  Cr  Cr6  1  0.619812  0.566304  0.316358  1
  Cr  Cr7  1  0.880188  0.066304  0.183642  1
  P  P8  1  0.060592  0.717854  0.533567  1
  P  P9  1  0.439408  0.217854  0.966433  1
  P  P10  1  0.177959  0.734365  0.241866  1
  P  P11  1  0.322041  0.234365  0.258134  1
  P  P12  1  0.677959  0.765635  0.741866  1
  P  P13  1  0.822041  0.265635  0.758134  1
  P  P14  1  0.560592  0.782146  0.033567  1
  P  P15  1  0.939408  0.282146  0.466433  1
  O  O16  1  0.143941  0.580579  0.649648  1
  O  O17  1  0.134936  0.880156  0.614063  1
  O  O18  1  0.323520  0.777008  0.948462  1
  O  O19  1  0.176480  0.277008  0.551538  1
  O  O20  1  0.365064  0.380156  0.885937  1
  O  O21  1  0.161441  0.689886  0.408329  1
  O  O22  1  0.356059  0.080579  0.850352  1
  O  O23  1  0.084496  0.241256  0.208814  1
  O  O24  1  0.079597  0.899179  0.195065  1
  O  O25  1  0.078207  0.607687  0.122991  1
  O  O26  1  0.661441  0.810114  0.908329  1
  O  O27  1  0.421793  0.107687  0.377009  1
  O  O28  1  0.584496  0.258744  0.708814  1
  O  O29  1  0.579597  0.600821  0.695064  1
  O  O30  1  0.420403  0.399179  0.304935  1
  O  O31  1  0.415504  0.741256  0.291186  1
  O  O32  1  0.578207  0.892313  0.622991  1
  O  O33  1  0.338559  0.189886  0.091671  1
  O  O34  1  0.921793  0.392313  0.877009  1
  O  O35  1  0.920403  0.100821  0.804936  1
  O  O36  1  0.915504  0.758744  0.791186  1
  O  O37  1  0.643941  0.919421  0.149648  1
  O  O38  1  0.838559  0.310114  0.591671  1
  O  O39  1  0.634936  0.619844  0.114063  1
  O  O40  1  0.823520  0.722992  0.448462  1
  O  O41  1  0.676480  0.222992  0.051538  1
  O  O42  1  0.865064  0.119844  0.385937  1
  O  O43  1  0.856059  0.419421  0.350352  1
