# generated using pymatgen
data_Li2Ni3P9O28
_symmetry_space_group_name_H-M   'P 1'
_cell_length_a   7.00766910
_cell_length_b   9.08640209
_cell_length_c   9.01063427
_cell_angle_alpha   69.43501685
_cell_angle_beta   99.35786239
_cell_angle_gamma   69.94636210
_symmetry_Int_Tables_number   1
_chemical_formula_structural   Li2Ni3P9O28
_chemical_formula_sum   'Li2 Ni3 P9 O28'
_cell_volume   477.77028534
_cell_formula_units_Z   1
loop_
 _symmetry_equiv_pos_site_id
 _symmetry_equiv_pos_as_xyz
  1  'x, y, z'
loop_
 _atom_site_type_symbol
 _atom_site_label
 _atom_site_symmetry_multiplicity
 _atom_site_fract_x
 _atom_site_fract_y
 _atom_site_fract_z
 _atom_site_occupancy
  Li  Li0  1  0.941326  0.535860  0.960473  1
  Li  Li1  1  0.558674  0.964140  0.039527  1
  Ni  Ni2  1  0.750000  0.750000  0.500000  1
  Ni  Ni3  1  0.494580  0.502745  0.988747  1
  Ni  Ni4  1  0.005420  0.997255  0.011253  1
  P  P5  1  0.550919  0.305011  0.755333  1
  P  P6  1  0.042271  0.815770  0.762051  1
  P  P7  1  0.935337  0.334358  0.699174  1
  P  P8  1  0.420391  0.849742  0.684418  1
  P  P9  1  0.250000  0.250000  0.500000  1
  P  P10  1  0.564663  0.165642  0.300826  1
  P  P11  1  0.079609  0.650258  0.315582  1
  P  P12  1  0.949081  0.194989  0.244667  1
  P  P13  1  0.457729  0.684230  0.237949  1
  O  O14  1  0.660836  0.129564  0.909067  1
  O  O15  1  0.161156  0.633908  0.907924  1
  O  O16  1  0.558014  0.722513  0.864506  1
  O  O17  1  0.065588  0.202915  0.879422  1
  O  O18  1  0.977681  0.965031  0.810920  1
  O  O19  1  0.476306  0.462272  0.789629  1
  O  O20  1  0.892333  0.513671  0.693440  1
  O  O21  1  0.375540  0.040629  0.664528  1
  O  O22  1  0.833033  0.845020  0.648574  1
  O  O23  1  0.353483  0.322726  0.627908  1
  O  O24  1  0.710388  0.324450  0.646414  1
  O  O25  1  0.188945  0.849349  0.646823  1
  O  O26  1  0.485434  0.809710  0.544642  1
  O  O27  1  0.024950  0.294719  0.562296  1
  O  O28  1  0.014566  0.690290  0.455358  1
  O  O29  1  0.475050  0.205281  0.437704  1
  O  O30  1  0.789612  0.175550  0.353586  1
  O  O31  1  0.311055  0.650651  0.353177  1
  O  O32  1  0.666967  0.654980  0.351426  1
  O  O33  1  0.146516  0.177274  0.372092  1
  O  O34  1  0.607667  0.986329  0.306560  1
  O  O35  1  0.124460  0.459371  0.335472  1
  O  O36  1  0.522319  0.534969  0.189080  1
  O  O37  1  0.023694  0.037728  0.210371  1
  O  O38  1  0.941986  0.777487  0.135494  1
  O  O39  1  0.434412  0.297085  0.120578  1
  O  O40  1  0.839164  0.370436  0.090933  1
  O  O41  1  0.338844  0.866092  0.092076  1
