# generated using pymatgen
data_FeO
_symmetry_space_group_name_H-M   'P 1'
_cell_length_a   5.30780222
_cell_length_b   5.30792306
_cell_length_c   10.60446960
_cell_angle_alpha   90.00256202
_cell_angle_beta   90.00461575
_cell_angle_gamma   119.99970588
_symmetry_Int_Tables_number   1
_chemical_formula_structural   FeO
_chemical_formula_sum   'Fe12 O12'
_cell_volume   258.73800071
_cell_formula_units_Z   12
loop_
 _symmetry_equiv_pos_site_id
 _symmetry_equiv_pos_as_xyz
  1  'x, y, z'
loop_
 _atom_site_type_symbol
 _atom_site_label
 _atom_site_symmetry_multiplicity
 _atom_site_fract_x
 _atom_site_fract_y
 _atom_site_fract_z
 _atom_site_occupancy
  Fe  Fe0  1  0.327262  0.993180  0.624811  1
  Fe  Fe1  1  0.327212  0.993095  0.875194  1
  Fe  Fe2  1  0.006894  0.334127  0.624792  1
  Fe  Fe3  1  0.006859  0.334091  0.875188  1
  Fe  Fe4  1  0.665912  0.672803  0.624800  1
  Fe  Fe5  1  0.665915  0.672776  0.875188  1
  Fe  Fe6  1  0.334115  0.006900  0.124780  1
  Fe  Fe7  1  0.334082  0.006846  0.375192  1
  Fe  Fe8  1  0.672792  0.665920  0.124810  1
  Fe  Fe9  1  0.672778  0.665911  0.375216  1
  Fe  Fe10  1  0.993076  0.327187  0.375201  1
  Fe  Fe11  1  0.993147  0.327248  0.124806  1
  O  O12  1  0.988790  0.665010  0.249994  1
  O  O13  1  0.333330  0.666652  0.014470  1
  O  O14  1  0.999982  0.000012  -0.000009  1
  O  O15  1  0.000024  -0.000002  0.500020  1
  O  O16  1  0.333317  0.666652  0.485544  1
  O  O17  1  0.334969  0.323757  0.250028  1
  O  O18  1  0.676201  0.011196  0.249992  1
  O  O19  1  0.323847  0.335055  0.750008  1
  O  O20  1  0.666676  0.333332  0.514473  1
  O  O21  1  0.666670  0.333337  0.985530  1
  O  O22  1  0.011197  0.676240  0.749982  1
  O  O23  1  0.665053  0.988873  0.749989  1
