# generated using pymatgen
data_LiMnPO4
_symmetry_space_group_name_H-M   'P 1'
_cell_length_a   7.81737441
_cell_length_b   13.67815308
_cell_length_c   5.97221001
_cell_angle_alpha   90.00000000
_cell_angle_beta   90.00000000
_cell_angle_gamma   90.00000000
_symmetry_Int_Tables_number   1
_chemical_formula_structural   LiMnPO4
_chemical_formula_sum   'Li8 Mn8 P8 O32'
_cell_volume   638.59195614
_cell_formula_units_Z   8
loop_
 _symmetry_equiv_pos_site_id
 _symmetry_equiv_pos_as_xyz
  1  'x, y, z'
loop_
 _atom_site_type_symbol
 _atom_site_label
 _atom_site_symmetry_multiplicity
 _atom_site_fract_x
 _atom_site_fract_y
 _atom_site_fract_z
 _atom_site_occupancy
  Li  Li0  1  0.194634  0.224105  0.151659  1
  Li  Li1  1  0.194634  0.275895  0.651659  1
  Li  Li2  1  0.305366  0.775895  0.651659  1
  Li  Li3  1  0.305366  0.724105  0.151659  1
  Li  Li4  1  0.694634  0.224105  0.348341  1
  Li  Li5  1  0.694634  0.275895  0.848341  1
  Li  Li6  1  0.805366  0.724105  0.348341  1
  Li  Li7  1  0.805366  0.775895  0.848341  1
  Mn  Mn8  1  0.178916  0.540536  0.397235  1
  Mn  Mn9  1  0.178916  0.959464  0.897235  1
  Mn  Mn10  1  0.321084  0.040536  0.397235  1
  Mn  Mn11  1  0.321084  0.459464  0.897235  1
  Mn  Mn12  1  0.678916  0.540536  0.102765  1
  Mn  Mn13  1  0.678916  0.959464  0.602765  1
  Mn  Mn14  1  0.821084  0.040536  0.102765  1
  Mn  Mn15  1  0.821084  0.459464  0.602765  1
  P  P16  1  0.051061  0.632858  0.900060  1
  P  P17  1  0.051061  0.867142  0.400060  1
  P  P18  1  0.448939  0.132858  0.900060  1
  P  P19  1  0.448939  0.367142  0.400060  1
  P  P20  1  0.551061  0.632858  0.599940  1
  P  P21  1  0.551061  0.867142  0.099940  1
  P  P22  1  0.948939  0.132858  0.599940  1
  P  P23  1  0.948939  0.367142  0.099940  1
  O  O24  1  0.970197  0.063546  0.808648  1
  O  O25  1  0.970197  0.436454  0.308648  1
  O  O26  1  0.110889  0.764910  0.335247  1
  O  O27  1  0.110889  0.735090  0.835247  1
  O  O28  1  0.121625  0.140382  0.473764  1
  O  O29  1  0.121625  0.359618  0.973764  1
  O  O30  1  0.193123  0.584789  0.054308  1
  O  O31  1  0.193123  0.915211  0.554308  1
  O  O32  1  0.306877  0.084789  0.054308  1
  O  O33  1  0.306877  0.415211  0.554308  1
  O  O34  1  0.378375  0.640382  0.473764  1
  O  O35  1  0.378375  0.859618  0.973764  1
  O  O36  1  0.389111  0.235090  0.835247  1
  O  O37  1  0.389111  0.264910  0.335247  1
  O  O38  1  0.529803  0.563546  0.808648  1
  O  O39  1  0.529803  0.936454  0.308648  1
  O  O40  1  0.470197  0.436454  0.191352  1
  O  O41  1  0.470197  0.063546  0.691352  1
  O  O42  1  0.610889  0.735090  0.664753  1
  O  O43  1  0.610889  0.764910  0.164753  1
  O  O44  1  0.621625  0.140382  0.026236  1
  O  O45  1  0.621625  0.359618  0.526236  1
  O  O46  1  0.693123  0.584789  0.445692  1
  O  O47  1  0.693123  0.915211  0.945692  1
  O  O48  1  0.806877  0.084789  0.445692  1
  O  O49  1  0.806877  0.415211  0.945692  1
  O  O50  1  0.878375  0.640382  0.026236  1
  O  O51  1  0.878375  0.859618  0.526236  1
  O  O52  1  0.889111  0.235090  0.664753  1
  O  O53  1  0.889111  0.264910  0.164753  1
  O  O54  1  0.029803  0.563546  0.691352  1
  O  O55  1  0.029803  0.936454  0.191352  1
