# generated using pymatgen
data_LiMnPO4
_symmetry_space_group_name_H-M   'P 1'
_cell_length_a   5.98121055
_cell_length_b   10.29224635
_cell_length_c   10.09728356
_cell_angle_alpha   90.00000000
_cell_angle_beta   93.55540595
_cell_angle_gamma   90.00000000
_symmetry_Int_Tables_number   1
_chemical_formula_structural   LiMnPO4
_chemical_formula_sum   'Li8 Mn8 P8 O32'
_cell_volume   620.39333353
_cell_formula_units_Z   8
loop_
 _symmetry_equiv_pos_site_id
 _symmetry_equiv_pos_as_xyz
  1  'x, y, z'
loop_
 _atom_site_type_symbol
 _atom_site_label
 _atom_site_symmetry_multiplicity
 _atom_site_fract_x
 _atom_site_fract_y
 _atom_site_fract_z
 _atom_site_occupancy
  Li  Li0  1  0.141870  0.101757  0.477793  1
  Li  Li1  1  0.141870  0.398243  0.977793  1
  Li  Li2  1  0.371392  0.592288  0.780074  1
  Li  Li3  1  0.371392  0.907712  0.280074  1
  Li  Li4  1  0.628608  0.092288  0.719926  1
  Li  Li5  1  0.628608  0.407712  0.219926  1
  Li  Li6  1  0.858130  0.601757  0.022207  1
  Li  Li7  1  0.858130  0.898243  0.522207  1
  Mn  Mn8  1  0.121417  0.830824  0.867969  1
  Mn  Mn9  1  0.121417  0.669176  0.367969  1
  Mn  Mn10  1  0.373588  0.354687  0.641454  1
  Mn  Mn11  1  0.373588  0.145313  0.141454  1
  Mn  Mn12  1  0.626412  0.854687  0.858546  1
  Mn  Mn13  1  0.626412  0.645313  0.358546  1
  Mn  Mn14  1  0.878583  0.330824  0.632031  1
  Mn  Mn15  1  0.878583  0.169176  0.132031  1
  P  P16  1  0.129960  0.108121  0.846912  1
  P  P17  1  0.129960  0.391879  0.346912  1
  P  P18  1  0.374814  0.854331  0.597528  1
  P  P19  1  0.374814  0.645669  0.097528  1
  P  P20  1  0.625186  0.354331  0.902472  1
  P  P21  1  0.625186  0.145669  0.402472  1
  P  P22  1  0.870040  0.608121  0.653088  1
  P  P23  1  0.870040  0.891879  0.153088  1
  O  O24  1  0.120275  0.192315  0.977050  1
  O  O25  1  0.080324  0.517402  0.667577  1
  O  O26  1  0.120275  0.307685  0.477050  1
  O  O27  1  0.080324  0.982598  0.167577  1
  O  O28  1  0.138766  0.201533  0.725633  1
  O  O29  1  0.167775  0.939788  0.576943  1
  O  O30  1  0.138766  0.298467  0.225633  1
  O  O31  1  0.167775  0.560212  0.076943  1
  O  O32  1  0.348365  0.765372  0.721683  1
  O  O33  1  0.340848  0.018290  0.863847  1
  O  O34  1  0.348365  0.734628  0.221683  1
  O  O35  1  0.340848  0.481710  0.363847  1
  O  O36  1  0.403636  0.428848  0.866657  1
  O  O37  1  0.401237  0.731303  0.971416  1
  O  O38  1  0.403636  0.071152  0.366657  1
  O  O39  1  0.401237  0.768697  0.471416  1
  O  O40  1  0.598763  0.231303  0.528584  1
  O  O41  1  0.596364  0.928848  0.633343  1
  O  O42  1  0.598763  0.268697  0.028584  1
  O  O43  1  0.596364  0.571152  0.133343  1
  O  O44  1  0.659152  0.518290  0.636153  1
  O  O45  1  0.651635  0.265372  0.778317  1
  O  O46  1  0.659152  0.981710  0.136153  1
  O  O47  1  0.651635  0.234628  0.278317  1
  O  O48  1  0.832225  0.439788  0.923057  1
  O  O49  1  0.861234  0.701533  0.774367  1
  O  O50  1  0.832225  0.060212  0.423057  1
  O  O51  1  0.861234  0.798467  0.274367  1
  O  O52  1  0.919676  0.017402  0.832423  1
  O  O53  1  0.879725  0.692315  0.522950  1
  O  O54  1  0.919676  0.482598  0.332423  1
  O  O55  1  0.879725  0.807685  0.022950  1
