# generated using pymatgen
data_La3ScBeS7
_symmetry_space_group_name_H-M   'P 1'
_cell_length_a   10.24004330
_cell_length_b   10.24002849
_cell_length_c   6.05843100
_cell_angle_alpha   90.00000000
_cell_angle_beta   90.00000000
_cell_angle_gamma   120.00271059
_symmetry_Int_Tables_number   1
_chemical_formula_structural   La3ScBeS7
_chemical_formula_sum   'La6 Sc2 Be2 S14'
_cell_volume   550.15098273
_cell_formula_units_Z   2
loop_
 _symmetry_equiv_pos_site_id
 _symmetry_equiv_pos_as_xyz
  1  'x, y, z'
loop_
 _atom_site_type_symbol
 _atom_site_label
 _atom_site_symmetry_multiplicity
 _atom_site_fract_x
 _atom_site_fract_y
 _atom_site_fract_z
 _atom_site_occupancy
  La  La0  1  0.139479  0.393565  0.247332  1
  La  La1  1  0.860521  0.606435  0.747333  1
  La  La2  1  0.606427  0.745918  0.247308  1
  La  La3  1  0.254081  0.860510  0.247304  1
  La  La4  1  0.745920  0.139491  0.747305  1
  La  La5  1  0.393574  0.254081  0.747309  1
  Sc  Sc6  1  0.000005  0.000002  0.018540  1
  Sc  Sc7  1  0.999994  0.999997  0.518541  1
  Be  Be8  1  0.333326  0.666668  0.658544  1
  Be  Be9  1  0.666676  0.333333  0.158543  1
  S  S10  1  0.333330  0.666669  0.009384  1
  S  S11  1  0.666670  0.333332  0.509385  1
  S  S12  1  0.406389  0.520125  0.529672  1
  S  S13  1  0.593612  0.479876  0.029671  1
  S  S14  1  0.479880  0.886275  0.529653  1
  S  S15  1  0.113719  0.593602  0.529662  1
  S  S16  1  0.886283  0.406399  0.029663  1
  S  S17  1  0.520119  0.113725  0.029654  1
  S  S18  1  0.080752  0.231187  0.771533  1
  S  S19  1  0.919249  0.768813  0.271534  1
  S  S20  1  0.768811  0.849554  0.771534  1
  S  S21  1  0.150436  0.919261  0.771531  1
  S  S22  1  0.849565  0.080739  0.271532  1
  S  S23  1  0.231190  0.150448  0.271535  1
