# generated using pymatgen
data_PrB2HF10
_symmetry_space_group_name_H-M   'P 1'
_cell_length_a   7.14033878
_cell_length_b   5.93216527
_cell_length_c   8.86096705
_cell_angle_alpha   90.00000000
_cell_angle_beta   112.33003499
_cell_angle_gamma   90.00000000
_symmetry_Int_Tables_number   1
_chemical_formula_structural   PrB2HF10
_chemical_formula_sum   'Pr2 B4 H2 F20'
_cell_volume   347.18417949
_cell_formula_units_Z   2
loop_
 _symmetry_equiv_pos_site_id
 _symmetry_equiv_pos_as_xyz
  1  'x, y, z'
loop_
 _atom_site_type_symbol
 _atom_site_label
 _atom_site_symmetry_multiplicity
 _atom_site_fract_x
 _atom_site_fract_y
 _atom_site_fract_z
 _atom_site_occupancy
  Pr  Pr0  1  0.768165  0.250000  0.342127  1
  Pr  Pr1  1  0.231835  0.750000  0.657873  1
  B  B2  1  0.747680  0.750000  0.048864  1
  B  B3  1  0.418255  0.750000  0.306084  1
  B  B4  1  0.581745  0.250000  0.693917  1
  B  B5  1  0.252321  0.250000  0.951136  1
  H  H6  1  0.070654  0.250000  0.149730  1
  H  H7  1  0.929346  0.750000  0.850269  1
  F  F8  1  0.924436  0.750000  0.013178  1
  F  F9  1  0.424387  0.250000  0.098255  1
  F  F10  1  0.335283  0.750000  0.138992  1
  F  F11  1  0.746993  0.555869  0.141912  1
  F  F12  1  0.746993  0.944132  0.141912  1
  F  F13  1  0.064760  0.250000  0.258402  1
  F  F14  1  0.270575  0.750000  0.377607  1
  F  F15  1  0.545291  0.554688  0.365827  1
  F  F16  1  0.545291  0.945311  0.365827  1
  F  F17  1  0.000000  0.000000  0.500000  1
  F  F18  1  0.000000  0.500000  0.500000  1
  F  F19  1  0.454709  0.054688  0.634172  1
  F  F20  1  0.454709  0.445311  0.634172  1
  F  F21  1  0.729424  0.250000  0.622392  1
  F  F22  1  0.935240  0.750000  0.741598  1
  F  F23  1  0.253007  0.055869  0.858088  1
  F  F24  1  0.253007  0.444131  0.858088  1
  F  F25  1  0.664718  0.250000  0.861009  1
  F  F26  1  0.575613  0.750000  0.901744  1
  F  F27  1  0.075564  0.250000  0.986822  1
