# generated using pymatgen
data_Li16Mn15Fe(PO4)16
_symmetry_space_group_name_H-M   'P 1'
_cell_length_a   4.78781132
_cell_length_b   10.56261717
_cell_length_c   24.66398143
_cell_angle_alpha   90.00000000
_cell_angle_beta   90.00000000
_cell_angle_gamma   89.97917077
_symmetry_Int_Tables_number   1
_chemical_formula_structural   Li16Mn15Fe(PO4)16
_chemical_formula_sum   'Li16 Mn15 Fe1 P16 O64'
_cell_volume   1247.30229927
_cell_formula_units_Z   1
loop_
 _symmetry_equiv_pos_site_id
 _symmetry_equiv_pos_as_xyz
  1  'x, y, z'
loop_
 _atom_site_type_symbol
 _atom_site_label
 _atom_site_symmetry_multiplicity
 _atom_site_fract_x
 _atom_site_fract_y
 _atom_site_fract_z
 _atom_site_occupancy
  Li  Li0  1  0.000020  0.999986  0.999979  1
  Li  Li1  1  0.999986  0.000013  0.124987  1
  Li  Li2  1  0.000005  0.000002  0.249992  1
  Li  Li3  1  0.000005  0.000002  0.375008  1
  Li  Li4  1  0.999986  0.000013  0.500013  1
  Li  Li5  1  0.000020  0.999986  0.625021  1
  Li  Li6  1  0.999660  0.000307  0.750085  1
  Li  Li7  1  0.999660  0.000307  0.874915  1
  Li  Li8  1  0.500008  0.500014  0.124991  1
  Li  Li9  1  0.500117  0.499917  0.999907  1
  Li  Li10  1  0.499993  0.499995  0.375006  1
  Li  Li11  1  0.499993  0.499995  0.249994  1
  Li  Li12  1  0.500117  0.499917  0.625093  1
  Li  Li13  1  0.499558  0.499782  0.874807  1
  Li  Li14  1  0.499558  0.499782  0.750193  1
  Li  Li15  1  0.500008  0.500014  0.500009  1
  Mn  Mn16  1  0.027616  0.718855  0.187497  1
  Mn  Mn17  1  0.027616  0.718855  0.437503  1
  Mn  Mn18  1  0.027631  0.718737  0.687605  1
  Mn  Mn19  1  0.027631  0.718737  0.937395  1
  Mn  Mn20  1  0.472379  0.218871  0.437507  1
  Mn  Mn21  1  0.472367  0.219012  0.687775  1
  Mn  Mn22  1  0.472379  0.218871  0.187493  1
  Mn  Mn23  1  0.472367  0.219012  0.937225  1
  Mn  Mn24  1  0.527601  0.781138  0.062491  1
  Mn  Mn25  1  0.527601  0.781138  0.562509  1
  Mn  Mn26  1  0.527511  0.781144  0.312500  1
  Mn  Mn27  1  0.527370  0.780927  0.812500  1
  Mn  Mn28  1  0.972304  0.281165  0.062389  1
  Mn  Mn29  1  0.972304  0.281165  0.562611  1
  Mn  Mn30  1  0.972406  0.281156  0.312500  1
  Fe  Fe31  1  0.974091  0.280594  0.812500  1
  P  P32  1  0.090698  0.591938  0.062489  1
  P  P33  1  0.090698  0.591922  0.312500  1
  P  P34  1  0.090698  0.591938  0.562511  1
  P  P35  1  0.089693  0.591298  0.812500  1
  P  P36  1  0.409249  0.091909  0.062494  1
  P  P37  1  0.409312  0.091938  0.312500  1
  P  P38  1  0.408663  0.093253  0.812500  1
  P  P39  1  0.409249  0.091909  0.562506  1
  P  P40  1  0.590687  0.908092  0.437497  1
  P  P41  1  0.590687  0.908092  0.187503  1
  P  P42  1  0.590580  0.908022  0.687515  1
  P  P43  1  0.590580  0.908022  0.937485  1
  P  P44  1  0.909299  0.408073  0.187500  1
  P  P45  1  0.910250  0.407874  0.688006  1
  P  P46  1  0.909299  0.408073  0.437500  1
  P  P47  1  0.910250  0.407874  0.936994  1
  O  O48  1  0.212433  0.455230  0.062504  1
  O  O49  1  0.212500  0.455276  0.312500  1
  O  O50  1  0.212433  0.455230  0.562496  1
  O  O51  1  0.209792  0.454126  0.812500  1
  O  O52  1  0.223359  0.661156  0.012311  1
  O  O53  1  0.223488  0.661144  0.112684  1
  O  O54  1  0.223495  0.661157  0.262312  1
  O  O55  1  0.223495  0.661157  0.362688  1
  O  O56  1  0.223488  0.661144  0.512316  1
  O  O57  1  0.223359  0.661156  0.612689  1
  O  O58  1  0.223411  0.660653  0.762392  1
  O  O59  1  0.223411  0.660653  0.862608  1
  O  O60  1  0.231557  0.404148  0.937519  1
  O  O61  1  0.230563  0.404029  0.187510  1
  O  O62  1  0.230563  0.404029  0.437490  1
  O  O63  1  0.231557  0.404148  0.687481  1
  O  O64  1  0.269416  0.904069  0.187509  1
  O  O65  1  0.269375  0.904029  0.687491  1
  O  O66  1  0.269375  0.904029  0.937509  1
  O  O67  1  0.269416  0.904069  0.437491  1
  O  O68  1  0.276561  0.161242  0.012292  1
  O  O69  1  0.276458  0.161186  0.112687  1
  O  O70  1  0.276458  0.161186  0.512313  1
  O  O71  1  0.276482  0.161189  0.362691  1
  O  O72  1  0.276482  0.161189  0.262309  1
  O  O73  1  0.276561  0.161242  0.612708  1
  O  O74  1  0.273061  0.162441  0.762443  1
  O  O75  1  0.273061  0.162441  0.862557  1
  O  O76  1  0.287564  0.955339  0.062509  1
  O  O77  1  0.287576  0.955324  0.312500  1
  O  O78  1  0.289025  0.956220  0.812500  1
  O  O79  1  0.287564  0.955339  0.562491  1
  O  O80  1  0.712450  0.044693  0.187511  1
  O  O81  1  0.712450  0.044693  0.437489  1
  O  O82  1  0.712039  0.044801  0.687525  1
  O  O83  1  0.712039  0.044801  0.937475  1
  O  O84  1  0.723476  0.838819  0.137322  1
  O  O85  1  0.723461  0.838827  0.237700  1
  O  O86  1  0.723461  0.838827  0.387300  1
  O  O87  1  0.723533  0.838847  0.637310  1
  O  O88  1  0.723510  0.838814  0.737666  1
  O  O89  1  0.723510  0.838814  0.887334  1
  O  O90  1  0.723533  0.838847  0.987690  1
  O  O91  1  0.723476  0.838819  0.487678  1
  O  O92  1  0.730576  0.095987  0.062514  1
  O  O93  1  0.730550  0.095979  0.312500  1
  O  O94  1  0.730576  0.095987  0.562486  1
  O  O95  1  0.730212  0.097079  0.812500  1
  O  O96  1  0.769432  0.595916  0.062504  1
  O  O97  1  0.769432  0.595916  0.562496  1
  O  O98  1  0.769463  0.595971  0.312500  1
  O  O99  1  0.768662  0.596295  0.812500  1
  O  O100  1  0.776577  0.338813  0.137301  1
  O  O101  1  0.776546  0.338819  0.237690  1
  O  O102  1  0.776546  0.338819  0.387310  1
  O  O103  1  0.776395  0.338449  0.987068  1
  O  O104  1  0.781169  0.338371  0.738704  1
  O  O105  1  0.776395  0.338449  0.637932  1
  O  O106  1  0.781169  0.338371  0.886296  1
  O  O107  1  0.776577  0.338813  0.487699  1
  O  O108  1  0.787472  0.544690  0.187507  1
  O  O109  1  0.787472  0.544690  0.437493  1
  O  O110  1  0.787370  0.544190  0.687765  1
  O  O111  1  0.787370  0.544190  0.937235  1
