# generated using pymatgen
data_VOF2
_symmetry_space_group_name_H-M   'P 1'
_cell_length_a   5.23707128
_cell_length_b   5.42163973
_cell_length_c   12.80873244
_cell_angle_alpha   92.04733069
_cell_angle_beta   91.29079644
_cell_angle_gamma   60.59341839
_symmetry_Int_Tables_number   1
_chemical_formula_structural   VOF2
_chemical_formula_sum   'V6 O6 F12'
_cell_volume   316.61937903
_cell_formula_units_Z   6
loop_
 _symmetry_equiv_pos_site_id
 _symmetry_equiv_pos_as_xyz
  1  'x, y, z'
loop_
 _atom_site_type_symbol
 _atom_site_label
 _atom_site_symmetry_multiplicity
 _atom_site_fract_x
 _atom_site_fract_y
 _atom_site_fract_z
 _atom_site_occupancy
  V  V0  1  0.613199  0.722314  0.669156  1
  V  V1  1  0.696299  0.643207  0.171671  1
  V  V2  1  0.333333  0.333333  0.833333  1
  V  V3  1  0.333333  0.333333  0.333333  1
  V  V4  1  0.970367  0.023460  0.494996  1
  V  V5  1  0.053467  0.944352  0.997511  1
  O  O6  1  0.940478  0.529976  0.270746  1
  O  O7  1  0.726189  0.136690  0.395921  1
  O  O8  1  0.385287  0.802736  0.054181  1
  O  O9  1  0.281379  0.863930  0.612486  1
  O  O10  1  0.578462  0.993940  0.748795  1
  O  O11  1  0.088205  0.672727  0.917872  1
  F  F12  1  0.866114  0.869273  0.110682  1
  F  F13  1  0.800553  0.797394  0.555985  1
  F  F14  1  0.930299  0.326624  0.076700  1
  F  F15  1  0.736367  0.340043  0.589967  1
  F  F16  1  0.543192  0.534281  0.778971  1
  F  F17  1  0.617191  0.185952  0.947931  1
  F  F18  1  0.480508  0.454623  0.214969  1
  F  F19  1  0.258024  0.676902  0.415412  1
  F  F20  1  0.408642  0.989764  0.251255  1
  F  F21  1  0.186158  0.212044  0.451698  1
  F  F22  1  0.049476  0.480715  0.718735  1
  F  F23  1  0.123474  0.132386  0.887696  1
