# generated using pymatgen
data_Li7Fe5OF15
_symmetry_space_group_name_H-M   'P 1'
_cell_length_a   10.37461521
_cell_length_b   9.96243077
_cell_length_c   10.63357134
_cell_angle_alpha   108.39183509
_cell_angle_beta   113.85655708
_cell_angle_gamma   107.58380002
_symmetry_Int_Tables_number   1
_chemical_formula_structural   Li7Fe5OF15
_chemical_formula_sum   'Li14 Fe10 O2 F30'
_cell_volume   828.67492294
_cell_formula_units_Z   2
loop_
 _symmetry_equiv_pos_site_id
 _symmetry_equiv_pos_as_xyz
  1  'x, y, z'
loop_
 _atom_site_type_symbol
 _atom_site_label
 _atom_site_symmetry_multiplicity
 _atom_site_fract_x
 _atom_site_fract_y
 _atom_site_fract_z
 _atom_site_occupancy
  Li  Li0  1  0.896172  0.258543  0.146214  1
  Li  Li1  1  0.960437  0.491586  0.006755  1
  Li  Li2  1  0.487830  0.976588  0.464241  1
  Li  Li3  1  0.472037  0.522635  0.005134  1
  Li  Li4  1  0.043531  0.050380  0.058199  1
  Li  Li5  1  0.739435  0.375508  0.632565  1
  Li  Li6  1  0.513216  0.014787  0.983290  1
  Li  Li7  1  0.642894  0.746790  0.391887  1
  Li  Li8  1  0.547592  0.546883  0.527972  1
  Li  Li9  1  0.245746  0.118675  0.858369  1
  Li  Li10  1  0.004582  0.441338  0.486989  1
  Li  Li11  1  0.143214  0.877237  0.250529  1
  Li  Li12  1  0.362366  0.613731  0.749287  1
  Li  Li13  1  0.979897  0.950989  0.491265  1
  Fe  Fe14  1  0.727451  0.126778  0.370855  1
  Fe  Fe15  1  0.909951  0.625634  0.266901  1
  Fe  Fe16  1  0.399724  0.141764  0.233210  1
  Fe  Fe17  1  0.253296  0.374484  0.108594  1
  Fe  Fe18  1  0.650115  0.292466  0.923536  1
  Fe  Fe19  1  0.408185  0.795654  0.138385  1
  Fe  Fe20  1  0.742028  0.634154  0.872413  1
  Fe  Fe21  1  0.095312  0.356017  0.741640  1
  Fe  Fe22  1  0.615388  0.873082  0.755342  1
  Fe  Fe23  1  0.253330  0.873003  0.619184  1
  O  O24  1  0.862109  0.426294  0.116804  1
  O  O25  1  0.498737  0.016317  0.160665  1
  F  F26  1  0.853233  0.237203  0.298804  1
  F  F27  1  0.948703  0.694807  0.072756  1
  F  F28  1  0.609259  0.504189  0.938309  1
  F  F29  1  0.218644  0.127236  0.019749  1
  F  F30  1  0.559614  0.177541  0.460792  1
  F  F31  1  0.897287  0.375718  0.591955  1
  F  F32  1  0.197786  0.060159  0.237261  1
  F  F33  1  0.463943  0.960552  0.625527  1
  F  F34  1  0.439949  0.593513  0.182786  1
  F  F35  1  0.069701  0.264530  0.122964  1
  F  F36  1  0.437752  0.381358  0.310984  1
  F  F37  1  0.099888  0.440515  0.947640  1
  F  F38  1  0.795230  0.737879  0.335479  1
  F  F39  1  0.690778  0.081123  0.947831  1
  F  F40  1  0.749149  0.368539  0.807208  1
  F  F41  1  0.740082  0.566499  0.672042  1
  F  F42  1  0.439211  0.136543  0.879418  1
  F  F43  1  0.609950  0.761273  0.557821  1
  F  F44  1  0.935354  0.121985  0.545659  1
  F  F45  1  0.613406  0.923079  0.384337  1
  F  F46  1  0.520558  0.622649  0.708182  1
  F  F47  1  0.823668  0.875506  0.921382  1
  F  F48  1  0.176236  0.420319  0.616505  1
  F  F49  1  0.296125  0.812711  0.258746  1
  F  F50  1  0.275959  0.322686  0.892828  1
  F  F51  1  0.373989  0.641914  0.938553  1
  F  F52  1  0.071395  0.631339  0.472709  1
  F  F53  1  0.106391  0.883339  0.410778  1
  F  F54  1  0.394427  0.819434  0.779719  1
  F  F55  1  0.104878  0.934545  0.668166  1
