# generated using pymatgen
data_LiGaGeO4
_symmetry_space_group_name_H-M   'P 1'
_cell_length_a   8.76076171
_cell_length_b   8.76076170
_cell_length_c   8.76076171
_cell_angle_alpha   107.84939187
_cell_angle_beta   107.84939191
_cell_angle_gamma   107.84939196
_symmetry_Int_Tables_number   1
_chemical_formula_structural   LiGaGeO4
_chemical_formula_sum   'Li6 Ga6 Ge6 O24'
_cell_volume   546.48454075
_cell_formula_units_Z   6
loop_
 _symmetry_equiv_pos_site_id
 _symmetry_equiv_pos_as_xyz
  1  'x, y, z'
loop_
 _atom_site_type_symbol
 _atom_site_label
 _atom_site_symmetry_multiplicity
 _atom_site_fract_x
 _atom_site_fract_y
 _atom_site_fract_z
 _atom_site_occupancy
  Li  Li0  1  0.464649  0.233247  0.063765  1
  Li  Li1  1  0.063765  0.464649  0.233247  1
  Li  Li2  1  0.233247  0.063765  0.464649  1
  Li  Li3  1  0.535351  0.766753  0.936235  1
  Li  Li4  1  0.936235  0.535351  0.766753  1
  Li  Li5  1  0.766753  0.936235  0.535351  1
  O  O6  1  0.698945  0.353265  0.667601  1
  O  O7  1  0.321875  0.370484  0.039258  1
  O  O8  1  0.370484  0.039258  0.321875  1
  O  O9  1  0.039258  0.321875  0.370484  1
  O  O10  1  0.678125  0.629516  0.960742  1
  O  O11  1  0.629516  0.960742  0.678125  1
  O  O12  1  0.960742  0.678125  0.629516  1
  O  O13  1  0.667601  0.698945  0.353265  1
  O  O14  1  0.395672  0.742754  0.072549  1
  O  O15  1  0.353265  0.667601  0.698945  1
  O  O16  1  0.332399  0.301055  0.646735  1
  O  O17  1  0.301055  0.646735  0.332399  1
  O  O18  1  0.604328  0.257246  0.927451  1
  O  O19  1  0.927451  0.604328  0.257246  1
  O  O20  1  0.257246  0.927451  0.604328  1
  O  O21  1  0.276762  0.974398  0.957249  1
  O  O22  1  0.072549  0.395672  0.742754  1
  O  O23  1  0.742754  0.072549  0.395672  1
  O  O24  1  0.025602  0.042751  0.723238  1
  O  O25  1  0.957249  0.276762  0.974398  1
  O  O26  1  0.974398  0.957249  0.276762  1
  O  O27  1  0.723238  0.025602  0.042751  1
  O  O28  1  0.042751  0.723238  0.025602  1
  O  O29  1  0.646735  0.332399  0.301055  1
  Ga  Ga30  1  0.791605  0.567837  0.385391  1
  Ga  Ga31  1  0.567837  0.385391  0.791605  1
  Ga  Ga32  1  0.208395  0.432163  0.614609  1
  Ga  Ga33  1  0.614609  0.208395  0.432163  1
  Ga  Ga34  1  0.432163  0.614609  0.208395  1
  Ga  Ga35  1  0.385391  0.791605  0.567837  1
  Ge  Ge36  1  0.724902  0.133373  0.895611  1
  Ge  Ge37  1  0.895611  0.724902  0.133373  1
  Ge  Ge38  1  0.866627  0.104389  0.275098  1
  Ge  Ge39  1  0.275098  0.866627  0.104389  1
  Ge  Ge40  1  0.104389  0.275098  0.866627  1
  Ge  Ge41  1  0.133373  0.895611  0.724902  1
