# generated using pymatgen
data_Li5Mn6(BO3)6
_symmetry_space_group_name_H-M   'P 1'
_cell_length_a   10.48286051
_cell_length_b   8.85557496
_cell_length_c   8.79945325
_cell_angle_alpha   107.65539331
_cell_angle_beta   98.55014222
_cell_angle_gamma   98.92468123
_symmetry_Int_Tables_number   1
_chemical_formula_structural   Li5Mn6(BO3)6
_chemical_formula_sum   'Li10 Mn12 B12 O36'
_cell_volume   752.16367733
_cell_formula_units_Z   2
loop_
 _symmetry_equiv_pos_site_id
 _symmetry_equiv_pos_as_xyz
  1  'x, y, z'
loop_
 _atom_site_type_symbol
 _atom_site_label
 _atom_site_symmetry_multiplicity
 _atom_site_fract_x
 _atom_site_fract_y
 _atom_site_fract_z
 _atom_site_occupancy
  Li  Li0  1  0.185301  0.206985  0.903328  1
  Li  Li1  1  0.199072  0.897726  0.185952  1
  Li  Li2  1  0.482473  0.765428  0.776382  1
  Li  Li3  1  0.446406  0.455987  0.152858  1
  Li  Li4  1  0.451448  0.149867  0.436290  1
  Li  Li5  1  0.692560  0.708232  0.406850  1
  Li  Li6  1  0.733370  0.016148  0.030626  1
  Li  Li7  1  0.942857  0.963808  0.666932  1
  Li  Li8  1  0.961196  0.663473  0.937766  1
  Li  Li9  1  0.973800  0.251226  0.276539  1
  Mn  Mn10  1  0.190396  0.814286  0.799576  1
  Mn  Mn11  1  0.160294  0.510457  0.186955  1
  Mn  Mn12  1  0.162736  0.161823  0.519002  1
  Mn  Mn13  1  0.404799  0.768843  0.418501  1
  Mn  Mn14  1  0.417955  0.409676  0.762116  1
  Mn  Mn15  1  0.432040  0.070993  0.064351  1
  Mn  Mn16  1  0.654694  0.034296  0.663109  1
  Mn  Mn17  1  0.667000  0.651539  0.007443  1
  Mn  Mn18  1  0.682890  0.316443  0.316821  1
  Mn  Mn19  1  0.896191  0.292748  0.918273  1
  Mn  Mn20  1  0.910804  0.897091  0.275604  1
  Mn  Mn21  1  0.926878  0.569954  0.571234  1
  B  B22  1  0.000486  0.004212  -0.000062  1
  B  B23  1  0.128387  0.794588  0.463588  1
  B  B24  1  0.123142  0.461817  0.805159  1
  B  B25  1  0.248676  0.236484  0.239939  1
  B  B26  1  0.366874  0.701480  0.035901  1
  B  B27  1  0.370224  0.040525  0.705977  1
  B  B28  1  0.501851  0.499429  0.490771  1
  B  B29  1  0.626934  0.296939  0.960494  1
  B  B30  1  0.624631  0.951535  0.287160  1
  B  B31  1  0.752689  0.765540  0.752149  1
  B  B32  1  0.873150  0.537601  0.206851  1
  B  B33  1  0.883952  0.209410  0.551445  1
  O  O34  1  0.076596  0.885945  0.983333  1
  O  O35  1  0.066678  0.810055  0.600019  1
  O  O36  1  0.050135  0.458041  0.926453  1
  O  O37  1  0.002237  0.101471  0.901163  1
  O  O38  1  0.109124  0.583648  0.738079  1
  O  O39  1  0.111847  0.895887  0.372935  1
  O  O40  1  0.203386  0.679905  0.427279  1
  O  O41  1  0.199025  0.350487  0.759125  1
  O  O42  1  0.161120  0.269316  0.341506  1
  O  O43  1  0.355190  0.804731  0.940048  1
  O  O44  1  0.297140  0.714070  0.158521  1
  O  O45  1  0.290115  0.035431  0.821709  1
  O  O46  1  0.267307  0.327203  0.135922  1
  O  O47  1  0.455745  0.935869  0.679951  1
  O  O48  1  0.361130  0.148984  0.622600  1
  O  O49  1  0.316107  0.111623  0.236823  1
  O  O50  1  0.442544  0.552506  0.621023  1
  O  O51  1  0.450118  0.595502  0.003797  1
  O  O52  1  0.554406  0.970498  0.411867  1
  O  O53  1  0.513138  0.590177  0.384429  1
  O  O54  1  0.549943  0.359075  0.461046  1
  O  O55  1  0.614853  0.398568  0.872765  1
  O  O56  1  0.672575  0.802768  0.866443  1
  O  O57  1  0.555134  0.292917  0.079682  1
  O  O58  1  0.700386  0.834603  0.256071  1
  O  O59  1  0.716396  0.189935  0.931007  1
  O  O60  1  0.757122  0.847408  0.638869  1
  O  O61  1  0.619172  0.052489  0.193531  1
  O  O62  1  0.829632  0.653850  0.754195  1
  O  O63  1  0.812636  0.553654  0.338494  1
  O  O64  1  0.823489  0.225228  0.684831  1
  O  O65  1  0.871333  0.309186  0.458419  1
  O  O66  1  0.870144  0.641987  0.118267  1
  O  O67  1  0.939607  0.407881  0.160630  1
  O  O68  1  0.954460  0.088897  0.511399  1
  O  O69  1  0.920667  0.026798  0.115123  1
