# generated using pymatgen
data_CoO2
_symmetry_space_group_name_H-M   'P 1'
_cell_length_a   2.83616023
_cell_length_b   2.83802240
_cell_length_c   10.94590664
_cell_angle_alpha   83.36759052
_cell_angle_beta   103.43451985
_cell_angle_gamma   120.23094430
_symmetry_Int_Tables_number   1
_chemical_formula_structural   CoO2
_chemical_formula_sum   'Co2 O4'
_cell_volume   74.03946595
_cell_formula_units_Z   2
loop_
 _symmetry_equiv_pos_site_id
 _symmetry_equiv_pos_as_xyz
  1  'x, y, z'
loop_
 _atom_site_type_symbol
 _atom_site_label
 _atom_site_symmetry_multiplicity
 _atom_site_fract_x
 _atom_site_fract_y
 _atom_site_fract_z
 _atom_site_occupancy
  Co  Co0  1  0.031448  0.990661  0.992104  1
  Co  Co1  1  0.043095  -0.000657  0.496203  1
  O  O2  1  0.282753  0.656865  0.903498  1
  O  O3  1  0.454293  0.667458  0.584503  1
  O  O4  1  0.779648  0.324792  0.080783  1
  O  O5  1  0.630965  0.332378  0.407630  1
