# generated using pymatgen
data_LiSn2(PO4)3
_symmetry_space_group_name_H-M   'P 1'
_cell_length_a   8.75696359
_cell_length_b   12.34847792
_cell_length_c   8.88012639
_cell_angle_alpha   90.00000000
_cell_angle_beta   90.00000000
_cell_angle_gamma   90.00000000
_symmetry_Int_Tables_number   1
_chemical_formula_structural   LiSn2(PO4)3
_chemical_formula_sum   'Li4 Sn8 P12 O48'
_cell_volume   960.25399046
_cell_formula_units_Z   4
loop_
 _symmetry_equiv_pos_site_id
 _symmetry_equiv_pos_as_xyz
  1  'x, y, z'
loop_
 _atom_site_type_symbol
 _atom_site_label
 _atom_site_symmetry_multiplicity
 _atom_site_fract_x
 _atom_site_fract_y
 _atom_site_fract_z
 _atom_site_occupancy
  Li  Li0  1  0.711611  0.322547  0.781005  1
  Li  Li1  1  0.711611  0.677453  0.718995  1
  Li  Li2  1  0.788389  0.177453  0.281005  1
  Li  Li3  1  0.788389  0.822547  0.218995  1
  Sn  Sn4  1  0.250592  0.881948  0.035190  1
  Sn  Sn5  1  0.250592  0.118052  0.464810  1
  Sn  Sn6  1  0.249408  0.381948  0.964810  1
  Sn  Sn7  1  0.249408  0.618052  0.535190  1
  Sn  Sn8  1  0.749464  0.387356  0.459229  1
  Sn  Sn9  1  0.749464  0.612644  0.040771  1
  Sn  Sn10  1  0.750536  0.112644  0.959229  1
  Sn  Sn11  1  0.750536  0.887356  0.540771  1
  P  P12  1  0.041964  0.500000  0.250000  1
  P  P13  1  0.106877  0.147360  0.108542  1
  P  P14  1  0.106877  0.852640  0.391458  1
  P  P15  1  0.393123  0.352640  0.608542  1
  P  P16  1  0.393123  0.647360  0.891458  1
  P  P17  1  0.458036  0.000000  0.750000  1
  P  P18  1  0.540058  0.000000  0.250000  1
  P  P19  1  0.603341  0.349524  0.106367  1
  P  P20  1  0.603341  0.650476  0.393633  1
  P  P21  1  0.896659  0.150476  0.606367  1
  P  P22  1  0.896659  0.849524  0.893633  1
  P  P23  1  0.959942  0.500000  0.750000  1
  O  O24  1  0.052125  0.428330  0.855440  1
  O  O25  1  0.052125  0.571670  0.644560  1
  O  O26  1  0.069778  0.159345  0.603393  1
  O  O27  1  0.069778  0.840655  0.896607  1
  O  O28  1  0.141189  0.423546  0.157075  1
  O  O29  1  0.141189  0.576454  0.342925  1
  O  O30  1  0.149580  0.176848  0.272214  1
  O  O31  1  0.149580  0.823152  0.227786  1
  O  O32  1  0.154615  0.032414  0.065932  1
  O  O33  1  0.154615  0.967586  0.434068  1
  O  O34  1  0.171197  0.226887  0.992113  1
  O  O35  1  0.171197  0.773113  0.507887  1
  O  O36  1  0.328803  0.273113  0.492113  1
  O  O37  1  0.328803  0.726887  0.007887  1
  O  O38  1  0.345385  0.467586  0.565932  1
  O  O39  1  0.345385  0.532414  0.934068  1
  O  O40  1  0.350420  0.676848  0.727786  1
  O  O41  1  0.350420  0.323152  0.772214  1
  O  O42  1  0.358811  0.076454  0.657075  1
  O  O43  1  0.358811  0.923546  0.842925  1
  O  O44  1  0.430222  0.340655  0.103393  1
  O  O45  1  0.430222  0.659345  0.396607  1
  O  O46  1  0.447875  0.071670  0.355440  1
  O  O47  1  0.447875  0.928330  0.144560  1
  O  O48  1  0.556967  0.925912  0.648288  1
  O  O49  1  0.556967  0.074088  0.851712  1
  O  O50  1  0.574020  0.344725  0.605482  1
  O  O51  1  0.574020  0.655275  0.894518  1
  O  O52  1  0.650323  0.078865  0.164840  1
  O  O53  1  0.650323  0.921135  0.335160  1
  O  O54  1  0.662480  0.314165  0.264848  1
  O  O55  1  0.662480  0.685835  0.235152  1
  O  O56  1  0.657719  0.463938  0.066992  1
  O  O57  1  0.657719  0.536062  0.433008  1
  O  O58  1  0.676976  0.273481  0.985591  1
  O  O59  1  0.676976  0.726519  0.514409  1
  O  O60  1  0.823024  0.226519  0.485591  1
  O  O61  1  0.823024  0.773481  0.014409  1
  O  O62  1  0.842281  0.036062  0.566992  1
  O  O63  1  0.842281  0.963938  0.933008  1
  O  O64  1  0.837520  0.185835  0.764849  1
  O  O65  1  0.837520  0.814165  0.735151  1
  O  O66  1  0.849677  0.421135  0.664840  1
  O  O67  1  0.849677  0.578865  0.835160  1
  O  O68  1  0.925980  0.155275  0.105482  1
  O  O69  1  0.925980  0.844725  0.394518  1
  O  O70  1  0.943033  0.425912  0.351712  1
  O  O71  1  0.943033  0.574088  0.148288  1
