# generated using pymatgen
data_Nb16Tl16O53
_symmetry_space_group_name_H-M   'P 1'
_cell_length_a   10.77979676
_cell_length_b   13.20524996
_cell_length_c   10.77979676
_cell_angle_alpha   65.91049181
_cell_angle_beta   90.00000000
_cell_angle_gamma   114.08950819
_symmetry_Int_Tables_number   1
_chemical_formula_structural   Nb16Tl16O53
_chemical_formula_sum   'Nb16 Tl16 O53'
_cell_volume   1253.04694025
_cell_formula_units_Z   1
loop_
 _symmetry_equiv_pos_site_id
 _symmetry_equiv_pos_as_xyz
  1  'x, y, z'
loop_
 _atom_site_type_symbol
 _atom_site_label
 _atom_site_symmetry_multiplicity
 _atom_site_fract_x
 _atom_site_fract_y
 _atom_site_fract_z
 _atom_site_occupancy
  Nb  Nb0  1  0.751285  0.000491  0.750244  1
  Nb  Nb1  1  0.499205  0.000491  0.499265  1
  Nb  Nb2  1  0.250735  0.000491  0.250795  1
  Nb  Nb3  1  0.999756  0.000491  0.998715  1
  Nb  Nb4  1  0.374974  0.248080  0.375026  1
  Nb  Nb5  1  0.123107  0.248080  0.626893  1
  Nb  Nb6  1  0.626867  0.251192  0.123133  1
  Nb  Nb7  1  0.874324  0.251192  0.875676  1
  Nb  Nb8  1  0.250676  0.498808  0.251867  1
  Nb  Nb9  1  0.498133  0.498808  0.499324  1
  Nb  Nb10  1  0.001893  0.501920  -0.000026  1
  Nb  Nb11  1  0.750026  0.501920  0.748107  1
  Nb  Nb12  1  0.125244  0.749509  0.124205  1
  Nb  Nb13  1  0.625795  0.749509  0.624756  1
  Nb  Nb14  1  0.373715  0.749509  0.875735  1
  Nb  Nb15  1  0.874265  0.749509  0.376285  1
  Tl  Tl16  1  0.745210  0.992309  0.252902  1
  Tl  Tl17  1  0.249271  0.999240  0.750031  1
  Tl  Tl18  1  -0.000031  0.999240  0.500729  1
  Tl  Tl19  1  0.497098  0.992309  0.004790  1
  Tl  Tl20  1  0.369229  0.252622  0.877266  1
  Tl  Tl21  1  0.629888  0.252622  0.616606  1
  Tl  Tl22  1  0.133394  0.252622  0.120112  1
  Tl  Tl23  1  0.872734  0.252622  0.380771  1
  Tl  Tl24  1  0.252266  0.497378  0.758394  1
  Tl  Tl25  1  0.755771  0.497378  0.254888  1
  Tl  Tl26  1  0.991606  0.497378  0.497734  1
  Tl  Tl27  1  0.495112  0.497378  0.994229  1
  Tl  Tl28  1  0.379790  0.757691  0.370210  1
  Tl  Tl29  1  0.125031  0.750760  0.624969  1
  Tl  Tl30  1  0.627902  0.757691  0.122098  1
  Tl  Tl31  1  0.875729  0.750760  0.874271  1
  O  O32  1  0.151779  0.053558  0.098221  1
  O  O33  1  0.651779  0.053558  0.598221  1
  O  O34  1  0.938200  0.122837  0.623694  1
  O  O35  1  0.126306  0.122837  0.811800  1
  O  O36  1  0.755189  0.123265  0.811604  1
  O  O37  1  0.940942  0.109553  0.331390  1
  O  O38  1  0.246531  0.122837  0.315362  1
  O  O39  1  0.618074  0.123265  0.315132  1
  O  O40  1  0.938396  0.123265  0.994811  1
  O  O41  1  0.418610  0.109553  0.809058  1
  O  O42  1  0.434638  0.122837  0.503469  1
  O  O43  1  0.434868  0.123265  0.131926  1
  O  O44  1  0.208909  0.167819  0.541091  1
  O  O45  1  0.719081  0.188162  0.030919  1
  O  O46  1  0.029474  0.305402  0.720526  1
  O  O47  1  0.525927  0.305402  0.224073  1
  O  O48  1  0.994302  0.376336  0.935912  1
  O  O49  1  0.312753  0.373664  0.619302  1
  O  O50  1  0.130698  0.373664  0.437247  1
  O  O51  1  0.632034  0.376336  0.937753  1
  O  O52  1  0.310912  0.373664  0.257034  1
  O  O53  1  0.492966  0.373664  0.439088  1
  O  O54  1  0.814088  0.376336  0.755698  1
  O  O55  1  0.812247  0.376336  0.117966  1
  O  O56  1  0.599073  0.444598  0.654474  1
  O  O57  1  0.095526  0.444598  0.150927  1
  O  O58  1  0.916091  0.582181  0.833909  1
  O  O59  1  0.405919  0.561838  0.344081  1
  O  O60  1  0.998694  0.627163  0.059638  1
  O  O61  1  0.506926  0.626735  0.563396  1
  O  O62  1  0.184058  0.640447  0.565942  1
  O  O63  1  0.369811  0.626735  0.059868  1
  O  O64  1  0.690362  0.627163  0.751306  1
  O  O65  1  0.186604  0.626735  0.243074  1
  O  O66  1  0.706390  0.640447  0.043610  1
  O  O67  1  0.690132  0.626735  0.380189  1
  O  O68  1  0.186800  0.627163  0.871531  1
  O  O69  1  0.878469  0.627163  0.563200  1
  O  O70  1  0.973221  0.696442  0.276779  1
  O  O71  1  0.473221  0.696442  0.776779  1
  O  O72  1  0.784035  0.815370  0.468666  1
  O  O73  1  0.281334  0.815370  0.965965  1
  O  O74  1  0.562500  0.875000  0.507185  1
  O  O75  1  0.062500  0.875000  0.980290  1
  O  O76  1  0.769710  0.875000  0.687500  1
  O  O77  1  0.355290  0.875000  0.687500  1
  O  O78  1  0.242815  0.875000  0.187500  1
  O  O79  1  0.562500  0.875000  0.867815  1
  O  O80  1  0.062500  0.875000  0.687500  1
  O  O81  1  0.882185  0.875000  0.187500  1
  O  O82  1  0.062500  0.875000  0.394710  1
  O  O83  1  0.843666  0.934630  0.906334  1
  O  O84  1  0.340965  0.934630  0.409035  1
