# generated using pymatgen
data_Sr2Cu2O3
_symmetry_space_group_name_H-M   'P 1'
_cell_length_a   4.14908798
_cell_length_b   7.69561913
_cell_length_c   11.59089728
_cell_angle_alpha   90.00000000
_cell_angle_beta   90.00000000
_cell_angle_gamma   105.63895884
_symmetry_Int_Tables_number   1
_chemical_formula_structural   Sr2Cu2O3
_chemical_formula_sum   'Sr4 Cu4 O6'
_cell_volume   356.39393417
_cell_formula_units_Z   2
loop_
 _symmetry_equiv_pos_site_id
 _symmetry_equiv_pos_as_xyz
  1  'x, y, z'
loop_
 _atom_site_type_symbol
 _atom_site_label
 _atom_site_symmetry_multiplicity
 _atom_site_fract_x
 _atom_site_fract_y
 _atom_site_fract_z
 _atom_site_occupancy
  Sr  Sr0  1  0.892876  0.785751  0.500000  1
  Sr  Sr1  1  0.392876  0.785751  0.000000  1
  Sr  Sr2  1  0.607124  0.214249  0.000000  1
  Sr  Sr3  1  0.107124  0.214249  0.500000  1
  Cu  Cu4  1  0.999142  0.000000  0.169703  1
  Cu  Cu5  1  0.000858  0.000000  0.830297  1
  Cu  Cu6  1  0.499142  0.000000  0.330297  1
  Cu  Cu7  1  0.500858  0.000000  0.669703  1
  O  O8  1  0.499425  0.000000  0.160890  1
  O  O9  1  0.500575  0.000000  0.839110  1
  O  O10  1  0.999425  0.000000  0.339110  1
  O  O11  1  0.000575  0.000000  0.660890  1
  O  O12  1  0.500000  0.000000  0.500000  1
  O  O13  1  0.000000  0.000000  0.000000  1
