# generated using pymatgen
data_Li9Mn7V12O48
_symmetry_space_group_name_H-M   'P 1'
_cell_length_a   5.02933568
_cell_length_b   10.20009917
_cell_length_c   17.15220118
_cell_angle_alpha   90.02997908
_cell_angle_beta   89.42363832
_cell_angle_gamma   89.95569456
_symmetry_Int_Tables_number   1
_chemical_formula_structural   Li9Mn7V12O48
_chemical_formula_sum   'Li9 Mn7 V12 O48'
_cell_volume   879.85825796
_cell_formula_units_Z   1
loop_
 _symmetry_equiv_pos_site_id
 _symmetry_equiv_pos_as_xyz
  1  'x, y, z'
loop_
 _atom_site_type_symbol
 _atom_site_label
 _atom_site_symmetry_multiplicity
 _atom_site_fract_x
 _atom_site_fract_y
 _atom_site_fract_z
 _atom_site_occupancy
  Li  Li0  1  0.097351  0.250533  0.250667  1
  Li  Li1  1  0.247777  0.417471  0.967690  1
  Li  Li2  1  0.257145  0.579556  0.472060  1
  Li  Li3  1  0.258650  0.920592  0.472469  1
  Li  Li4  1  0.244934  0.255353  0.804203  1
  Li  Li5  1  0.748520  0.753288  0.191765  1
  Li  Li6  1  0.753889  0.918704  0.029376  1
  Li  Li7  1  0.752606  0.252700  0.700906  1
  Li  Li8  1  0.902167  0.750189  0.748525  1
  Mn  Mn9  1  0.203615  0.751438  0.300386  1
  Mn  Mn10  1  0.237851  0.065276  0.974568  1
  Mn  Mn11  1  0.403966  0.749325  0.750531  1
  Mn  Mn12  1  0.597262  0.249659  0.248491  1
  Mn  Mn13  1  0.760016  0.067882  0.527514  1
  Mn  Mn14  1  0.758224  0.432583  0.527333  1
  Mn  Mn15  1  0.763980  0.566583  0.022532  1
  V  V16  1  0.225339  0.747132  0.943570  1
  V  V17  1  0.225296  0.028533  0.655037  1
  V  V18  1  0.224104  0.471527  0.654795  1
  V  V19  1  0.288674  0.524917  0.153094  1
  V  V20  1  0.285747  0.975590  0.157155  1
  V  V21  1  0.287659  0.250273  0.443789  1
  V  V22  1  0.712394  0.750403  0.558998  1
  V  V23  1  0.716442  0.475074  0.841896  1
  V  V24  1  0.713071  0.024748  0.846346  1
  V  V25  1  0.773380  0.527791  0.343487  1
  V  V26  1  0.775446  0.972977  0.343949  1
  V  V27  1  0.772997  0.247503  0.055673  1
  O  O28  1  0.062984  0.233609  0.995230  1
  O  O29  1  0.065935  0.614864  0.368703  1
  O  O30  1  0.066360  0.884227  0.370248  1
  O  O31  1  0.105161  0.626107  0.212772  1
  O  O32  1  0.086638  0.875480  0.216504  1
  O  O33  1  0.079157  0.119061  0.465865  1
  O  O34  1  0.078211  0.380912  0.466004  1
  O  O35  1  0.087047  0.011249  0.073734  1
  O  O36  1  0.069868  0.493445  0.074823  1
  O  O37  1  0.172705  0.747350  0.842736  1
  O  O38  1  0.175666  0.623930  0.703819  1
  O  O39  1  0.173246  0.878122  0.704657  1
  O  O40  1  0.364554  0.122990  0.207722  1
  O  O41  1  0.365084  0.379795  0.203748  1
  O  O42  1  0.368023  0.251466  0.344637  1
  O  O43  1  0.438453  0.498296  0.572736  1
  O  O44  1  0.441519  0.002795  0.573322  1
  O  O45  1  0.400472  0.891452  0.966163  1
  O  O46  1  0.447802  0.624031  0.967582  1
  O  O47  1  0.396621  0.125712  0.712343  1
  O  O48  1  0.406213  0.374040  0.708575  1
  O  O49  1  0.419602  0.111023  0.880317  1
  O  O50  1  0.447946  0.387545  0.870462  1
  O  O51  1  0.449639  0.750119  0.499700  1
  O  O52  1  0.583428  0.250247  0.508685  1
  O  O53  1  0.576023  0.609714  0.120772  1
  O  O54  1  0.556602  0.891126  0.129481  1
  O  O55  1  0.570705  0.626064  0.291609  1
  O  O56  1  0.567765  0.875144  0.294411  1
  O  O57  1  0.554649  0.123675  0.032334  1
  O  O58  1  0.599834  0.392176  0.034073  1
  O  O59  1  0.596959  0.015516  0.429675  1
  O  O60  1  0.595511  0.485252  0.429238  1
  O  O61  1  0.627502  0.751771  0.658311  1
  O  O62  1  0.633999  0.624168  0.792129  1
  O  O63  1  0.633187  0.878905  0.796281  1
  O  O64  1  0.828090  0.122443  0.292381  1
  O  O65  1  0.828573  0.379873  0.291213  1
  O  O66  1  0.824808  0.246973  0.157827  1
  O  O67  1  0.919840  0.512630  0.928321  1
  O  O68  1  0.931752  0.991696  0.927102  1
  O  O69  1  0.908106  0.605871  0.537481  1
  O  O70  1  0.909204  0.894369  0.537286  1
  O  O71  1  0.890944  0.120557  0.788157  1
  O  O72  1  0.917623  0.382247  0.785351  1
  O  O73  1  0.926160  0.112160  0.621700  1
  O  O74  1  0.925189  0.387869  0.621018  1
  O  O75  1  0.936142  0.734332  0.005953  1
