# generated using pymatgen
data_Li3Mn4(BO3)4
_symmetry_space_group_name_H-M   'P 1'
_cell_length_a   6.16147384
_cell_length_b   9.11857445
_cell_length_c   9.69452046
_cell_angle_alpha   100.35102405
_cell_angle_beta   99.79681521
_cell_angle_gamma   72.17157687
_symmetry_Int_Tables_number   1
_chemical_formula_structural   Li3Mn4(BO3)4
_chemical_formula_sum   'Li6 Mn8 B8 O24'
_cell_volume   506.21006793
_cell_formula_units_Z   2
loop_
 _symmetry_equiv_pos_site_id
 _symmetry_equiv_pos_as_xyz
  1  'x, y, z'
loop_
 _atom_site_type_symbol
 _atom_site_label
 _atom_site_symmetry_multiplicity
 _atom_site_fract_x
 _atom_site_fract_y
 _atom_site_fract_z
 _atom_site_occupancy
  Li  Li0  1  0.599284  0.879637  0.906875  1
  Li  Li1  1  0.326301  0.397570  0.662846  1
  Li  Li2  1  0.650716  0.620363  0.343125  1
  Li  Li3  1  0.923699  0.102430  0.587154  1
  Li  Li4  1  0.409050  0.118508  0.089609  1
  Li  Li5  1  0.840950  0.381492  0.160391  1
  Mn  Mn6  1  0.093870  0.314879  0.852392  1
  Mn  Mn7  1  0.400201  0.706711  0.649818  1
  Mn  Mn8  1  0.849799  0.793289  0.600182  1
  Mn  Mn9  1  0.340520  0.795197  0.088577  1
  Mn  Mn10  1  0.659277  0.207660  0.899926  1
  Mn  Mn11  1  0.156130  0.185121  0.397608  1
  Mn  Mn12  1  0.590723  0.292340  0.350074  1
  Mn  Mn13  1  0.909480  0.704803  0.161423  1
  B  B14  1  0.117925  0.973335  0.841537  1
  B  B15  1  0.641635  0.539019  0.902147  1
  B  B16  1  0.132075  0.526665  0.408463  1
  B  B17  1  0.608365  0.960981  0.347853  1
  B  B18  1  0.402656  0.038681  0.654350  1
  B  B19  1  0.847344  0.461319  0.595650  1
  B  B20  1  0.358793  0.464660  0.108772  1
  B  B21  1  0.891207  0.035340  0.141228  1
  O  O22  1  0.270314  0.972050  0.964037  1
  O  O23  1  0.115528  0.836738  0.750889  1
  O  O24  1  0.005425  0.471169  0.710183  1
  O  O25  1  0.552612  0.897740  0.703351  1
  O  O26  1  0.038334  0.894465  0.178876  1
  O  O27  1  0.639326  0.683151  0.986415  1
  O  O28  1  0.134472  0.663262  0.499111  1
  O  O29  1  0.511040  0.528000  0.774833  1
  O  O30  1  0.738960  0.972000  0.475167  1
  O  O31  1  0.783520  0.405392  0.958875  1
  O  O32  1  0.279568  0.387487  0.449049  1
  O  O33  1  0.409788  0.181694  0.734007  1
  O  O34  1  0.610674  0.816849  0.263585  1
  O  O35  1  0.697388  0.602260  0.546649  1
  O  O36  1  0.211666  0.605535  0.071124  1
  O  O37  1  0.244575  0.028831  0.539817  1
  O  O38  1  0.524481  0.467612  0.223497  1
  O  O39  1  0.840212  0.318306  0.515993  1
  O  O40  1  0.344153  0.324552  0.028165  1
  O  O41  1  0.970432  0.112513  0.800951  1
  O  O42  1  0.466480  0.094608  0.291125  1
  O  O43  1  0.979686  0.527950  0.285963  1
  O  O44  1  0.905847  0.175448  0.221835  1
  O  O45  1  0.725519  0.032388  0.026503  1
