# generated using pymatgen
data_Li2Cu(PO3)3
_symmetry_space_group_name_H-M   'P 1'
_cell_length_a   8.52369217
_cell_length_b   8.96752771
_cell_length_c   8.96627354
_cell_angle_alpha   89.99999981
_cell_angle_beta   90.00001224
_cell_angle_gamma   89.99991077
_symmetry_Int_Tables_number   1
_chemical_formula_structural   Li2Cu(PO3)3
_chemical_formula_sum   'Li8 Cu4 P12 O36'
_cell_volume   685.35008080
_cell_formula_units_Z   4
loop_
 _symmetry_equiv_pos_site_id
 _symmetry_equiv_pos_as_xyz
  1  'x, y, z'
loop_
 _atom_site_type_symbol
 _atom_site_label
 _atom_site_symmetry_multiplicity
 _atom_site_fract_x
 _atom_site_fract_y
 _atom_site_fract_z
 _atom_site_occupancy
  Li  Li0  1  0.110815  0.425026  0.911789  1
  Li  Li1  1  0.742258  0.779905  0.798066  1
  Li  Li2  1  0.257750  0.279906  0.701937  1
  Li  Li3  1  0.889184  0.925027  0.588209  1
  Li  Li4  1  0.389185  0.574974  0.411789  1
  Li  Li5  1  0.757744  0.220095  0.298065  1
  Li  Li6  1  0.242256  0.720094  0.201937  1
  Li  Li7  1  0.610816  0.074973  0.088210  1
  Cu  Cu8  1  0.901822  0.145684  0.880608  1
  Cu  Cu9  1  0.098177  0.645684  0.619391  1
  Cu  Cu10  1  0.598173  0.854314  0.380605  1
  Cu  Cu11  1  0.401822  0.354319  0.119394  1
  P  P12  1  0.044707  0.814566  0.948636  1
  P  P13  1  0.281425  0.068700  0.933414  1
  P  P14  1  0.435331  0.557730  0.760703  1
  P  P15  1  0.564669  0.057730  0.739298  1
  P  P16  1  0.718577  0.568698  0.566588  1
  P  P17  1  0.955294  0.314562  0.551362  1
  P  P18  1  0.455293  0.185434  0.448636  1
  P  P19  1  0.218575  0.931299  0.433413  1
  P  P20  1  0.064669  0.442271  0.260702  1
  P  P21  1  0.935331  0.942270  0.239297  1
  P  P22  1  0.781423  0.431301  0.066588  1
  P  P23  1  0.544707  0.685438  0.051362  1
  O  O24  1  0.202746  0.911269  0.977707  1
  O  O25  1  0.881253  0.381835  0.938533  1
  O  O26  1  0.094316  0.659316  0.913441  1
  O  O27  1  0.478298  0.689241  0.879960  1
  O  O28  1  0.158396  0.172079  0.869207  1
  O  O29  1  0.654563  0.124284  0.866639  1
  O  O30  1  0.366861  0.423821  0.838462  1
  O  O31  1  0.928700  0.895842  0.850480  1
  O  O32  1  0.388691  0.015310  0.793433  1
  O  O33  1  0.611309  0.515306  0.706567  1
  O  O34  1  0.071297  0.395832  0.649520  1
  O  O35  1  0.633138  0.923820  0.661539  1
  O  O36  1  0.345437  0.624283  0.633361  1
  O  O37  1  0.841604  0.672077  0.630796  1
  O  O38  1  0.521701  0.189241  0.620038  1
  O  O39  1  0.905680  0.159311  0.586556  1
  O  O40  1  0.118745  0.881832  0.561467  1
  O  O41  1  0.797255  0.411268  0.522293  1
  O  O42  1  0.297254  0.088731  0.477707  1
  O  O43  1  0.618747  0.618165  0.438533  1
  O  O44  1  0.405684  0.340683  0.413441  1
  O  O45  1  0.021702  0.310759  0.379960  1
  O  O46  1  0.341605  0.827920  0.369208  1
  O  O47  1  0.845438  0.875715  0.366640  1
  O  O48  1  0.133139  0.576180  0.338462  1
  O  O49  1  0.571301  0.104159  0.350480  1
  O  O50  1  0.111310  0.984690  0.293432  1
  O  O51  1  0.888690  0.484694  0.206567  1
  O  O52  1  0.428704  0.604167  0.149521  1
  O  O53  1  0.866862  0.076180  0.161539  1
  O  O54  1  0.154563  0.375716  0.133362  1
  O  O55  1  0.658396  0.327923  0.130796  1
  O  O56  1  0.978300  0.810760  0.120038  1
  O  O57  1  0.594321  0.840689  0.086556  1
  O  O58  1  0.381255  0.118168  0.061467  1
  O  O59  1  0.702744  0.588731  0.022293  1
