# generated using pymatgen
data_LiV2P4(HO8)2
_symmetry_space_group_name_H-M   'P 1'
_cell_length_a   9.74663629
_cell_length_b   7.88881063
_cell_length_c   7.73354713
_cell_angle_alpha   90.06094621
_cell_angle_beta   67.03342675
_cell_angle_gamma   89.95332646
_symmetry_Int_Tables_number   1
_chemical_formula_structural   LiV2P4(HO8)2
_chemical_formula_sum   'Li2 V4 P8 H4 O32'
_cell_volume   547.49220363
_cell_formula_units_Z   2
loop_
 _symmetry_equiv_pos_site_id
 _symmetry_equiv_pos_as_xyz
  1  'x, y, z'
loop_
 _atom_site_type_symbol
 _atom_site_label
 _atom_site_symmetry_multiplicity
 _atom_site_fract_x
 _atom_site_fract_y
 _atom_site_fract_z
 _atom_site_occupancy
  Li  Li0  1  0.273346  0.868947  0.849752  1
  Li  Li1  1  0.778133  0.632084  0.352787  1
  V  V2  1  0.245973  0.493531  0.005100  1
  V  V3  1  0.254037  0.003998  0.485431  1
  V  V4  1  0.751127  0.496368  0.991618  1
  V  V5  1  0.748076  0.007474  0.500008  1
  P  P6  1  0.068780  0.845850  0.232149  1
  P  P7  1  0.071054  0.649103  0.731693  1
  P  P8  1  0.431701  0.357052  0.271289  1
  P  P9  1  0.573339  0.854847  0.225486  1
  P  P10  1  0.431166  0.155624  0.762065  1
  P  P11  1  0.567494  0.657525  0.737491  1
  P  P12  1  0.930328  0.348116  0.267275  1
  P  P13  1  0.931852  0.147920  0.765288  1
  H  H14  1  0.008395  0.509632  0.506357  1
  H  H15  1  0.505367  0.500971  0.510209  1
  H  H16  1  0.489479  0.005452  0.987592  1
  H  H17  1  0.988332  0.011437  0.993654  1
  O  O18  1  0.095823  0.944249  0.054137  1
  O  O19  1  0.096855  0.327570  0.136310  1
  O  O20  1  0.142592  0.670911  0.185941  1
  O  O21  1  0.142779  0.944367  0.353547  1
  O  O22  1  0.094785  0.552754  0.551007  1
  O  O23  1  0.099709  0.163361  0.638286  1
  O  O24  1  0.146004  0.826587  0.683879  1
  O  O25  1  0.144237  0.556877  0.850159  1
  O  O26  1  0.352687  0.442614  0.156684  1
  O  O27  1  0.360580  0.173472  0.324439  1
  O  O28  1  0.401430  0.841092  0.358942  1
  O  O29  1  0.411546  0.448243  0.450420  1
  O  O30  1  0.352123  0.051649  0.653721  1
  O  O31  1  0.360323  0.330668  0.816270  1
  O  O32  1  0.590312  0.948485  0.049839  1
  O  O33  1  0.599464  0.337489  0.136862  1
  O  O34  1  0.399797  0.675146  0.860213  1
  O  O35  1  0.402916  0.047575  0.939363  1
  O  O36  1  0.646125  0.674093  0.184240  1
  O  O37  1  0.645507  0.944286  0.347977  1
  O  O38  1  0.595514  0.557755  0.555791  1
  O  O39  1  0.597498  0.174410  0.635911  1
  O  O40  1  0.643800  0.829391  0.683577  1
  O  O41  1  0.641016  0.556962  0.855261  1
  O  O42  1  0.852181  0.448321  0.151440  1
  O  O43  1  0.861046  0.171287  0.314690  1
  O  O44  1  0.901403  0.827984  0.359586  1
  O  O45  1  0.904214  0.456310  0.439191  1
  O  O46  1  0.853335  0.058930  0.652731  1
  O  O47  1  0.860223  0.329096  0.821405  1
  O  O48  1  0.900282  0.662478  0.858432  1
  O  O49  1  0.904079  0.053413  0.948363  1
