# generated using pymatgen
data_Ti3Co2Ni(PO4)6
_symmetry_space_group_name_H-M   'P 1'
_cell_length_a   8.50557441
_cell_length_b   8.50557485
_cell_length_c   8.50557504
_cell_angle_alpha   61.02742366
_cell_angle_beta   61.02742426
_cell_angle_gamma   61.02742322
_symmetry_Int_Tables_number   1
_chemical_formula_structural   Ti3Co2Ni(PO4)6
_chemical_formula_sum   'Ti3 Co2 Ni1 P6 O24'
_cell_volume   445.17456226
_cell_formula_units_Z   1
loop_
 _symmetry_equiv_pos_site_id
 _symmetry_equiv_pos_as_xyz
  1  'x, y, z'
loop_
 _atom_site_type_symbol
 _atom_site_label
 _atom_site_symmetry_multiplicity
 _atom_site_fract_x
 _atom_site_fract_y
 _atom_site_fract_z
 _atom_site_occupancy
  Ti  Ti0  1  0.142364  0.142364  0.142364  1
  Ti  Ti1  1  0.355949  0.355949  0.355949  1
  Ti  Ti2  1  0.644934  0.644934  0.644934  1
  Co  Co3  1  0.996927  0.996927  0.996927  1
  Co  Co4  1  0.499062  0.499062  0.499062  1
  Ni  Ni5  1  0.857661  0.857661  0.857661  1
  P  P6  1  0.045324  0.752567  0.457176  1
  P  P7  1  0.457176  0.045324  0.752567  1
  P  P8  1  0.249670  0.545150  0.954807  1
  P  P9  1  0.545150  0.954807  0.249670  1
  P  P10  1  0.954807  0.249670  0.545150  1
  P  P11  1  0.752567  0.457176  0.045324  1
  O  O12  1  0.114100  0.324734  0.489987  1
  O  O13  1  0.324734  0.489987  0.114100  1
  O  O14  1  0.058119  0.910191  0.256101  1
  O  O15  1  0.489987  0.114100  0.324734  1
  O  O16  1  0.013209  0.815551  0.609234  1
  O  O17  1  0.241770  0.589013  0.432605  1
  O  O18  1  0.256101  0.058119  0.910191  1
  O  O19  1  0.432605  0.241770  0.589013  1
  O  O20  1  0.183657  0.381367  0.002282  1
  O  O21  1  0.589013  0.432605  0.241770  1
  O  O22  1  0.094424  0.739404  0.946394  1
  O  O23  1  0.381367  0.002282  0.183657  1
  O  O24  1  0.609234  0.013209  0.815551  1
  O  O25  1  0.910191  0.256101  0.058119  1
  O  O26  1  0.412798  0.554034  0.759691  1
  O  O27  1  0.815551  0.609234  0.013209  1
  O  O28  1  0.554034  0.759691  0.412798  1
  O  O29  1  0.739404  0.946394  0.094424  1
  O  O30  1  0.759691  0.412798  0.554034  1
  O  O31  1  0.002282  0.183657  0.381367  1
  O  O32  1  0.502579  0.880777  0.686386  1
  O  O33  1  0.946394  0.094424  0.739404  1
  O  O34  1  0.686386  0.502579  0.880777  1
  O  O35  1  0.880777  0.686386  0.502579  1
