# generated using pymatgen
data_Fe3O5F
_symmetry_space_group_name_H-M   'P 1'
_cell_length_a   7.21268441
_cell_length_b   5.52980567
_cell_length_c   5.52665471
_cell_angle_alpha   72.85363908
_cell_angle_beta   71.71061732
_cell_angle_gamma   71.85061046
_symmetry_Int_Tables_number   1
_chemical_formula_structural   Fe3O5F
_chemical_formula_sum   'Fe6 O10 F2'
_cell_volume   194.07938367
_cell_formula_units_Z   2
loop_
 _symmetry_equiv_pos_site_id
 _symmetry_equiv_pos_as_xyz
  1  'x, y, z'
loop_
 _atom_site_type_symbol
 _atom_site_label
 _atom_site_symmetry_multiplicity
 _atom_site_fract_x
 _atom_site_fract_y
 _atom_site_fract_z
 _atom_site_occupancy
  Fe  Fe0  1  0.840363  0.652850  0.668813  1
  Fe  Fe1  1  0.667417  0.357980  0.315742  1
  Fe  Fe2  1  0.329879  0.653349  0.661623  1
  Fe  Fe3  1  0.164108  0.328833  0.333380  1
  Fe  Fe4  1  0.503885  0.006338  0.020914  1
  Fe  Fe5  1  0.991881  0.995247  0.004077  1
  O  O6  1  0.328321  0.359346  0.977505  1
  O  O7  1  0.957747  0.231431  0.229642  1
  O  O8  1  0.627556  0.565475  0.562084  1
  O  O9  1  0.038752  0.764989  0.772344  1
  O  O10  1  0.377451  0.428382  0.425505  1
  O  O11  1  0.700070  0.114424  0.108821  1
  O  O12  1  0.323788  0.973240  0.370693  1
  O  O13  1  0.667915  0.656461  0.016241  1
  O  O14  1  0.008559  0.293300  0.689822  1
  O  O15  1  0.004029  0.686118  0.305703  1
  F  F16  1  0.665697  0.035191  0.637883  1
  F  F17  1  0.302581  0.897046  0.899206  1
