# generated using pymatgen
data_BH6CN3F4
_symmetry_space_group_name_H-M   'P 1'
_cell_length_a   5.22060492
_cell_length_b   5.22060418
_cell_length_c   5.22060334
_cell_angle_alpha   92.42318437
_cell_angle_beta   92.42317915
_cell_angle_gamma   92.42316613
_symmetry_Int_Tables_number   1
_chemical_formula_structural   BH6CN3F4
_chemical_formula_sum   'B1 H6 C1 N3 F4'
_cell_volume   141.89322214
_cell_formula_units_Z   1
loop_
 _symmetry_equiv_pos_site_id
 _symmetry_equiv_pos_as_xyz
  1  'x, y, z'
loop_
 _atom_site_type_symbol
 _atom_site_label
 _atom_site_symmetry_multiplicity
 _atom_site_fract_x
 _atom_site_fract_y
 _atom_site_fract_z
 _atom_site_occupancy
  B  B0  1  0.421930  0.421930  0.421931  1
  H  H1  1  0.748266  0.978631  0.295117  1
  H  H2  1  0.978633  0.748266  0.295117  1
  H  H3  1  0.295116  0.978629  0.748265  1
  H  H4  1  0.978633  0.295115  0.748265  1
  H  H5  1  0.295116  0.748267  0.978630  1
  H  H6  1  0.748266  0.295118  0.978630  1
  C  C7  1  0.008396  0.008396  0.008398  1
  N  N8  1  0.905549  0.905549  0.212836  1
  N  N9  1  0.905549  0.212835  0.905548  1
  N  N10  1  0.212836  0.905548  0.905548  1
  F  F11  1  0.466808  0.466809  0.159119  1
  F  F12  1  0.466807  0.159118  0.466806  1
  F  F13  1  0.159119  0.466809  0.466806  1
  F  F14  1  0.582973  0.582975  0.582973  1
