# generated using pymatgen
data_Mn3(OF2)2
_symmetry_space_group_name_H-M   'P 1'
_cell_length_a   10.87834574
_cell_length_b   6.82950406
_cell_length_c   3.13642533
_cell_angle_alpha   90.00000000
_cell_angle_beta   90.00000000
_cell_angle_gamma   108.31150831
_symmetry_Int_Tables_number   1
_chemical_formula_structural   Mn3(OF2)2
_chemical_formula_sum   'Mn6 O4 F8'
_cell_volume   221.21725605
_cell_formula_units_Z   2
loop_
 _symmetry_equiv_pos_site_id
 _symmetry_equiv_pos_as_xyz
  1  'x, y, z'
loop_
 _atom_site_type_symbol
 _atom_site_label
 _atom_site_symmetry_multiplicity
 _atom_site_fract_x
 _atom_site_fract_y
 _atom_site_fract_z
 _atom_site_occupancy
  Mn  Mn0  1  0.018749  0.009449  0.000000  1
  Mn  Mn1  1  0.325127  0.162529  0.500000  1
  Mn  Mn2  1  0.008238  0.504158  0.500000  1
  Mn  Mn3  1  0.666656  0.333331  0.000000  1
  Mn  Mn4  1  0.314624  0.657223  0.000000  1
  Mn  Mn5  1  0.666741  0.833369  0.500000  1
  O  O6  1  0.136513  0.068409  0.500000  1
  O  O7  1  0.666677  0.023132  0.000000  1
  O  O8  1  0.196865  0.598251  0.500000  1
  O  O9  1  0.666630  0.643519  0.000000  1
  F  F10  1  0.997393  0.303104  0.000000  1
  F  F11  1  0.335922  0.363562  0.000000  1
  F  F12  1  0.997384  0.694380  0.000000  1
  F  F13  1  0.526221  0.263113  0.500000  1
  F  F14  1  0.444687  0.722333  0.500000  1
  F  F15  1  0.807071  0.403550  0.500000  1
  F  F16  1  0.335884  0.972254  0.000000  1
  F  F17  1  0.888617  0.944336  0.500000  1
