# generated using pymatgen
data_Ba3Co(CN)3
_symmetry_space_group_name_H-M   'P 1'
_cell_length_a   9.11984186
_cell_length_b   9.12005888
_cell_length_c   5.82949634
_cell_angle_alpha   90.00000000
_cell_angle_beta   90.00000000
_cell_angle_gamma   119.99612158
_symmetry_Int_Tables_number   1
_chemical_formula_structural   Ba3Co(CN)3
_chemical_formula_sum   'Ba6 Co2 C6 N6'
_cell_volume   419.91712593
_cell_formula_units_Z   2
loop_
 _symmetry_equiv_pos_site_id
 _symmetry_equiv_pos_as_xyz
  1  'x, y, z'
loop_
 _atom_site_type_symbol
 _atom_site_label
 _atom_site_symmetry_multiplicity
 _atom_site_fract_x
 _atom_site_fract_y
 _atom_site_fract_z
 _atom_site_occupancy
  Ba  Ba0  1  0.930236  0.621703  0.750001  1
  Ba  Ba1  1  0.069762  0.378297  0.250000  1
  Ba  Ba2  1  0.378288  0.308563  0.750001  1
  Ba  Ba3  1  0.691417  0.069706  0.750001  1
  Ba  Ba4  1  0.308584  0.930293  0.250000  1
  Ba  Ba5  1  0.621714  0.691439  0.250000  1
  Co  Co6  1  0.333321  0.666667  0.750001  1
  Co  Co7  1  0.666678  0.333332  0.250000  1
  C  C8  1  0.155447  0.458109  0.750001  1
  C  C9  1  0.542103  0.697359  0.750001  1
  C  C10  1  0.457896  0.302642  0.250000  1
  C  C11  1  0.844552  0.541891  0.250000  1
  C  C12  1  0.302653  0.844679  0.750001  1
  C  C13  1  0.697346  0.155320  0.250000  1
  N  N14  1  0.033502  0.310735  0.750001  1
  N  N15  1  0.966497  0.689265  0.250000  1
  N  N16  1  0.722656  0.033582  0.250000  1
  N  N17  1  0.689023  0.722665  0.750001  1
  N  N18  1  0.310976  0.277333  0.250000  1
  N  N19  1  0.277343  0.966419  0.750001  1
