# generated using pymatgen
data_MnOF
_symmetry_space_group_name_H-M   'P 1'
_cell_length_a   4.65220767
_cell_length_b   4.61400570
_cell_length_c   9.53219148
_cell_angle_alpha   90.00000000
_cell_angle_beta   90.91155494
_cell_angle_gamma   90.00000000
_symmetry_Int_Tables_number   1
_chemical_formula_structural   MnOF
_chemical_formula_sum   'Mn6 O6 F6'
_cell_volume   204.58557611
_cell_formula_units_Z   6
loop_
 _symmetry_equiv_pos_site_id
 _symmetry_equiv_pos_as_xyz
  1  'x, y, z'
loop_
 _atom_site_type_symbol
 _atom_site_label
 _atom_site_symmetry_multiplicity
 _atom_site_fract_x
 _atom_site_fract_y
 _atom_site_fract_z
 _atom_site_occupancy
  Mn  Mn0  1  0.967631  0.964226  0.000241  1
  Mn  Mn1  1  0.035083  0.015018  0.331602  1
  Mn  Mn2  1  0.030226  0.014863  0.668805  1
  Mn  Mn3  1  0.464917  0.515018  0.835065  1
  Mn  Mn4  1  0.532369  0.464226  0.166426  1
  Mn  Mn5  1  0.469774  0.514864  0.497862  1
  O  O6  1  0.205118  0.826415  0.494741  1
  O  O7  1  0.167481  0.811394  0.835364  1
  O  O8  1  0.332519  0.311394  0.331303  1
  O  O9  1  0.294882  0.326415  0.671926  1
  O  O10  1  0.678108  0.663923  0.000082  1
  O  O11  1  0.821892  0.163923  0.166585  1
  F  F12  1  0.227051  0.765656  0.166845  1
  F  F13  1  0.272949  0.265656  0.999822  1
  F  F14  1  0.731253  0.711671  0.338139  1
  F  F15  1  0.697066  0.726835  0.657340  1
  F  F16  1  0.802934  0.226835  0.509327  1
  F  F17  1  0.768747  0.211671  0.828528  1
