# generated using pymatgen
data_Li3V3P8O29
_symmetry_space_group_name_H-M   'P 1'
_cell_length_a   9.78238438
_cell_length_b   9.75713114
_cell_length_c   14.19385476
_cell_angle_alpha   90.07890000
_cell_angle_beta   90.14399020
_cell_angle_gamma   60.01219879
_symmetry_Int_Tables_number   1
_chemical_formula_structural   Li3V3P8O29
_chemical_formula_sum   'Li6 V6 P16 O58'
_cell_volume   1173.41017678
_cell_formula_units_Z   2
loop_
 _symmetry_equiv_pos_site_id
 _symmetry_equiv_pos_as_xyz
  1  'x, y, z'
loop_
 _atom_site_type_symbol
 _atom_site_label
 _atom_site_symmetry_multiplicity
 _atom_site_fract_x
 _atom_site_fract_y
 _atom_site_fract_z
 _atom_site_occupancy
  Li  Li0  1  0.905316  0.765649  0.056450  1
  Li  Li1  1  0.904154  0.321116  0.558596  1
  Li  Li2  1  0.325291  0.906599  0.053037  1
  Li  Li3  1  0.312238  0.768709  0.563346  1
  Li  Li4  1  0.225030  0.087488  0.443780  1
  Li  Li5  1  0.969895  0.052893  0.994744  1
  V  V6  1  0.567583  0.435752  0.246653  1
  V  V7  1  0.435324  0.558644  0.755303  1
  V  V8  1  0.569768  0.000113  0.746941  1
  V  V9  1  0.442389  0.996961  0.248950  1
  V  V10  1  0.002195  0.564320  0.251850  1
  V  V11  1  0.002506  0.436623  0.754099  1
  P  P12  1  0.913401  0.777414  0.841224  1
  P  P13  1  0.774576  0.913779  0.345678  1
  P  P14  1  0.912131  0.316136  0.339888  1
  P  P15  1  0.666733  0.667739  0.130344  1
  P  P16  1  0.663826  0.664215  0.631483  1
  P  P17  1  0.779326  0.305525  0.841609  1
  P  P18  1  0.687387  0.227374  0.657885  1
  P  P19  1  0.315506  0.912383  0.840259  1
  P  P20  1  0.695268  0.084044  0.161490  1
  P  P21  1  0.319750  0.769213  0.344781  1
  P  P22  1  0.223260  0.693635  0.161900  1
  P  P23  1  0.336574  0.330977  0.367276  1
  P  P24  1  0.335614  0.328121  0.868995  1
  P  P25  1  0.086552  0.686685  0.658194  1
  P  P26  1  0.228697  0.089919  0.659609  1
  P  P27  1  0.087814  0.221078  0.158174  1
  O  O28  1  0.001328  0.765819  0.571797  1
  O  O29  1  0.914149  0.741384  0.329835  1
  O  O30  1  0.790060  0.995335  0.078119  1
  O  O31  1  0.742319  0.916073  0.828768  1
  O  O32  1  0.910836  0.619068  0.827236  1
  O  O33  1  0.814493  0.674130  0.167598  1
  O  O34  1  0.903148  0.478244  0.320443  1
  O  O35  1  0.009306  0.200000  0.075043  1
  O  O36  1  0.911743  0.348186  0.829043  1
  O  O37  1  0.657311  0.816125  0.677372  1
  O  O38  1  0.620653  0.906018  0.320462  1
  O  O39  1  0.816694  0.516701  0.671155  1
  O  O40  1  0.651409  0.679493  0.026052  1
  O  O41  1  0.656371  0.669725  0.526920  1
  O  O42  1  0.670887  0.518058  0.174952  1
  O  O43  1  0.469967  0.915720  0.827018  1
  O  O44  1  0.512444  0.814574  0.174560  1
  O  O45  1  0.744069  0.341953  0.332645  1
  O  O46  1  0.795560  0.201910  0.749843  1
  O  O47  1  0.768398  0.237733  0.572853  1
  O  O48  1  0.799589  0.212510  0.927297  1
  O  O49  1  0.617268  0.461524  0.831104  1
  O  O50  1  0.517253  0.661474  0.675060  1
  O  O51  1  0.655702  0.258594  0.166070  1
  O  O52  1  0.478696  0.617867  0.320626  1
  O  O53  1  0.339991  0.917839  0.335870  1
  O  O54  1  0.793930  0.005725  0.256241  1
  O  O55  1  0.763296  0.993297  0.435307  1
  O  O56  1  0.239422  0.999541  0.571342  1
  O  O57  1  0.656144  0.086459  0.663584  1
  O  O58  1  0.527307  0.380755  0.677986  1
  O  O59  1  0.348553  0.739704  0.829412  1
  O  O60  1  0.476873  0.339151  0.321399  1
  O  O61  1  0.383111  0.535460  0.171576  1
  O  O62  1  0.214605  0.795488  0.081754  1
  O  O63  1  0.254630  0.761705  0.437227  1
  O  O64  1  0.201696  0.785947  0.260691  1
  O  O65  1  0.259507  0.655538  0.664155  1
  O  O66  1  0.482733  0.184207  0.823865  1
  O  O67  1  0.536285  0.083170  0.173043  1
  O  O68  1  0.331021  0.479948  0.824410  1
  O  O69  1  0.330723  0.332391  0.973030  1
  O  O70  1  0.326431  0.332736  0.471231  1
  O  O71  1  0.183558  0.475838  0.319980  1
  O  O72  1  0.379976  0.098401  0.676472  1
  O  O73  1  0.335826  0.180553  0.325443  1
  O  O74  1  0.084533  0.658340  0.161111  1
  O  O75  1  0.008541  0.790642  0.754006  1
  O  O76  1  0.982340  0.784826  0.933202  1
  O  O77  1  0.091206  0.526831  0.680740  1
  O  O78  1  0.185400  0.329315  0.824181  1
  O  O79  1  0.080039  0.383163  0.171183  1
  O  O80  1  0.263823  0.084608  0.164125  1
  O  O81  1  0.229327  0.983456  0.929629  1
  O  O82  1  0.205685  0.003238  0.749915  1
  O  O83  1  0.081780  0.257905  0.659220  1
  O  O84  1  0.997199  0.246717  0.430720  1
  O  O85  1  0.010538  0.200265  0.255227  1
