# generated using pymatgen
data_LiVPO4
_symmetry_space_group_name_H-M   'P 1'
_cell_length_a   4.98733861
_cell_length_b   8.45395315
_cell_length_c   4.98733890
_cell_angle_alpha   107.15578895
_cell_angle_beta   59.99999543
_cell_angle_gamma   107.15578974
_symmetry_Int_Tables_number   1
_chemical_formula_structural   LiVPO4
_chemical_formula_sum   'Li2 V2 P2 O8'
_cell_volume   171.21892366
_cell_formula_units_Z   2
loop_
 _symmetry_equiv_pos_site_id
 _symmetry_equiv_pos_as_xyz
  1  'x, y, z'
loop_
 _atom_site_type_symbol
 _atom_site_label
 _atom_site_symmetry_multiplicity
 _atom_site_fract_x
 _atom_site_fract_y
 _atom_site_fract_z
 _atom_site_occupancy
  Li  Li0  1  0.005139  0.015415  0.005139  1
  Li  Li1  1  0.570139  0.710419  0.570139  1
  V  V2  1  0.126568  0.379705  0.126568  1
  V  V3  1  0.448940  0.346820  0.448940  1
  P  P4  1  0.710866  0.132599  0.710866  1
  P  P5  1  0.864727  0.594181  0.864727  1
  O  O6  1  0.151608  0.526075  0.556166  1
  O  O7  1  0.019309  0.200624  0.757263  1
  O  O8  1  0.424051  0.200624  0.019309  1
  O  O9  1  0.647883  0.943649  0.647883  1
  O  O10  1  0.818301  0.526075  0.151608  1
  O  O11  1  0.556166  0.526075  0.818301  1
  O  O12  1  0.757263  0.200624  0.424051  1
  O  O13  1  0.927568  0.782703  0.927568  1
