# generated using pymatgen
data_PaI3
_symmetry_space_group_name_H-M   'P 1'
_cell_length_a   11.43289982
_cell_length_b   11.43613922
_cell_length_c   3.99691189
_cell_angle_alpha   89.96016737
_cell_angle_beta   90.06112856
_cell_angle_gamma   119.97825925
_symmetry_Int_Tables_number   1
_chemical_formula_structural   PaI3
_chemical_formula_sum   'Pa2 I6'
_cell_volume   452.67434726
_cell_formula_units_Z   2
loop_
 _symmetry_equiv_pos_site_id
 _symmetry_equiv_pos_as_xyz
  1  'x, y, z'
loop_
 _atom_site_type_symbol
 _atom_site_label
 _atom_site_symmetry_multiplicity
 _atom_site_fract_x
 _atom_site_fract_y
 _atom_site_fract_z
 _atom_site_occupancy
  Pa  Pa0  1  0.666700  0.333341  0.250000  1
  Pa  Pa1  1  0.333289  0.666658  0.749985  1
  I  I2  1  0.788883  0.211568  0.750508  1
  I  I3  1  0.422652  0.211124  0.749652  1
  I  I4  1  0.788446  0.577299  0.749876  1
  I  I5  1  0.211245  0.788657  0.249489  1
  I  I6  1  0.577458  0.788753  0.250348  1
  I  I7  1  0.211327  0.422597  0.250146  1
