# generated using pymatgen
data_Ca3Sn2S7
_symmetry_space_group_name_H-M   'P 1'
_cell_length_a   6.61350946
_cell_length_b   10.52193720
_cell_length_c   17.48677625
_cell_angle_alpha   97.77032636
_cell_angle_beta   90.00000000
_cell_angle_gamma   90.00000000
_symmetry_Int_Tables_number   1
_chemical_formula_structural   Ca3Sn2S7
_chemical_formula_sum   'Ca12 Sn8 S28'
_cell_volume   1205.67796313
_cell_formula_units_Z   4
loop_
 _symmetry_equiv_pos_site_id
 _symmetry_equiv_pos_as_xyz
  1  'x, y, z'
loop_
 _atom_site_type_symbol
 _atom_site_label
 _atom_site_symmetry_multiplicity
 _atom_site_fract_x
 _atom_site_fract_y
 _atom_site_fract_z
 _atom_site_occupancy
  Ca  Ca0  1  0.775228  0.960015  0.121519  1
  Ca  Ca1  1  0.275228  0.039985  0.378481  1
  Ca  Ca2  1  0.224772  0.039985  0.878481  1
  Ca  Ca3  1  0.724772  0.960015  0.621519  1
  Ca  Ca4  1  0.715712  0.508532  0.117576  1
  Ca  Ca5  1  0.215712  0.491468  0.382424  1
  Ca  Ca6  1  0.284288  0.491468  0.882424  1
  Ca  Ca7  1  0.784288  0.508532  0.617576  1
  Ca  Ca8  1  0.732714  0.747807  0.829049  1
  Ca  Ca9  1  0.232714  0.252193  0.670951  1
  Ca  Ca10  1  0.267286  0.252193  0.170951  1
  Ca  Ca11  1  0.767286  0.747807  0.329049  1
  Sn  Sn12  1  0.798992  0.208610  0.501383  1
  Sn  Sn13  1  0.298992  0.791390  0.998617  1
  Sn  Sn14  1  0.201008  0.791390  0.498617  1
  Sn  Sn15  1  0.701008  0.208610  0.001383  1
  Sn  Sn16  1  0.701576  0.272566  0.298023  1
  Sn  Sn17  1  0.201576  0.727434  0.201977  1
  Sn  Sn18  1  0.298424  0.727434  0.701977  1
  Sn  Sn19  1  0.798424  0.272566  0.798023  1
  S  S20  1  0.520664  0.450611  0.257040  1
  S  S21  1  0.020664  0.549389  0.242960  1
  S  S22  1  0.479336  0.549389  0.742960  1
  S  S23  1  0.979336  0.450611  0.757040  1
  S  S24  1  0.516151  0.082348  0.248430  1
  S  S25  1  0.016151  0.917652  0.251570  1
  S  S26  1  0.483849  0.917652  0.751570  1
  S  S27  1  0.983849  0.082348  0.748430  1
  S  S28  1  0.059371  0.252663  0.319221  1
  S  S29  1  0.559371  0.747337  0.180779  1
  S  S30  1  0.940629  0.747337  0.680779  1
  S  S31  1  0.440629  0.252663  0.819221  1
  S  S32  1  0.552585  0.322632  0.430374  1
  S  S33  1  0.052585  0.677368  0.069626  1
  S  S34  1  0.447415  0.677368  0.569626  1
  S  S35  1  0.947415  0.322632  0.930374  1
  S  S36  1  0.082345  0.349300  0.532986  1
  S  S37  1  0.582345  0.650700  0.967014  1
  S  S38  1  0.917655  0.650700  0.467014  1
  S  S39  1  0.417655  0.349300  0.032986  1
  S  S40  1  0.763520  0.987439  0.452491  1
  S  S41  1  0.263520  0.012561  0.047509  1
  S  S42  1  0.236480  0.012561  0.547509  1
  S  S43  1  0.736480  0.987439  0.952491  1
  S  S44  1  0.641022  0.234068  0.628668  1
  S  S45  1  0.141022  0.765932  0.871332  1
  S  S46  1  0.358978  0.765932  0.371332  1
  S  S47  1  0.858978  0.234068  0.128668  1
