# generated using pymatgen
data_Li5Fe8(BO3)8
_symmetry_space_group_name_H-M   'P 1'
_cell_length_a   5.27140320
_cell_length_b   9.07381079
_cell_length_c   11.39241733
_cell_angle_alpha   113.62364145
_cell_angle_beta   78.07717203
_cell_angle_gamma   89.58586058
_symmetry_Int_Tables_number   1
_chemical_formula_structural   Li5Fe8(BO3)8
_chemical_formula_sum   'Li5 Fe8 B8 O24'
_cell_volume   486.01375920
_cell_formula_units_Z   1
loop_
 _symmetry_equiv_pos_site_id
 _symmetry_equiv_pos_as_xyz
  1  'x, y, z'
loop_
 _atom_site_type_symbol
 _atom_site_label
 _atom_site_symmetry_multiplicity
 _atom_site_fract_x
 _atom_site_fract_y
 _atom_site_fract_z
 _atom_site_occupancy
  Li  Li0  1  0.352868  0.281056  0.586617  1
  Li  Li1  1  0.609577  0.046460  0.092280  1
  Li  Li2  1  0.917432  0.427345  0.839085  1
  Li  Li3  1  0.687902  0.654102  0.332251  1
  Li  Li4  1  0.418638  0.934857  0.840455  1
  Fe  Fe5  1  0.395946  0.282248  0.874871  1
  Fe  Fe6  1  0.101323  0.232992  0.124902  1
  Fe  Fe7  1  0.840349  0.137216  0.620148  1
  Fe  Fe8  1  0.659237  0.335346  0.370881  1
  Fe  Fe9  1  0.347181  0.645193  0.618947  1
  Fe  Fe10  1  0.158018  0.857097  0.365639  1
  Fe  Fe11  1  0.906009  0.776058  0.868373  1
  Fe  Fe12  1  0.601465  0.715276  0.115135  1
  B  B13  1  0.639306  0.010465  0.374846  1
  B  B14  1  0.890988  0.109868  0.878457  1
  B  B15  1  0.156331  0.526353  0.368978  1
  B  B16  1  0.404041  0.602832  0.864629  1
  B  B17  1  0.856062  0.477754  0.624020  1
  B  B18  1  0.603425  0.384659  0.125638  1
  B  B19  1  0.343996  0.980298  0.621597  1
  B  B20  1  0.096117  0.903962  0.124777  1
  O  O21  1  0.129478  0.127068  0.917780  1
  O  O22  1  0.447045  0.128567  0.662322  1
  O  O23  1  0.233180  0.031478  0.115640  1
  O  O24  1  0.501757  0.146353  0.387985  1
  O  O25  1  0.877309  0.021004  0.409385  1
  O  O26  1  0.801544  0.218390  0.835159  1
  O  O27  1  0.259274  0.478750  0.863323  1
  O  O28  1  0.051391  0.378237  0.323512  1
  O  O29  1  0.718314  0.266198  0.156472  1
  O  O30  1  0.614387  0.468753  0.587322  1
  O  O31  1  0.971801  0.350855  0.635810  1
  O  O32  1  0.378176  0.349038  0.079106  1
  O  O33  1  0.641317  0.618057  0.903351  1
  O  O34  1  0.387457  0.540122  0.416737  1
  O  O35  1  0.314026  0.718744  0.824124  1
  O  O36  1  0.976099  0.621223  0.652176  1
  O  O37  1  0.709792  0.524059  0.142597  1
  O  O38  1  0.206539  0.803097  0.169530  1
  O  O39  1  0.139977  0.960878  0.560000  1
  O  O40  1  0.441321  0.856651  0.646620  1
  O  O41  1  0.035038  0.658057  0.365422  1
  O  O42  1  0.745009  0.987207  0.888372  1
  O  O43  1  0.542089  0.858016  0.333889  1
  O  O44  1  0.862014  0.877932  0.084884  1
