# generated using pymatgen
data_Li4V3P8O29
_symmetry_space_group_name_H-M   'P 1'
_cell_length_a   9.78349543
_cell_length_b   9.71213722
_cell_length_c   14.37083607
_cell_angle_alpha   89.99437952
_cell_angle_beta   91.25650837
_cell_angle_gamma   60.24418895
_symmetry_Int_Tables_number   1
_chemical_formula_structural   Li4V3P8O29
_chemical_formula_sum   'Li8 V6 P16 O58'
_cell_volume   1185.07462090
_cell_formula_units_Z   2
loop_
 _symmetry_equiv_pos_site_id
 _symmetry_equiv_pos_as_xyz
  1  'x, y, z'
loop_
 _atom_site_type_symbol
 _atom_site_label
 _atom_site_symmetry_multiplicity
 _atom_site_fract_x
 _atom_site_fract_y
 _atom_site_fract_z
 _atom_site_occupancy
  Li  Li0  1  0.908661  0.775157  0.059835  1
  Li  Li1  1  0.908594  0.316233  0.559790  1
  Li  Li2  1  0.340184  0.900535  0.061308  1
  Li  Li3  1  0.668254  0.227434  0.439458  1
  Li  Li4  1  0.340102  0.759203  0.561372  1
  Li  Li5  1  0.668233  0.104215  0.939436  1
  Li  Li6  1  0.015161  0.049450  0.987092  1
  Li  Li7  1  0.015312  0.935676  0.487093  1
  V  V8  1  0.566980  0.436296  0.243728  1
  V  V9  1  0.432564  0.563626  0.757133  1
  V  V10  1  0.566871  0.996746  0.743714  1
  V  V11  1  0.432537  0.003842  0.257117  1
  V  V12  1  0.000643  0.560835  0.248003  1
  V  V13  1  0.000610  0.438581  0.748028  1
  P  P14  1  0.914456  0.776887  0.844706  1
  P  P15  1  0.786440  0.913105  0.333811  1
  P  P16  1  0.914609  0.308543  0.344781  1
  P  P17  1  0.658677  0.676924  0.132756  1
  P  P18  1  0.658655  0.664504  0.632795  1
  P  P19  1  0.786405  0.300529  0.833826  1
  P  P20  1  0.676905  0.231154  0.655088  1
  P  P21  1  0.317378  0.914078  0.846233  1
  P  P22  1  0.676971  0.091870  0.155065  1
  P  P23  1  0.317363  0.768496  0.346220  1
  P  P24  1  0.216393  0.700353  0.164730  1
  P  P25  1  0.341187  0.335206  0.363990  1
  P  P26  1  0.341205  0.323564  0.863959  1
  P  P27  1  0.080445  0.704099  0.664998  1
  P  P28  1  0.216347  0.083326  0.664741  1
  P  P29  1  0.080441  0.215482  0.165055  1
  O  O30  1  0.996088  0.808180  0.584205  1
  O  O31  1  0.917035  0.738931  0.328688  1
  O  O32  1  0.750183  0.013285  0.065348  1
  O  O33  1  0.742212  0.921824  0.830732  1
  O  O34  1  0.911844  0.623020  0.827958  1
  O  O35  1  0.811664  0.676375  0.164250  1
  O  O36  1  0.912017  0.465126  0.328031  1
  O  O37  1  0.995941  0.195950  0.084227  1
  O  O38  1  0.916983  0.343957  0.828743  1
  O  O39  1  0.664757  0.810227  0.679608  1
  O  O40  1  0.622609  0.923003  0.328686  1
  O  O41  1  0.811554  0.512086  0.664309  1
  O  O42  1  0.629066  0.688578  0.030403  1
  O  O43  1  0.629081  0.682355  0.530462  1
  O  O44  1  0.664778  0.524904  0.179682  1
  O  O45  1  0.471533  0.916524  0.829502  1
  O  O46  1  0.514849  0.819967  0.180756  1
  O  O47  1  0.742202  0.335928  0.330785  1
  O  O48  1  0.799810  0.206333  0.738194  1
  O  O49  1  0.750143  0.236533  0.565417  1
  O  O50  1  0.808696  0.191827  0.913472  1
  O  O51  1  0.622679  0.454326  0.828737  1
  O  O52  1  0.514868  0.665233  0.680773  1
  O  O53  1  0.650904  0.262899  0.160990  1
  O  O54  1  0.471628  0.611828  0.329522  1
  O  O55  1  0.348799  0.910002  0.332676  1
  O  O56  1  0.799877  0.993795  0.238134  1
  O  O57  1  0.808757  0.999368  0.413445  1
  O  O58  1  0.208173  0.984440  0.588414  1
  O  O59  1  0.650840  0.086323  0.661010  1
  O  O60  1  0.522347  0.384500  0.675434  1
  O  O61  1  0.348789  0.741263  0.832754  1
  O  O62  1  0.490598  0.325333  0.316344  1
  O  O63  1  0.378068  0.542401  0.173791  1
  O  O64  1  0.208194  0.807332  0.088379  1
  O  O65  1  0.241296  0.780859  0.437163  1
  O  O66  1  0.195376  0.787369  0.264123  1
  O  O67  1  0.258262  0.659080  0.667482  1
  O  O68  1  0.490429  0.184150  0.816315  1
  O  O69  1  0.522314  0.093145  0.175392  1
  O  O70  1  0.335193  0.480613  0.824137  1
  O  O71  1  0.366139  0.307658  0.966423  1
  O  O72  1  0.366003  0.326121  0.466476  1
  O  O73  1  0.194605  0.477889  0.320892  1
  O  O74  1  0.377904  0.079540  0.673756  1
  O  O75  1  0.335225  0.184042  0.324085  1
  O  O76  1  0.080991  0.662094  0.159319  1
  O  O77  1  0.013596  0.796207  0.762037  1
  O  O78  1  0.979338  0.791356  0.936714  1
  O  O79  1  0.072497  0.548336  0.672916  1
  O  O80  1  0.194617  0.327541  0.820941  1
  O  O81  1  0.072544  0.379259  0.172971  1
  O  O82  1  0.258292  0.082628  0.167446  1
  O  O83  1  0.241310  0.977901  0.937144  1
  O  O84  1  0.195348  0.017223  0.764133  1
  O  O85  1  0.080997  0.256877  0.659339  1
  O  O86  1  0.979401  0.229178  0.436764  1
  O  O87  1  0.013676  0.190176  0.262096  1
