# generated using pymatgen
data_Li2VOF3
_symmetry_space_group_name_H-M   'P 1'
_cell_length_a   7.88712104
_cell_length_b   7.47607128
_cell_length_c   5.48786583
_cell_angle_alpha   42.73539859
_cell_angle_beta   69.90898801
_cell_angle_gamma   100.66577300
_symmetry_Int_Tables_number   1
_chemical_formula_structural   Li2VOF3
_chemical_formula_sum   'Li4 V2 O2 F6'
_cell_volume   149.99619626
_cell_formula_units_Z   2
loop_
 _symmetry_equiv_pos_site_id
 _symmetry_equiv_pos_as_xyz
  1  'x, y, z'
loop_
 _atom_site_type_symbol
 _atom_site_label
 _atom_site_symmetry_multiplicity
 _atom_site_fract_x
 _atom_site_fract_y
 _atom_site_fract_z
 _atom_site_occupancy
  Li  Li0  1  0.411403  0.419501  0.713517  1
  Li  Li1  1  0.695672  0.168628  0.907620  1
  Li  Li2  1  0.405887  0.880029  0.761401  1
  Li  Li3  1  0.690877  0.695769  0.871706  1
  V  V4  1  0.991235  0.007424  0.980041  1
  V  V5  1  0.991171  0.453590  0.034970  1
  O  O6  1  0.869887  0.067892  0.704363  1
  O  O7  1  0.874328  0.154490  0.114977  1
  F  F8  1  0.358804  0.700328  0.616251  1
  F  F9  1  0.650364  0.480606  0.730295  1
  F  F10  1  0.108039  0.791621  0.946655  1
  F  F11  1  0.111589  0.905529  0.329261  1
  F  F12  1  0.358344  0.496102  0.317442  1
  F  F13  1  0.651216  0.301360  0.405727  1
