# generated using pymatgen
data_Ba2YC2(O2F)3
_symmetry_space_group_name_H-M   'P 1'
_cell_length_a   7.08692235
_cell_length_b   9.60169047
_cell_length_c   11.91070339
_cell_angle_alpha   90.00000000
_cell_angle_beta   90.00000000
_cell_angle_gamma   90.00000000
_symmetry_Int_Tables_number   1
_chemical_formula_structural   Ba2YC2(O2F)3
_chemical_formula_sum   'Ba8 Y4 C8 O24 F12'
_cell_volume   810.48090153
_cell_formula_units_Z   4
loop_
 _symmetry_equiv_pos_site_id
 _symmetry_equiv_pos_as_xyz
  1  'x, y, z'
loop_
 _atom_site_type_symbol
 _atom_site_label
 _atom_site_symmetry_multiplicity
 _atom_site_fract_x
 _atom_site_fract_y
 _atom_site_fract_z
 _atom_site_occupancy
  C  C0  1  0.520532  0.305907  0.820176  1
  C  C1  1  0.520532  0.694093  0.679824  1
  C  C2  1  0.979468  0.805907  0.179824  1
  C  C3  1  0.979468  0.194093  0.320176  1
  C  C4  1  0.479468  0.694093  0.179824  1
  C  C5  1  0.479468  0.305907  0.320176  1
  C  C6  1  0.020532  0.194093  0.820176  1
  C  C7  1  0.020532  0.805907  0.679824  1
  O  O8  1  0.620057  0.202538  0.853684  1
  O  O9  1  0.620057  0.797462  0.646316  1
  O  O10  1  0.879943  0.702538  0.146316  1
  O  O11  1  0.879943  0.297462  0.353684  1
  O  O12  1  0.379943  0.797462  0.146316  1
  O  O13  1  0.379943  0.202538  0.353684  1
  O  O14  1  0.120057  0.297462  0.853684  1
  O  O15  1  0.120057  0.702538  0.646316  1
  O  O16  1  0.478303  0.408662  0.887327  1
  O  O17  1  0.478303  0.591338  0.612673  1
  O  O18  1  0.021697  0.908662  0.112673  1
  O  O19  1  0.021697  0.091338  0.387327  1
  O  O20  1  0.521697  0.591338  0.112673  1
  O  O21  1  0.521697  0.408662  0.387327  1
  O  O22  1  0.978303  0.091338  0.887327  1
  O  O23  1  0.978303  0.908662  0.612673  1
  O  O24  1  0.957377  0.814934  0.782986  1
  O  O25  1  0.957377  0.185066  0.717014  1
  O  O26  1  0.542623  0.314934  0.217014  1
  O  O27  1  0.542623  0.685066  0.282986  1
  O  O28  1  0.042623  0.185066  0.217014  1
  O  O29  1  0.042623  0.814934  0.282986  1
  O  O30  1  0.457377  0.685066  0.782986  1
  O  O31  1  0.457377  0.314934  0.717014  1
  F  F32  1  0.901811  0.500000  0.750000  1
  F  F33  1  0.598189  0.000000  0.250000  1
  F  F34  1  0.098189  0.500000  0.250000  1
  F  F35  1  0.401811  0.000000  0.750000  1
  F  F36  1  0.650310  0.906061  0.922067  1
  F  F37  1  0.650310  0.093939  0.577933  1
  F  F38  1  0.849690  0.406061  0.077933  1
  F  F39  1  0.849690  0.593939  0.422067  1
  F  F40  1  0.349690  0.093939  0.077933  1
  F  F41  1  0.349690  0.906061  0.422067  1
  F  F42  1  0.150310  0.593939  0.922067  1
  F  F43  1  0.150310  0.406061  0.577933  1
  Y  Y44  1  0.228178  0.500000  0.750000  1
  Y  Y45  1  0.271822  0.000000  0.250000  1
  Y  Y46  1  0.771822  0.500000  0.250000  1
  Y  Y47  1  0.728178  0.000000  0.750000  1
  Ba  Ba48  1  0.262550  0.879801  0.928783  1
  Ba  Ba49  1  0.262550  0.120199  0.571217  1
  Ba  Ba50  1  0.237450  0.379801  0.071217  1
  Ba  Ba51  1  0.237450  0.620199  0.428783  1
  Ba  Ba52  1  0.737450  0.120199  0.071217  1
  Ba  Ba53  1  0.737450  0.879801  0.428783  1
  Ba  Ba54  1  0.762550  0.620199  0.928783  1
  Ba  Ba55  1  0.762550  0.379801  0.571217  1
