# generated using pymatgen
data_Pr5Al2Ru3
_symmetry_space_group_name_H-M   'P 1'
_cell_length_a   8.61436335
_cell_length_b   8.61436335
_cell_length_c   8.61436335
_cell_angle_alpha   109.47122063
_cell_angle_beta   109.47122063
_cell_angle_gamma   109.47122063
_symmetry_Int_Tables_number   1
_chemical_formula_structural   Pr5Al2Ru3
_chemical_formula_sum   'Pr10 Al4 Ru6'
_cell_volume   492.09354471
_cell_formula_units_Z   2
loop_
 _symmetry_equiv_pos_site_id
 _symmetry_equiv_pos_as_xyz
  1  'x, y, z'
loop_
 _atom_site_type_symbol
 _atom_site_label
 _atom_site_symmetry_multiplicity
 _atom_site_fract_x
 _atom_site_fract_y
 _atom_site_fract_z
 _atom_site_occupancy
  Pr  Pr0  1  0.250000  0.684740  0.434741  1
  Pr  Pr1  1  0.750000  0.815260  0.065260  1
  Pr  Pr2  1  0.434741  0.250000  0.684740  1
  Pr  Pr3  1  0.684740  0.434741  0.250000  1
  Pr  Pr4  1  0.065260  0.750000  0.815260  1
  Pr  Pr5  1  0.815260  0.065260  0.750000  1
  Pr  Pr6  1  0.213869  0.213869  0.213869  1
  Pr  Pr7  1  0.500001  0.000000  0.286131  1
  Pr  Pr8  1  0.286131  0.500001  0.000000  1
  Pr  Pr9  1  0.000000  0.286131  0.500001  1
  Al  Al10  1  0.590984  0.590984  0.590984  1
  Al  Al11  1  0.500001  0.000000  0.909016  1
  Al  Al12  1  0.909016  0.500001  0.000000  1
  Al  Al13  1  0.000000  0.909016  0.500001  1
  Ru  Ru14  1  0.250001  0.117810  0.867811  1
  Ru  Ru15  1  0.750000  0.382188  0.632189  1
  Ru  Ru16  1  0.867811  0.250001  0.117810  1
  Ru  Ru17  1  0.117810  0.867811  0.250001  1
  Ru  Ru18  1  0.632189  0.750000  0.382188  1
  Ru  Ru19  1  0.382188  0.632189  0.750000  1
