# generated using pymatgen
data_CsRuF6
_symmetry_space_group_name_H-M   'P 1'
_cell_length_a   5.44911743
_cell_length_b   5.44911743
_cell_length_c   5.44911742
_cell_angle_alpha   96.97452994
_cell_angle_beta   96.97452993
_cell_angle_gamma   96.97452989
_symmetry_Int_Tables_number   1
_chemical_formula_structural   CsRuF6
_chemical_formula_sum   'Cs1 Ru1 F6'
_cell_volume   157.88436265
_cell_formula_units_Z   1
loop_
 _symmetry_equiv_pos_site_id
 _symmetry_equiv_pos_as_xyz
  1  'x, y, z'
loop_
 _atom_site_type_symbol
 _atom_site_label
 _atom_site_symmetry_multiplicity
 _atom_site_fract_x
 _atom_site_fract_y
 _atom_site_fract_z
 _atom_site_occupancy
  F  F0  1  0.244648  0.244648  0.917831  1
  F  F1  1  0.244648  0.917831  0.244648  1
  F  F2  1  0.755352  0.082169  0.755352  1
  F  F3  1  0.755352  0.755352  0.082169  1
  F  F4  1  0.082169  0.755352  0.755352  1
  F  F5  1  0.917831  0.244648  0.244648  1
  Ru  Ru6  1  0.000000  0.000000  0.000000  1
  Cs  Cs7  1  0.500000  0.500000  0.500000  1
