# generated using pymatgen
data_Er2Ge5Rh3
_symmetry_space_group_name_H-M   'P 1'
_cell_length_a   8.34748607
_cell_length_b   8.34728561
_cell_length_c   5.88396336
_cell_angle_alpha   71.04311478
_cell_angle_beta   108.95586139
_cell_angle_gamma   86.39081955
_symmetry_Int_Tables_number   1
_chemical_formula_structural   Er2Ge5Rh3
_chemical_formula_sum   'Er4 Ge10 Rh6'
_cell_volume   360.15947699
_cell_formula_units_Z   2
loop_
 _symmetry_equiv_pos_site_id
 _symmetry_equiv_pos_as_xyz
  1  'x, y, z'
loop_
 _atom_site_type_symbol
 _atom_site_label
 _atom_site_symmetry_multiplicity
 _atom_site_fract_x
 _atom_site_fract_y
 _atom_site_fract_z
 _atom_site_occupancy
  Er  Er0  1  0.131466  0.590892  0.766149  1
  Er  Er1  1  0.590895  0.131464  0.733850  1
  Er  Er2  1  0.868540  0.409105  0.233854  1
  Er  Er3  1  0.409107  0.868539  0.266139  1
  Ge  Ge4  1  0.735693  0.074447  0.332007  1
  Ge  Ge5  1  0.791692  0.791682  0.750004  1
  Ge  Ge6  1  0.208309  0.208311  0.250002  1
  Ge  Ge7  1  0.489407  0.489399  0.749994  1
  Ge  Ge8  1  0.510592  0.510594  0.250003  1
  Ge  Ge9  1  0.221136  0.221137  0.750003  1
  Ge  Ge10  1  0.778867  0.778865  0.250012  1
  Ge  Ge11  1  0.925548  0.264305  0.832018  1
  Ge  Ge12  1  0.264305  0.925552  0.667991  1
  Ge  Ge13  1  0.074446  0.735690  0.167987  1
  Rh  Rh14  1  0.998871  0.998880  0.749990  1
  Rh  Rh15  1  0.001128  0.001132  0.249989  1
  Rh  Rh16  1  0.742307  0.543644  0.621454  1
  Rh  Rh17  1  0.543644  0.742310  0.878563  1
  Rh  Rh18  1  0.257697  0.456358  0.378552  1
  Rh  Rh19  1  0.456351  0.257692  0.121455  1
