# generated using pymatgen
data_Eu(GaSb)2
_symmetry_space_group_name_H-M   'P 1'
_cell_length_a   4.40044793
_cell_length_b   18.28948273
_cell_length_c   6.69880701
_cell_angle_alpha   90.11202565
_cell_angle_beta   89.77246949
_cell_angle_gamma   89.88998769
_symmetry_Int_Tables_number   1
_chemical_formula_structural   Eu(GaSb)2
_chemical_formula_sum   'Eu4 Ga8 Sb8'
_cell_volume   539.12654257
_cell_formula_units_Z   4
loop_
 _symmetry_equiv_pos_site_id
 _symmetry_equiv_pos_as_xyz
  1  'x, y, z'
loop_
 _atom_site_type_symbol
 _atom_site_label
 _atom_site_symmetry_multiplicity
 _atom_site_fract_x
 _atom_site_fract_y
 _atom_site_fract_z
 _atom_site_occupancy
  Eu  Eu0  1  0.749717  0.116082  0.774910  1
  Eu  Eu1  1  0.749886  0.615986  0.724658  1
  Eu  Eu2  1  0.250158  0.883910  0.226212  1
  Eu  Eu3  1  0.249838  0.383838  0.275807  1
  Ga  Ga4  1  0.749910  0.291830  0.967321  1
  Ga  Ga5  1  0.749784  0.792058  0.532465  1
  Ga  Ga6  1  0.250296  0.708333  0.032744  1
  Ga  Ga7  1  0.250252  0.208159  0.466875  1
  Ga  Ga8  1  0.750374  0.930698  0.556562  1
  Ga  Ga9  1  0.749819  0.430494  0.942987  1
  Ga  Ga10  1  0.249309  0.069387  0.443022  1
  Ga  Ga11  1  0.250548  0.569298  0.057637  1
  Sb  Sb12  1  0.749087  0.288545  0.560709  1
  Sb  Sb13  1  0.749930  0.788693  0.939035  1
  Sb  Sb14  1  0.250727  0.712019  0.438308  1
  Sb  Sb15  1  0.250374  0.211465  0.060509  1
  Sb  Sb16  1  0.750968  0.030425  0.227476  1
  Sb  Sb17  1  0.749434  0.530398  0.272637  1
  Sb  Sb18  1  0.248893  0.969472  0.772914  1
  Sb  Sb19  1  0.250695  0.468910  0.727214  1
