# generated using pymatgen
data_HC2
_symmetry_space_group_name_H-M   'P 1'
_cell_length_a   2.46474563
_cell_length_b   3.62543074
_cell_length_c   6.22219782
_cell_angle_alpha   93.58298954
_cell_angle_beta   101.42357648
_cell_angle_gamma   90.00000000
_symmetry_Int_Tables_number   1
_chemical_formula_structural   HC2
_chemical_formula_sum   'H2 C4'
_cell_volume   54.38776255
_cell_formula_units_Z   2
loop_
 _symmetry_equiv_pos_site_id
 _symmetry_equiv_pos_as_xyz
  1  'x, y, z'
loop_
 _atom_site_type_symbol
 _atom_site_label
 _atom_site_symmetry_multiplicity
 _atom_site_fract_x
 _atom_site_fract_y
 _atom_site_fract_z
 _atom_site_occupancy
  H  H0  1  0.047271  0.753714  0.391167  1
  H  H1  1  0.656104  0.246286  0.608833  1
  C  C2  1  0.407499  0.574115  0.114184  1
  C  C3  1  0.293315  0.425885  0.885816  1
  C  C4  1  0.960568  0.643308  0.220465  1
  C  C5  1  0.740103  0.356692  0.779535  1
