# generated using pymatgen
data_RbTlBr3
_symmetry_space_group_name_H-M   'P 1'
_cell_length_a   8.22767914
_cell_length_b   8.22767932
_cell_length_c   8.22767900
_cell_angle_alpha   60.01287022
_cell_angle_beta   60.01286949
_cell_angle_gamma   60.01287101
_symmetry_Int_Tables_number   1
_chemical_formula_structural   RbTlBr3
_chemical_formula_sum   'Rb2 Tl2 Br6'
_cell_volume   393.95239378
_cell_formula_units_Z   2
loop_
 _symmetry_equiv_pos_site_id
 _symmetry_equiv_pos_as_xyz
  1  'x, y, z'
loop_
 _atom_site_type_symbol
 _atom_site_label
 _atom_site_symmetry_multiplicity
 _atom_site_fract_x
 _atom_site_fract_y
 _atom_site_fract_z
 _atom_site_occupancy
  Rb  Rb0  1  0.273598  0.273598  0.273598  1
  Rb  Rb1  1  0.773598  0.773598  0.773598  1
  Tl  Tl2  1  0.004613  0.004613  0.004613  1
  Tl  Tl3  1  0.504613  0.504613  0.504613  1
  Br  Br4  1  0.244544  0.826680  0.679066  1
  Br  Br5  1  0.826680  0.679066  0.244544  1
  Br  Br6  1  0.679066  0.244544  0.826680  1
  Br  Br7  1  0.179066  0.326680  0.744544  1
  Br  Br8  1  0.744544  0.179066  0.326680  1
  Br  Br9  1  0.326680  0.744544  0.179066  1
