# generated using pymatgen
data_TiPHO5
_symmetry_space_group_name_H-M   'P 1'
_cell_length_a   7.51752814
_cell_length_b   7.07350396
_cell_length_c   7.80238334
_cell_angle_alpha   90.00000000
_cell_angle_beta   121.82106935
_cell_angle_gamma   90.00000000
_symmetry_Int_Tables_number   1
_chemical_formula_structural   TiPHO5
_chemical_formula_sum   'Ti4 P4 H4 O20'
_cell_volume   352.53479009
_cell_formula_units_Z   4
loop_
 _symmetry_equiv_pos_site_id
 _symmetry_equiv_pos_as_xyz
  1  'x, y, z'
loop_
 _atom_site_type_symbol
 _atom_site_label
 _atom_site_symmetry_multiplicity
 _atom_site_fract_x
 _atom_site_fract_y
 _atom_site_fract_z
 _atom_site_occupancy
  Ti  Ti0  1  0.751878  0.276768  0.281369  1
  Ti  Ti1  1  0.248122  0.776767  0.718631  1
  Ti  Ti2  1  0.255328  0.773144  0.280826  1
  Ti  Ti3  1  0.744674  0.273143  0.719174  1
  P  P4  1  0.750748  0.643004  0.000078  1
  P  P5  1  0.249251  0.143003  -0.000079  1
  P  P6  1  0.249921  0.383382  0.501287  1
  P  P7  1  0.750079  0.883380  0.498712  1
  H  H8  1  0.360401  0.538401  0.052609  1
  H  H9  1  0.639599  0.038400  0.947393  1
  H  H10  1  0.121123  0.556428  0.932069  1
  H  H11  1  0.878877  0.056429  0.067931  1
  O  O12  1  0.248765  0.636151  0.997375  1
  O  O13  1  0.751235  0.136152  0.002625  1
  O  O14  1  0.748002  0.352363  0.500616  1
  O  O15  1  0.251999  0.852362  0.499385  1
  O  O16  1  0.262351  0.510875  0.668634  1
  O  O17  1  0.737650  0.010874  0.331368  1
  O  O18  1  0.745096  0.515892  0.835721  1
  O  O19  1  0.254904  0.015892  0.164280  1
  O  O20  1  0.558413  0.776314  0.909912  1
  O  O21  1  0.441586  0.276315  0.090088  1
  O  O22  1  0.444836  0.254343  0.594243  1
  O  O23  1  0.555164  0.754344  0.405757  1
  O  O24  1  0.752790  0.517631  0.163386  1
  O  O25  1  0.247209  0.017632  0.836613  1
  O  O26  1  0.241338  0.508149  0.333551  1
  O  O27  1  0.758663  0.008150  0.666449  1
  O  O28  1  0.947166  0.758115  0.591154  1
  O  O29  1  0.052833  0.258115  0.408846  1
  O  O30  1  0.053503  0.271346  0.909488  1
  O  O31  1  0.946497  0.771347  0.090510  1
