# generated using pymatgen
data_SF6
_symmetry_space_group_name_H-M   'P 1'
_cell_length_a   4.97235277
_cell_length_b   8.38290712
_cell_length_c   8.38290713
_cell_angle_alpha   60.91730746
_cell_angle_beta   85.43922418
_cell_angle_gamma   85.43922420
_symmetry_Int_Tables_number   1
_chemical_formula_structural   SF6
_chemical_formula_sum   'S3 F18'
_cell_volume   304.06521763
_cell_formula_units_Z   3
loop_
 _symmetry_equiv_pos_site_id
 _symmetry_equiv_pos_as_xyz
  1  'x, y, z'
loop_
 _atom_site_type_symbol
 _atom_site_label
 _atom_site_symmetry_multiplicity
 _atom_site_fract_x
 _atom_site_fract_y
 _atom_site_fract_z
 _atom_site_occupancy
  F  F0  1  0.582346  0.744815  0.478989  1
  F  F1  1  0.727004  0.067470  0.067470  1
  F  F2  1  0.272996  0.932530  0.932530  1
  F  F3  1  0.121253  0.195198  0.929449  1
  F  F4  1  0.878747  0.070551  0.804802  1
  F  F5  1  0.878747  0.804802  0.070551  1
  F  F6  1  0.121253  0.929449  0.195198  1
  F  F7  1  0.417654  0.521011  0.255185  1
  F  F8  1  0.417654  0.255185  0.521011  1
  F  F9  1  0.620403  0.745404  0.745404  1
  F  F10  1  0.379597  0.254596  0.254596  1
  F  F11  1  0.198917  0.591419  0.591419  1
  F  F12  1  0.801083  0.408581  0.408581  1
  F  F13  1  0.236797  0.592070  0.857826  1
  F  F14  1  0.763203  0.142174  0.407930  1
  F  F15  1  0.763203  0.407930  0.142174  1
  F  F16  1  0.236797  0.857826  0.592070  1
  F  F17  1  0.582346  0.478989  0.744815  1
  S  S18  1  0.590343  0.331573  0.331573  1
  S  S19  1  0.409657  0.668427  0.668427  1
  S  S20  1  0.000000  0.000000  0.000000  1
