# generated using pymatgen
data_Rb3Pr
_symmetry_space_group_name_H-M   'P 1'
_cell_length_a   9.15956527
_cell_length_b   9.15956466
_cell_length_c   7.56637090
_cell_angle_alpha   90.00000000
_cell_angle_beta   90.00000000
_cell_angle_gamma   119.99999855
_symmetry_Int_Tables_number   1
_chemical_formula_structural   Rb3Pr
_chemical_formula_sum   'Rb6 Pr2'
_cell_volume   549.75344437
_cell_formula_units_Z   2
loop_
 _symmetry_equiv_pos_site_id
 _symmetry_equiv_pos_as_xyz
  1  'x, y, z'
loop_
 _atom_site_type_symbol
 _atom_site_label
 _atom_site_symmetry_multiplicity
 _atom_site_fract_x
 _atom_site_fract_y
 _atom_site_fract_z
 _atom_site_occupancy
  Rb  Rb0  1  0.172575  0.345151  0.249999  1
  Rb  Rb1  1  0.654848  0.827423  0.249999  1
  Rb  Rb2  1  0.172575  0.827423  0.249999  1
  Rb  Rb3  1  0.827425  0.654849  0.750000  1
  Rb  Rb4  1  0.345151  0.172574  0.750000  1
  Rb  Rb5  1  0.827423  0.172574  0.750000  1
  Pr  Pr6  1  0.333334  0.666668  0.750000  1
  Pr  Pr7  1  0.666668  0.333333  0.249999  1
