# generated using pymatgen
data_Ca(BH4)2
_symmetry_space_group_name_H-M   'P 1'
_cell_length_a   12.85444513
_cell_length_b   8.25421389
_cell_length_c   7.44432680
_cell_angle_alpha   90.00000000
_cell_angle_beta   90.00000000
_cell_angle_gamma   90.00000000
_symmetry_Int_Tables_number   1
_chemical_formula_structural   Ca(BH4)2
_chemical_formula_sum   'Ca8 B16 H64'
_cell_volume   789.86793411
_cell_formula_units_Z   8
loop_
 _symmetry_equiv_pos_site_id
 _symmetry_equiv_pos_as_xyz
  1  'x, y, z'
loop_
 _atom_site_type_symbol
 _atom_site_label
 _atom_site_symmetry_multiplicity
 _atom_site_fract_x
 _atom_site_fract_y
 _atom_site_fract_z
 _atom_site_occupancy
  Ca  Ca0  1  0.626109  0.126511  0.855002  1
  Ca  Ca1  1  0.873892  0.873490  0.355002  1
  Ca  Ca2  1  0.126108  0.373490  0.144998  1
  Ca  Ca3  1  0.373892  0.626511  0.644998  1
  Ca  Ca4  1  0.373892  0.873490  0.144998  1
  Ca  Ca5  1  0.126108  0.126511  0.644998  1
  Ca  Ca6  1  0.873892  0.626511  0.855002  1
  Ca  Ca7  1  0.626109  0.373490  0.355002  1
  B  B8  1  0.510650  0.667736  0.328745  1
  B  B9  1  0.989350  0.332264  0.828745  1
  B  B10  1  0.010650  0.832265  0.671255  1
  B  B11  1  0.489349  0.167736  0.171255  1
  B  B12  1  0.489349  0.332264  0.671255  1
  B  B13  1  0.221071  0.085935  0.983530  1
  B  B14  1  0.278929  0.914065  0.483530  1
  B  B15  1  0.010650  0.667736  0.171255  1
  B  B16  1  0.989350  0.167736  0.328745  1
  B  B17  1  0.510650  0.832265  0.828745  1
  B  B18  1  0.721071  0.414064  0.016468  1
  B  B19  1  0.778929  0.585935  0.516468  1
  B  B20  1  0.778929  0.914065  0.016468  1
  B  B21  1  0.721071  0.085935  0.516468  1
  B  B22  1  0.278929  0.585935  0.983530  1
  B  B23  1  0.221071  0.414064  0.483530  1
  H  H24  1  0.265060  0.155172  0.859209  1
  H  H25  1  0.234940  0.844829  0.359208  1
  H  H26  1  0.765060  0.344829  0.140791  1
  H  H27  1  0.734940  0.655172  0.640791  1
  H  H28  1  0.734940  0.844829  0.140791  1
  H  H29  1  0.765060  0.155172  0.640791  1
  H  H30  1  0.234940  0.655172  0.859209  1
  H  H31  1  0.265060  0.344829  0.359208  1
  H  H32  1  0.229272  0.938845  0.966831  1
  H  H33  1  0.270728  0.061154  0.466831  1
  H  H34  1  0.729272  0.561155  0.033170  1
  H  H35  1  0.770728  0.438847  0.533170  1
  H  H36  1  0.770728  0.061154  0.033170  1
  H  H37  1  0.729272  0.938845  0.533170  1
  H  H38  1  0.270728  0.438847  0.966831  1
  H  H39  1  0.229272  0.561155  0.466831  1
  H  H40  1  0.258492  0.134380  0.125337  1
  H  H41  1  0.241508  0.865619  0.625337  1
  H  H42  1  0.758492  0.365618  0.874663  1
  H  H43  1  0.741508  0.634381  0.374663  1
  H  H44  1  0.741508  0.865619  0.874663  1
  H  H45  1  0.758492  0.134380  0.374663  1
  H  H46  1  0.241508  0.634381  0.125337  1
  H  H47  1  0.258492  0.365618  0.625337  1
  H  H48  1  0.527673  0.812575  0.308350  1
  H  H49  1  0.972326  0.187424  0.808349  1
  H  H50  1  0.027673  0.687425  0.691652  1
  H  H51  1  0.472326  0.312575  0.191650  1
  H  H52  1  0.472326  0.187424  0.691652  1
  H  H53  1  0.027673  0.812575  0.191650  1
  H  H54  1  0.972326  0.312575  0.308350  1
  H  H55  1  0.527673  0.687425  0.808349  1
  H  H56  1  0.126856  0.110009  0.984259  1
  H  H57  1  0.373144  0.889990  0.484259  1
  H  H58  1  0.626856  0.389990  0.015741  1
  H  H59  1  0.873144  0.610010  0.515742  1
  H  H60  1  0.873144  0.889990  0.015741  1
  H  H61  1  0.626856  0.110009  0.515742  1
  H  H62  1  0.373144  0.610010  0.984259  1
  H  H63  1  0.126856  0.389990  0.484259  1
  H  H64  1  0.545596  0.631684  0.476690  1
  H  H65  1  0.954403  0.368316  0.976690  1
  H  H66  1  0.045596  0.868316  0.523309  1
  H  H67  1  0.454404  0.131683  0.023311  1
  H  H68  1  0.454404  0.368316  0.523309  1
  H  H69  1  0.045596  0.631684  0.023311  1
  H  H70  1  0.954403  0.131683  0.476690  1
  H  H71  1  0.545596  0.868316  0.976690  1
  H  H72  1  0.417088  0.634623  0.321846  1
  H  H73  1  0.082912  0.365377  0.821846  1
  H  H74  1  0.917088  0.865378  0.678155  1
  H  H75  1  0.582913  0.134624  0.178156  1
  H  H76  1  0.582913  0.365377  0.678155  1
  H  H77  1  0.917088  0.634623  0.178156  1
  H  H78  1  0.082912  0.134624  0.321846  1
  H  H79  1  0.417088  0.865378  0.821846  1
  H  H80  1  0.552487  0.593956  0.206454  1
  H  H81  1  0.947514  0.406044  0.706454  1
  H  H82  1  0.052485  0.906045  0.793547  1
  H  H83  1  0.447514  0.093957  0.293546  1
  H  H84  1  0.447514  0.406044  0.793547  1
  H  H85  1  0.052485  0.593956  0.293546  1
  H  H86  1  0.947514  0.093957  0.206454  1
  H  H87  1  0.552487  0.906045  0.706454  1
