# generated using pymatgen
data_K2Al2O3F2
_symmetry_space_group_name_H-M   'P 1'
_cell_length_a   6.18684070
_cell_length_b   7.04136530
_cell_length_c   7.04136530
_cell_angle_alpha   72.08601621
_cell_angle_beta   91.02159658
_cell_angle_gamma   91.02159658
_symmetry_Int_Tables_number   1
_chemical_formula_structural   K2Al2O3F2
_chemical_formula_sum   'K4 Al4 O6 F4'
_cell_volume   291.80633090
_cell_formula_units_Z   2
loop_
 _symmetry_equiv_pos_site_id
 _symmetry_equiv_pos_as_xyz
  1  'x, y, z'
loop_
 _atom_site_type_symbol
 _atom_site_label
 _atom_site_symmetry_multiplicity
 _atom_site_fract_x
 _atom_site_fract_y
 _atom_site_fract_z
 _atom_site_occupancy
  K  K0  1  0.669819  0.158235  0.158235  1
  K  K1  1  0.255859  0.398442  0.398442  1
  K  K2  1  0.744142  0.601559  0.601559  1
  K  K3  1  0.330182  0.841764  0.841764  1
  Al  Al4  1  0.855208  0.673797  0.075684  1
  Al  Al5  1  0.144793  0.924316  0.326202  1
  Al  Al6  1  0.855208  0.075684  0.673797  1
  Al  Al7  1  0.144793  0.326202  0.924316  1
  O  O8  1  0.000000  0.500000  0.000000  1
  O  O9  1  0.233167  0.122094  0.122094  1
  O  O10  1  -0.000000  0.737852  0.262148  1
  O  O11  1  0.000000  -0.000000  0.500000  1
  O  O12  1  -0.000000  0.262148  0.737852  1
  O  O13  1  0.766833  0.877906  0.877906  1
  F  F14  1  0.614019  0.553679  0.183509  1
  F  F15  1  0.385980  0.816490  0.446321  1
  F  F16  1  0.614019  0.183509  0.553679  1
  F  F17  1  0.385980  0.446321  0.816490  1
