# generated using pymatgen
data_Fe4O7F
_symmetry_space_group_name_H-M   'P 1'
_cell_length_a   4.64283177
_cell_length_b   9.26691804
_cell_length_c   5.99679929
_cell_angle_alpha   90.00000000
_cell_angle_beta   90.00000000
_cell_angle_gamma   91.86907965
_symmetry_Int_Tables_number   1
_chemical_formula_structural   Fe4O7F
_chemical_formula_sum   'Fe8 O14 F2'
_cell_volume   257.87346800
_cell_formula_units_Z   2
loop_
 _symmetry_equiv_pos_site_id
 _symmetry_equiv_pos_as_xyz
  1  'x, y, z'
loop_
 _atom_site_type_symbol
 _atom_site_label
 _atom_site_symmetry_multiplicity
 _atom_site_fract_x
 _atom_site_fract_y
 _atom_site_fract_z
 _atom_site_occupancy
  Fe  Fe0  1  0.981912  0.007419  0.995098  1
  Fe  Fe1  1  0.981912  0.007419  0.504902  1
  Fe  Fe2  1  0.018088  0.492581  0.004902  1
  Fe  Fe3  1  0.018088  0.492581  0.495098  1
  Fe  Fe4  1  0.502207  0.249311  0.250000  1
  Fe  Fe5  1  0.497793  0.250689  0.750000  1
  Fe  Fe6  1  0.529123  0.735183  0.250000  1
  Fe  Fe7  1  0.470877  0.764817  0.750000  1
  O  O8  1  0.210961  0.395805  0.250000  1
  O  O9  1  0.194686  0.402843  0.750000  1
  O  O10  1  0.172674  0.912110  0.750000  1
  O  O11  1  0.305080  0.154517  0.001457  1
  O  O12  1  0.305080  0.154517  0.498543  1
  O  O13  1  0.314052  0.653167  -0.001580  1
  O  O14  1  0.314052  0.653167  0.501580  1
  O  O15  1  0.694920  0.345483  0.998543  1
  O  O16  1  0.694920  0.345483  0.501457  1
  O  O17  1  0.685948  0.846833  0.001580  1
  O  O18  1  0.685948  0.846833  0.498420  1
  O  O19  1  0.805314  0.097157  0.250000  1
  O  O20  1  0.789039  0.104195  0.750000  1
  O  O21  1  0.827326  0.587890  0.250000  1
  F  F22  1  0.188588  0.901877  0.250000  1
  F  F23  1  0.811412  0.598123  0.750000  1
