# generated using pymatgen
data_Na3Ni2SbO6
_symmetry_space_group_name_H-M   'P 1'
_cell_length_a   5.36447845
_cell_length_b   5.36447815
_cell_length_c   5.68393815
_cell_angle_alpha   99.02738955
_cell_angle_beta   99.02738832
_cell_angle_gamma   119.97828540
_symmetry_Int_Tables_number   1
_chemical_formula_structural   Na3Ni2SbO6
_chemical_formula_sum   'Na3 Ni2 Sb1 O6'
_cell_volume   134.53444836
_cell_formula_units_Z   1
loop_
 _symmetry_equiv_pos_site_id
 _symmetry_equiv_pos_as_xyz
  1  'x, y, z'
loop_
 _atom_site_type_symbol
 _atom_site_label
 _atom_site_symmetry_multiplicity
 _atom_site_fract_x
 _atom_site_fract_y
 _atom_site_fract_z
 _atom_site_occupancy
  Na  Na0  1  0.500000  0.499999  0.499999  1
  Na  Na1  1  0.174753  0.825247  0.500000  1
  Na  Na2  1  0.825246  0.174754  0.500000  1
  Ni  Ni3  1  0.333798  0.666202  0.999999  1
  Ni  Ni4  1  0.666202  0.333798  0.999999  1
  Sb  Sb5  1  -0.000000  -0.000000  -0.000000  1
  O  O6  1  0.067906  0.386385  0.204414  1
  O  O7  1  0.249736  0.249735  0.795716  1
  O  O8  1  0.750264  0.750264  0.204284  1
  O  O9  1  0.386384  0.067906  0.204414  1
  O  O10  1  0.613616  0.932093  0.795585  1
  O  O11  1  0.932093  0.613616  0.795585  1
