# generated using pymatgen
data_Sr2Cu(BO3)2
_symmetry_space_group_name_H-M   'P 1'
_cell_length_a   5.87410009
_cell_length_b   6.12421899
_cell_length_c   8.83873668
_cell_angle_alpha   90.00000000
_cell_angle_beta   90.00000000
_cell_angle_gamma   117.43018800
_symmetry_Int_Tables_number   1
_chemical_formula_structural   Sr2Cu(BO3)2
_chemical_formula_sum   'Sr4 Cu2 B4 O12'
_cell_volume   282.21898816
_cell_formula_units_Z   2
loop_
 _symmetry_equiv_pos_site_id
 _symmetry_equiv_pos_as_xyz
  1  'x, y, z'
loop_
 _atom_site_type_symbol
 _atom_site_label
 _atom_site_symmetry_multiplicity
 _atom_site_fract_x
 _atom_site_fract_y
 _atom_site_fract_z
 _atom_site_occupancy
  B  B0  1  0.803660  0.159490  0.249450  1
  B  B1  1  0.196340  0.840510  0.750550  1
  B  B2  1  0.803660  0.659490  0.250550  1
  B  B3  1  0.196340  0.340510  0.749450  1
  O  O4  1  0.965683  0.316526  0.690813  1
  O  O5  1  0.034317  0.183474  0.190813  1
  O  O6  1  0.406073  0.385791  0.662256  1
  O  O7  1  0.406073  0.885791  0.837744  1
  O  O8  1  0.593927  0.114209  0.162256  1
  O  O9  1  0.593927  0.614209  0.337744  1
  O  O10  1  0.211065  0.819940  0.592095  1
  O  O11  1  0.788935  0.680060  0.092095  1
  O  O12  1  0.788935  0.180060  0.407905  1
  O  O13  1  0.211065  0.319940  0.907905  1
  O  O14  1  0.965683  0.816526  0.809187  1
  O  O15  1  0.034317  0.683474  0.309187  1
  Cu  Cu16  1  0.000000  0.500000  0.500000  1
  Cu  Cu17  1  0.000000  0.000000  0.000000  1
  Sr  Sr18  1  0.666292  0.837736  0.605521  1
  Sr  Sr19  1  0.333708  0.662264  0.105521  1
  Sr  Sr20  1  0.333708  0.162264  0.394479  1
  Sr  Sr21  1  0.666292  0.337736  0.894479  1
