# generated using pymatgen
data_SiC3
_symmetry_space_group_name_H-M   'P 1'
_cell_length_a   6.68612794
_cell_length_b   6.68612794
_cell_length_c   6.68612794
_cell_angle_alpha   158.04638287
_cell_angle_beta   158.04638287
_cell_angle_gamma   31.24318002
_symmetry_Int_Tables_number   1
_chemical_formula_structural   SiC3
_chemical_formula_sum   'Si1 C3'
_cell_volume   41.74696811
_cell_formula_units_Z   1
loop_
 _symmetry_equiv_pos_site_id
 _symmetry_equiv_pos_as_xyz
  1  'x, y, z'
loop_
 _atom_site_type_symbol
 _atom_site_label
 _atom_site_symmetry_multiplicity
 _atom_site_fract_x
 _atom_site_fract_y
 _atom_site_fract_z
 _atom_site_occupancy
  Si  Si0  1  0.000000  0.000000  0.000000  1
  C  C1  1  0.749999  0.250000  0.499999  1
  C  C2  1  0.250000  0.749999  0.499999  1
  C  C3  1  0.500000  0.500000  0.000000  1
