# generated using pymatgen
data_Hf9AsW4
_symmetry_space_group_name_H-M   'P 1'
_cell_length_a   8.70299613
_cell_length_b   8.70299597
_cell_length_c   8.70966824
_cell_angle_alpha   90.00000000
_cell_angle_beta   90.00000000
_cell_angle_gamma   120.00016969
_symmetry_Int_Tables_number   1
_chemical_formula_structural   Hf9AsW4
_chemical_formula_sum   'Hf18 As2 W8'
_cell_volume   571.30638093
_cell_formula_units_Z   2
loop_
 _symmetry_equiv_pos_site_id
 _symmetry_equiv_pos_as_xyz
  1  'x, y, z'
loop_
 _atom_site_type_symbol
 _atom_site_label
 _atom_site_symmetry_multiplicity
 _atom_site_fract_x
 _atom_site_fract_y
 _atom_site_fract_z
 _atom_site_occupancy
  Hf  Hf0  1  0.195178  0.390361  0.045961  1
  Hf  Hf1  1  0.804822  0.609640  0.545960  1
  Hf  Hf2  1  0.609640  0.804822  0.045961  1
  Hf  Hf3  1  0.195178  0.804822  0.045969  1
  Hf  Hf4  1  0.804822  0.195177  0.545969  1
  Hf  Hf5  1  0.390360  0.195178  0.545960  1
  Hf  Hf6  1  0.804822  0.609640  0.954039  1
  Hf  Hf7  1  0.804822  0.195177  0.954030  1
  Hf  Hf8  1  0.390360  0.195178  0.954039  1
  Hf  Hf9  1  0.609640  0.804822  0.454039  1
  Hf  Hf10  1  0.195178  0.804822  0.454030  1
  Hf  Hf11  1  0.195178  0.390361  0.454039  1
  Hf  Hf12  1  0.540093  0.080183  0.250000  1
  Hf  Hf13  1  0.459907  0.919818  0.750000  1
  Hf  Hf14  1  0.919819  0.459908  0.250000  1
  Hf  Hf15  1  0.540060  0.459941  0.250000  1
  Hf  Hf16  1  0.459941  0.540059  0.750000  1
  Hf  Hf17  1  0.080183  0.540092  0.750000  1
  As  As18  1  0.333334  0.666666  0.250000  1
  As  As19  1  0.666665  0.333334  0.750000  1
  W  W20  1  0.000000  0.000000  0.000000  1
  W  W21  1  -0.000000  -0.000000  0.500000  1
  W  W22  1  0.889936  0.779884  0.250000  1
  W  W23  1  0.110064  0.220116  0.750000  1
  W  W24  1  0.220116  0.110064  0.250000  1
  W  W25  1  0.889937  0.110063  0.250000  1
  W  W26  1  0.110065  0.889937  0.750000  1
  W  W27  1  0.779883  0.889935  0.750000  1
