# generated using pymatgen
data_Li3FeSi2O7
_symmetry_space_group_name_H-M   'P 1'
_cell_length_a   8.62073280
_cell_length_b   8.62074168
_cell_length_c   13.04529851
_cell_angle_alpha   90.00025415
_cell_angle_beta   89.99981571
_cell_angle_gamma   120.00017005
_symmetry_Int_Tables_number   1
_chemical_formula_structural   Li3FeSi2O7
_chemical_formula_sum   'Li18 Fe6 Si12 O42'
_cell_volume   839.60057001
_cell_formula_units_Z   6
loop_
 _symmetry_equiv_pos_site_id
 _symmetry_equiv_pos_as_xyz
  1  'x, y, z'
loop_
 _atom_site_type_symbol
 _atom_site_label
 _atom_site_symmetry_multiplicity
 _atom_site_fract_x
 _atom_site_fract_y
 _atom_site_fract_z
 _atom_site_occupancy
  Li  Li0  1  0.024754  0.690735  0.897431  1
  Li  Li1  1  0.024030  0.691541  0.566490  1
  Li  Li2  1  0.333332  0.666669  0.218079  1
  Li  Li3  1  0.333313  0.666678  0.732899  1
  Li  Li4  1  0.999997  0.999997  0.461276  1
  Li  Li5  1  -0.000000  0.999999  0.961274  1
  Li  Li6  1  0.308455  0.332478  0.566489  1
  Li  Li7  1  0.309272  0.334014  0.897429  1
  Li  Li8  1  0.665985  0.975247  0.897430  1
  Li  Li9  1  0.667512  0.975965  0.566490  1
  Li  Li10  1  0.332485  0.024032  0.066490  1
  Li  Li11  1  0.334014  0.024754  0.397432  1
  Li  Li12  1  0.690730  0.665986  0.397430  1
  Li  Li13  1  0.691547  0.667521  0.066490  1
  Li  Li14  1  0.666630  0.333317  0.232901  1
  Li  Li15  1  0.666668  0.333333  0.718080  1
  Li  Li16  1  0.975976  0.308459  0.066490  1
  Li  Li17  1  0.975248  0.309266  0.397427  1
  Fe  Fe18  1  0.999998  0.000002  0.229916  1
  Fe  Fe19  1  0.999998  0.000003  0.729914  1
  Fe  Fe20  1  0.333330  0.666661  0.508740  1
  Fe  Fe21  1  0.333335  0.666662  0.956072  1
  Fe  Fe22  1  0.666670  0.333332  0.456073  1
  Fe  Fe23  1  0.666674  0.333340  0.008743  1
  Si  Si24  1  0.026367  0.674742  0.345286  1
  Si  Si25  1  0.024247  0.673617  0.120594  1
  Si  Si26  1  0.326390  0.350627  0.120593  1
  Si  Si27  1  0.325247  0.351622  0.345283  1
  Si  Si28  1  0.649374  0.975763  0.120593  1
  Si  Si29  1  0.648370  0.973630  0.345283  1
  Si  Si30  1  0.351630  0.026379  0.845286  1
  Si  Si31  1  0.350629  0.024248  0.620593  1
  Si  Si32  1  0.674757  0.648378  0.845283  1
  Si  Si33  1  0.673617  0.649367  0.620589  1
  Si  Si34  1  0.975747  0.326378  0.620592  1
  Si  Si35  1  0.973627  0.325251  0.845286  1
  O  O36  1  0.132832  0.929849  0.841455  1
  O  O37  1  0.132549  0.926382  0.626875  1
  O  O38  1  0.130141  0.696163  0.232769  1
  O  O39  1  0.187856  0.756665  0.035849  1
  O  O40  1  0.188351  0.758322  0.430857  1
  O  O41  1  0.118942  0.539372  0.605613  1
  O  O42  1  0.118734  0.537954  0.859884  1
  O  O43  1  0.070159  0.202984  0.841451  1
  O  O44  1  0.419227  0.881273  0.859882  1
  O  O45  1  0.073616  0.206171  0.626875  1
  O  O46  1  0.420422  0.881053  0.605615  1
  O  O47  1  0.243347  0.431182  0.035842  1
  O  O48  1  0.241664  0.430021  0.430856  1
  O  O49  1  0.303822  0.433971  0.232766  1
  O  O50  1  0.202977  0.132825  0.341453  1
  O  O51  1  0.566025  0.869850  0.232765  1
  O  O52  1  0.206170  0.132551  0.126873  1
  O  O53  1  0.569971  0.811649  0.430856  1
  O  O54  1  0.568826  0.812161  0.035841  1
  O  O55  1  0.460632  0.579571  0.605606  1
  O  O56  1  0.462060  0.580783  0.859884  1
  O  O57  1  0.537937  0.419216  0.359887  1
  O  O58  1  0.539372  0.420428  0.105618  1
  O  O59  1  0.431181  0.187837  0.535847  1
  O  O60  1  0.430024  0.188346  0.930860  1
  O  O61  1  0.793829  0.867448  0.626872  1
  O  O62  1  0.433975  0.130147  0.732768  1
  O  O63  1  0.797025  0.867181  0.841453  1
  O  O64  1  0.696173  0.566030  0.732765  1
  O  O65  1  0.758334  0.569985  0.930854  1
  O  O66  1  0.756667  0.568821  0.535846  1
  O  O67  1  0.579572  0.118939  0.105612  1
  O  O68  1  0.926389  0.793834  0.126873  1
  O  O69  1  0.580773  0.118723  0.359881  1
  O  O70  1  0.929848  0.797020  0.341455  1
  O  O71  1  0.881270  0.462051  0.359884  1
  O  O72  1  0.881068  0.460640  0.105604  1
  O  O73  1  0.811658  0.241675  0.930858  1
  O  O74  1  0.812156  0.243336  0.535848  1
  O  O75  1  0.869856  0.303832  0.732769  1
  O  O76  1  0.867448  0.073620  0.126879  1
  O  O77  1  0.867168  0.070149  0.341453  1
