# generated using pymatgen
data_U2Cr3Si
_symmetry_space_group_name_H-M   'P 1'
_cell_length_a   5.12067252
_cell_length_b   5.12067251
_cell_length_c   8.06224593
_cell_angle_alpha   90.00000000
_cell_angle_beta   90.00000000
_cell_angle_gamma   120.00000004
_symmetry_Int_Tables_number   1
_chemical_formula_structural   U2Cr3Si
_chemical_formula_sum   'U4 Cr6 Si2'
_cell_volume   183.07990471
_cell_formula_units_Z   2
loop_
 _symmetry_equiv_pos_site_id
 _symmetry_equiv_pos_as_xyz
  1  'x, y, z'
loop_
 _atom_site_type_symbol
 _atom_site_label
 _atom_site_symmetry_multiplicity
 _atom_site_fract_x
 _atom_site_fract_y
 _atom_site_fract_z
 _atom_site_occupancy
  Si  Si0  1  0.000000  0.000000  0.000000  1
  Si  Si1  1  0.000000  0.000000  0.500000  1
  Cr  Cr2  1  0.344602  0.172301  0.250000  1
  Cr  Cr3  1  0.827699  0.655398  0.250000  1
  Cr  Cr4  1  0.827699  0.172301  0.250000  1
  Cr  Cr5  1  0.172301  0.344602  0.750000  1
  Cr  Cr6  1  0.172301  0.827699  0.750000  1
  Cr  Cr7  1  0.655398  0.827699  0.750000  1
  U  U8  1  0.333333  0.666667  0.085956  1
  U  U9  1  0.666667  0.333333  0.585956  1
  U  U10  1  0.666667  0.333333  0.914044  1
  U  U11  1  0.333333  0.666667  0.414044  1
