# generated using pymatgen
data_B2(CN2)3
_symmetry_space_group_name_H-M   'P 1'
_cell_length_a   2.69717334
_cell_length_b   9.10439679
_cell_length_c   5.68523525
_cell_angle_alpha   111.24580254
_cell_angle_beta   90.00000094
_cell_angle_gamma   98.51826790
_symmetry_Int_Tables_number   1
_chemical_formula_structural   B2(CN2)3
_chemical_formula_sum   'B2 C3 N6'
_cell_volume   128.46516065
_cell_formula_units_Z   1
loop_
 _symmetry_equiv_pos_site_id
 _symmetry_equiv_pos_as_xyz
  1  'x, y, z'
loop_
 _atom_site_type_symbol
 _atom_site_label
 _atom_site_symmetry_multiplicity
 _atom_site_fract_x
 _atom_site_fract_y
 _atom_site_fract_z
 _atom_site_occupancy
  B  B0  1  0.099066  0.198131  0.963975  1
  B  B1  1  0.900934  0.801869  0.036025  1
  C  C2  1  0.343165  0.686330  0.653981  1
  C  C3  1  0.656835  0.313670  0.346019  1
  C  C4  1  0.000000  0.000000  0.500000  1
  N  N5  1  0.624269  0.248538  0.091483  1
  N  N6  1  0.959401  0.918803  0.278410  1
  N  N7  1  0.040599  0.081197  0.721590  1
  N  N8  1  0.321746  0.643493  0.434026  1
  N  N9  1  0.375731  0.751462  0.908517  1
  N  N10  1  0.678254  0.356507  0.565974  1
