# generated using pymatgen
data_Sm3Si
_symmetry_space_group_name_H-M   'P 1'
_cell_length_a   6.88095350
_cell_length_b   6.88093407
_cell_length_c   5.16490992
_cell_angle_alpha   89.99906801
_cell_angle_beta   90.00058684
_cell_angle_gamma   120.00494830
_symmetry_Int_Tables_number   1
_chemical_formula_structural   Sm3Si
_chemical_formula_sum   'Sm6 Si2'
_cell_volume   211.77161338
_cell_formula_units_Z   2
loop_
 _symmetry_equiv_pos_site_id
 _symmetry_equiv_pos_as_xyz
  1  'x, y, z'
loop_
 _atom_site_type_symbol
 _atom_site_label
 _atom_site_symmetry_multiplicity
 _atom_site_fract_x
 _atom_site_fract_y
 _atom_site_fract_z
 _atom_site_occupancy
  Sm  Sm0  1  0.179825  0.359616  0.249958  1
  Sm  Sm1  1  0.640382  0.820174  0.249957  1
  Sm  Sm2  1  0.179791  0.820206  0.250081  1
  Sm  Sm3  1  0.820189  0.640403  0.750041  1
  Sm  Sm4  1  0.359596  0.179812  0.750040  1
  Sm  Sm5  1  0.820214  0.179791  0.749918  1
  Si  Si6  1  0.333344  0.666655  0.750005  1
  Si  Si7  1  0.666658  0.333343  0.249994  1
