# generated using pymatgen
data_Nd(NiSb)2
_symmetry_space_group_name_H-M   'P 1'
_cell_length_a   4.48034079
_cell_length_b   4.48034425
_cell_length_c   10.08589214
_cell_angle_alpha   90.00006158
_cell_angle_beta   89.99996568
_cell_angle_gamma   90.00008440
_symmetry_Int_Tables_number   1
_chemical_formula_structural   Nd(NiSb)2
_chemical_formula_sum   'Nd2 Ni4 Sb4'
_cell_volume   202.45884418
_cell_formula_units_Z   2
loop_
 _symmetry_equiv_pos_site_id
 _symmetry_equiv_pos_as_xyz
  1  'x, y, z'
loop_
 _atom_site_type_symbol
 _atom_site_label
 _atom_site_symmetry_multiplicity
 _atom_site_fract_x
 _atom_site_fract_y
 _atom_site_fract_z
 _atom_site_occupancy
  Nd  Nd0  1  0.249999  0.249999  0.761131  1
  Nd  Nd1  1  0.749999  0.749999  0.238867  1
  Ni  Ni2  1  0.250001  0.249997  0.374914  1
  Ni  Ni3  1  0.749996  0.750002  0.625092  1
  Ni  Ni4  1  0.750000  0.249998  0.999998  1
  Ni  Ni5  1  0.249998  0.749998  0.999996  1
  Sb  Sb6  1  0.249999  0.249999  0.125768  1
  Sb  Sb7  1  0.749999  0.749999  0.874232  1
  Sb  Sb8  1  0.750000  0.250000  0.500001  1
  Sb  Sb9  1  0.249999  0.749999  0.500001  1
