# generated using pymatgen
data_Pr6Fe13Si
_symmetry_space_group_name_H-M   'P 1'
_cell_length_a   8.04176567
_cell_length_b   8.04176568
_cell_length_c   12.92210033
_cell_angle_alpha   108.12934779
_cell_angle_beta   108.12934782
_cell_angle_gamma   90.00000000
_symmetry_Int_Tables_number   1
_chemical_formula_structural   Pr6Fe13Si
_chemical_formula_sum   'Pr12 Fe26 Si2'
_cell_volume   750.41073636
_cell_formula_units_Z   2
loop_
 _symmetry_equiv_pos_site_id
 _symmetry_equiv_pos_as_xyz
  1  'x, y, z'
loop_
 _atom_site_type_symbol
 _atom_site_label
 _atom_site_symmetry_multiplicity
 _atom_site_fract_x
 _atom_site_fract_y
 _atom_site_fract_z
 _atom_site_occupancy
  Si  Si0  1  0.750000  0.750000  0.500000  1
  Si  Si1  1  0.250000  0.250000  0.500000  1
  Fe  Fe2  1  0.981596  0.707391  0.188988  1
  Fe  Fe3  1  0.018404  0.292609  0.811012  1
  Fe  Fe4  1  0.792609  0.518404  0.811012  1
  Fe  Fe5  1  0.292609  0.792609  0.811012  1
  Fe  Fe6  1  0.518404  0.018404  0.811012  1
  Fe  Fe7  1  0.481596  0.981596  0.188988  1
  Fe  Fe8  1  0.707391  0.207391  0.188988  1
  Fe  Fe9  1  0.207391  0.481596  0.188988  1
  Fe  Fe10  1  0.737984  0.880543  0.118527  1
  Fe  Fe11  1  0.262016  0.119457  0.881473  1
  Fe  Fe12  1  0.500000  0.000000  0.000000  1
  Fe  Fe13  1  0.000000  0.500000  0.000000  1
  Fe  Fe14  1  0.791072  0.066179  0.000000  1
  Fe  Fe15  1  0.933821  0.791072  0.000000  1
  Fe  Fe16  1  0.066179  0.208928  0.000000  1
  Fe  Fe17  1  0.291072  0.433821  0.000000  1
  Fe  Fe18  1  0.708928  0.566179  0.000000  1
  Fe  Fe19  1  0.566179  0.291072  0.000000  1
  Fe  Fe20  1  0.433821  0.708928  0.000000  1
  Fe  Fe21  1  0.208928  0.933821  0.000000  1
  Fe  Fe22  1  0.380543  0.237984  0.118527  1
  Fe  Fe23  1  0.880543  0.380543  0.118527  1
  Fe  Fe24  1  0.237984  0.737984  0.118527  1
  Fe  Fe25  1  0.762016  0.262016  0.881473  1
  Fe  Fe26  1  0.119457  0.619457  0.881473  1
  Fe  Fe27  1  0.619457  0.762016  0.881473  1
  Pr  Pr28  1  0.855482  0.022431  0.377913  1
  Pr  Pr29  1  0.144518  0.977569  0.622087  1
  Pr  Pr30  1  0.477569  0.644518  0.622087  1
  Pr  Pr31  1  0.977569  0.477569  0.622087  1
  Pr  Pr32  1  0.644518  0.144518  0.622087  1
  Pr  Pr33  1  0.355482  0.855482  0.377913  1
  Pr  Pr34  1  0.022431  0.522431  0.377913  1
  Pr  Pr35  1  0.522431  0.355482  0.377913  1
  Pr  Pr36  1  0.608833  0.608833  0.217666  1
  Pr  Pr37  1  0.891167  0.891167  0.782334  1
  Pr  Pr38  1  0.391167  0.391167  0.782334  1
  Pr  Pr39  1  0.108833  0.108833  0.217666  1
