# generated using pymatgen
data_KCa9Mg(PO4)7
_symmetry_space_group_name_H-M   'P 1'
_cell_length_a   13.83472137
_cell_length_b   13.83472137
_cell_length_c   13.83472137
_cell_angle_alpha   44.64804279
_cell_angle_beta   44.64804277
_cell_angle_gamma   44.64804279
_symmetry_Int_Tables_number   1
_chemical_formula_structural   KCa9Mg(PO4)7
_chemical_formula_sum   'K2 Ca18 Mg2 P14 O56'
_cell_volume   1189.37076996
_cell_formula_units_Z   2
loop_
 _symmetry_equiv_pos_site_id
 _symmetry_equiv_pos_as_xyz
  1  'x, y, z'
loop_
 _atom_site_type_symbol
 _atom_site_label
 _atom_site_symmetry_multiplicity
 _atom_site_fract_x
 _atom_site_fract_y
 _atom_site_fract_z
 _atom_site_occupancy
  O  O0  1  0.112172  0.669762  0.689620  1
  O  O1  1  0.669762  0.689620  0.112172  1
  O  O2  1  0.689620  0.112172  0.669762  1
  O  O3  1  0.189620  0.169762  0.612172  1
  O  O4  1  0.169762  0.612172  0.189620  1
  O  O5  1  0.612172  0.189620  0.169762  1
  O  O6  1  0.363764  0.609931  0.639380  1
  O  O7  1  0.609931  0.639380  0.363764  1
  O  O8  1  0.639380  0.363764  0.609931  1
  O  O9  1  0.139380  0.109931  0.863765  1
  O  O10  1  0.109931  0.863765  0.139380  1
  O  O11  1  0.863765  0.139380  0.109931  1
  O  O12  1  0.132781  0.848007  0.672709  1
  O  O13  1  0.848007  0.672709  0.132781  1
  O  O14  1  0.672709  0.132781  0.848007  1
  O  O15  1  0.172709  0.348007  0.632781  1
  O  O16  1  0.348007  0.632781  0.172709  1
  O  O17  1  0.632781  0.172709  0.348007  1
  O  O18  1  0.144164  0.586269  0.898989  1
  O  O19  1  0.586269  0.898989  0.144164  1
  O  O20  1  0.898989  0.144164  0.586269  1
  O  O21  1  0.398989  0.086269  0.644164  1
  O  O22  1  0.382903  0.843994  0.640195  1
  O  O23  1  0.086269  0.644164  0.398989  1
  O  O24  1  0.141928  0.871980  0.877631  1
  O  O25  1  0.871980  0.877631  0.141928  1
  O  O26  1  0.877631  0.141928  0.871980  1
  O  O27  1  0.377631  0.371980  0.641928  1
  O  O28  1  0.371980  0.641928  0.377631  1
  O  O29  1  0.641928  0.377631  0.371980  1
  O  O30  1  0.334654  0.610334  0.891730  1
  O  O31  1  0.610334  0.891730  0.334654  1
  O  O32  1  0.891730  0.334654  0.610334  1
  O  O33  1  0.391730  0.110334  0.834654  1
  O  O34  1  0.110334  0.834654  0.391730  1
  O  O35  1  0.834654  0.391730  0.110334  1
  O  O36  1  0.308768  0.308768  0.308768  1
  O  O37  1  0.808768  0.808768  0.808768  1
  O  O38  1  0.261610  0.109347  0.390089  1
  O  O39  1  0.390089  0.261610  0.109347  1
  O  O40  1  0.109347  0.390089  0.261610  1
  O  O41  1  0.609347  0.761610  0.890089  1
  O  O42  1  0.890089  0.609347  0.761610  1
  O  O43  1  0.761610  0.890089  0.609347  1
  O  O44  1  0.896736  0.367378  0.258768  1
  O  O45  1  0.258768  0.896736  0.367378  1
  O  O46  1  0.367378  0.258768  0.896736  1
  O  O47  1  0.867378  0.396736  0.758768  1
  O  O48  1  0.758768  0.867378  0.396736  1
  O  O49  1  0.396736  0.758768  0.867378  1
  O  O50  1  0.882903  0.140195  0.343994  1
  O  O51  1  0.343994  0.882903  0.140195  1
  O  O52  1  0.140195  0.343994  0.882903  1
  O  O53  1  0.640195  0.382903  0.843994  1
  O  O54  1  0.843994  0.640195  0.382903  1
  O  O55  1  0.644164  0.398989  0.086269  1
  Mg  Mg56  1  0.499906  0.499906  0.499906  1
  Mg  Mg57  1  0.999906  0.999906  0.999906  1
  P  P58  1  0.773305  0.814813  0.317302  1
  P  P59  1  0.225953  0.179233  0.687647  1
  P  P60  1  0.179233  0.687647  0.225953  1
  P  P61  1  0.687647  0.225953  0.179233  1
  P  P62  1  0.317302  0.773305  0.814813  1
  P  P63  1  0.725953  0.187647  0.679233  1
  P  P64  1  0.814813  0.317302  0.773305  1
  P  P65  1  0.679233  0.725953  0.187647  1
  P  P66  1  0.273305  0.817302  0.314813  1
  P  P67  1  0.817302  0.314813  0.273305  1
  P  P68  1  0.767173  0.767173  0.767173  1
  P  P69  1  0.267173  0.267173  0.267173  1
  P  P70  1  0.187647  0.679233  0.725953  1
  P  P71  1  0.314813  0.273305  0.817302  1
  K  K72  1  0.683310  0.683310  0.683310  1
  K  K73  1  0.183310  0.183310  0.183310  1
  Ca  Ca74  1  0.943315  0.561152  0.970868  1
  Ca  Ca75  1  0.561152  0.970868  0.943315  1
  Ca  Ca76  1  0.970868  0.943315  0.561152  1
  Ca  Ca77  1  0.470868  0.061152  0.443315  1
  Ca  Ca78  1  0.061152  0.443315  0.470868  1
  Ca  Ca79  1  0.443315  0.470868  0.061152  1
  Ca  Ca80  1  0.343861  0.907385  0.944831  1
  Ca  Ca81  1  0.907385  0.944831  0.343861  1
  Ca  Ca82  1  0.944831  0.343861  0.907385  1
  Ca  Ca83  1  0.444831  0.407385  0.843861  1
  Ca  Ca84  1  0.407385  0.843861  0.444831  1
  Ca  Ca85  1  0.843861  0.444831  0.407385  1
  Ca  Ca86  1  0.659559  0.073831  0.062663  1
  Ca  Ca87  1  0.073831  0.062663  0.659559  1
  Ca  Ca88  1  0.062663  0.659559  0.073831  1
  Ca  Ca89  1  0.562663  0.573831  0.159559  1
  Ca  Ca90  1  0.573831  0.159559  0.562663  1
  Ca  Ca91  1  0.159559  0.562663  0.573831  1
