# generated using pymatgen
data_S
_symmetry_space_group_name_H-M   'P 1'
_cell_length_a   9.24805411
_cell_length_b   9.72109676
_cell_length_c   13.64206067
_cell_angle_alpha   90.00000000
_cell_angle_beta   90.00000000
_cell_angle_gamma   109.92842285
_symmetry_Int_Tables_number   1
_chemical_formula_structural   S
_chemical_formula_sum   S32
_cell_volume   1152.99787664
_cell_formula_units_Z   32
loop_
 _symmetry_equiv_pos_site_id
 _symmetry_equiv_pos_as_xyz
  1  'x, y, z'
loop_
 _atom_site_type_symbol
 _atom_site_label
 _atom_site_symmetry_multiplicity
 _atom_site_fract_x
 _atom_site_fract_y
 _atom_site_fract_z
 _atom_site_occupancy
  S  S0  1  0.315022  0.682235  0.650410  1
  S  S1  1  0.184978  0.817765  0.650410  1
  S  S2  1  0.684978  0.317765  0.349590  1
  S  S3  1  0.815022  0.182235  0.349590  1
  S  S4  1  0.443704  0.659499  0.422737  1
  S  S5  1  0.056296  0.840501  0.422737  1
  S  S6  1  0.556296  0.340501  0.577263  1
  S  S7  1  0.943704  0.159499  0.577263  1
  S  S8  1  0.498243  0.765111  0.555831  1
  S  S9  1  0.001757  0.734889  0.555831  1
  S  S10  1  0.501757  0.234889  0.444169  1
  S  S11  1  0.998243  0.265111  0.444169  1
  S  S12  1  0.368522  0.786077  0.327747  1
  S  S13  1  0.131477  0.713923  0.327747  1
  S  S14  1  0.631478  0.213923  0.672253  1
  S  S15  1  0.868522  0.286077  0.672253  1
  S  S16  1  0.219999  0.137615  0.201835  1
  S  S17  1  0.280001  0.362385  0.201835  1
  S  S18  1  0.780001  0.862385  0.798165  1
  S  S19  1  0.719999  0.637615  0.798165  1
  S  S20  1  0.253825  0.019716  0.974082  1
  S  S21  1  0.246175  0.480284  0.974082  1
  S  S22  1  0.746175  0.980284  0.025918  1
  S  S23  1  0.753825  0.519716  0.025918  1
  S  S24  1  0.362936  0.078579  0.107332  1
  S  S25  1  0.137064  0.421421  0.107332  1
  S  S26  1  0.637064  0.921421  0.892668  1
  S  S27  1  0.862936  0.578579  0.892668  1
  S  S28  1  0.328232  0.195530  0.879594  1
  S  S29  1  0.171768  0.304470  0.879594  1
  S  S30  1  0.671768  0.804470  0.120406  1
  S  S31  1  0.828232  0.695530  0.120406  1
