# generated using pymatgen
data_Fe3B
_symmetry_space_group_name_H-M   'P 1'
_cell_length_a   5.40616887
_cell_length_b   6.66140146
_cell_length_c   4.36349515
_cell_angle_alpha   90.01488831
_cell_angle_beta   90.05117799
_cell_angle_gamma   89.98591966
_symmetry_Int_Tables_number   1
_chemical_formula_structural   Fe3B
_chemical_formula_sum   'Fe12 B4'
_cell_volume   157.14099976
_cell_formula_units_Z   4
loop_
 _symmetry_equiv_pos_site_id
 _symmetry_equiv_pos_as_xyz
  1  'x, y, z'
loop_
 _atom_site_type_symbol
 _atom_site_label
 _atom_site_symmetry_multiplicity
 _atom_site_fract_x
 _atom_site_fract_y
 _atom_site_fract_z
 _atom_site_occupancy
  Fe  Fe0  1  0.980008  0.749851  0.117929  1
  Fe  Fe1  1  0.675950  0.056003  0.148495  1
  Fe  Fe2  1  0.675955  0.444146  0.148429  1
  Fe  Fe3  1  0.176113  0.055929  0.351381  1
  Fe  Fe4  1  0.176051  0.444220  0.351436  1
  Fe  Fe5  1  0.480017  0.749870  0.382063  1
  Fe  Fe6  1  0.520016  0.250123  0.618222  1
  Fe  Fe7  1  0.823944  0.555497  0.648687  1
  Fe  Fe8  1  0.823879  0.944364  0.648706  1
  Fe  Fe9  1  0.324152  0.555611  0.851415  1
  Fe  Fe10  1  0.324150  0.944257  0.851381  1
  Fe  Fe11  1  0.019947  0.250144  0.881859  1
  B  B12  1  0.382109  0.250122  0.074448  1
  B  B13  1  0.881627  0.250149  0.425429  1
  B  B14  1  0.118164  0.749837  0.575074  1
  B  B15  1  0.617918  0.749873  0.925048  1
