# generated using pymatgen
data_CsNaF3
_symmetry_space_group_name_H-M   'P 1'
_cell_length_a   4.56773697
_cell_length_b   4.61800699
_cell_length_c   4.56877688
_cell_angle_alpha   87.59767918
_cell_angle_beta   84.92640082
_cell_angle_gamma   87.95767135
_symmetry_Int_Tables_number   1
_chemical_formula_structural   CsNaF3
_chemical_formula_sum   'Cs1 Na1 F3'
_cell_volume   95.86171031
_cell_formula_units_Z   1
loop_
 _symmetry_equiv_pos_site_id
 _symmetry_equiv_pos_as_xyz
  1  'x, y, z'
loop_
 _atom_site_type_symbol
 _atom_site_label
 _atom_site_symmetry_multiplicity
 _atom_site_fract_x
 _atom_site_fract_y
 _atom_site_fract_z
 _atom_site_occupancy
  Cs  Cs0  1  0.990542  0.997673  0.996363  1
  Na  Na1  1  0.483973  0.498914  0.494720  1
  F  F2  1  0.487212  0.999303  0.493445  1
  F  F3  1  0.980664  0.506116  0.512175  1
  F  F4  1  0.497607  0.497995  0.993298  1
