# generated using pymatgen
data_Sm3Sb4Au3
_symmetry_space_group_name_H-M   'P 1'
_cell_length_a   8.71213711
_cell_length_b   8.71213711
_cell_length_c   8.71213711
_cell_angle_alpha   109.47119773
_cell_angle_beta   109.47119773
_cell_angle_gamma   109.47119773
_symmetry_Int_Tables_number   1
_chemical_formula_structural   Sm3Sb4Au3
_chemical_formula_sum   'Sm6 Sb8 Au6'
_cell_volume   509.04078719
_cell_formula_units_Z   2
loop_
 _symmetry_equiv_pos_site_id
 _symmetry_equiv_pos_as_xyz
  1  'x, y, z'
loop_
 _atom_site_type_symbol
 _atom_site_label
 _atom_site_symmetry_multiplicity
 _atom_site_fract_x
 _atom_site_fract_y
 _atom_site_fract_z
 _atom_site_occupancy
  Sm  Sm0  1  0.250001  0.625001  0.375000  1
  Sm  Sm1  1  0.750000  0.875000  0.124999  1
  Sm  Sm2  1  0.375000  0.250001  0.625001  1
  Sm  Sm3  1  0.625001  0.375000  0.250001  1
  Sm  Sm4  1  0.124999  0.750000  0.875000  1
  Sm  Sm5  1  0.875000  0.124999  0.750000  1
  Sb  Sb6  1  0.177803  0.177803  0.177803  1
  Sb  Sb7  1  0.500000  0.000000  0.322197  1
  Sb  Sb8  1  0.322197  0.500000  0.000000  1
  Sb  Sb9  1  0.000000  0.322197  0.500000  1
  Sb  Sb10  1  0.677804  0.677804  0.677804  1
  Sb  Sb11  1  0.500000  1.000000  0.822196  1
  Sb  Sb12  1  1.000000  0.822196  0.500000  1
  Sb  Sb13  1  0.822196  0.500000  1.000000  1
  Au  Au14  1  0.249999  0.124999  0.875000  1
  Au  Au15  1  0.750001  0.375000  0.625000  1
  Au  Au16  1  0.875000  0.249999  0.124999  1
  Au  Au17  1  0.124999  0.875000  0.249999  1
  Au  Au18  1  0.625000  0.750001  0.375000  1
  Au  Au19  1  0.375000  0.625000  0.750001  1
