# generated using pymatgen
data_Ce3Br
_symmetry_space_group_name_H-M   'P 1'
_cell_length_a   4.57478627
_cell_length_b   4.57507695
_cell_length_c   4.57502292
_cell_angle_alpha   90.00029566
_cell_angle_beta   89.99788684
_cell_angle_gamma   89.99734094
_symmetry_Int_Tables_number   1
_chemical_formula_structural   Ce3Br
_chemical_formula_sum   'Ce3 Br1'
_cell_volume   95.75522604
_cell_formula_units_Z   1
loop_
 _symmetry_equiv_pos_site_id
 _symmetry_equiv_pos_as_xyz
  1  'x, y, z'
loop_
 _atom_site_type_symbol
 _atom_site_label
 _atom_site_symmetry_multiplicity
 _atom_site_fract_x
 _atom_site_fract_y
 _atom_site_fract_z
 _atom_site_occupancy
  Ce  Ce0  1  0.999997  0.499999  0.500004  1
  Ce  Ce1  1  0.499998  1.000000  0.499996  1
  Ce  Ce2  1  0.499998  0.500007  1.000000  1
  Br  Br3  1  0.000008  0.999997  0.000002  1
