# generated using pymatgen
data_Co3S4
_symmetry_space_group_name_H-M   'P 1'
_cell_length_a   6.56102873
_cell_length_b   6.56102896
_cell_length_c   6.56102865
_cell_angle_alpha   60.01956096
_cell_angle_beta   60.01955746
_cell_angle_gamma   60.01956142
_symmetry_Int_Tables_number   1
_chemical_formula_structural   Co3S4
_chemical_formula_sum   'Co6 S8'
_cell_volume   199.79902387
_cell_formula_units_Z   2
loop_
 _symmetry_equiv_pos_site_id
 _symmetry_equiv_pos_as_xyz
  1  'x, y, z'
loop_
 _atom_site_type_symbol
 _atom_site_label
 _atom_site_symmetry_multiplicity
 _atom_site_fract_x
 _atom_site_fract_y
 _atom_site_fract_z
 _atom_site_occupancy
  Co  Co0  1  0.500000  0.000000  0.500000  1
  Co  Co1  1  0.500000  0.500000  0.000000  1
  Co  Co2  1  0.000000  0.500000  0.500000  1
  Co  Co3  1  0.500000  0.500000  0.500000  1
  Co  Co4  1  0.124978  0.124978  0.124978  1
  Co  Co5  1  0.875022  0.875022  0.875022  1
  S  S6  1  0.742969  0.742969  0.271086  1
  S  S7  1  0.257031  0.257031  0.728914  1
  S  S8  1  0.271086  0.742969  0.742969  1
  S  S9  1  0.742969  0.271086  0.742969  1
  S  S10  1  0.742948  0.742948  0.742948  1
  S  S11  1  0.257052  0.257052  0.257052  1
  S  S12  1  0.728914  0.257031  0.257031  1
  S  S13  1  0.257031  0.728914  0.257031  1
