# generated using pymatgen
data_Hf5Al3N
_symmetry_space_group_name_H-M   'P 1'
_cell_length_a   8.08968816
_cell_length_b   8.08968910
_cell_length_c   5.66636319
_cell_angle_alpha   89.99962043
_cell_angle_beta   89.99962049
_cell_angle_gamma   119.99942295
_symmetry_Int_Tables_number   1
_chemical_formula_structural   Hf5Al3N
_chemical_formula_sum   'Hf10 Al6 N2'
_cell_volume   321.14500869
_cell_formula_units_Z   2
loop_
 _symmetry_equiv_pos_site_id
 _symmetry_equiv_pos_as_xyz
  1  'x, y, z'
loop_
 _atom_site_type_symbol
 _atom_site_label
 _atom_site_symmetry_multiplicity
 _atom_site_fract_x
 _atom_site_fract_y
 _atom_site_fract_z
 _atom_site_occupancy
  Hf  Hf0  1  0.666667  0.333331  0.000012  1
  Hf  Hf1  1  0.333330  0.666666  0.000012  1
  Hf  Hf2  1  0.224143  0.999991  0.250002  1
  Hf  Hf3  1  0.999990  0.224142  0.250002  1
  Hf  Hf4  1  0.775863  0.775862  0.250013  1
  Hf  Hf5  1  0.666669  0.333333  0.499997  1
  Hf  Hf6  1  0.333333  0.666669  0.499997  1
  Hf  Hf7  1  0.775861  0.000001  0.750007  1
  Hf  Hf8  1  0.000002  0.775861  0.750007  1
  Hf  Hf9  1  0.224137  0.224137  0.750010  1
  Al  Al10  1  0.596646  0.000006  0.249990  1
  Al  Al11  1  0.000007  0.596646  0.249990  1
  Al  Al12  1  0.403353  0.403353  0.250002  1
  Al  Al13  1  0.403362  0.999995  0.749990  1
  Al  Al14  1  0.999994  0.403362  0.749990  1
  Al  Al15  1  0.596643  0.596644  0.750002  1
  N  N16  1  0.000005  0.000005  0.000007  1
  N  N17  1  -0.000007  -0.000007  0.499970  1
