# generated using pymatgen
data_DyGeRh
_symmetry_space_group_name_H-M   'P 1'
_cell_length_a   4.33196471
_cell_length_b   6.95660757
_cell_length_c   7.56627228
_cell_angle_alpha   90.00000000
_cell_angle_beta   90.00000000
_cell_angle_gamma   90.00000000
_symmetry_Int_Tables_number   1
_chemical_formula_structural   DyGeRh
_chemical_formula_sum   'Dy4 Ge4 Rh4'
_cell_volume   228.01550546
_cell_formula_units_Z   4
loop_
 _symmetry_equiv_pos_site_id
 _symmetry_equiv_pos_as_xyz
  1  'x, y, z'
loop_
 _atom_site_type_symbol
 _atom_site_label
 _atom_site_symmetry_multiplicity
 _atom_site_fract_x
 _atom_site_fract_y
 _atom_site_fract_z
 _atom_site_occupancy
  Ge  Ge0  1  0.250000  0.289259  0.895920  1
  Ge  Ge1  1  0.750000  0.710741  0.104080  1
  Ge  Ge2  1  0.250000  0.789259  0.604080  1
  Ge  Ge3  1  0.750000  0.210741  0.395920  1
  Rh  Rh4  1  0.750000  0.843357  0.430764  1
  Rh  Rh5  1  0.250000  0.156643  0.569236  1
  Rh  Rh6  1  0.750000  0.343357  0.069236  1
  Rh  Rh7  1  0.250000  0.656643  0.930764  1
  Dy  Dy8  1  0.250000  0.000474  0.195507  1
  Dy  Dy9  1  0.750000  0.999526  0.804493  1
  Dy  Dy10  1  0.250000  0.500474  0.304493  1
  Dy  Dy11  1  0.750000  0.499526  0.695507  1
