# generated using pymatgen
data_SiAu3
_symmetry_space_group_name_H-M   'P 1'
_cell_length_a   5.83634878
_cell_length_b   5.83618920
_cell_length_c   4.73934620
_cell_angle_alpha   89.87743700
_cell_angle_beta   90.12303167
_cell_angle_gamma   119.93693782
_symmetry_Int_Tables_number   1
_chemical_formula_structural   SiAu3
_chemical_formula_sum   'Si2 Au6'
_cell_volume   139.89234790
_cell_formula_units_Z   2
loop_
 _symmetry_equiv_pos_site_id
 _symmetry_equiv_pos_as_xyz
  1  'x, y, z'
loop_
 _atom_site_type_symbol
 _atom_site_label
 _atom_site_symmetry_multiplicity
 _atom_site_fract_x
 _atom_site_fract_y
 _atom_site_fract_z
 _atom_site_occupancy
  Si  Si0  1  0.333345  0.666655  0.749892  1
  Si  Si1  1  0.666656  0.333344  0.250106  1
  Au  Au2  1  0.169233  0.338333  0.249954  1
  Au  Au3  1  0.661668  0.830766  0.249959  1
  Au  Au4  1  0.169151  0.830853  0.250119  1
  Au  Au5  1  0.830729  0.661588  0.750042  1
  Au  Au6  1  0.338413  0.169268  0.750045  1
  Au  Au7  1  0.830810  0.169193  0.749879  1
