# generated using pymatgen
data_TmP5
_symmetry_space_group_name_H-M   'P 1'
_cell_length_a   4.92079759
_cell_length_b   5.31756481
_cell_length_c   9.36171210
_cell_angle_alpha   90.00000000
_cell_angle_beta   90.00000000
_cell_angle_gamma   102.34438869
_symmetry_Int_Tables_number   1
_chemical_formula_structural   TmP5
_chemical_formula_sum   'Tm2 P10'
_cell_volume   239.30121274
_cell_formula_units_Z   2
loop_
 _symmetry_equiv_pos_site_id
 _symmetry_equiv_pos_as_xyz
  1  'x, y, z'
loop_
 _atom_site_type_symbol
 _atom_site_label
 _atom_site_symmetry_multiplicity
 _atom_site_fract_x
 _atom_site_fract_y
 _atom_site_fract_z
 _atom_site_occupancy
  P  P0  1  0.271411  0.890903  0.250000  1
  P  P1  1  0.728589  0.109097  0.750000  1
  P  P2  1  0.616656  0.956772  0.406607  1
  P  P3  1  0.383344  0.043228  0.906607  1
  P  P4  1  0.383344  0.043228  0.593393  1
  P  P5  1  0.616656  0.956772  0.093393  1
  P  P6  1  0.716657  0.594529  0.471625  1
  P  P7  1  0.283343  0.405471  0.971625  1
  P  P8  1  0.283343  0.405471  0.528375  1
  P  P9  1  0.716657  0.594529  0.028375  1
  Tm  Tm10  1  0.002538  0.346721  0.250000  1
  Tm  Tm11  1  0.997462  0.653279  0.750000  1
