# generated using pymatgen
data_RbAgBr3
_symmetry_space_group_name_H-M   'P 1'
_cell_length_a   5.44547102
_cell_length_b   5.44817688
_cell_length_c   5.44716971
_cell_angle_alpha   90.16348164
_cell_angle_beta   90.09041233
_cell_angle_gamma   90.00256879
_symmetry_Int_Tables_number   1
_chemical_formula_structural   RbAgBr3
_chemical_formula_sum   'Rb1 Ag1 Br3'
_cell_volume   161.60516885
_cell_formula_units_Z   1
loop_
 _symmetry_equiv_pos_site_id
 _symmetry_equiv_pos_as_xyz
  1  'x, y, z'
loop_
 _atom_site_type_symbol
 _atom_site_label
 _atom_site_symmetry_multiplicity
 _atom_site_fract_x
 _atom_site_fract_y
 _atom_site_fract_z
 _atom_site_occupancy
  Rb  Rb0  1  0.999891  0.001205  0.997071  1
  Ag  Ag1  1  0.498789  0.494506  0.483871  1
  Br  Br2  1  0.998981  0.493690  0.485763  1
  Br  Br3  1  0.504667  0.505716  0.984221  1
  Br  Br4  1  0.497675  0.994885  0.489074  1
