# generated using pymatgen
data_CaAlH5
_symmetry_space_group_name_H-M   'P 1'
_cell_length_a   9.69804559
_cell_length_b   6.92599097
_cell_length_c   12.39634949
_cell_angle_alpha   90.00000000
_cell_angle_beta   137.75141289
_cell_angle_gamma   90.00000000
_symmetry_Int_Tables_number   1
_chemical_formula_structural   CaAlH5
_chemical_formula_sum   'Ca8 Al8 H40'
_cell_volume   559.82775944
_cell_formula_units_Z   8
loop_
 _symmetry_equiv_pos_site_id
 _symmetry_equiv_pos_as_xyz
  1  'x, y, z'
loop_
 _atom_site_type_symbol
 _atom_site_label
 _atom_site_symmetry_multiplicity
 _atom_site_fract_x
 _atom_site_fract_y
 _atom_site_fract_z
 _atom_site_occupancy
  Ca  Ca0  1  0.786529  0.269547  0.241305  1
  Ca  Ca1  1  0.213472  0.769547  0.258695  1
  Ca  Ca2  1  0.213473  0.730453  0.758696  1
  Ca  Ca3  1  0.786528  0.230454  0.741305  1
  Ca  Ca4  1  0.345357  0.229421  0.692441  1
  Ca  Ca5  1  0.654642  0.729419  0.807559  1
  Ca  Ca6  1  0.654641  0.770580  0.307559  1
  Ca  Ca7  1  0.345358  0.270579  0.192441  1
  Al  Al8  1  0.219181  0.278715  0.374141  1
  Al  Al9  1  0.780820  0.778714  0.125859  1
  Al  Al10  1  0.780820  0.721285  0.625859  1
  Al  Al11  1  0.219179  0.221286  0.874141  1
  Al  Al12  1  0.807713  0.191237  0.996468  1
  Al  Al13  1  0.192287  0.691238  0.503533  1
  Al  Al14  1  0.192286  0.808762  0.003532  1
  Al  Al15  1  0.807713  0.308762  0.496467  1
  H  H16  1  0.999321  0.197388  0.014632  1
  H  H17  1  0.000678  0.697389  0.485368  1
  H  H18  1  0.000678  0.802611  0.985368  1
  H  H19  1  0.999321  0.302612  0.514632  1
  H  H20  1  0.612088  0.208061  0.973279  1
  H  H21  1  0.387912  0.708062  0.526720  1
  H  H22  1  0.387912  0.791937  0.026721  1
  H  H23  1  0.612086  0.291938  0.473278  1
  H  H24  1  0.693357  0.113968  0.357651  1
  H  H25  1  0.306644  0.613969  0.142349  1
  H  H26  1  0.306643  0.886032  0.642349  1
  H  H27  1  0.693357  0.386032  0.857651  1
  H  H28  1  0.115451  0.138914  0.414523  1
  H  H29  1  0.884549  0.638915  0.085478  1
  H  H30  1  0.884550  0.861086  0.585478  1
  H  H31  1  0.115451  0.361085  0.914523  1
  H  H32  1  0.111870  0.467552  0.402235  1
  H  H33  1  0.888131  0.967550  0.097765  1
  H  H34  1  0.888132  0.532450  0.597766  1
  H  H35  1  0.111870  0.032449  0.902236  1
  H  H36  1  0.280073  0.097416  0.321090  1
  H  H37  1  0.719928  0.597417  0.178911  1
  H  H38  1  0.719927  0.902583  0.678910  1
  H  H39  1  0.280073  0.402583  0.821089  1
  H  H40  1  0.269176  0.444132  0.305378  1
  H  H41  1  0.730823  0.944131  0.194622  1
  H  H42  1  0.730824  0.555870  0.694622  1
  H  H43  1  0.269175  0.055869  0.805378  1
  H  H44  1  0.651977  0.063678  0.815153  1
  H  H45  1  0.348022  0.563678  0.684847  1
  H  H46  1  0.348023  0.936322  0.184847  1
  H  H47  1  0.651978  0.436321  0.315153  1
  H  H48  1  0.443054  0.289340  0.572231  1
  H  H49  1  0.556946  0.789341  0.927768  1
  H  H50  1  0.556946  0.710660  0.427769  1
  H  H51  1  0.443054  0.210661  0.072231  1
  H  H52  1  0.956370  0.305385  0.178352  1
  H  H53  1  0.043630  0.805386  0.321648  1
  H  H54  1  0.043630  0.694615  0.821647  1
  H  H55  1  0.956371  0.194616  0.678352  1
