# generated using pymatgen
data_Si(H3C)4
_symmetry_space_group_name_H-M   'P 1'
_cell_length_a   10.54898393
_cell_length_b   10.54898393
_cell_length_c   10.54898393
_cell_angle_alpha   90.00000000
_cell_angle_beta   90.00000000
_cell_angle_gamma   90.00000000
_symmetry_Int_Tables_number   1
_chemical_formula_structural   Si(H3C)4
_chemical_formula_sum   'Si8 H96 C32'
_cell_volume   1173.90213428
_cell_formula_units_Z   8
loop_
 _symmetry_equiv_pos_site_id
 _symmetry_equiv_pos_as_xyz
  1  'x, y, z'
loop_
 _atom_site_type_symbol
 _atom_site_label
 _atom_site_symmetry_multiplicity
 _atom_site_fract_x
 _atom_site_fract_y
 _atom_site_fract_z
 _atom_site_occupancy
  Si  Si0  1  0.134203  0.134203  0.134203  1
  Si  Si1  1  0.365798  0.865797  0.634203  1
  Si  Si2  1  0.634203  0.365798  0.865797  1
  Si  Si3  1  0.865797  0.634203  0.365798  1
  Si  Si4  1  0.865797  0.865797  0.865797  1
  Si  Si5  1  0.634203  0.134203  0.365798  1
  Si  Si6  1  0.365798  0.634203  0.134203  1
  Si  Si7  1  0.134203  0.365798  0.634203  1
  H  H8  1  0.090860  0.968789  0.298389  1
  H  H9  1  0.409141  0.031211  0.798388  1
  H  H10  1  0.590859  0.531211  0.701611  1
  H  H11  1  0.909140  0.468789  0.201612  1
  H  H12  1  0.298389  0.090860  0.968789  1
  H  H13  1  0.968789  0.298389  0.090860  1
  H  H14  1  0.201612  0.909140  0.468789  1
  H  H15  1  0.031211  0.798388  0.409141  1
  H  H16  1  0.798388  0.409141  0.031211  1
  H  H17  1  0.531211  0.701611  0.590859  1
  H  H18  1  0.701611  0.590859  0.531211  1
  H  H19  1  0.468789  0.201612  0.909140  1
  H  H20  1  0.909140  0.031211  0.701611  1
  H  H21  1  0.590859  0.968789  0.201612  1
  H  H22  1  0.409141  0.468789  0.298389  1
  H  H23  1  0.090860  0.531211  0.798388  1
  H  H24  1  0.701611  0.909140  0.031211  1
  H  H25  1  0.031211  0.701611  0.909140  1
  H  H26  1  0.798388  0.090860  0.531211  1
  H  H27  1  0.968789  0.201612  0.590859  1
  H  H28  1  0.201612  0.590859  0.968789  1
  H  H29  1  0.468789  0.298389  0.409141  1
  H  H30  1  0.298389  0.409141  0.468789  1
  H  H31  1  0.531211  0.798388  0.090860  1
  H  H32  1  0.314994  0.281739  0.183166  1
  H  H33  1  0.185005  0.718262  0.683165  1
  H  H34  1  0.814994  0.218262  0.816835  1
  H  H35  1  0.685006  0.781738  0.316835  1
  H  H36  1  0.183166  0.314994  0.281739  1
  H  H37  1  0.281739  0.183166  0.314994  1
  H  H38  1  0.316835  0.685006  0.781738  1
  H  H39  1  0.718262  0.683165  0.185005  1
  H  H40  1  0.683165  0.185005  0.718262  1
  H  H41  1  0.218262  0.816835  0.814994  1
  H  H42  1  0.816835  0.814994  0.218262  1
  H  H43  1  0.781738  0.316835  0.685006  1
  H  H44  1  0.685006  0.718262  0.816835  1
  H  H45  1  0.814994  0.281739  0.316835  1
  H  H46  1  0.185005  0.781738  0.183166  1
  H  H47  1  0.314994  0.218262  0.683165  1
  H  H48  1  0.816835  0.685006  0.718262  1
  H  H49  1  0.718262  0.816835  0.685006  1
  H  H50  1  0.683165  0.314994  0.218262  1
  H  H51  1  0.281739  0.316835  0.814994  1
  H  H52  1  0.316835  0.814994  0.281739  1
  H  H53  1  0.781738  0.183166  0.185005  1
  H  H54  1  0.183166  0.185005  0.781738  1
  H  H55  1  0.218262  0.683165  0.314994  1
  H  H56  1  0.967844  0.969478  0.184046  1
  H  H57  1  0.532156  0.030522  0.684045  1
  H  H58  1  0.467845  0.530522  0.815955  1
  H  H59  1  0.032156  0.469478  0.315954  1
  H  H60  1  0.184046  0.967844  0.969478  1
  H  H61  1  0.969478  0.184046  0.967844  1
  H  H62  1  0.315954  0.032156  0.469478  1
  H  H63  1  0.030522  0.684045  0.532156  1
  H  H64  1  0.684045  0.532156  0.030522  1
  H  H65  1  0.530522  0.815955  0.467845  1
  H  H66  1  0.815955  0.467845  0.530522  1
  H  H67  1  0.469478  0.315954  0.032156  1
  H  H68  1  0.032156  0.030522  0.815955  1
  H  H69  1  0.467845  0.969478  0.315954  1
  H  H70  1  0.532156  0.469478  0.184046  1
  H  H71  1  0.967844  0.530522  0.684045  1
  H  H72  1  0.815955  0.032156  0.030522  1
  H  H73  1  0.030522  0.815955  0.032156  1
  H  H74  1  0.684045  0.967844  0.530522  1
  H  H75  1  0.969478  0.315954  0.467845  1
  H  H76  1  0.315954  0.467845  0.969478  1
  H  H77  1  0.469478  0.184046  0.532156  1
  H  H78  1  0.184046  0.532156  0.469478  1
  H  H79  1  0.530522  0.684045  0.967844  1
  H  H80  1  0.972318  0.087404  0.303427  1
  H  H81  1  0.527682  0.912595  0.803428  1
  H  H82  1  0.472319  0.412595  0.696572  1
  H  H83  1  0.027681  0.587405  0.196573  1
  H  H84  1  0.303427  0.972318  0.087404  1
  H  H85  1  0.087404  0.303427  0.972318  1
  H  H86  1  0.196573  0.027681  0.587405  1
  H  H87  1  0.912595  0.803428  0.527682  1
  H  H88  1  0.803428  0.527682  0.912595  1
  H  H89  1  0.412595  0.696572  0.472319  1
  H  H90  1  0.696572  0.472319  0.412595  1
  H  H91  1  0.587405  0.196573  0.027681  1
  H  H92  1  0.027681  0.912595  0.696572  1
  H  H93  1  0.472319  0.087404  0.196573  1
  H  H94  1  0.527682  0.587405  0.303427  1
  H  H95  1  0.972318  0.412595  0.803428  1
  H  H96  1  0.696572  0.027681  0.912595  1
  H  H97  1  0.912595  0.696572  0.027681  1
  H  H98  1  0.803428  0.972318  0.412595  1
  H  H99  1  0.087404  0.196573  0.472319  1
  H  H100  1  0.196573  0.472319  0.087404  1
  H  H101  1  0.587405  0.303427  0.527682  1
  H  H102  1  0.303427  0.527682  0.587405  1
  H  H103  1  0.412595  0.803428  0.972318  1
  C  C104  1  0.031300  0.030828  0.238785  1
  C  C105  1  0.468700  0.969172  0.738785  1
  C  C106  1  0.531300  0.469172  0.761215  1
  C  C107  1  0.968700  0.530828  0.261215  1
  C  C108  1  0.238785  0.031300  0.030828  1
  C  C109  1  0.030828  0.238785  0.031300  1
  C  C110  1  0.261215  0.968700  0.530828  1
  C  C111  1  0.969172  0.738785  0.468700  1
  C  C112  1  0.738785  0.468700  0.969172  1
  C  C113  1  0.469172  0.761215  0.531300  1
  C  C114  1  0.761215  0.531300  0.469172  1
  C  C115  1  0.530828  0.261215  0.968700  1
  C  C116  1  0.968700  0.969172  0.761215  1
  C  C117  1  0.531300  0.030828  0.261215  1
  C  C118  1  0.468700  0.530828  0.238785  1
  C  C119  1  0.031300  0.469172  0.738785  1
  C  C120  1  0.761215  0.968700  0.969172  1
  C  C121  1  0.969172  0.761215  0.968700  1
  C  C122  1  0.738785  0.031300  0.469172  1
  C  C123  1  0.030828  0.261215  0.531300  1
  C  C124  1  0.261215  0.531300  0.030828  1
  C  C125  1  0.530828  0.238785  0.468700  1
  C  C126  1  0.238785  0.468700  0.530828  1
  C  C127  1  0.469172  0.738785  0.031300  1
  C  C128  1  0.237890  0.237890  0.237890  1
  C  C129  1  0.262110  0.762110  0.737890  1
  C  C130  1  0.737890  0.262110  0.762110  1
  C  C131  1  0.762110  0.737890  0.262110  1
  C  C132  1  0.762110  0.762110  0.762110  1
  C  C133  1  0.737890  0.237890  0.262110  1
  C  C134  1  0.262110  0.737890  0.237890  1
  C  C135  1  0.237890  0.262110  0.737890  1
