# generated using pymatgen
data_Zn3In
_symmetry_space_group_name_H-M   'P 1'
_cell_length_a   6.11734950
_cell_length_b   6.11734955
_cell_length_c   4.68006807
_cell_angle_alpha   90.00000000
_cell_angle_beta   90.00000000
_cell_angle_gamma   121.79048566
_symmetry_Int_Tables_number   1
_chemical_formula_structural   Zn3In
_chemical_formula_sum   'Zn6 In2'
_cell_volume   148.86327241
_cell_formula_units_Z   2
loop_
 _symmetry_equiv_pos_site_id
 _symmetry_equiv_pos_as_xyz
  1  'x, y, z'
loop_
 _atom_site_type_symbol
 _atom_site_label
 _atom_site_symmetry_multiplicity
 _atom_site_fract_x
 _atom_site_fract_y
 _atom_site_fract_z
 _atom_site_occupancy
  Zn  Zn0  1  0.847040  0.152962  0.749999  1
  Zn  Zn1  1  0.308423  0.154547  0.749999  1
  Zn  Zn2  1  0.845450  0.691574  0.749999  1
  Zn  Zn3  1  0.152960  0.847037  0.249999  1
  Zn  Zn4  1  0.691576  0.845452  0.249999  1
  Zn  Zn5  1  0.154551  0.308425  0.249999  1
  In  In6  1  0.666614  0.333384  0.250001  1
  In  In7  1  0.333387  0.666615  0.749999  1
