# generated using pymatgen
data_DyBC
_symmetry_space_group_name_H-M   'P 1'
_cell_length_a   3.38960205
_cell_length_b   3.52650395
_cell_length_c   9.68788871
_cell_angle_alpha   90.00000000
_cell_angle_beta   100.07517712
_cell_angle_gamma   90.00000000
_symmetry_Int_Tables_number   1
_chemical_formula_structural   DyBC
_chemical_formula_sum   'Dy2 B2 C2'
_cell_volume   114.01784447
_cell_formula_units_Z   2
loop_
 _symmetry_equiv_pos_site_id
 _symmetry_equiv_pos_as_xyz
  1  'x, y, z'
loop_
 _atom_site_type_symbol
 _atom_site_label
 _atom_site_symmetry_multiplicity
 _atom_site_fract_x
 _atom_site_fract_y
 _atom_site_fract_z
 _atom_site_occupancy
  B  B0  1  0.723311  0.500000  0.446622  1
  B  B1  1  0.276689  0.500000  0.553378  1
  C  C2  1  0.354875  0.500000  0.709750  1
  C  C3  1  0.645125  0.500000  0.290250  1
  Dy  Dy4  1  0.156266  0.000000  0.312533  1
  Dy  Dy5  1  0.843734  0.000000  0.687467  1
