# generated using pymatgen
data_VFe11C4
_symmetry_space_group_name_H-M   'P 1'
_cell_length_a   4.75306198
_cell_length_b   4.47224202
_cell_length_c   7.34788314
_cell_angle_alpha   90.21510685
_cell_angle_beta   89.88766170
_cell_angle_gamma   89.93376040
_symmetry_Int_Tables_number   1
_chemical_formula_structural   VFe11C4
_chemical_formula_sum   'V1 Fe11 C4'
_cell_volume   156.19129552
_cell_formula_units_Z   1
loop_
 _symmetry_equiv_pos_site_id
 _symmetry_equiv_pos_as_xyz
  1  'x, y, z'
loop_
 _atom_site_type_symbol
 _atom_site_label
 _atom_site_symmetry_multiplicity
 _atom_site_fract_x
 _atom_site_fract_y
 _atom_site_fract_z
 _atom_site_occupancy
  V  V0  1  0.566203  0.368979  0.171936  1
  Fe  Fe1  1  0.194374  0.357974  0.379521  1
  Fe  Fe2  1  0.071881  0.368391  0.048119  1
  Fe  Fe3  1  0.562461  0.869308  0.698392  1
  Fe  Fe4  1  0.199094  0.866335  0.171134  1
  Fe  Fe5  1  0.059929  0.860801  0.516648  1
  Fe  Fe6  1  0.080704  0.871733  0.836455  1
  Fe  Fe7  1  0.578334  0.859752  0.379913  1
  Fe  Fe8  1  0.694241  0.374963  0.834522  1
  Fe  Fe9  1  0.718547  0.361871  0.516006  1
  Fe  Fe10  1  0.693364  0.873727  0.039550  1
  Fe  Fe11  1  0.218524  0.369931  0.702812  1
  C  C12  1  0.380958  0.625387  0.943416  1
  C  C13  1  0.894728  0.100367  0.276718  1
  C  C14  1  0.905788  0.622092  0.277679  1
  C  C15  1  0.386780  0.121297  0.934848  1
