# generated using pymatgen
data_TlFeF3
_symmetry_space_group_name_H-M   'P 1'
_cell_length_a   4.22885838
_cell_length_b   4.21794272
_cell_length_c   4.28967190
_cell_angle_alpha   90.11696934
_cell_angle_beta   90.11212656
_cell_angle_gamma   88.70211670
_symmetry_Int_Tables_number   1
_chemical_formula_structural   TlFeF3
_chemical_formula_sum   'Tl1 Fe1 F3'
_cell_volume   76.49530190
_cell_formula_units_Z   1
loop_
 _symmetry_equiv_pos_site_id
 _symmetry_equiv_pos_as_xyz
  1  'x, y, z'
loop_
 _atom_site_type_symbol
 _atom_site_label
 _atom_site_symmetry_multiplicity
 _atom_site_fract_x
 _atom_site_fract_y
 _atom_site_fract_z
 _atom_site_occupancy
  Tl  Tl0  1  0.992663  0.990808  0.005817  1
  Fe  Fe1  1  0.492313  0.490207  0.506201  1
  F  F2  1  0.492730  0.990031  0.505837  1
  F  F3  1  0.992108  0.490479  0.505932  1
  F  F4  1  0.490187  0.488474  0.006210  1
