# generated using pymatgen
data_Sr2MgUO6
_symmetry_space_group_name_H-M   'P 1'
_cell_length_a   5.85147100
_cell_length_b   5.87601375
_cell_length_c   8.26047428
_cell_angle_alpha   90.00000000
_cell_angle_beta   89.69002382
_cell_angle_gamma   90.00000000
_symmetry_Int_Tables_number   1
_chemical_formula_structural   Sr2MgUO6
_chemical_formula_sum   'Sr4 Mg2 U2 O12'
_cell_volume   284.01840742
_cell_formula_units_Z   2
loop_
 _symmetry_equiv_pos_site_id
 _symmetry_equiv_pos_as_xyz
  1  'x, y, z'
loop_
 _atom_site_type_symbol
 _atom_site_label
 _atom_site_symmetry_multiplicity
 _atom_site_fract_x
 _atom_site_fract_y
 _atom_site_fract_z
 _atom_site_occupancy
  Sr  Sr0  1  0.490830  0.468326  0.247793  1
  Sr  Sr1  1  0.009171  0.968326  0.252206  1
  Sr  Sr2  1  0.990830  0.031673  0.747793  1
  Sr  Sr3  1  0.509170  0.531673  0.752206  1
  Mg  Mg4  1  0.500000  0.000000  -0.000000  1
  Mg  Mg5  1  -0.000000  0.500000  0.500000  1
  U  U6  1  -0.000000  0.500000  0.000000  1
  U  U7  1  0.500001  0.000000  0.500000  1
  O  O8  1  0.784866  0.779028  0.956089  1
  O  O9  1  0.280178  0.715057  0.040166  1
  O  O10  1  0.215135  0.220973  0.043911  1
  O  O11  1  0.920649  0.519003  0.246952  1
  O  O12  1  0.579350  0.019004  0.253047  1
  O  O13  1  0.284865  0.720973  0.456089  1
  O  O14  1  0.219822  0.215057  0.459835  1
  O  O15  1  0.780179  0.784944  0.540166  1
  O  O16  1  0.715134  0.279028  0.543911  1
  O  O17  1  0.420649  0.980996  0.746952  1
  O  O18  1  0.079352  0.480996  0.753047  1
  O  O19  1  0.719823  0.284945  0.959835  1
