# generated using pymatgen
data_Sr2YCu3O7
_symmetry_space_group_name_H-M   'P 1'
_cell_length_a   3.73094972
_cell_length_b   3.89694740
_cell_length_c   11.54373348
_cell_angle_alpha   89.99990103
_cell_angle_beta   90.00022909
_cell_angle_gamma   90.00002624
_symmetry_Int_Tables_number   1
_chemical_formula_structural   Sr2YCu3O7
_chemical_formula_sum   'Sr2 Y1 Cu3 O7'
_cell_volume   167.83797516
_cell_formula_units_Z   1
loop_
 _symmetry_equiv_pos_site_id
 _symmetry_equiv_pos_as_xyz
  1  'x, y, z'
loop_
 _atom_site_type_symbol
 _atom_site_label
 _atom_site_symmetry_multiplicity
 _atom_site_fract_x
 _atom_site_fract_y
 _atom_site_fract_z
 _atom_site_occupancy
  Sr  Sr0  1  0.499999  0.500004  0.821317  1
  Sr  Sr1  1  0.500002  0.499996  0.178612  1
  Y  Y2  1  0.500003  0.499999  0.500032  1
  Cu  Cu3  1  0.999995  0.000001  -0.000043  1
  Cu  Cu4  1  -0.000002  0.000004  0.652855  1
  Cu  Cu5  1  0.999992  0.000002  0.347164  1
  O  O6  1  0.500001  0.000001  0.622640  1
  O  O7  1  0.500000  0.999997  0.377308  1
  O  O8  1  1.000000  0.000002  0.837488  1
  O  O9  1  0.000007  -0.000003  0.162627  1
  O  O10  1  -0.000002  0.500000  0.999982  1
  O  O11  1  0.000005  0.499999  0.628565  1
  O  O12  1  0.999999  0.499999  0.371453  1
