# generated using pymatgen
data_TlGeF3
_symmetry_space_group_name_H-M   'P 1'
_cell_length_a   4.87201327
_cell_length_b   6.05754012
_cell_length_c   7.53740250
_cell_angle_alpha   90.00000000
_cell_angle_beta   107.37981488
_cell_angle_gamma   90.00000000
_symmetry_Int_Tables_number   1
_chemical_formula_structural   TlGeF3
_chemical_formula_sum   'Tl2 Ge2 F6'
_cell_volume   212.29127929
_cell_formula_units_Z   2
loop_
 _symmetry_equiv_pos_site_id
 _symmetry_equiv_pos_as_xyz
  1  'x, y, z'
loop_
 _atom_site_type_symbol
 _atom_site_label
 _atom_site_symmetry_multiplicity
 _atom_site_fract_x
 _atom_site_fract_y
 _atom_site_fract_z
 _atom_site_occupancy
  Tl  Tl0  1  0.847088  0.250001  0.191299  1
  Tl  Tl1  1  0.152910  0.750000  0.808702  1
  Ge  Ge2  1  0.549295  0.250001  0.653118  1
  Ge  Ge3  1  0.450704  0.750000  0.346882  1
  F  F4  1  0.671773  0.029231  0.835878  1
  F  F5  1  0.328226  0.529230  0.164123  1
  F  F6  1  0.823590  0.750000  0.323493  1
  F  F7  1  0.176409  0.250001  0.676507  1
  F  F8  1  0.328226  0.970769  0.164123  1
  F  F9  1  0.671773  0.470769  0.835878  1
