# generated using pymatgen
data_Tb2ReC2
_symmetry_space_group_name_H-M   'P 1'
_cell_length_a   6.59178917
_cell_length_b   5.15645338
_cell_length_c   9.90454028
_cell_angle_alpha   90.00000000
_cell_angle_beta   90.00000000
_cell_angle_gamma   90.00000000
_symmetry_Int_Tables_number   1
_chemical_formula_structural   Tb2ReC2
_chemical_formula_sum   'Tb8 Re4 C8'
_cell_volume   336.65783537
_cell_formula_units_Z   4
loop_
 _symmetry_equiv_pos_site_id
 _symmetry_equiv_pos_as_xyz
  1  'x, y, z'
loop_
 _atom_site_type_symbol
 _atom_site_label
 _atom_site_symmetry_multiplicity
 _atom_site_fract_x
 _atom_site_fract_y
 _atom_site_fract_z
 _atom_site_occupancy
  Tb  Tb0  1  0.817805  0.249999  0.054821  1
  Tb  Tb1  1  0.682194  0.749999  0.554820  1
  Tb  Tb2  1  0.317805  0.249999  0.445179  1
  Tb  Tb3  1  0.182196  0.749999  0.945179  1
  Tb  Tb4  1  0.470051  0.249999  0.783920  1
  Tb  Tb5  1  0.029949  0.749999  0.283921  1
  Tb  Tb6  1  0.970051  0.249999  0.716080  1
  Tb  Tb7  1  0.529950  0.749999  0.216080  1
  Re  Re8  1  0.276964  0.249999  0.135007  1
  Re  Re9  1  0.223036  0.749999  0.635007  1
  Re  Re10  1  0.776964  0.249999  0.364994  1
  Re  Re11  1  0.723036  0.749999  0.864994  1
  C  C12  1  0.178212  0.249999  0.951621  1
  C  C13  1  0.821789  0.749999  0.048378  1
  C  C14  1  0.678211  0.249999  0.548378  1
  C  C15  1  0.321790  0.749999  0.451620  1
  C  C16  1  0.043018  0.249999  0.258856  1
  C  C17  1  0.456980  0.749999  0.758857  1
  C  C18  1  0.543020  0.249999  0.241144  1
  C  C19  1  0.956981  0.749999  0.741143  1
