# generated using pymatgen
data_B2(CN2)3
_symmetry_space_group_name_H-M   'P 1'
_cell_length_a   4.86797067
_cell_length_b   6.71225626
_cell_length_c   8.71486506
_cell_angle_alpha   88.97210194
_cell_angle_beta   90.16657344
_cell_angle_gamma   78.60538558
_symmetry_Int_Tables_number   1
_chemical_formula_structural   B2(CN2)3
_chemical_formula_sum   'B8 C12 N24'
_cell_volume   279.09516255
_cell_formula_units_Z   4
loop_
 _symmetry_equiv_pos_site_id
 _symmetry_equiv_pos_as_xyz
  1  'x, y, z'
loop_
 _atom_site_type_symbol
 _atom_site_label
 _atom_site_symmetry_multiplicity
 _atom_site_fract_x
 _atom_site_fract_y
 _atom_site_fract_z
 _atom_site_occupancy
  B  B0  1  0.786190  0.891306  0.583067  1
  B  B1  1  0.872964  0.948242  0.088430  1
  B  B2  1  0.213810  0.108694  0.416933  1
  B  B3  1  0.127036  0.051758  0.911570  1
  B  B4  1  0.289695  0.393306  0.839294  1
  B  B5  1  0.710305  0.606694  0.160706  1
  B  B6  1  0.659773  0.577612  0.670105  1
  B  B7  1  0.340227  0.422388  0.329895  1
  C  C8  1  0.607861  0.065976  0.816481  1
  C  C9  1  0.943327  0.724233  0.341864  1
  C  C10  1  0.041099  0.278948  0.159890  1
  C  C11  1  0.443640  0.729951  0.413824  1
  C  C12  1  0.785136  0.384916  0.911856  1
  C  C13  1  0.056673  0.275767  0.658136  1
  C  C14  1  0.958901  0.721052  0.840110  1
  C  C15  1  0.261284  0.901606  0.673103  1
  C  C16  1  0.392139  0.934024  0.183519  1
  C  C17  1  0.556361  0.270049  0.586176  1
  C  C18  1  0.214864  0.615084  0.088144  1
  C  C19  1  0.738716  0.098394  0.326898  1
  N  N20  1  0.262725  0.406182  0.172195  1
  N  N21  1  0.629536  0.046602  0.177166  1
  N  N22  1  0.485525  0.235890  0.416475  1
  N  N23  1  0.777387  0.387129  0.601088  1
  N  N24  1  0.815434  0.407424  0.077018  1
  N  N25  1  0.737275  0.593818  0.827805  1
  N  N26  1  0.330897  0.919559  0.340594  1
  N  N27  1  0.514474  0.764110  0.583525  1
  N  N28  1  0.184566  0.592576  0.922982  1
  N  N29  1  0.708889  0.614172  0.341536  1
  N  N30  1  0.370464  0.953398  0.822834  1
  N  N31  1  0.963766  0.219220  0.314610  1
  N  N32  1  0.558069  0.267039  0.889898  1
  N  N33  1  0.222613  0.612871  0.398912  1
  N  N34  1  0.135893  0.065807  0.090487  1
  N  N35  1  0.959706  0.735325  0.156439  1
  N  N36  1  0.669103  0.080441  0.659406  1
  N  N37  1  0.155739  0.086326  0.583325  1
  N  N38  1  0.864107  0.934193  0.909513  1
  N  N39  1  0.040294  0.264675  0.843561  1
  N  N40  1  0.291111  0.385828  0.658464  1
  N  N41  1  0.844261  0.913674  0.416675  1
  N  N42  1  0.036234  0.780780  0.685390  1
  N  N43  1  0.441931  0.732961  0.110102  1
