# generated using pymatgen
data_Pa3Tc
_symmetry_space_group_name_H-M   'P 1'
_cell_length_a   4.99350618
_cell_length_b   4.99345906
_cell_length_c   4.99351806
_cell_angle_alpha   59.99925262
_cell_angle_beta   59.99847691
_cell_angle_gamma   59.99850861
_symmetry_Int_Tables_number   1
_chemical_formula_structural   Pa3Tc
_chemical_formula_sum   'Pa3 Tc1'
_cell_volume   88.04128342
_cell_formula_units_Z   1
loop_
 _symmetry_equiv_pos_site_id
 _symmetry_equiv_pos_as_xyz
  1  'x, y, z'
loop_
 _atom_site_type_symbol
 _atom_site_label
 _atom_site_symmetry_multiplicity
 _atom_site_fract_x
 _atom_site_fract_y
 _atom_site_fract_z
 _atom_site_occupancy
  Pa  Pa0  1  0.000001  0.999997  0.999999  1
  Pa  Pa1  1  0.500001  0.500002  0.500000  1
  Pa  Pa2  1  0.250000  0.250002  0.250001  1
  Tc  Tc3  1  0.749998  0.750000  0.750000  1
