# generated using pymatgen
data_Ho(CrGe)6
_symmetry_space_group_name_H-M   'P 1'
_cell_length_a   5.10782174
_cell_length_b   5.10782174
_cell_length_c   8.31467677
_cell_angle_alpha   90.00000000
_cell_angle_beta   90.00000000
_cell_angle_gamma   120.00000003
_symmetry_Int_Tables_number   1
_chemical_formula_structural   Ho(CrGe)6
_chemical_formula_sum   'Ho1 Cr6 Ge6'
_cell_volume   187.86568766
_cell_formula_units_Z   1
loop_
 _symmetry_equiv_pos_site_id
 _symmetry_equiv_pos_as_xyz
  1  'x, y, z'
loop_
 _atom_site_type_symbol
 _atom_site_label
 _atom_site_symmetry_multiplicity
 _atom_site_fract_x
 _atom_site_fract_y
 _atom_site_fract_z
 _atom_site_occupancy
  Cr  Cr0  1  0.000000  0.500000  0.749733  1
  Cr  Cr1  1  0.000000  0.500000  0.250267  1
  Cr  Cr2  1  0.500000  0.500000  0.250267  1
  Cr  Cr3  1  0.500000  0.000000  0.250267  1
  Cr  Cr4  1  0.500000  0.500000  0.749733  1
  Cr  Cr5  1  0.500000  0.000000  0.749733  1
  Ge  Ge6  1  0.000000  0.000000  0.654378  1
  Ge  Ge7  1  0.333333  0.666667  0.000000  1
  Ge  Ge8  1  0.666667  0.333333  0.500000  1
  Ge  Ge9  1  0.333333  0.666667  0.500000  1
  Ge  Ge10  1  0.000000  0.000000  0.345622  1
  Ge  Ge11  1  0.666667  0.333333  0.000000  1
  Ho  Ho12  1  0.000000  0.000000  0.000000  1
