# generated using pymatgen
data_KAgBr3
_symmetry_space_group_name_H-M   'P 1'
_cell_length_a   7.58235584
_cell_length_b   7.58235557
_cell_length_c   7.58235625
_cell_angle_alpha   60.78152313
_cell_angle_beta   60.78152425
_cell_angle_gamma   60.78152236
_symmetry_Int_Tables_number   1
_chemical_formula_structural   KAgBr3
_chemical_formula_sum   'K2 Ag2 Br6'
_cell_volume   313.68027567
_cell_formula_units_Z   2
loop_
 _symmetry_equiv_pos_site_id
 _symmetry_equiv_pos_as_xyz
  1  'x, y, z'
loop_
 _atom_site_type_symbol
 _atom_site_label
 _atom_site_symmetry_multiplicity
 _atom_site_fract_x
 _atom_site_fract_y
 _atom_site_fract_z
 _atom_site_occupancy
  K  K0  1  0.268153  0.268153  0.268153  1
  K  K1  1  0.768153  0.768153  0.768153  1
  Ag  Ag2  1  0.003031  0.003031  0.003031  1
  Ag  Ag3  1  0.503031  0.503031  0.503031  1
  Br  Br4  1  0.251628  0.809491  0.696197  1
  Br  Br5  1  0.809491  0.696197  0.251628  1
  Br  Br6  1  0.696197  0.251628  0.809491  1
  Br  Br7  1  0.196197  0.309491  0.751628  1
  Br  Br8  1  0.751628  0.196197  0.309491  1
  Br  Br9  1  0.309491  0.751628  0.196197  1
