# generated using pymatgen
data_Si3B
_symmetry_space_group_name_H-M   'P 1'
_cell_length_a   5.01324750
_cell_length_b   5.01240284
_cell_length_c   4.45324395
_cell_angle_alpha   90.03699223
_cell_angle_beta   89.96350873
_cell_angle_gamma   119.98030332
_symmetry_Int_Tables_number   1
_chemical_formula_structural   Si3B
_chemical_formula_sum   'Si6 B2'
_cell_volume   96.93001412
_cell_formula_units_Z   2
loop_
 _symmetry_equiv_pos_site_id
 _symmetry_equiv_pos_as_xyz
  1  'x, y, z'
loop_
 _atom_site_type_symbol
 _atom_site_label
 _atom_site_symmetry_multiplicity
 _atom_site_fract_x
 _atom_site_fract_y
 _atom_site_fract_z
 _atom_site_occupancy
  Si  Si0  1  0.169212  0.338372  0.250038  1
  Si  Si1  1  0.661662  0.830829  0.250043  1
  Si  Si2  1  0.169196  0.830841  0.249956  1
  Si  Si3  1  0.830773  0.661624  0.749965  1
  Si  Si4  1  0.338341  0.169185  0.749959  1
  Si  Si5  1  0.830809  0.169159  0.750045  1
  B  B6  1  0.333271  0.666629  0.750001  1
  B  B7  1  0.666738  0.333364  0.249999  1
