# generated using pymatgen
data_Li7La3Zr2O12
_symmetry_space_group_name_H-M   'P 1'
_cell_length_a   11.33030652
_cell_length_b   11.33030652
_cell_length_c   11.33030652
_cell_angle_alpha   108.50053221
_cell_angle_beta   108.50053221
_cell_angle_gamma   111.43054385
_symmetry_Int_Tables_number   1
_chemical_formula_structural   Li7La3Zr2O12
_chemical_formula_sum   'Li28 La12 Zr8 O48'
_cell_volume   1118.71783250
_cell_formula_units_Z   4
loop_
 _symmetry_equiv_pos_site_id
 _symmetry_equiv_pos_as_xyz
  1  'x, y, z'
loop_
 _atom_site_type_symbol
 _atom_site_label
 _atom_site_symmetry_multiplicity
 _atom_site_fract_x
 _atom_site_fract_y
 _atom_site_fract_z
 _atom_site_occupancy
  Li  Li0  1  0.875000  0.125000  0.250000  1
  Li  Li1  1  0.375000  0.625000  0.250000  1
  Li  Li2  1  0.625000  0.375000  0.750000  1
  Li  Li3  1  0.125000  0.875000  0.750000  1
  Li  Li4  1  0.302926  0.552926  0.605853  1
  Li  Li5  1  0.447074  0.052926  0.250000  1
  Li  Li6  1  0.052926  0.802926  0.105853  1
  Li  Li7  1  0.197074  0.302926  0.750000  1
  Li  Li8  1  0.697074  0.447074  0.394147  1
  Li  Li9  1  0.552926  0.947074  0.750000  1
  Li  Li10  1  0.947074  0.197074  0.894147  1
  Li  Li11  1  0.802926  0.697074  0.250000  1
  Li  Li12  1  0.281963  0.774761  0.167018  1
  Li  Li13  1  0.107743  0.274761  0.492798  1
  Li  Li14  1  0.274761  0.781963  0.667018  1
  Li  Li15  1  0.614945  0.281963  0.507202  1
  Li  Li16  1  0.718037  0.225239  0.832982  1
  Li  Li17  1  0.892257  0.725239  0.507202  1
  Li  Li18  1  0.725239  0.218037  0.332982  1
  Li  Li19  1  0.385055  0.718037  0.492798  1
  Li  Li20  1  0.781963  0.114945  0.007202  1
  Li  Li21  1  0.607743  0.614945  0.332982  1
  Li  Li22  1  0.774761  0.607743  0.992798  1
  Li  Li23  1  0.114945  0.107743  0.832982  1
  Li  Li24  1  0.218037  0.885055  0.992798  1
  Li  Li25  1  0.392257  0.385055  0.667018  1
  Li  Li26  1  0.225239  0.392257  0.007202  1
  Li  Li27  1  0.885055  0.892257  0.167018  1
  La  La28  1  0.125000  0.375000  0.250000  1
  La  La29  1  0.625000  0.875000  0.250000  1
  La  La30  1  0.875000  0.625000  0.750000  1
  La  La31  1  0.375000  0.125000  0.750000  1
  La  La32  1  0.750000  0.378007  0.128007  1
  La  La33  1  0.750000  0.878007  0.628007  1
  La  La34  1  0.878007  0.250000  0.628007  1
  La  La35  1  0.121993  0.750000  0.371993  1
  La  La36  1  0.250000  0.621993  0.871993  1
  La  La37  1  0.250000  0.121993  0.371993  1
  La  La38  1  0.378007  0.250000  0.128007  1
  La  La39  1  0.621993  0.750000  0.871993  1
  Zr  Zr40  1  0.000000  0.500000  0.000000  1
  Zr  Zr41  1  0.000000  0.000000  0.500000  1
  Zr  Zr42  1  0.000000  0.500000  0.500000  1
  Zr  Zr43  1  0.500000  0.000000  0.500000  1
  Zr  Zr44  1  0.500000  0.000000  0.000000  1
  Zr  Zr45  1  0.500000  0.500000  0.500000  1
  Zr  Zr46  1  0.500000  0.500000  0.000000  1
  Zr  Zr47  1  0.000000  0.000000  0.000000  1
  O  O48  1  0.901968  0.312452  0.021131  1
  O  O49  1  0.791322  0.812452  0.410484  1
  O  O50  1  0.812452  0.401968  0.521131  1
  O  O51  1  0.380838  0.901968  0.589516  1
  O  O52  1  0.098032  0.687548  0.978869  1
  O  O53  1  0.208678  0.187548  0.589516  1
  O  O54  1  0.187548  0.598032  0.478869  1
  O  O55  1  0.619162  0.098032  0.410484  1
  O  O56  1  0.401968  0.880838  0.089516  1
  O  O57  1  0.291322  0.380838  0.478869  1
  O  O58  1  0.312452  0.291322  0.910484  1
  O  O59  1  0.880838  0.791322  0.978869  1
  O  O60  1  0.598032  0.119162  0.910484  1
  O  O61  1  0.708678  0.619162  0.521131  1
  O  O62  1  0.687548  0.708678  0.089516  1
  O  O63  1  0.119162  0.208678  0.021131  1
  O  O64  1  0.317904  0.021117  0.906383  1
  O  O65  1  0.614734  0.521117  0.703213  1
  O  O66  1  0.521117  0.817904  0.406383  1
  O  O67  1  0.911521  0.317904  0.296787  1
  O  O68  1  0.682096  0.978883  0.093617  1
  O  O69  1  0.385266  0.478883  0.296787  1
  O  O70  1  0.478883  0.182096  0.593617  1
  O  O71  1  0.088479  0.682096  0.703213  1
  O  O72  1  0.817904  0.411521  0.796787  1
  O  O73  1  0.114734  0.911521  0.593617  1
  O  O74  1  0.021117  0.114734  0.203213  1
  O  O75  1  0.411521  0.614734  0.093617  1
  O  O76  1  0.182096  0.588479  0.203213  1
  O  O77  1  0.885266  0.088479  0.406383  1
  O  O78  1  0.978883  0.885266  0.796787  1
  O  O79  1  0.588479  0.385266  0.906383  1
  O  O80  1  0.581769  0.204162  0.178243  1
  O  O81  1  0.525920  0.704162  0.622393  1
  O  O82  1  0.704162  0.081769  0.678243  1
  O  O83  1  0.903526  0.581769  0.377607  1
  O  O84  1  0.418231  0.795838  0.821757  1
  O  O85  1  0.474080  0.295838  0.377607  1
  O  O86  1  0.295838  0.918231  0.321757  1
  O  O87  1  0.096474  0.418231  0.622393  1
  O  O88  1  0.081769  0.403526  0.877607  1
  O  O89  1  0.025920  0.903526  0.321757  1
  O  O90  1  0.204162  0.025920  0.122393  1
  O  O91  1  0.403526  0.525920  0.821757  1
  O  O92  1  0.918231  0.596474  0.122393  1
  O  O93  1  0.974080  0.096474  0.678243  1
  O  O94  1  0.795838  0.974080  0.877607  1
  O  O95  1  0.596474  0.474080  0.178243  1
