# generated using pymatgen
data_KCrCl3
_symmetry_space_group_name_H-M   'P 1'
_cell_length_a   7.00184033
_cell_length_b   7.00183971
_cell_length_c   7.00183985
_cell_angle_alpha   60.36851769
_cell_angle_beta   60.36852060
_cell_angle_gamma   60.36852124
_symmetry_Int_Tables_number   1
_chemical_formula_structural   KCrCl3
_chemical_formula_sum   'K2 Cr2 Cl6'
_cell_volume   244.75222926
_cell_formula_units_Z   2
loop_
 _symmetry_equiv_pos_site_id
 _symmetry_equiv_pos_as_xyz
  1  'x, y, z'
loop_
 _atom_site_type_symbol
 _atom_site_label
 _atom_site_symmetry_multiplicity
 _atom_site_fract_x
 _atom_site_fract_y
 _atom_site_fract_z
 _atom_site_occupancy
  K  K0  1  0.260650  0.260650  0.260650  1
  K  K1  1  0.760650  0.760650  0.760650  1
  Cr  Cr2  1  0.004664  0.004664  0.004664  1
  Cr  Cr3  1  0.504664  0.504664  0.504664  1
  Cl  Cl4  1  0.254108  0.799110  0.709968  1
  Cl  Cl5  1  0.799110  0.709968  0.254108  1
  Cl  Cl6  1  0.709968  0.254108  0.799110  1
  Cl  Cl7  1  0.209968  0.299110  0.754108  1
  Cl  Cl8  1  0.754108  0.209968  0.299110  1
  Cl  Cl9  1  0.299110  0.754108  0.209968  1
