# generated using pymatgen
data_SnH16C4(NO4)3
_symmetry_space_group_name_H-M   'P 1'
_cell_length_a   11.57490979
_cell_length_b   16.08571330
_cell_length_c   8.10036869
_cell_angle_alpha   90.00000000
_cell_angle_beta   90.00000000
_cell_angle_gamma   90.00000000
_symmetry_Int_Tables_number   1
_chemical_formula_structural   SnH16C4(NO4)3
_chemical_formula_sum   'Sn4 H64 C16 N12 O48'
_cell_volume   1508.21315752
_cell_formula_units_Z   4
loop_
 _symmetry_equiv_pos_site_id
 _symmetry_equiv_pos_as_xyz
  1  'x, y, z'
loop_
 _atom_site_type_symbol
 _atom_site_label
 _atom_site_symmetry_multiplicity
 _atom_site_fract_x
 _atom_site_fract_y
 _atom_site_fract_z
 _atom_site_occupancy
  Sn  Sn0  1  0.038255  0.240773  0.542580  1
  Sn  Sn1  1  0.461745  0.759227  0.042580  1
  Sn  Sn2  1  0.538255  0.259227  0.457420  1
  Sn  Sn3  1  0.961745  0.740773  0.957420  1
  H  H4  1  0.077601  0.010709  0.488307  1
  H  H5  1  0.422399  0.989291  0.988307  1
  H  H6  1  0.577601  0.489291  0.511693  1
  H  H7  1  0.922399  0.510709  0.011693  1
  H  H8  1  0.107590  0.924802  0.405884  1
  H  H9  1  0.392410  0.075198  0.905884  1
  H  H10  1  0.607590  0.575198  0.594116  1
  H  H11  1  0.892410  0.424802  0.094116  1
  H  H12  1  0.960399  0.165796  0.157959  1
  H  H13  1  0.539601  0.834204  0.657959  1
  H  H14  1  0.460399  0.334204  0.842041  1
  H  H15  1  0.039601  0.665796  0.342041  1
  H  H16  1  0.964898  0.168000  0.963281  1
  H  H17  1  0.535102  0.832000  0.463281  1
  H  H18  1  0.464898  0.332000  0.036719  1
  H  H19  1  0.035102  0.668000  0.536719  1
  H  H20  1  0.096062  0.420960  0.961559  1
  H  H21  1  0.403938  0.579040  0.461559  1
  H  H22  1  0.596062  0.079040  0.038441  1
  H  H23  1  0.903938  0.920960  0.538441  1
  H  H24  1  0.233810  0.405001  0.024785  1
  H  H25  1  0.266190  0.594999  0.524785  1
  H  H26  1  0.733810  0.094999  0.975215  1
  H  H27  1  0.766190  0.905001  0.475215  1
  H  H28  1  0.207482  0.444609  0.833746  1
  H  H29  1  0.292517  0.555391  0.333746  1
  H  H30  1  0.707483  0.055391  0.166254  1
  H  H31  1  0.792517  0.944609  0.666254  1
  H  H32  1  0.176720  0.344943  0.869053  1
  H  H33  1  0.323280  0.655057  0.369053  1
  H  H34  1  0.676720  0.155057  0.130947  1
  H  H35  1  0.823280  0.844943  0.630947  1
  H  H36  1  0.285667  0.158811  0.101248  1
  H  H37  1  0.214333  0.841189  0.601248  1
  H  H38  1  0.785667  0.341189  0.898752  1
  H  H39  1  0.714333  0.658811  0.398752  1
  H  H40  1  0.204924  0.171808  0.269661  1
  H  H41  1  0.295076  0.828192  0.769661  1
  H  H42  1  0.704924  0.328192  0.730339  1
  H  H43  1  0.795076  0.671808  0.230339  1
  H  H44  1  0.346101  0.140379  0.292495  1
  H  H45  1  0.153899  0.859621  0.792495  1
  H  H46  1  0.846101  0.359621  0.707505  1
  H  H47  1  0.653899  0.640379  0.207505  1
  H  H48  1  0.248152  0.073023  0.206704  1
  H  H49  1  0.251848  0.926977  0.706704  1
  H  H50  1  0.748152  0.426977  0.793296  1
  H  H51  1  0.751848  0.573023  0.293296  1
  H  H52  1  0.022612  0.467869  0.257647  1
  H  H53  1  0.477388  0.532131  0.757647  1
  H  H54  1  0.522612  0.032131  0.742353  1
  H  H55  1  0.977388  0.967869  0.242353  1
  H  H56  1  0.051772  0.525127  0.424838  1
  H  H57  1  0.448227  0.474873  0.924838  1
  H  H58  1  0.551772  0.974873  0.575162  1
  H  H59  1  0.948228  0.025127  0.075162  1
  H  H60  1  0.021866  0.419734  0.450785  1
  H  H61  1  0.478134  0.580266  0.950785  1
  H  H62  1  0.521866  0.080266  0.549215  1
  H  H63  1  0.978134  0.919734  0.049215  1
  H  H64  1  0.147619  0.451734  0.358281  1
  H  H65  1  0.352381  0.548266  0.858281  1
  H  H66  1  0.647619  0.048266  0.641719  1
  H  H67  1  0.852381  0.951734  0.141719  1
  C  C68  1  0.228653  0.188226  0.775776  1
  C  C69  1  0.271347  0.811774  0.275776  1
  C  C70  1  0.728653  0.311774  0.224224  1
  C  C71  1  0.771347  0.688226  0.724224  1
  C  C72  1  0.205826  0.107463  0.676226  1
  C  C73  1  0.294174  0.892537  0.176226  1
  C  C74  1  0.705826  0.392537  0.323774  1
  C  C75  1  0.794174  0.607463  0.823774  1
  C  C76  1  0.847004  0.122175  0.482559  1
  C  C77  1  0.652996  0.877825  0.982559  1
  C  C78  1  0.347004  0.377825  0.517441  1
  C  C79  1  0.152996  0.622175  0.017441  1
  C  C80  1  0.855370  0.128627  0.673808  1
  C  C81  1  0.644630  0.871373  0.173808  1
  C  C82  1  0.355370  0.371373  0.326192  1
  C  C83  1  0.144630  0.628627  0.826192  1
  N  N84  1  0.178706  0.403701  0.923014  1
  N  N85  1  0.321294  0.596299  0.423014  1
  N  N86  1  0.678706  0.096299  0.076986  1
  N  N87  1  0.821294  0.903701  0.576986  1
  N  N88  1  0.271133  0.135033  0.218062  1
  N  N89  1  0.228867  0.864967  0.718062  1
  N  N90  1  0.771133  0.364967  0.781938  1
  N  N91  1  0.728867  0.635033  0.281938  1
  N  N92  1  0.061250  0.466205  0.373460  1
  N  N93  1  0.438750  0.533795  0.873460  1
  N  N94  1  0.561250  0.033795  0.626540  1
  N  N95  1  0.938750  0.966205  0.126540  1
  O  O96  1  0.963693  0.350218  0.571026  1
  O  O97  1  0.536307  0.649782  0.071026  1
  O  O98  1  0.463693  0.149782  0.428974  1
  O  O99  1  0.036307  0.850218  0.928974  1
  O  O100  1  0.165222  0.252331  0.738099  1
  O  O101  1  0.334778  0.747669  0.238099  1
  O  O102  1  0.665222  0.247669  0.261901  1
  O  O103  1  0.834778  0.752331  0.761901  1
  O  O104  1  0.124825  0.112663  0.566028  1
  O  O105  1  0.375175  0.887337  0.066028  1
  O  O106  1  0.624825  0.387337  0.433972  1
  O  O107  1  0.875175  0.612663  0.933972  1
  O  O108  1  0.303291  0.188152  0.885544  1
  O  O109  1  0.196709  0.811848  0.385544  1
  O  O110  1  0.803291  0.311848  0.114456  1
  O  O111  1  0.696709  0.688152  0.614456  1
  O  O112  1  0.263970  0.044924  0.710038  1
  O  O113  1  0.236030  0.955076  0.210038  1
  O  O114  1  0.763970  0.455076  0.289962  1
  O  O115  1  0.736030  0.544924  0.789962  1
  O  O116  1  0.141990  0.260386  0.348170  1
  O  O117  1  0.358010  0.739614  0.848170  1
  O  O118  1  0.641990  0.239614  0.651830  1
  O  O119  1  0.858010  0.760386  0.151830  1
  O  O120  1  0.914771  0.172043  0.399931  1
  O  O121  1  0.585229  0.827957  0.899931  1
  O  O122  1  0.414771  0.327957  0.600069  1
  O  O123  1  0.085229  0.672043  0.100069  1
  O  O124  1  0.928358  0.182505  0.731078  1
  O  O125  1  0.571642  0.817495  0.231078  1
  O  O126  1  0.428358  0.317495  0.268922  1
  O  O127  1  0.071642  0.682505  0.768922  1
  O  O128  1  0.779929  0.071608  0.420925  1
  O  O129  1  0.720071  0.928392  0.920925  1
  O  O130  1  0.279929  0.428392  0.579075  1
  O  O131  1  0.220071  0.571608  0.079075  1
  O  O132  1  0.794140  0.081873  0.759124  1
  O  O133  1  0.705860  0.918127  0.259124  1
  O  O134  1  0.294140  0.418127  0.240876  1
  O  O135  1  0.205860  0.581873  0.740876  1
  O  O136  1  0.042916  0.957542  0.451398  1
  O  O137  1  0.457084  0.042458  0.951398  1
  O  O138  1  0.542916  0.542458  0.548602  1
  O  O139  1  0.957084  0.457542  0.048602  1
  O  O140  1  0.990013  0.136506  0.060651  1
  O  O141  1  0.509987  0.863494  0.560651  1
  O  O142  1  0.490013  0.363494  0.939349  1
  O  O143  1  0.009987  0.636506  0.439349  1
