# generated using pymatgen
data_Zr2ZnAg2F14
_symmetry_space_group_name_H-M   'P 1'
_cell_length_a   5.61036304
_cell_length_b   5.61036304
_cell_length_c   9.43057257
_cell_angle_alpha   90.75422932
_cell_angle_beta   90.75422932
_cell_angle_gamma   73.56189879
_symmetry_Int_Tables_number   1
_chemical_formula_structural   Zr2ZnAg2F14
_chemical_formula_sum   'Zr2 Zn1 Ag2 F14'
_cell_volume   284.66691607
_cell_formula_units_Z   1
loop_
 _symmetry_equiv_pos_site_id
 _symmetry_equiv_pos_as_xyz
  1  'x, y, z'
loop_
 _atom_site_type_symbol
 _atom_site_label
 _atom_site_symmetry_multiplicity
 _atom_site_fract_x
 _atom_site_fract_y
 _atom_site_fract_z
 _atom_site_occupancy
  Zr  Zr0  1  0.115682  0.115682  0.198148  1
  Zr  Zr1  1  0.884318  0.884318  0.801852  1
  Zn  Zn2  1  0.500001  0.500001  0.000001  1
  Ag  Ag3  1  0.692526  0.692526  0.384442  1
  Ag  Ag4  1  0.307474  0.307474  0.615557  1
  F  F5  1  0.000000  0.000000  0.000000  1
  F  F6  1  0.820239  0.407890  0.124007  1
  F  F7  1  0.407890  0.820239  0.124007  1
  F  F8  1  0.334996  0.334996  0.144607  1
  F  F9  1  0.905152  0.905152  0.276616  1
  F  F10  1  0.996174  0.360236  0.374558  1
  F  F11  1  0.360236  0.996174  0.374558  1
  F  F12  1  0.500000  0.500000  0.499999  1
  F  F13  1  0.639765  0.003827  0.625440  1
  F  F14  1  0.003827  0.639765  0.625440  1
  F  F15  1  0.094849  0.094849  0.723385  1
  F  F16  1  0.665003  0.665003  0.855392  1
  F  F17  1  0.592109  0.179761  0.875992  1
  F  F18  1  0.179761  0.592109  0.875992  1
