# generated using pymatgen
data_Dy3Sb4Au3
_symmetry_space_group_name_H-M   'P 1'
_cell_length_a   8.60151556
_cell_length_b   8.60151556
_cell_length_c   8.60151556
_cell_angle_alpha   109.47155776
_cell_angle_beta   109.47155776
_cell_angle_gamma   109.47155776
_symmetry_Int_Tables_number   1
_chemical_formula_structural   Dy3Sb4Au3
_chemical_formula_sum   'Dy6 Sb8 Au6'
_cell_volume   489.88893142
_cell_formula_units_Z   2
loop_
 _symmetry_equiv_pos_site_id
 _symmetry_equiv_pos_as_xyz
  1  'x, y, z'
loop_
 _atom_site_type_symbol
 _atom_site_label
 _atom_site_symmetry_multiplicity
 _atom_site_fract_x
 _atom_site_fract_y
 _atom_site_fract_z
 _atom_site_occupancy
  Dy  Dy0  1  0.250000  0.624998  0.374996  1
  Dy  Dy1  1  0.749999  0.875003  0.125003  1
  Dy  Dy2  1  0.374996  0.250000  0.624998  1
  Dy  Dy3  1  0.624998  0.374996  0.250000  1
  Dy  Dy4  1  0.125003  0.749999  0.875003  1
  Dy  Dy5  1  0.875003  0.125003  0.749999  1
  Sb  Sb6  1  0.179370  0.179370  0.179370  1
  Sb  Sb7  1  0.500001  0.000003  0.320630  1
  Sb  Sb8  1  0.320630  0.500001  0.000003  1
  Sb  Sb9  1  0.000003  0.320630  0.500001  1
  Sb  Sb10  1  0.679371  0.679371  0.679371  1
  Sb  Sb11  1  0.499997  -0.000003  0.820626  1
  Sb  Sb12  1  -0.000003  0.820626  0.499997  1
  Sb  Sb13  1  0.820626  0.499997  -0.000003  1
  Au  Au14  1  0.249999  0.124999  0.875006  1
  Au  Au15  1  0.750001  0.374997  0.625003  1
  Au  Au16  1  0.875006  0.249999  0.124999  1
  Au  Au17  1  0.124999  0.875006  0.249999  1
  Au  Au18  1  0.625003  0.750001  0.374997  1
  Au  Au19  1  0.374997  0.625003  0.750001  1
