# generated using pymatgen
data_Tb(AlC)3
_symmetry_space_group_name_H-M   'P 1'
_cell_length_a   3.44232618
_cell_length_b   3.44233820
_cell_length_c   17.38949791
_cell_angle_alpha   90.00000000
_cell_angle_beta   90.00000000
_cell_angle_gamma   119.99989411
_symmetry_Int_Tables_number   1
_chemical_formula_structural   Tb(AlC)3
_chemical_formula_sum   'Tb2 Al6 C6'
_cell_volume   178.45293446
_cell_formula_units_Z   2
loop_
 _symmetry_equiv_pos_site_id
 _symmetry_equiv_pos_as_xyz
  1  'x, y, z'
loop_
 _atom_site_type_symbol
 _atom_site_label
 _atom_site_symmetry_multiplicity
 _atom_site_fract_x
 _atom_site_fract_y
 _atom_site_fract_z
 _atom_site_occupancy
  Tb  Tb0  1  0.000000  0.000000  0.000000  1
  Tb  Tb1  1  0.000000  0.000000  0.500000  1
  Al  Al2  1  0.333334  0.666668  0.134011  1
  Al  Al3  1  0.666665  0.333326  0.250000  1
  Al  Al4  1  0.333334  0.666668  0.365988  1
  Al  Al5  1  0.666666  0.333331  0.634012  1
  Al  Al6  1  0.333336  0.666673  0.750000  1
  Al  Al7  1  0.666666  0.333331  0.865989  1
  C  C8  1  0.666663  0.333324  0.093696  1
  C  C9  1  0.333331  0.666663  0.250000  1
  C  C10  1  0.666663  0.333324  0.406305  1
  C  C11  1  0.333338  0.666676  0.593695  1
  C  C12  1  0.666670  0.333337  0.750000  1
  C  C13  1  0.333338  0.666676  0.906304  1
