# generated using pymatgen
data_MgPb5
_symmetry_space_group_name_H-M   'P 1'
_cell_length_a   3.53149663
_cell_length_b   9.14640411
_cell_length_c   5.77074681
_cell_angle_alpha   90.00000000
_cell_angle_beta   90.00000000
_cell_angle_gamma   78.86894409
_symmetry_Int_Tables_number   1
_chemical_formula_structural   MgPb5
_chemical_formula_sum   'Mg1 Pb5'
_cell_volume   182.89149262
_cell_formula_units_Z   1
loop_
 _symmetry_equiv_pos_site_id
 _symmetry_equiv_pos_as_xyz
  1  'x, y, z'
loop_
 _atom_site_type_symbol
 _atom_site_label
 _atom_site_symmetry_multiplicity
 _atom_site_fract_x
 _atom_site_fract_y
 _atom_site_fract_z
 _atom_site_occupancy
  Mg  Mg0  1  0.777694  0.444616  0.500001  1
  Pb  Pb1  1  0.000498  0.999004  0.000000  1
  Pb  Pb2  1  0.330652  0.338698  0.000000  1
  Pb  Pb3  1  0.668217  0.663569  0.000000  1
  Pb  Pb4  1  0.438103  0.123794  0.500001  1
  Pb  Pb5  1  0.118174  0.763653  0.500001  1
