# generated using pymatgen
data_AgClO2
_symmetry_space_group_name_H-M   'P 1'
_cell_length_a   4.48367726
_cell_length_b   5.26940191
_cell_length_c   7.27124609
_cell_angle_alpha   96.91063563
_cell_angle_beta   107.95774959
_cell_angle_gamma   90.00000831
_symmetry_Int_Tables_number   1
_chemical_formula_structural   AgClO2
_chemical_formula_sum   'Ag2 Cl2 O4'
_cell_volume   162.11110676
_cell_formula_units_Z   2
loop_
 _symmetry_equiv_pos_site_id
 _symmetry_equiv_pos_as_xyz
  1  'x, y, z'
loop_
 _atom_site_type_symbol
 _atom_site_label
 _atom_site_symmetry_multiplicity
 _atom_site_fract_x
 _atom_site_fract_y
 _atom_site_fract_z
 _atom_site_occupancy
  Ag  Ag0  1  0.698850  0.733760  0.397699  1
  Ag  Ag1  1  0.301150  0.266240  0.602301  1
  Cl  Cl2  1  0.310067  0.768868  0.620135  1
  Cl  Cl3  1  0.689933  0.231132  0.379865  1
  O  O4  1  0.899442  0.692322  0.076025  1
  O  O5  1  0.100558  0.307678  0.923975  1
  O  O6  1  0.823417  0.307678  0.923975  1
  O  O7  1  0.176583  0.692322  0.076025  1
