# generated using pymatgen
data_C3N4
_symmetry_space_group_name_H-M   'P 1'
_cell_length_a   7.13293097
_cell_length_b   7.13293124
_cell_length_c   7.13764531
_cell_angle_alpha   90.00000000
_cell_angle_beta   90.00000000
_cell_angle_gamma   119.98104268
_symmetry_Int_Tables_number   1
_chemical_formula_structural   C3N4
_chemical_formula_sum   'C12 N16'
_cell_volume   314.56078721
_cell_formula_units_Z   4
loop_
 _symmetry_equiv_pos_site_id
 _symmetry_equiv_pos_as_xyz
  1  'x, y, z'
loop_
 _atom_site_type_symbol
 _atom_site_label
 _atom_site_symmetry_multiplicity
 _atom_site_fract_x
 _atom_site_fract_y
 _atom_site_fract_z
 _atom_site_occupancy
  C  C0  1  0.238706  0.119093  0.000000  1
  C  C1  1  0.554377  0.108226  0.000000  1
  C  C2  1  0.554304  0.445696  0.000000  1
  C  C3  1  0.880436  0.119564  0.000000  1
  C  C4  1  0.891774  0.445623  0.000000  1
  C  C5  1  0.880907  0.761294  0.000000  1
  C  C6  1  0.880805  0.761396  0.500000  1
  C  C7  1  0.565135  0.772262  0.500000  1
  C  C8  1  0.565208  0.434792  0.500000  1
  C  C9  1  0.239075  0.760925  0.500000  1
  C  C10  1  0.227738  0.434865  0.500000  1
  C  C11  1  0.238604  0.119195  0.500000  1
  N  N12  1  -0.000009  0.000009  0.000000  1
  N  N13  1  0.338783  0.335336  0.000000  1
  N  N14  1  0.338635  0.003590  0.000000  1
  N  N15  1  0.666812  0.333188  0.000000  1
  N  N16  1  0.664925  0.003745  0.000000  1
  N  N17  1  0.996255  0.335075  0.000000  1
  N  N18  1  0.996410  0.661365  0.000000  1
  N  N19  1  0.664664  0.661217  0.000000  1
  N  N20  1  0.119520  0.880480  0.500000  1
  N  N21  1  0.780728  0.545153  0.500000  1
  N  N22  1  0.780876  0.876899  0.500000  1
  N  N23  1  0.452699  0.547301  0.500000  1
  N  N24  1  0.454586  0.876744  0.500000  1
  N  N25  1  0.123256  0.545414  0.500000  1
  N  N26  1  0.123101  0.219124  0.500000  1
  N  N27  1  0.454847  0.219272  0.500000  1
