# generated using pymatgen
data_Sm3SbO3
_symmetry_space_group_name_H-M   'P 1'
_cell_length_a   3.97109183
_cell_length_b   7.04149301
_cell_length_c   10.83370621
_cell_angle_alpha   92.02332702
_cell_angle_beta   100.56056915
_cell_angle_gamma   106.37829171
_symmetry_Int_Tables_number   1
_chemical_formula_structural   Sm3SbO3
_chemical_formula_sum   'Sm6 Sb2 O6'
_cell_volume   284.50294321
_cell_formula_units_Z   2
loop_
 _symmetry_equiv_pos_site_id
 _symmetry_equiv_pos_as_xyz
  1  'x, y, z'
loop_
 _atom_site_type_symbol
 _atom_site_label
 _atom_site_symmetry_multiplicity
 _atom_site_fract_x
 _atom_site_fract_y
 _atom_site_fract_z
 _atom_site_occupancy
  Sm  Sm0  1  0.229169  0.357196  0.101143  1
  Sm  Sm1  1  0.550928  0.894356  0.207500  1
  Sm  Sm2  1  0.322604  0.202790  0.442418  1
  Sm  Sm3  1  0.677396  0.797209  0.557582  1
  Sm  Sm4  1  0.449072  0.105644  0.792500  1
  Sm  Sm5  1  0.770830  0.642804  0.898857  1
  Sb  Sb6  1  0.939757  0.558969  0.320546  1
  Sb  Sb7  1  0.060243  0.441032  0.679454  1
  O  O8  1  0.350218  0.688097  0.012338  1
  O  O9  1  0.132965  0.068689  0.197239  1
  O  O10  1  0.720637  0.031242  0.410033  1
  O  O11  1  0.279364  0.968760  0.589968  1
  O  O12  1  0.867035  0.931311  0.802761  1
  O  O13  1  0.649782  0.311903  0.987661  1
