# generated using pymatgen
data_Zn3(PO4)2
_symmetry_space_group_name_H-M   'P 1'
_cell_length_a   4.99059328
_cell_length_b   9.14046930
_cell_length_c   8.34663533
_cell_angle_alpha   90.00075759
_cell_angle_beta   127.45079760
_cell_angle_gamma   90.00120115
_symmetry_Int_Tables_number   1
_chemical_formula_structural   Zn3(PO4)2
_chemical_formula_sum   'Zn6 P4 O16'
_cell_volume   302.26278821
_cell_formula_units_Z   2
loop_
 _symmetry_equiv_pos_site_id
 _symmetry_equiv_pos_as_xyz
  1  'x, y, z'
loop_
 _atom_site_type_symbol
 _atom_site_label
 _atom_site_symmetry_multiplicity
 _atom_site_fract_x
 _atom_site_fract_y
 _atom_site_fract_z
 _atom_site_occupancy
  Zn  Zn0  1  0.135891  0.371074  0.165801  1
  Zn  Zn1  1  0.864111  0.871071  0.334198  1
  Zn  Zn2  1  0.864105  0.628925  0.834196  1
  Zn  Zn3  1  0.135889  0.128929  0.665802  1
  Zn  Zn4  1  0.999999  0.999999  1.000000  1
  Zn  Zn5  1  0.999997  0.499998  0.499997  1
  P  P6  1  0.346504  0.687952  0.330819  1
  P  P7  1  0.653474  0.187994  0.169161  1
  P  P8  1  0.653499  0.312049  0.669182  1
  P  P9  1  0.346527  0.812006  0.830839  1
  O  O10  1  0.215850  0.848016  0.288556  1
  O  O11  1  0.784141  0.347998  0.211442  1
  O  O12  1  0.784150  0.151982  0.711442  1
  O  O13  1  0.215859  0.652004  0.788561  1
  O  O14  1  0.098955  0.588911  0.147332  1
  O  O15  1  0.901088  0.088894  0.352695  1
  O  O16  1  0.901049  0.411090  0.852669  1
  O  O17  1  0.098916  0.911107  0.647307  1
  O  O18  1  0.696603  0.681993  0.369900  1
  O  O19  1  0.303406  0.181987  0.130099  1
  O  O20  1  0.303393  0.318008  0.630102  1
  O  O21  1  0.696594  0.818011  0.869898  1
  O  O22  1  0.384270  0.628581  0.518960  1
  O  O23  1  0.615736  0.128580  0.981037  1
  O  O24  1  0.615724  0.371421  0.481035  1
  O  O25  1  0.384274  0.871424  0.018966  1
