# generated using pymatgen
data_AuBrO2
_symmetry_space_group_name_H-M   'P 1'
_cell_length_a   4.20030089
_cell_length_b   6.77080894
_cell_length_c   6.77080906
_cell_angle_alpha   112.63668399
_cell_angle_beta   90.00000000
_cell_angle_gamma   90.00000000
_symmetry_Int_Tables_number   1
_chemical_formula_structural   AuBrO2
_chemical_formula_sum   'Au2 Br2 O4'
_cell_volume   177.72408249
_cell_formula_units_Z   2
loop_
 _symmetry_equiv_pos_site_id
 _symmetry_equiv_pos_as_xyz
  1  'x, y, z'
loop_
 _atom_site_type_symbol
 _atom_site_label
 _atom_site_symmetry_multiplicity
 _atom_site_fract_x
 _atom_site_fract_y
 _atom_site_fract_z
 _atom_site_occupancy
  Au  Au0  1  0.500000  0.262888  0.262888  1
  Au  Au1  1  0.000000  0.737112  0.737112  1
  Br  Br2  1  0.250000  0.365334  0.634666  1
  Br  Br3  1  0.750000  0.634666  0.365334  1
  O  O4  1  0.715391  0.013388  0.814873  1
  O  O5  1  0.784609  0.185127  0.986612  1
  O  O6  1  0.284609  0.814873  0.013388  1
  O  O7  1  0.215391  0.986612  0.185127  1
