# generated using pymatgen
data_Pr2Co12P7
_symmetry_space_group_name_H-M   'P 1'
_cell_length_a   9.09071911
_cell_length_b   9.09099545
_cell_length_c   3.63851280
_cell_angle_alpha   90.00000000
_cell_angle_beta   90.00000000
_cell_angle_gamma   120.01078749
_symmetry_Int_Tables_number   1
_chemical_formula_structural   Pr2Co12P7
_chemical_formula_sum   'Pr2 Co12 P7'
_cell_volume   260.38562159
_cell_formula_units_Z   1
loop_
 _symmetry_equiv_pos_site_id
 _symmetry_equiv_pos_as_xyz
  1  'x, y, z'
loop_
 _atom_site_type_symbol
 _atom_site_label
 _atom_site_symmetry_multiplicity
 _atom_site_fract_x
 _atom_site_fract_y
 _atom_site_fract_z
 _atom_site_occupancy
  Pr  Pr0  1  0.333640  0.666986  0.000000  1
  Pr  Pr1  1  0.666400  0.332981  0.500000  1
  Co  Co2  1  0.431557  0.057888  0.000000  1
  Co  Co3  1  0.942022  0.373508  0.000000  1
  Co  Co4  1  0.626461  0.568552  0.000000  1
  Co  Co5  1  0.380313  0.430222  0.500000  1
  Co  Co6  1  0.569778  0.950056  0.500000  1
  Co  Co7  1  0.049963  0.619804  0.500000  1
  Co  Co8  1  0.149695  0.269686  0.000000  1
  Co  Co9  1  0.730274  0.879972  0.000000  1
  Co  Co10  1  0.120109  0.850432  0.000000  1
  Co  Co11  1  0.227730  0.101014  0.500000  1
  Co  Co12  1  0.898734  0.126686  0.500000  1
  Co  Co13  1  0.873311  0.772304  0.500000  1
  P  P14  1  0.103989  0.396506  0.500000  1
  P  P15  1  0.603577  0.707491  0.500000  1
  P  P16  1  0.292592  0.896162  0.500000  1
  P  P17  1  -0.000026  -0.000055  0.000000  1
  P  P18  1  0.400858  0.294517  0.000000  1
  P  P19  1  0.705389  0.106150  0.000000  1
  P  P20  1  0.893631  0.599132  0.000000  1
