# generated using pymatgen
data_Mg2SnO4
_symmetry_space_group_name_H-M   'P 1'
_cell_length_a   6.13760496
_cell_length_b   6.13760496
_cell_length_c   6.13760496
_cell_angle_alpha   120.00000000
_cell_angle_beta   90.00000000
_cell_angle_gamma   120.00000000
_symmetry_Int_Tables_number   1
_chemical_formula_structural   Mg2SnO4
_chemical_formula_sum   'Mg4 Sn2 O8'
_cell_volume   163.48646347
_cell_formula_units_Z   2
loop_
 _symmetry_equiv_pos_site_id
 _symmetry_equiv_pos_as_xyz
  1  'x, y, z'
loop_
 _atom_site_type_symbol
 _atom_site_label
 _atom_site_symmetry_multiplicity
 _atom_site_fract_x
 _atom_site_fract_y
 _atom_site_fract_z
 _atom_site_occupancy
  Mg  Mg0  1  0.500001  0.000000  0.000000  1
  Mg  Mg1  1  0.500000  0.000000  0.500000  1
  Mg  Mg2  1  0.000000  0.500001  0.500001  1
  Mg  Mg3  1  0.500001  0.500001  0.500001  1
  Sn  Sn4  1  0.874999  0.750000  0.125000  1
  Sn  Sn5  1  0.125000  0.249999  0.874999  1
  O  O6  1  0.742264  0.015473  0.257735  1
  O  O7  1  0.273210  0.015473  0.257737  1
  O  O8  1  0.742265  0.484527  0.257737  1
  O  O9  1  0.257737  0.515474  0.273210  1
  O  O10  1  0.742264  0.484527  0.726790  1
  O  O11  1  0.257735  0.984526  0.742264  1
  O  O12  1  0.726790  0.984526  0.742264  1
  O  O13  1  0.257737  0.515474  0.742265  1
