# generated using pymatgen
data_LiSiB6
_symmetry_space_group_name_H-M   'P 1'
_cell_length_a   6.11110482
_cell_length_b   6.29309638
_cell_length_c   8.43052469
_cell_angle_alpha   90.00000000
_cell_angle_beta   90.00000000
_cell_angle_gamma   60.95212247
_symmetry_Int_Tables_number   1
_chemical_formula_structural   LiSiB6
_chemical_formula_sum   'Li4 Si4 B24'
_cell_volume   283.43705002
_cell_formula_units_Z   4
loop_
 _symmetry_equiv_pos_site_id
 _symmetry_equiv_pos_as_xyz
  1  'x, y, z'
loop_
 _atom_site_type_symbol
 _atom_site_label
 _atom_site_symmetry_multiplicity
 _atom_site_fract_x
 _atom_site_fract_y
 _atom_site_fract_z
 _atom_site_occupancy
  Li  Li0  1  0.324441  0.351119  0.160148  1
  Li  Li1  1  0.824440  0.351119  0.339852  1
  Li  Li2  1  0.175560  0.648881  0.660148  1
  Li  Li3  1  0.675559  0.648881  0.839851  1
  Si  Si4  1  0.665661  0.668677  0.120403  1
  Si  Si5  1  0.165662  0.668677  0.379596  1
  Si  Si6  1  0.834337  0.331324  0.620403  1
  Si  Si7  1  0.334338  0.331324  0.879597  1
  B  B8  1  0.313444  0.841735  0.031450  1
  B  B9  1  0.844819  0.841735  0.031450  1
  B  B10  1  0.848127  0.303745  0.056094  1
  B  B11  1  0.100406  0.799188  0.150405  1
  B  B12  1  0.119678  0.078732  0.165707  1
  B  B13  1  0.801589  0.078732  0.165707  1
  B  B14  1  0.301590  0.078732  0.334294  1
  B  B15  1  0.619678  0.078732  0.334294  1
  B  B16  1  0.600405  0.799188  0.349595  1
  B  B17  1  0.348128  0.303745  0.443906  1
  B  B18  1  0.344821  0.841735  0.468550  1
  B  B19  1  0.813444  0.841735  0.468550  1
  B  B20  1  0.186556  0.158264  0.531450  1
  B  B21  1  0.655179  0.158264  0.531450  1
  B  B22  1  0.651872  0.696254  0.556094  1
  B  B23  1  0.399594  0.200813  0.650404  1
  B  B24  1  0.380321  0.921268  0.665706  1
  B  B25  1  0.698411  0.921268  0.665706  1
  B  B26  1  0.198411  0.921268  0.834294  1
  B  B27  1  0.880322  0.921268  0.834294  1
  B  B28  1  0.899593  0.200813  0.849595  1
  B  B29  1  0.151873  0.696254  0.943907  1
  B  B30  1  0.155180  0.158264  0.968550  1
  B  B31  1  0.686556  0.158264  0.968550  1
