# generated using pymatgen
data_UCd(PbO3)2
_symmetry_space_group_name_H-M   'P 1'
_cell_length_a   5.96095879
_cell_length_b   6.14552228
_cell_length_c   8.58480222
_cell_angle_alpha   90.00000000
_cell_angle_beta   90.59746640
_cell_angle_gamma   90.00000000
_symmetry_Int_Tables_number   1
_chemical_formula_structural   UCd(PbO3)2
_chemical_formula_sum   'U2 Cd2 Pb4 O12'
_cell_volume   314.47172208
_cell_formula_units_Z   2
loop_
 _symmetry_equiv_pos_site_id
 _symmetry_equiv_pos_as_xyz
  1  'x, y, z'
loop_
 _atom_site_type_symbol
 _atom_site_label
 _atom_site_symmetry_multiplicity
 _atom_site_fract_x
 _atom_site_fract_y
 _atom_site_fract_z
 _atom_site_occupancy
  U  U0  1  0.500000  0.000000  0.500001  1
  U  U1  1  -0.000000  0.499999  -0.000000  1
  Cd  Cd2  1  0.500000  0.000000  0.000000  1
  Cd  Cd3  1  -0.000000  0.499999  0.500000  1
  Pb  Pb4  1  0.995796  0.041341  0.253097  1
  Pb  Pb5  1  0.504203  0.541340  0.246902  1
  Pb  Pb6  1  0.004202  0.958659  0.746902  1
  Pb  Pb7  1  0.495797  0.458660  0.753097  1
  O  O8  1  0.172732  0.214647  0.948730  1
  O  O9  1  0.327268  0.714648  0.551271  1
  O  O10  1  0.827268  0.785354  0.051270  1
  O  O11  1  0.672732  0.285353  0.448730  1
  O  O12  1  0.707066  0.322207  0.043339  1
  O  O13  1  0.792934  0.822206  0.456661  1
  O  O14  1  0.292934  0.677793  0.956661  1
  O  O15  1  0.207066  0.177794  0.543338  1
  O  O16  1  0.101378  0.469957  0.237426  1
  O  O17  1  0.398622  0.969958  0.262575  1
  O  O18  1  0.898624  0.530042  0.762575  1
  O  O19  1  0.601376  0.030042  0.737424  1
