# generated using pymatgen
data_YReN3
_symmetry_space_group_name_H-M   'P 1'
_cell_length_a   3.95057031
_cell_length_b   3.95056645
_cell_length_c   3.93828243
_cell_angle_alpha   88.10488355
_cell_angle_beta   89.06255373
_cell_angle_gamma   89.70689813
_symmetry_Int_Tables_number   1
_chemical_formula_structural   YReN3
_chemical_formula_sum   'Y1 Re1 N3'
_cell_volume   61.42225191
_cell_formula_units_Z   1
loop_
 _symmetry_equiv_pos_site_id
 _symmetry_equiv_pos_as_xyz
  1  'x, y, z'
loop_
 _atom_site_type_symbol
 _atom_site_label
 _atom_site_symmetry_multiplicity
 _atom_site_fract_x
 _atom_site_fract_y
 _atom_site_fract_z
 _atom_site_occupancy
  Y  Y0  1  0.019192  0.040400  0.065476  1
  Re  Re1  1  0.497166  0.497511  0.478796  1
  N  N2  1  0.995514  0.492356  0.463288  1
  N  N3  1  0.492429  0.486104  0.970685  1
  N  N4  1  0.494732  0.993634  0.460997  1
