# generated using pymatgen
data_KZrCuS3
_symmetry_space_group_name_H-M   'P 1'
_cell_length_a   3.76394472
_cell_length_b   7.40059249
_cell_length_c   9.83612851
_cell_angle_alpha   90.00000000
_cell_angle_beta   90.00000000
_cell_angle_gamma   104.73212435
_symmetry_Int_Tables_number   1
_chemical_formula_structural   KZrCuS3
_chemical_formula_sum   'K2 Zr2 Cu2 S6'
_cell_volume   264.98218524
_cell_formula_units_Z   2
loop_
 _symmetry_equiv_pos_site_id
 _symmetry_equiv_pos_as_xyz
  1  'x, y, z'
loop_
 _atom_site_type_symbol
 _atom_site_label
 _atom_site_symmetry_multiplicity
 _atom_site_fract_x
 _atom_site_fract_y
 _atom_site_fract_z
 _atom_site_occupancy
  S  S0  1  0.935438  0.870877  0.250000  1
  S  S1  1  0.064562  0.129123  0.750000  1
  S  S2  1  0.379933  0.759867  0.554771  1
  S  S3  1  0.379933  0.759867  0.945229  1
  S  S4  1  0.620067  0.240133  0.054771  1
  S  S5  1  0.620067  0.240133  0.445229  1
  K  K6  1  0.254667  0.509334  0.250000  1
  K  K7  1  0.745333  0.490666  0.750000  1
  Cu  Cu8  1  0.532568  0.065136  0.250000  1
  Cu  Cu9  1  0.467432  0.934864  0.750000  1
  Zr  Zr10  1  0.000000  0.000000  0.000000  1
  Zr  Zr11  1  0.000000  0.000000  0.500000  1
