# generated using pymatgen
data_SbPH4(O2F3)2
_symmetry_space_group_name_H-M   'P 1'
_cell_length_a   5.17117055
_cell_length_b   5.17117055
_cell_length_c   14.31610681
_cell_angle_alpha   86.27012990
_cell_angle_beta   93.72987010
_cell_angle_gamma   81.91123716
_symmetry_Int_Tables_number   1
_chemical_formula_structural   SbPH4(O2F3)2
_chemical_formula_sum   'Sb2 P2 H8 O8 F12'
_cell_volume   377.14723529
_cell_formula_units_Z   2
loop_
 _symmetry_equiv_pos_site_id
 _symmetry_equiv_pos_as_xyz
  1  'x, y, z'
loop_
 _atom_site_type_symbol
 _atom_site_label
 _atom_site_symmetry_multiplicity
 _atom_site_fract_x
 _atom_site_fract_y
 _atom_site_fract_z
 _atom_site_occupancy
  Sb  Sb0  1  0.500000  0.500000  0.000000  1
  Sb  Sb1  1  0.500001  0.499999  0.500000  1
  P  P2  1  0.125013  0.125013  0.250000  1
  P  P3  1  0.874987  0.874986  0.750000  1
  H  H4  1  0.086313  0.002395  0.106478  1
  H  H5  1  0.002393  0.086315  0.393522  1
  H  H6  1  0.913686  0.997607  0.893522  1
  H  H7  1  0.997606  0.913687  0.606478  1
  H  H8  1  0.504138  0.902884  0.303127  1
  H  H9  1  0.902883  0.504138  0.196873  1
  H  H10  1  0.495860  0.097116  0.696874  1
  H  H11  1  0.097116  0.495861  0.803127  1
  O  O12  1  0.007252  0.987387  0.166996  1
  O  O13  1  0.987384  0.007255  0.333004  1
  O  O14  1  0.992747  0.012615  0.833004  1
  O  O15  1  0.012615  0.992747  0.666996  1
  O  O16  1  0.428124  0.069022  0.266025  1
  O  O17  1  0.069023  0.428123  0.233975  1
  O  O18  1  0.571875  0.930977  0.733975  1
  O  O19  1  0.930976  0.571876  0.766025  1
  F  F20  1  0.624314  0.589215  0.123157  1
  F  F21  1  0.589214  0.624315  0.376843  1
  F  F22  1  0.375685  0.410784  0.876842  1
  F  F23  1  0.410784  0.375685  0.623158  1
  F  F24  1  0.377941  0.200007  0.057470  1
  F  F25  1  0.200008  0.377940  0.442529  1
  F  F26  1  0.622059  0.799993  0.942529  1
  F  F27  1  0.799994  0.622059  0.557470  1
  F  F28  1  0.830964  0.292267  0.985967  1
  F  F29  1  0.292268  0.830963  0.514032  1
  F  F30  1  0.169035  0.707732  0.014033  1
  F  F31  1  0.707731  0.169036  0.485967  1
