# generated using pymatgen
data_CuSeO4
_symmetry_space_group_name_H-M   'P 1'
_cell_length_a   4.91435939
_cell_length_b   4.91435939
_cell_length_c   6.54991107
_cell_angle_alpha   90.00000000
_cell_angle_beta   90.00000000
_cell_angle_gamma   110.33161852
_symmetry_Int_Tables_number   1
_chemical_formula_structural   CuSeO4
_chemical_formula_sum   'Cu2 Se2 O8'
_cell_volume   148.33099570
_cell_formula_units_Z   2
loop_
 _symmetry_equiv_pos_site_id
 _symmetry_equiv_pos_as_xyz
  1  'x, y, z'
loop_
 _atom_site_type_symbol
 _atom_site_label
 _atom_site_symmetry_multiplicity
 _atom_site_fract_x
 _atom_site_fract_y
 _atom_site_fract_z
 _atom_site_occupancy
  Cu  Cu0  1  0.000000  0.000000  0.000000  1
  Cu  Cu1  1  0.000000  0.000000  0.500000  1
  Se  Se2  1  0.351566  0.648436  0.250001  1
  Se  Se3  1  0.648436  0.351566  0.750001  1
  O  O4  1  0.242321  0.757680  0.033527  1
  O  O5  1  0.229203  0.277719  0.250001  1
  O  O6  1  0.722281  0.770797  0.250001  1
  O  O7  1  0.242321  0.757680  0.466472  1
  O  O8  1  0.757680  0.242321  0.533527  1
  O  O9  1  0.277719  0.229203  0.750001  1
  O  O10  1  0.770797  0.722281  0.750001  1
  O  O11  1  0.757680  0.242321  0.966472  1
