# generated using pymatgen
data_Li3Cr2CuO6
_symmetry_space_group_name_H-M   'P 1'
_cell_length_a   15.29533895
_cell_length_b   9.75567180
_cell_length_c   9.75567163
_cell_angle_alpha   17.38235527
_cell_angle_beta   16.81525771
_cell_angle_gamma   16.81526171
_symmetry_Int_Tables_number   1
_chemical_formula_structural   Li3Cr2CuO6
_chemical_formula_sum   'Li3 Cr2 Cu1 O6'
_cell_volume   108.52597848
_cell_formula_units_Z   1
loop_
 _symmetry_equiv_pos_site_id
 _symmetry_equiv_pos_as_xyz
  1  'x, y, z'
loop_
 _atom_site_type_symbol
 _atom_site_label
 _atom_site_symmetry_multiplicity
 _atom_site_fract_x
 _atom_site_fract_y
 _atom_site_fract_z
 _atom_site_occupancy
  Li  Li0  1  0.166667  0.500000  0.500000  1
  Li  Li1  1  0.509255  0.494980  0.494980  1
  Li  Li2  1  0.824078  0.505020  0.505020  1
  Cr  Cr3  1  0.004738  0.995625  0.995625  1
  Cr  Cr4  1  0.328596  0.004375  0.004375  1
  Cu  Cu5  1  0.666667  0.000000  0.000000  1
  O  O6  1  0.244007  0.259014  0.259014  1
  O  O7  1  0.577101  0.260866  0.260866  1
  O  O8  1  0.089326  0.740986  0.740986  1
  O  O9  1  0.920195  0.253780  0.253780  1
  O  O10  1  0.413138  0.746220  0.746220  1
  O  O11  1  0.756232  0.739134  0.739134  1
