# generated using pymatgen
data_Zr2Co12P7
_symmetry_space_group_name_H-M   'P 1'
_cell_length_a   8.92227498
_cell_length_b   8.92249890
_cell_length_c   3.56033274
_cell_angle_alpha   90.00000000
_cell_angle_beta   90.00000000
_cell_angle_gamma   119.98523018
_symmetry_Int_Tables_number   1
_chemical_formula_structural   Zr2Co12P7
_chemical_formula_sum   'Zr2 Co12 P7'
_cell_volume   245.49799175
_cell_formula_units_Z   1
loop_
 _symmetry_equiv_pos_site_id
 _symmetry_equiv_pos_as_xyz
  1  'x, y, z'
loop_
 _atom_site_type_symbol
 _atom_site_label
 _atom_site_symmetry_multiplicity
 _atom_site_fract_x
 _atom_site_fract_y
 _atom_site_fract_z
 _atom_site_occupancy
  Zr  Zr0  1  0.333505  0.666703  0.000000  1
  Zr  Zr1  1  0.666725  0.333518  0.500002  1
  Co  Co2  1  0.438020  0.063080  0.000000  1
  Co  Co3  1  0.936971  0.374869  0.000000  1
  Co  Co4  1  0.625089  0.562029  0.000000  1
  Co  Co5  1  0.385047  0.438734  0.500002  1
  Co  Co6  1  0.561141  0.946217  0.500002  1
  Co  Co7  1  0.053763  0.614911  0.500002  1
  Co  Co8  1  0.158407  0.276756  0.000000  1
  Co  Co9  1  0.723202  0.881692  0.000000  1
  Co  Co10  1  0.118366  0.841548  0.000000  1
  Co  Co11  1  0.228844  0.098789  0.500002  1
  Co  Co12  1  0.901188  0.130134  0.500002  1
  Co  Co13  1  0.869926  0.771126  0.500002  1
  P  P14  1  0.115917  0.405284  0.500002  1
  P  P15  1  0.594768  0.710593  0.500002  1
  P  P16  1  0.289436  0.884121  0.500002  1
  P  P17  1  0.999858  0.999847  0.000000  1
  P  P18  1  0.409282  0.291948  0.000000  1
  P  P19  1  0.707950  0.117369  0.000000  1
  P  P20  1  0.882590  0.590726  0.000000  1
