# generated using pymatgen
data_NdH3
_symmetry_space_group_name_H-M   'P 1'
_cell_length_a   6.66663854
_cell_length_b   6.66662799
_cell_length_c   6.91380759
_cell_angle_alpha   89.99982768
_cell_angle_beta   90.00001812
_cell_angle_gamma   119.99967922
_symmetry_Int_Tables_number   1
_chemical_formula_structural   NdH3
_chemical_formula_sum   'Nd6 H18'
_cell_volume   266.11077185
_cell_formula_units_Z   6
loop_
 _symmetry_equiv_pos_site_id
 _symmetry_equiv_pos_as_xyz
  1  'x, y, z'
loop_
 _atom_site_type_symbol
 _atom_site_label
 _atom_site_symmetry_multiplicity
 _atom_site_fract_x
 _atom_site_fract_y
 _atom_site_fract_z
 _atom_site_occupancy
  Nd  Nd0  1  0.663816  0.000000  0.250003  1
  Nd  Nd1  1  0.000000  0.663817  0.249997  1
  Nd  Nd2  1  0.336185  0.336184  0.249999  1
  Nd  Nd3  1  0.663816  0.663812  0.750001  1
  Nd  Nd4  1  -0.000001  0.336184  0.749998  1
  Nd  Nd5  1  0.336182  0.000001  0.750000  1
  H  H6  1  0.677968  0.653001  0.094278  1
  H  H7  1  0.346996  0.024964  0.094278  1
  H  H8  1  0.975033  0.322031  0.094279  1
  H  H9  1  0.333334  0.666666  0.179787  1
  H  H10  1  -0.000001  -0.000001  0.250000  1
  H  H11  1  0.666666  0.333334  0.320212  1
  H  H12  1  0.024964  0.346997  0.405723  1
  H  H13  1  0.322032  0.975035  0.405724  1
  H  H14  1  0.653005  0.677969  0.405723  1
  H  H15  1  0.677971  0.024967  0.594276  1
  H  H16  1  0.346994  0.322030  0.594277  1
  H  H17  1  0.975035  0.653001  0.594278  1
  H  H18  1  0.333337  0.666669  0.679789  1
  H  H19  1  0.000002  0.999998  0.750000  1
  H  H20  1  0.666669  0.333335  0.820212  1
  H  H21  1  0.024965  0.677968  0.905723  1
  H  H22  1  0.653007  0.975037  0.905721  1
  H  H23  1  0.322031  0.346998  0.905722  1
