# generated using pymatgen
data_P3Au
_symmetry_space_group_name_H-M   'P 1'
_cell_length_a   7.80347919
_cell_length_b   7.80347919
_cell_length_c   7.80347919
_cell_angle_alpha   154.84130542
_cell_angle_beta   154.84130542
_cell_angle_gamma   35.87792130
_symmetry_Int_Tables_number   1
_chemical_formula_structural   P3Au
_chemical_formula_sum   'P3 Au1'
_cell_volume   85.77542100
_cell_formula_units_Z   1
loop_
 _symmetry_equiv_pos_site_id
 _symmetry_equiv_pos_as_xyz
  1  'x, y, z'
loop_
 _atom_site_type_symbol
 _atom_site_label
 _atom_site_symmetry_multiplicity
 _atom_site_fract_x
 _atom_site_fract_y
 _atom_site_fract_z
 _atom_site_occupancy
  P  P0  1  0.750000  0.249999  0.500000  1
  P  P1  1  0.249999  0.750000  0.500000  1
  P  P2  1  0.500000  0.500000  0.000000  1
  Au  Au3  1  0.000000  0.000000  0.000000  1
