# generated using pymatgen
data_NbInO4
_symmetry_space_group_name_H-M   'P 1'
_cell_length_a   4.92028079
_cell_length_b   5.25243961
_cell_length_c   5.90064197
_cell_angle_alpha   90.00000000
_cell_angle_beta   90.00000000
_cell_angle_gamma   91.13430194
_symmetry_Int_Tables_number   1
_chemical_formula_structural   NbInO4
_chemical_formula_sum   'Nb2 In2 O8'
_cell_volume   152.46322685
_cell_formula_units_Z   2
loop_
 _symmetry_equiv_pos_site_id
 _symmetry_equiv_pos_as_xyz
  1  'x, y, z'
loop_
 _atom_site_type_symbol
 _atom_site_label
 _atom_site_symmetry_multiplicity
 _atom_site_fract_x
 _atom_site_fract_y
 _atom_site_fract_z
 _atom_site_occupancy
  O  O0  1  0.260796  0.402393  0.619163  1
  O  O1  1  0.739204  0.097607  0.619163  1
  O  O2  1  0.739205  0.597607  0.380837  1
  O  O3  1  0.260795  0.902393  0.380837  1
  O  O4  1  0.215110  0.435752  0.103516  1
  O  O5  1  0.784890  0.064248  0.103516  1
  O  O6  1  0.215111  0.935752  0.896485  1
  O  O7  1  0.784889  0.564248  0.896485  1
  Nb  Nb8  1  0.000000  0.750000  0.174967  1
  Nb  Nb9  1  0.999999  0.250000  0.825033  1
  In  In10  1  0.500000  0.750000  0.678425  1
  In  In11  1  0.499999  0.250000  0.321574  1
