# generated using pymatgen
data_MgSn3
_symmetry_space_group_name_H-M   'P 1'
_cell_length_a   6.60306711
_cell_length_b   6.60306730
_cell_length_c   5.55411817
_cell_angle_alpha   90.00000000
_cell_angle_beta   90.00000000
_cell_angle_gamma   120.00000911
_symmetry_Int_Tables_number   1
_chemical_formula_structural   MgSn3
_chemical_formula_sum   'Mg2 Sn6'
_cell_volume   209.71869298
_cell_formula_units_Z   2
loop_
 _symmetry_equiv_pos_site_id
 _symmetry_equiv_pos_as_xyz
  1  'x, y, z'
loop_
 _atom_site_type_symbol
 _atom_site_label
 _atom_site_symmetry_multiplicity
 _atom_site_fract_x
 _atom_site_fract_y
 _atom_site_fract_z
 _atom_site_occupancy
  Mg  Mg0  1  0.666668  0.333333  0.250000  1
  Mg  Mg1  1  0.333333  0.666667  0.749999  1
  Sn  Sn2  1  0.168154  0.336308  0.250000  1
  Sn  Sn3  1  0.663692  0.831845  0.250000  1
  Sn  Sn4  1  0.168153  0.831845  0.250000  1
  Sn  Sn5  1  0.831845  0.168154  0.749999  1
  Sn  Sn6  1  0.336308  0.168154  0.749999  1
  Sn  Sn7  1  0.831846  0.663691  0.749999  1
