# generated using pymatgen
data_AuClO2
_symmetry_space_group_name_H-M   'P 1'
_cell_length_a   3.44797858
_cell_length_b   5.18331882
_cell_length_c   10.58469947
_cell_angle_alpha   104.17293953
_cell_angle_beta   91.86213970
_cell_angle_gamma   82.37357232
_symmetry_Int_Tables_number   1
_chemical_formula_structural   AuClO2
_chemical_formula_sum   'Au2 Cl2 O4'
_cell_volume   181.78896744
_cell_formula_units_Z   2
loop_
 _symmetry_equiv_pos_site_id
 _symmetry_equiv_pos_as_xyz
  1  'x, y, z'
loop_
 _atom_site_type_symbol
 _atom_site_label
 _atom_site_symmetry_multiplicity
 _atom_site_fract_x
 _atom_site_fract_y
 _atom_site_fract_z
 _atom_site_occupancy
  Au  Au0  1  0.000000  0.500000  0.500000  1
  Au  Au1  1  0.500000  0.000000  0.500000  1
  Cl  Cl2  1  0.750000  0.659120  0.318240  1
  Cl  Cl3  1  0.250000  0.340880  0.681760  1
  O  O4  1  0.773890  0.846610  0.932960  1
  O  O5  1  0.726110  0.086350  0.932960  1
  O  O6  1  0.273890  0.913650  0.067040  1
  O  O7  1  0.226110  0.153390  0.067040  1
