# generated using pymatgen
data_LaOsN3
_symmetry_space_group_name_H-M   'P 1'
_cell_length_a   4.84373756
_cell_length_b   7.21838451
_cell_length_c   10.24957687
_cell_angle_alpha   90.00000000
_cell_angle_beta   90.00000000
_cell_angle_gamma   108.73955584
_symmetry_Int_Tables_number   1
_chemical_formula_structural   LaOsN3
_chemical_formula_sum   'La4 Os4 N12'
_cell_volume   339.36836375
_cell_formula_units_Z   4
loop_
 _symmetry_equiv_pos_site_id
 _symmetry_equiv_pos_as_xyz
  1  'x, y, z'
loop_
 _atom_site_type_symbol
 _atom_site_label
 _atom_site_symmetry_multiplicity
 _atom_site_fract_x
 _atom_site_fract_y
 _atom_site_fract_z
 _atom_site_occupancy
  La  La0  1  0.754019  0.476668  0.333351  1
  La  La1  1  0.245981  0.523332  0.666649  1
  La  La2  1  0.754019  0.976668  0.166649  1
  La  La3  1  0.245981  0.023332  0.833351  1
  Os  Os4  1  0.309498  0.349024  0.070453  1
  Os  Os5  1  0.690502  0.150976  0.570453  1
  Os  Os6  1  0.309498  0.849024  0.429547  1
  Os  Os7  1  0.690502  0.650976  0.929547  1
  N  N8  1  0.696631  0.904655  0.915535  1
  N  N9  1  0.303369  0.095345  0.084465  1
  N  N10  1  0.983590  0.836868  0.346256  1
  N  N11  1  0.382896  0.404870  0.884674  1
  N  N12  1  0.617104  0.095130  0.384674  1
  N  N13  1  0.617104  0.595130  0.115326  1
  N  N14  1  0.016410  0.163132  0.653744  1
  N  N15  1  0.696631  0.404655  0.584465  1
  N  N16  1  0.382896  0.904870  0.615326  1
  N  N17  1  0.983590  0.336868  0.153744  1
  N  N18  1  0.303369  0.595345  0.415535  1
  N  N19  1  0.016410  0.663132  0.846256  1
