# generated using pymatgen
data_Tb3Al2
_symmetry_space_group_name_H-M   'P 1'
_cell_length_a   8.28120800
_cell_length_b   8.28120800
_cell_length_c   7.60762000
_cell_angle_alpha   90.00000000
_cell_angle_beta   90.00000000
_cell_angle_gamma   90.00000000
_symmetry_Int_Tables_number   1
_chemical_formula_structural   Tb3Al2
_chemical_formula_sum   'Tb12 Al8'
_cell_volume   521.71845259
_cell_formula_units_Z   4
loop_
 _symmetry_equiv_pos_site_id
 _symmetry_equiv_pos_as_xyz
  1  'x, y, z'
loop_
 _atom_site_type_symbol
 _atom_site_label
 _atom_site_symmetry_multiplicity
 _atom_site_fract_x
 _atom_site_fract_y
 _atom_site_fract_z
 _atom_site_occupancy
  Tb  Tb0  1  0.202032  0.202032  0.000000  1
  Tb  Tb1  1  0.797967  0.797967  0.000000  1
  Tb  Tb2  1  0.702033  0.297967  0.500000  1
  Tb  Tb3  1  0.297967  0.702033  0.500000  1
  Tb  Tb4  1  0.000000  0.500000  0.249999  1
  Tb  Tb5  1  0.500000  0.000000  0.249999  1
  Tb  Tb6  1  0.500000  0.000000  0.749999  1
  Tb  Tb7  1  0.000000  0.500000  0.749999  1
  Tb  Tb8  1  0.149895  0.149895  0.500000  1
  Tb  Tb9  1  0.850105  0.850105  0.500000  1
  Tb  Tb10  1  0.649896  0.350106  0.000000  1
  Tb  Tb11  1  0.350106  0.649896  0.000000  1
  Al  Al12  1  0.381148  0.381148  0.306386  1
  Al  Al13  1  0.618852  0.618852  0.306386  1
  Al  Al14  1  0.881147  0.118852  0.193614  1
  Al  Al15  1  0.118852  0.881147  0.193614  1
  Al  Al16  1  0.618852  0.618852  0.693615  1
  Al  Al17  1  0.381148  0.381148  0.693615  1
  Al  Al18  1  0.881147  0.118852  0.806386  1
  Al  Al19  1  0.118852  0.881147  0.806386  1
