# generated using pymatgen
data_ZnCu2SiS4
_symmetry_space_group_name_H-M   'P 1'
_cell_length_a   7.37368799
_cell_length_b   6.45041204
_cell_length_c   6.15460583
_cell_angle_alpha   90.00000000
_cell_angle_beta   90.00000000
_cell_angle_gamma   90.00000000
_symmetry_Int_Tables_number   1
_chemical_formula_structural   ZnCu2SiS4
_chemical_formula_sum   'Zn2 Cu4 Si2 S8'
_cell_volume   292.73352220
_cell_formula_units_Z   2
loop_
 _symmetry_equiv_pos_site_id
 _symmetry_equiv_pos_as_xyz
  1  'x, y, z'
loop_
 _atom_site_type_symbol
 _atom_site_label
 _atom_site_symmetry_multiplicity
 _atom_site_fract_x
 _atom_site_fract_y
 _atom_site_fract_z
 _atom_site_occupancy
  Zn  Zn0  1  0.500000  0.651127  0.343366  1
  Zn  Zn1  1  0.000000  0.348873  0.843366  1
  Cu  Cu2  1  0.247745  0.173024  0.335054  1
  Cu  Cu3  1  0.752254  0.173024  0.335054  1
  Cu  Cu4  1  0.252255  0.826976  0.835054  1
  Cu  Cu5  1  0.747746  0.826976  0.835054  1
  Si  Si6  1  0.000000  0.670927  0.344863  1
  Si  Si7  1  0.500000  0.329073  0.844863  1
  S  S8  1  0.000000  0.355460  0.459356  1
  S  S9  1  0.236695  0.834508  0.463235  1
  S  S10  1  0.763306  0.834508  0.463235  1
  S  S11  1  0.500000  0.318088  0.493738  1
  S  S12  1  0.500000  0.644540  0.959356  1
  S  S13  1  0.263306  0.165492  0.963235  1
  S  S14  1  0.736695  0.165492  0.963235  1
  S  S15  1  0.000000  0.681912  0.993738  1
