# generated using pymatgen
data_Lu3Ga5Ni
_symmetry_space_group_name_H-M   'P 1'
_cell_length_a   6.79241268
_cell_length_b   6.79241307
_cell_length_c   4.17039822
_cell_angle_alpha   90.00000000
_cell_angle_beta   90.00000000
_cell_angle_gamma   120.00304127
_symmetry_Int_Tables_number   1
_chemical_formula_structural   Lu3Ga5Ni
_chemical_formula_sum   'Lu3 Ga5 Ni1'
_cell_volume   166.62608923
_cell_formula_units_Z   1
loop_
 _symmetry_equiv_pos_site_id
 _symmetry_equiv_pos_as_xyz
  1  'x, y, z'
loop_
 _atom_site_type_symbol
 _atom_site_label
 _atom_site_symmetry_multiplicity
 _atom_site_fract_x
 _atom_site_fract_y
 _atom_site_fract_z
 _atom_site_occupancy
  Lu  Lu0  1  0.591830  0.000019  0.500001  1
  Lu  Lu1  1  0.408183  0.408183  0.500001  1
  Lu  Lu2  1  0.000019  0.591831  0.500001  1
  Ga  Ga3  1  0.236099  0.000006  0.000000  1
  Ga  Ga4  1  0.000007  0.236099  0.000000  1
  Ga  Ga5  1  0.666683  0.333347  0.000000  1
  Ga  Ga6  1  0.333348  0.666683  0.000000  1
  Ga  Ga7  1  0.763932  0.763932  0.000000  1
  Ni  Ni8  1  1.000000  0.999999  0.500001  1
