# generated using pymatgen
data_Tl3Ru
_symmetry_space_group_name_H-M   'P 1'
_cell_length_a   6.38099645
_cell_length_b   6.38099545
_cell_length_c   5.29824597
_cell_angle_alpha   90.00000000
_cell_angle_beta   90.00000000
_cell_angle_gamma   119.99999975
_symmetry_Int_Tables_number   1
_chemical_formula_structural   Tl3Ru
_chemical_formula_sum   'Tl6 Ru2'
_cell_volume   186.82702026
_cell_formula_units_Z   2
loop_
 _symmetry_equiv_pos_site_id
 _symmetry_equiv_pos_as_xyz
  1  'x, y, z'
loop_
 _atom_site_type_symbol
 _atom_site_label
 _atom_site_symmetry_multiplicity
 _atom_site_fract_x
 _atom_site_fract_y
 _atom_site_fract_z
 _atom_site_occupancy
  Tl  Tl0  1  0.172400  0.344799  0.249999  1
  Tl  Tl1  1  0.655202  0.827602  0.249999  1
  Tl  Tl2  1  0.172402  0.827602  0.249999  1
  Tl  Tl3  1  0.827601  0.655201  0.750000  1
  Tl  Tl4  1  0.344800  0.172401  0.750000  1
  Tl  Tl5  1  0.827600  0.172401  0.750000  1
  Ru  Ru6  1  0.333333  0.666666  0.750000  1
  Ru  Ru7  1  0.666666  0.333332  0.249999  1
