# generated using pymatgen
data_LiBeH3
_symmetry_space_group_name_H-M   'P 1'
_cell_length_a   5.84691429
_cell_length_b   5.86683256
_cell_length_c   8.32258448
_cell_angle_alpha   90.00000000
_cell_angle_beta   90.00000000
_cell_angle_gamma   60.11223204
_symmetry_Int_Tables_number   1
_chemical_formula_structural   LiBeH3
_chemical_formula_sum   'Li6 Be6 H18'
_cell_volume   247.51943761
_cell_formula_units_Z   6
loop_
 _symmetry_equiv_pos_site_id
 _symmetry_equiv_pos_as_xyz
  1  'x, y, z'
loop_
 _atom_site_type_symbol
 _atom_site_label
 _atom_site_symmetry_multiplicity
 _atom_site_fract_x
 _atom_site_fract_y
 _atom_site_fract_z
 _atom_site_occupancy
  Li  Li0  1  0.500000  0.000000  0.000000  1
  Li  Li1  1  0.828145  0.343708  0.000000  1
  Li  Li2  1  0.171855  0.656291  -0.000000  1
  Li  Li3  1  0.500000  0.000000  0.500000  1
  Li  Li4  1  0.828145  0.343708  0.500000  1
  Li  Li5  1  0.171855  0.656291  0.500000  1
  Be  Be6  1  0.080394  0.000000  0.250000  1
  Be  Be7  1  0.589725  0.244744  0.250000  1
  Be  Be8  1  0.834467  0.755255  0.250000  1
  Be  Be9  1  0.919606  1.000000  0.750000  1
  Be  Be10  1  0.165533  0.244744  0.750000  1
  Be  Be11  1  0.410275  0.755255  0.750000  1
  H  H12  1  0.191604  0.000000  0.099226  1
  H  H13  1  0.477109  0.357252  0.101630  1
  H  H14  1  0.834358  0.642748  0.101630  1
  H  H15  1  0.590569  1.000000  0.250000  1
  H  H16  1  0.835673  0.243545  0.250000  1
  H  H17  1  0.079218  0.756455  0.250000  1
  H  H18  1  0.477109  0.357252  0.398370  1
  H  H19  1  0.834358  0.642748  0.398370  1
  H  H20  1  0.191604  0.000000  0.400774  1
  H  H21  1  0.808397  1.000000  0.599226  1
  H  H22  1  0.165641  0.357252  0.601629  1
  H  H23  1  0.522890  0.642748  0.601629  1
  H  H24  1  0.409430  0.000000  0.750000  1
  H  H25  1  0.920783  0.243545  0.750000  1
  H  H26  1  0.164326  0.756455  0.750000  1
  H  H27  1  0.165641  0.357252  0.898371  1
  H  H28  1  0.522890  0.642748  0.898371  1
  H  H29  1  0.808397  1.000000  0.900773  1
