# generated using pymatgen
data_Cs2PbClF6
_symmetry_space_group_name_H-M   'P 1'
_cell_length_a   7.03619315
_cell_length_b   7.03610844
_cell_length_c   7.03619774
_cell_angle_alpha   59.98235996
_cell_angle_beta   59.98207591
_cell_angle_gamma   59.98516041
_symmetry_Int_Tables_number   1
_chemical_formula_structural   Cs2PbClF6
_chemical_formula_sum   'Cs2 Pb1 Cl1 F6'
_cell_volume   246.22255377
_cell_formula_units_Z   1
loop_
 _symmetry_equiv_pos_site_id
 _symmetry_equiv_pos_as_xyz
  1  'x, y, z'
loop_
 _atom_site_type_symbol
 _atom_site_label
 _atom_site_symmetry_multiplicity
 _atom_site_fract_x
 _atom_site_fract_y
 _atom_site_fract_z
 _atom_site_occupancy
  Cs  Cs0  1  0.250006  0.250003  0.250007  1
  Cs  Cs1  1  0.749997  0.749993  0.749993  1
  Pb  Pb2  1  0.499999  0.500006  0.500002  1
  Cl  Cl3  1  -0.000002  -0.000003  -0.000002  1
  F  F4  1  0.287319  0.712679  0.712676  1
  F  F5  1  0.287329  0.712675  0.287329  1
  F  F6  1  0.712668  0.287325  0.712673  1
  F  F7  1  0.712673  0.712670  0.287324  1
  F  F8  1  0.287328  0.287330  0.712674  1
  F  F9  1  0.712683  0.287323  0.287323  1
