# generated using pymatgen
data_Li3V2(PO4)3
_symmetry_space_group_name_H-M   'P 1'
_cell_length_a   8.75954044
_cell_length_b   12.22920528
_cell_length_c   8.82299953
_cell_angle_alpha   89.99760798
_cell_angle_beta   89.98993097
_cell_angle_gamma   90.00015989
_symmetry_Int_Tables_number   1
_chemical_formula_structural   Li3V2(PO4)3
_chemical_formula_sum   'Li12 V8 P12 O48'
_cell_volume   945.13926666
_cell_formula_units_Z   4
loop_
 _symmetry_equiv_pos_site_id
 _symmetry_equiv_pos_as_xyz
  1  'x, y, z'
loop_
 _atom_site_type_symbol
 _atom_site_label
 _atom_site_symmetry_multiplicity
 _atom_site_fract_x
 _atom_site_fract_y
 _atom_site_fract_z
 _atom_site_occupancy
  Li  Li0  1  0.219365  0.179907  0.770061  1
  Li  Li1  1  0.219375  0.820118  0.729945  1
  Li  Li2  1  0.280656  0.679898  0.229894  1
  Li  Li3  1  0.280622  0.320107  0.269994  1
  Li  Li4  1  0.552929  0.212617  0.425450  1
  Li  Li5  1  0.552894  0.787367  0.074534  1
  Li  Li6  1  0.697217  0.316715  0.765888  1
  Li  Li7  1  0.697186  0.683384  0.734067  1
  Li  Li8  1  0.802787  0.183291  0.265921  1
  Li  Li9  1  0.802727  0.816751  0.234218  1
  Li  Li10  1  0.947154  0.287380  0.925468  1
  Li  Li11  1  0.946938  0.712723  0.574532  1
  V  V12  1  0.253442  0.385860  0.958325  1
  V  V13  1  0.253451  0.614105  0.541718  1
  V  V14  1  0.246579  0.114142  0.458315  1
  V  V15  1  0.246492  0.885897  0.041680  1
  V  V16  1  0.741790  0.111295  0.957112  1
  V  V17  1  0.741840  0.888710  0.542868  1
  V  V18  1  0.758201  0.388715  0.457140  1
  V  V19  1  0.758210  0.611305  0.042874  1
  P  P20  1  0.044899  0.500019  0.250023  1
  P  P21  1  0.105166  0.146297  0.102292  1
  P  P22  1  0.105249  0.853710  0.397719  1
  P  P23  1  0.394793  0.353741  0.602254  1
  P  P24  1  0.394786  0.646288  0.897672  1
  P  P25  1  0.455119  0.000008  0.750040  1
  P  P26  1  0.545293  -0.000002  0.249992  1
  P  P27  1  0.606353  0.352531  0.104388  1
  P  P28  1  0.606307  0.647432  0.395614  1
  P  P29  1  0.893648  0.852566  0.895631  1
  P  P30  1  0.893687  0.147483  0.604388  1
  P  P31  1  0.954726  0.499986  0.749983  1
  O  O32  1  0.050218  0.574331  0.643961  1
  O  O33  1  0.050262  0.425640  0.856030  1
  O  O34  1  0.069424  0.162291  0.596424  1
  O  O35  1  0.069397  0.837719  0.903492  1
  O  O36  1  0.151943  0.030566  0.064521  1
  O  O37  1  0.151982  0.969461  0.435490  1
  O  O38  1  0.160353  0.181254  0.260844  1
  O  O39  1  0.160349  0.818770  0.239173  1
  O  O40  1  0.149880  0.422378  0.158160  1
  O  O41  1  0.149880  0.577577  0.341803  1
  O  O42  1  0.166552  0.227011  0.976795  1
  O  O43  1  0.166500  0.772972  0.523210  1
  O  O44  1  0.333500  0.272990  0.476766  1
  O  O45  1  0.333476  0.727001  0.023184  1
  O  O46  1  0.350098  0.077605  0.658173  1
  O  O47  1  0.350110  0.922419  0.841857  1
  O  O48  1  0.339679  0.681196  0.739170  1
  O  O49  1  0.339638  0.318735  0.760833  1
  O  O50  1  0.348056  0.469409  0.564509  1
  O  O51  1  0.348013  0.530509  0.935494  1
  O  O52  1  0.430622  0.662244  0.403503  1
  O  O53  1  0.430583  0.337729  0.096489  1
  O  O54  1  0.449735  0.074339  0.356051  1
  O  O55  1  0.449758  0.925632  0.144017  1
  O  O56  1  0.553011  0.927023  0.646765  1
  O  O57  1  0.552975  0.072952  0.853152  1
  O  O58  1  0.571249  0.337525  0.591862  1
  O  O59  1  0.571244  0.662430  0.908119  1
  O  O60  1  0.655086  0.470170  0.075088  1
  O  O61  1  0.655111  0.529825  0.424968  1
  O  O62  1  0.656755  0.313515  0.266232  1
  O  O63  1  0.656821  0.686477  0.233793  1
  O  O64  1  0.651785  0.079178  0.162557  1
  O  O65  1  0.651821  0.920830  0.337484  1
  O  O66  1  0.686827  0.278963  0.982593  1
  O  O67  1  0.686827  0.721039  0.517397  1
  O  O68  1  0.813217  0.221079  0.482581  1
  O  O69  1  0.813164  0.778939  0.017436  1
  O  O70  1  0.848202  0.420807  0.662553  1
  O  O71  1  0.848185  0.579157  0.837484  1
  O  O72  1  0.843247  0.186522  0.766173  1
  O  O73  1  0.843222  0.813484  0.733795  1
  O  O74  1  0.844935  0.029841  0.575046  1
  O  O75  1  0.844915  0.970116  0.924902  1
  O  O76  1  0.928782  0.837545  0.408168  1
  O  O77  1  0.928769  0.162481  0.091881  1
  O  O78  1  0.946982  0.427048  0.353231  1
  O  O79  1  0.946983  0.572933  0.146791  1
