# generated using pymatgen
data_KCaBr3
_symmetry_space_group_name_H-M   'P 1'
_cell_length_a   4.30935890
_cell_length_b   7.52491938
_cell_length_c   10.85699100
_cell_angle_alpha   90.00001512
_cell_angle_beta   90.00000395
_cell_angle_gamma   106.57331914
_symmetry_Int_Tables_number   1
_chemical_formula_structural   KCaBr3
_chemical_formula_sum   'K2 Ca2 Br6'
_cell_volume   337.43952568
_cell_formula_units_Z   2
loop_
 _symmetry_equiv_pos_site_id
 _symmetry_equiv_pos_as_xyz
  1  'x, y, z'
loop_
 _atom_site_type_symbol
 _atom_site_label
 _atom_site_symmetry_multiplicity
 _atom_site_fract_x
 _atom_site_fract_y
 _atom_site_fract_z
 _atom_site_occupancy
  K  K0  1  0.254776  0.510908  0.999990  1
  K  K1  1  0.745218  0.489085  0.499990  1
  Ca  Ca2  1  0.000004  0.000007  0.749994  1
  Ca  Ca3  1  0.999989  0.999989  0.249992  1
  Br  Br4  1  0.368179  0.735057  0.694635  1
  Br  Br5  1  0.631841  0.264943  0.194635  1
  Br  Br6  1  0.368142  0.735053  0.305380  1
  Br  Br7  1  0.631855  0.264948  0.805381  1
  Br  Br8  1  0.927290  0.857168  0.999990  1
  Br  Br9  1  0.072708  0.142843  0.499990  1
