# generated using pymatgen
data_Pr6IrCl11
_symmetry_space_group_name_H-M   'P 1'
_cell_length_a   7.41165149
_cell_length_b   8.30206431
_cell_length_c   8.30206431
_cell_angle_alpha   101.70455377
_cell_angle_beta   92.88278449
_cell_angle_gamma   92.88278449
_symmetry_Int_Tables_number   1
_chemical_formula_structural   Pr6IrCl11
_chemical_formula_sum   'Pr6 Ir1 Cl11'
_cell_volume   498.63080644
_cell_formula_units_Z   1
loop_
 _symmetry_equiv_pos_site_id
 _symmetry_equiv_pos_as_xyz
  1  'x, y, z'
loop_
 _atom_site_type_symbol
 _atom_site_label
 _atom_site_symmetry_multiplicity
 _atom_site_fract_x
 _atom_site_fract_y
 _atom_site_fract_z
 _atom_site_occupancy
  Pr  Pr0  1  0.227855  0.707670  0.016956  1
  Pr  Pr1  1  0.240074  0.195569  0.195569  1
  Pr  Pr2  1  0.772145  0.983044  0.292329  1
  Pr  Pr3  1  0.227855  0.016956  0.707670  1
  Pr  Pr4  1  0.759926  0.804431  0.804431  1
  Pr  Pr5  1  0.772145  0.292329  0.983044  1
  Ir  Ir6  1  0.000000  0.000000  0.000000  1
  Cl  Cl7  1  0.500000  0.000000  0.000000  1
  Cl  Cl8  1  0.635844  0.660539  0.094558  1
  Cl  Cl9  1  0.056186  0.491451  0.203383  1
  Cl  Cl10  1  0.634856  0.306640  0.306640  1
  Cl  Cl11  1  0.364156  0.905442  0.339462  1
  Cl  Cl12  1  0.056186  0.203383  0.491451  1
  Cl  Cl13  1  0.943815  0.796617  0.508549  1
  Cl  Cl14  1  0.635844  0.094558  0.660539  1
  Cl  Cl15  1  0.365145  0.693360  0.693360  1
  Cl  Cl16  1  0.943815  0.508549  0.796617  1
  Cl  Cl17  1  0.364156  0.339462  0.905442  1
