# generated using pymatgen
data_LiFe2(PO4)3
_symmetry_space_group_name_H-M   'P 1'
_cell_length_a   8.77916832
_cell_length_b   12.27433092
_cell_length_c   8.81996513
_cell_angle_alpha   89.78281022
_cell_angle_beta   89.94737372
_cell_angle_gamma   89.87829943
_symmetry_Int_Tables_number   1
_chemical_formula_structural   LiFe2(PO4)3
_chemical_formula_sum   'Li4 Fe8 P12 O48'
_cell_volume   950.41611552
_cell_formula_units_Z   4
loop_
 _symmetry_equiv_pos_site_id
 _symmetry_equiv_pos_as_xyz
  1  'x, y, z'
loop_
 _atom_site_type_symbol
 _atom_site_label
 _atom_site_symmetry_multiplicity
 _atom_site_fract_x
 _atom_site_fract_y
 _atom_site_fract_z
 _atom_site_occupancy
  Li  Li0  1  0.290850  0.314106  0.272405  1
  Li  Li1  1  0.784256  0.819279  0.221884  1
  Li  Li2  1  0.933899  0.291413  0.909605  1
  Li  Li3  1  0.938837  0.711826  0.591190  1
  Fe  Fe4  1  0.258577  0.384347  0.955173  1
  Fe  Fe5  1  0.261211  0.619147  0.533341  1
  Fe  Fe6  1  0.247690  0.113416  0.466489  1
  Fe  Fe7  1  0.246385  0.882097  0.039792  1
  Fe  Fe8  1  0.744313  0.113089  0.965226  1
  Fe  Fe9  1  0.742314  0.890060  0.543900  1
  Fe  Fe10  1  0.750847  0.381717  0.462030  1
  Fe  Fe11  1  0.750390  0.613191  0.033734  1
  P  P12  1  0.041032  0.497710  0.248394  1
  P  P13  1  0.107440  0.147738  0.104384  1
  P  P14  1  0.103111  0.853370  0.391566  1
  P  P15  1  0.394925  0.354017  0.603282  1
  P  P16  1  0.392456  0.645788  0.892997  1
  P  P17  1  0.459796  0.001491  0.751536  1
  P  P18  1  0.533453  0.999036  0.252712  1
  P  P19  1  0.610240  0.352439  0.106358  1
  P  P20  1  0.618208  0.648244  0.396897  1
  P  P21  1  0.893945  0.853249  0.892359  1
  P  P22  1  0.890523  0.146317  0.609477  1
  P  P23  1  0.962977  0.500502  0.749469  1
  O  O24  1  0.060639  0.579166  0.653009  1
  O  O25  1  0.055951  0.424766  0.854781  1
  O  O26  1  0.063565  0.156860  0.587140  1
  O  O27  1  0.069124  0.852829  0.905674  1
  O  O28  1  0.160523  0.966007  0.437641  1
  O  O29  1  0.169574  0.035963  0.059456  1
  O  O30  1  0.130634  0.572383  0.355720  1
  O  O31  1  0.156321  0.425235  0.161978  1
  O  O32  1  0.164777  0.176985  0.265036  1
  O  O33  1  0.147188  0.828581  0.227163  1
  O  O34  1  0.155674  0.236988  0.989447  1
  O  O35  1  0.161155  0.766086  0.505924  1
  O  O36  1  0.328440  0.271621  0.487617  1
  O  O37  1  0.317534  0.728576  0.000796  1
  O  O38  1  0.353268  0.671166  0.726636  1
  O  O39  1  0.347979  0.329606  0.766881  1
  O  O40  1  0.349179  0.071862  0.659090  1
  O  O41  1  0.367624  0.928656  0.858859  1
  O  O42  1  0.338331  0.467456  0.554517  1
  O  O43  1  0.338403  0.531658  0.936935  1
  O  O44  1  0.443699  0.656319  0.410145  1
  O  O45  1  0.435881  0.336512  0.089825  1
  O  O46  1  0.437402  0.069030  0.358391  1
  O  O47  1  0.433913  0.921592  0.157491  1
  O  O48  1  0.555225  0.926644  0.650154  1
  O  O49  1  0.560561  0.079169  0.844121  1
  O  O50  1  0.570298  0.350811  0.593417  1
  O  O51  1  0.565997  0.658830  0.912832  1
  O  O52  1  0.656229  0.470201  0.068680  1
  O  O53  1  0.671081  0.531813  0.433155  1
  O  O54  1  0.621407  0.073980  0.144350  1
  O  O55  1  0.648102  0.925315  0.338566  1
  O  O56  1  0.667644  0.677936  0.232773  1
  O  O57  1  0.647627  0.328424  0.274735  1
  O  O58  1  0.703407  0.275979  0.001192  1
  O  O59  1  0.698009  0.727183  0.508094  1
  O  O60  1  0.819620  0.228942  0.498636  1
  O  O61  1  0.829876  0.770204  0.009168  1
  O  O62  1  0.855598  0.174003  0.777509  1
  O  O63  1  0.853319  0.825419  0.726496  1
  O  O64  1  0.868623  0.425349  0.647262  1
  O  O65  1  0.853032  0.573255  0.839761  1
  O  O66  1  0.832197  0.033219  0.568943  1
  O  O67  1  0.830384  0.964455  0.939108  1
  O  O68  1  0.926345  0.846838  0.402710  1
  O  O69  1  0.931451  0.144216  0.097599  1
  O  O70  1  0.939950  0.419977  0.342369  1
  O  O71  1  0.942331  0.568376  0.144019  1
