# generated using pymatgen
data_Si3H
_symmetry_space_group_name_H-M   'P 1'
_cell_length_a   3.86176536
_cell_length_b   3.86181677
_cell_length_c   11.30219885
_cell_angle_alpha   89.99974981
_cell_angle_beta   89.99999999
_cell_angle_gamma   119.99955211
_symmetry_Int_Tables_number   1
_chemical_formula_structural   Si3H
_chemical_formula_sum   'Si6 H2'
_cell_volume   145.97318455
_cell_formula_units_Z   2
loop_
 _symmetry_equiv_pos_site_id
 _symmetry_equiv_pos_as_xyz
  1  'x, y, z'
loop_
 _atom_site_type_symbol
 _atom_site_label
 _atom_site_symmetry_multiplicity
 _atom_site_fract_x
 _atom_site_fract_y
 _atom_site_fract_z
 _atom_site_occupancy
  Si  Si0  1  0.666667  0.333335  0.465039  1
  Si  Si1  1  0.333333  0.666665  0.534961  1
  Si  Si2  1  0.666669  0.333339  0.253335  1
  Si  Si3  1  0.333331  0.666661  0.746665  1
  Si  Si4  1  0.333330  0.666661  0.185251  1
  Si  Si5  1  0.666670  0.333339  0.814749  1
  H  H6  1  0.333329  0.666659  0.052722  1
  H  H7  1  0.666671  0.333341  0.947278  1
