# generated using pymatgen
data_Ca3TiNiO6
_symmetry_space_group_name_H-M   'P 1'
_cell_length_a   6.46695087
_cell_length_b   6.46695099
_cell_length_c   6.46695107
_cell_angle_alpha   92.58199414
_cell_angle_beta   92.58198979
_cell_angle_gamma   92.58199006
_symmetry_Int_Tables_number   1
_chemical_formula_structural   Ca3TiNiO6
_chemical_formula_sum   'Ca6 Ti2 Ni2 O12'
_cell_volume   269.60793492
_cell_formula_units_Z   2
loop_
 _symmetry_equiv_pos_site_id
 _symmetry_equiv_pos_as_xyz
  1  'x, y, z'
loop_
 _atom_site_type_symbol
 _atom_site_label
 _atom_site_symmetry_multiplicity
 _atom_site_fract_x
 _atom_site_fract_y
 _atom_site_fract_z
 _atom_site_occupancy
  Ca  Ca0  1  0.606739  0.893262  0.250000  1
  Ca  Ca1  1  0.106739  0.750000  0.393262  1
  Ca  Ca2  1  0.750000  0.393261  0.106739  1
  Ca  Ca3  1  0.393262  0.106738  0.750000  1
  Ca  Ca4  1  0.893261  0.250000  0.606738  1
  Ca  Ca5  1  0.250000  0.606739  0.893261  1
  Ti  Ti6  1  0.499999  0.499999  0.499999  1
  Ti  Ti7  1  -0.000000  -0.000000  -0.000000  1
  Ni  Ni8  1  0.750000  0.750000  0.750000  1
  Ni  Ni9  1  0.250000  0.250000  0.250000  1
  O  O10  1  0.207135  0.419971  0.541972  1
  O  O11  1  0.792866  0.580028  0.458028  1
  O  O12  1  0.580029  0.458029  0.792866  1
  O  O13  1  0.458029  0.792866  0.580029  1
  O  O14  1  0.041972  0.919972  0.707134  1
  O  O15  1  0.919971  0.707134  0.041971  1
  O  O16  1  0.292866  0.958029  0.080028  1
  O  O17  1  0.080029  0.292866  0.958029  1
  O  O18  1  0.958029  0.080028  0.292866  1
  O  O19  1  0.541971  0.207135  0.419971  1
  O  O20  1  0.419971  0.541971  0.207134  1
  O  O21  1  0.707134  0.041971  0.919972  1
