# generated using pymatgen
data_K3SbS4
_symmetry_space_group_name_H-M   'P 1'
_cell_length_a   7.82567041
_cell_length_b   7.94179110
_cell_length_c   7.94179110
_cell_angle_alpha   93.33154198
_cell_angle_beta   90.00000000
_cell_angle_gamma   90.00000000
_symmetry_Int_Tables_number   1
_chemical_formula_structural   K3SbS4
_chemical_formula_sum   'K6 Sb2 S8'
_cell_volume   492.74687956
_cell_formula_units_Z   2
loop_
 _symmetry_equiv_pos_site_id
 _symmetry_equiv_pos_as_xyz
  1  'x, y, z'
loop_
 _atom_site_type_symbol
 _atom_site_label
 _atom_site_symmetry_multiplicity
 _atom_site_fract_x
 _atom_site_fract_y
 _atom_site_fract_z
 _atom_site_occupancy
  S  S0  1  0.155756  0.574749  0.425251  1
  S  S1  1  0.655756  0.425251  0.574749  1
  S  S2  1  0.226544  0.907574  0.092426  1
  S  S3  1  0.726544  0.092426  0.907574  1
  S  S4  1  0.845193  0.952133  0.402686  1
  S  S5  1  0.345193  0.047867  0.597314  1
  S  S6  1  0.845193  0.597314  0.047867  1
  S  S7  1  0.345193  0.402686  0.952133  1
  K  K8  1  0.019598  0.304507  0.695493  1
  K  K9  1  0.519598  0.695493  0.304507  1
  K  K10  1  0.513690  0.182443  0.256459  1
  K  K11  1  0.013690  0.817557  0.743541  1
  K  K12  1  0.513690  0.743541  0.817557  1
  K  K13  1  0.013690  0.256459  0.182443  1
  Sb  Sb14  1  0.518136  0.241908  0.758092  1
  Sb  Sb15  1  0.018136  0.758092  0.241908  1
