# generated using pymatgen
data_Na3Cd2IrO6
_symmetry_space_group_name_H-M   'P 1'
_cell_length_a   5.77697802
_cell_length_b   5.77697803
_cell_length_c   5.73982254
_cell_angle_alpha   100.03334764
_cell_angle_beta   100.03334761
_cell_angle_gamma   119.79766305
_symmetry_Int_Tables_number   1
_chemical_formula_structural   Na3Cd2IrO6
_chemical_formula_sum   'Na3 Cd2 Ir1 O6'
_cell_volume   155.87895911
_cell_formula_units_Z   1
loop_
 _symmetry_equiv_pos_site_id
 _symmetry_equiv_pos_as_xyz
  1  'x, y, z'
loop_
 _atom_site_type_symbol
 _atom_site_label
 _atom_site_symmetry_multiplicity
 _atom_site_fract_x
 _atom_site_fract_y
 _atom_site_fract_z
 _atom_site_occupancy
  O  O0  1  0.781293  0.781293  0.204779  1
  O  O1  1  0.218707  0.218707  0.795221  1
  O  O2  1  0.070246  0.359065  0.214669  1
  O  O3  1  0.640935  0.929754  0.785331  1
  O  O4  1  0.359065  0.070246  0.214669  1
  O  O5  1  0.929754  0.640935  0.785331  1
  Na  Na6  1  0.500000  0.500000  0.500000  1
  Na  Na7  1  0.164420  0.835580  0.500000  1
  Na  Na8  1  0.835580  0.164420  0.500000  1
  Cd  Cd9  1  0.332600  0.667400  0.000000  1
  Cd  Cd10  1  0.667400  0.332600  0.000000  1
  Ir  Ir11  1  0.000000  0.000000  0.000000  1
