# generated using pymatgen
data_NpMn3
_symmetry_space_group_name_H-M   'P 1'
_cell_length_a   3.72263250
_cell_length_b   3.72256633
_cell_length_c   3.72264693
_cell_angle_alpha   89.99998430
_cell_angle_beta   89.99999307
_cell_angle_gamma   90.00014622
_symmetry_Int_Tables_number   1
_chemical_formula_structural   NpMn3
_chemical_formula_sum   'Np1 Mn3'
_cell_volume   51.58749711
_cell_formula_units_Z   1
loop_
 _symmetry_equiv_pos_site_id
 _symmetry_equiv_pos_as_xyz
  1  'x, y, z'
loop_
 _atom_site_type_symbol
 _atom_site_label
 _atom_site_symmetry_multiplicity
 _atom_site_fract_x
 _atom_site_fract_y
 _atom_site_fract_z
 _atom_site_occupancy
  Np  Np0  1  1.000000  1.000000  0.999999  1
  Mn  Mn1  1  1.000000  0.499998  0.499998  1
  Mn  Mn2  1  0.499998  0.999999  0.499999  1
  Mn  Mn3  1  0.499998  0.499999  1.000000  1
