# generated using pymatgen
data_La(ErS2)3
_symmetry_space_group_name_H-M   'P 1'
_cell_length_a   11.32970611
_cell_length_b   11.07134481
_cell_length_c   3.99774159
_cell_angle_alpha   90.00000000
_cell_angle_beta   90.00000000
_cell_angle_gamma   108.77344542
_symmetry_Int_Tables_number   1
_chemical_formula_structural   La(ErS2)3
_chemical_formula_sum   'La2 Er6 S12'
_cell_volume   474.77878941
_cell_formula_units_Z   2
loop_
 _symmetry_equiv_pos_site_id
 _symmetry_equiv_pos_as_xyz
  1  'x, y, z'
loop_
 _atom_site_type_symbol
 _atom_site_label
 _atom_site_symmetry_multiplicity
 _atom_site_fract_x
 _atom_site_fract_y
 _atom_site_fract_z
 _atom_site_occupancy
  La  La0  1  0.194836  0.549429  0.250000  1
  La  La1  1  0.805164  0.450571  0.750001  1
  Er  Er2  1  0.999761  0.822243  0.750001  1
  Er  Er3  1  0.333786  0.943007  0.250000  1
  Er  Er4  1  0.666214  0.056993  0.750001  1
  Er  Er5  1  0.587852  0.660888  0.250000  1
  Er  Er6  1  0.412148  0.339112  0.750001  1
  Er  Er7  1  0.000239  0.177757  0.250000  1
  S  S8  1  0.558192  0.893984  0.250000  1
  S  S9  1  0.441808  0.106016  0.750001  1
  S  S10  1  0.251098  0.301090  0.250000  1
  S  S11  1  0.748902  0.698910  0.750001  1
  S  S12  1  0.112282  0.979313  0.250000  1
  S  S13  1  0.887718  0.020686  0.750001  1
  S  S14  1  0.963600  0.622320  0.250000  1
  S  S15  1  0.036401  0.377680  0.750001  1
  S  S16  1  0.770096  0.231686  0.250000  1
  S  S17  1  0.229903  0.768313  0.750001  1
  S  S18  1  0.592256  0.417687  0.250000  1
  S  S19  1  0.407744  0.582313  0.750001  1
