# generated using pymatgen
data_LaTcN3
_symmetry_space_group_name_H-M   'P 1'
_cell_length_a   5.57894011
_cell_length_b   5.57894026
_cell_length_c   5.57894000
_cell_angle_alpha   60.50393661
_cell_angle_beta   60.50393575
_cell_angle_gamma   60.50393151
_symmetry_Int_Tables_number   1
_chemical_formula_structural   LaTcN3
_chemical_formula_sum   'La2 Tc2 N6'
_cell_volume   124.18185597
_cell_formula_units_Z   2
loop_
 _symmetry_equiv_pos_site_id
 _symmetry_equiv_pos_as_xyz
  1  'x, y, z'
loop_
 _atom_site_type_symbol
 _atom_site_label
 _atom_site_symmetry_multiplicity
 _atom_site_fract_x
 _atom_site_fract_y
 _atom_site_fract_z
 _atom_site_occupancy
  La  La0  1  0.250000  0.250000  0.250000  1
  La  La1  1  0.750000  0.750000  0.750000  1
  Tc  Tc2  1  0.500000  0.500000  0.500000  1
  Tc  Tc3  1  0.000000  0.000000  0.000000  1
  N  N4  1  0.750000  0.203350  0.296650  1
  N  N5  1  0.250000  0.796650  0.703350  1
  N  N6  1  0.703350  0.250000  0.796650  1
  N  N7  1  0.203350  0.296650  0.750000  1
  N  N8  1  0.796650  0.703350  0.250000  1
  N  N9  1  0.296650  0.750000  0.203350  1
