# generated using pymatgen
data_ScAl
_symmetry_space_group_name_H-M   'P 1'
_cell_length_a   3.61550853
_cell_length_b   4.43739814
_cell_length_c   5.74133175
_cell_angle_alpha   112.73337009
_cell_angle_beta   90.00000000
_cell_angle_gamma   90.00000000
_symmetry_Int_Tables_number   1
_chemical_formula_structural   ScAl
_chemical_formula_sum   'Sc2 Al2'
_cell_volume   84.95497998
_cell_formula_units_Z   2
loop_
 _symmetry_equiv_pos_site_id
 _symmetry_equiv_pos_as_xyz
  1  'x, y, z'
loop_
 _atom_site_type_symbol
 _atom_site_label
 _atom_site_symmetry_multiplicity
 _atom_site_fract_x
 _atom_site_fract_y
 _atom_site_fract_z
 _atom_site_occupancy
  Sc  Sc0  1  0.250000  0.135071  0.270141  1
  Sc  Sc1  1  0.750000  0.864929  0.729859  1
  Al  Al2  1  0.250000  0.411031  0.822063  1
  Al  Al3  1  0.750000  0.588969  0.177937  1
