# generated using pymatgen
data_NaH6CN2ClO2
_symmetry_space_group_name_H-M   'P 1'
_cell_length_a   5.13278560
_cell_length_b   6.43967812
_cell_length_c   9.66787288
_cell_angle_alpha   109.04937703
_cell_angle_beta   105.39531147
_cell_angle_gamma   90.00160351
_symmetry_Int_Tables_number   1
_chemical_formula_structural   NaH6CN2ClO2
_chemical_formula_sum   'Na2 H12 C2 N4 Cl2 O4'
_cell_volume   289.89839731
_cell_formula_units_Z   2
loop_
 _symmetry_equiv_pos_site_id
 _symmetry_equiv_pos_as_xyz
  1  'x, y, z'
loop_
 _atom_site_type_symbol
 _atom_site_label
 _atom_site_symmetry_multiplicity
 _atom_site_fract_x
 _atom_site_fract_y
 _atom_site_fract_z
 _atom_site_occupancy
  Na  Na0  1  0.694074  0.739924  0.003959  1
  Na  Na1  1  0.690105  0.260151  0.996056  1
  H  H2  1  0.210675  0.540700  0.086437  1
  H  H3  1  0.298972  0.050956  0.088015  1
  H  H4  1  0.358306  0.901151  0.332585  1
  H  H5  1  0.917879  0.450928  0.360950  1
  H  H6  1  0.363143  0.343616  0.472085  1
  H  H7  1  0.032812  0.107067  0.489188  1
  H  H8  1  0.543631  0.892909  0.510802  1
  H  H9  1  0.891045  0.656368  0.527900  1
  H  H10  1  0.556944  0.549077  0.639051  1
  H  H11  1  0.025744  0.098851  0.667412  1
  H  H12  1  0.210960  0.949038  0.911991  1
  H  H13  1  0.124229  0.459298  0.913576  1
  C  C14  1  0.634827  0.666767  0.324629  1
  C  C15  1  0.310229  0.333211  0.675327  1
  N  N16  1  0.506875  0.835933  0.395520  1
  N  N17  1  0.837975  0.591835  0.412159  1
  N  N18  1  0.425854  0.408144  0.587851  1
  N  N19  1  0.111374  0.164032  0.604483  1
  Cl  Cl20  1  0.039203  0.113258  0.236111  1
  Cl  Cl21  1  0.803087  0.886764  0.763906  1
  O  O22  1  0.375312  0.000014  0.000008  1
  O  O23  1  0.042394  0.499995  0.000002  1
  O  O24  1  0.568499  0.582277  0.179967  1
  O  O25  1  0.388529  0.417733  0.820034  1
