# generated using pymatgen
data_Li3Fe2Ni5O12
_symmetry_space_group_name_H-M   'P 1'
_cell_length_a   5.06848325
_cell_length_b   5.01039926
_cell_length_c   28.80463479
_cell_angle_alpha   88.99730704
_cell_angle_beta   89.60334319
_cell_angle_gamma   60.52391911
_symmetry_Int_Tables_number   1
_chemical_formula_structural   Li3Fe2Ni5O12
_chemical_formula_sum   'Li9 Fe6 Ni15 O36'
_cell_volume   636.71444442
_cell_formula_units_Z   3
loop_
 _symmetry_equiv_pos_site_id
 _symmetry_equiv_pos_as_xyz
  1  'x, y, z'
loop_
 _atom_site_type_symbol
 _atom_site_label
 _atom_site_symmetry_multiplicity
 _atom_site_fract_x
 _atom_site_fract_y
 _atom_site_fract_z
 _atom_site_occupancy
  Li  Li0  1  0.167562  0.168244  0.999967  1
  Li  Li1  1  0.154867  0.177845  0.499743  1
  Li  Li2  1  0.166499  0.498540  0.333996  1
  Li  Li3  1  0.163763  0.503490  0.832413  1
  Li  Li4  1  0.167707  0.832000  0.165884  1
  Li  Li5  1  0.836101  0.165930  0.083190  1
  Li  Li6  1  0.835140  0.497875  0.416908  1
  Li  Li7  1  0.838845  0.500634  0.667338  1
  Li  Li8  1  0.834713  0.839744  0.750187  1
  Fe  Fe9  1  0.518596  0.157285  0.416910  1
  Fe  Fe10  1  0.503854  0.161481  0.917135  1
  Fe  Fe11  1  0.503012  0.502682  0.249428  1
  Fe  Fe12  1  0.503832  0.506781  0.749319  1
  Fe  Fe13  1  0.519745  0.823814  0.083034  1
  Fe  Fe14  1  0.504769  0.823537  0.583692  1
  Ni  Ni15  1  0.165478  0.167132  0.250063  1
  Ni  Ni16  1  0.163639  0.164407  0.749839  1
  Ni  Ni17  1  0.164985  0.501101  0.083001  1
  Ni  Ni18  1  0.166185  0.501419  0.583504  1
  Ni  Ni19  1  0.163540  0.834650  0.417191  1
  Ni  Ni20  1  0.501832  0.165085  0.165511  1
  Ni  Ni21  1  0.163169  0.837776  0.916723  1
  Ni  Ni22  1  0.512315  0.155652  0.667391  1
  Ni  Ni23  1  0.501000  0.501935  0.000646  1
  Ni  Ni24  1  0.506926  0.499468  0.499708  1
  Ni  Ni25  1  0.507888  0.827017  0.334455  1
  Ni  Ni26  1  0.839347  0.157818  0.583295  1
  Ni  Ni27  1  0.505675  0.832315  0.832363  1
  Ni  Ni28  1  0.827012  0.504393  0.916811  1
  Ni  Ni29  1  0.826316  0.837462  0.250180  1
  O  O30  1  0.184902  0.181831  0.620913  1
  O  O31  1  0.206053  0.156873  0.118763  1
  O  O32  1  0.203671  0.162815  0.877295  1
  O  O33  1  0.204085  0.136523  0.380747  1
  O  O34  1  0.181671  0.511822  0.213128  1
  O  O35  1  0.178715  0.476022  0.953186  1
  O  O36  1  0.209780  0.490237  0.453565  1
  O  O37  1  0.202099  0.459856  0.712816  1
  O  O38  1  0.454586  0.206897  0.044956  1
  O  O39  1  0.506526  0.148960  0.289163  1
  O  O40  1  0.202290  0.798655  0.288373  1
  O  O41  1  0.467562  0.194432  0.544821  1
  O  O42  1  0.188754  0.810036  0.546543  1
  O  O43  1  0.205620  0.803882  0.047007  1
  O  O44  1  0.457065  0.180195  0.787692  1
  O  O45  1  0.197617  0.821135  0.786650  1
  O  O46  1  0.455629  0.536027  0.379272  1
  O  O47  1  0.455627  0.505475  0.121127  1
  O  O48  1  0.504622  0.483540  0.622630  1
  O  O49  1  0.507187  0.512425  0.878386  1
  O  O50  1  0.832208  0.153119  0.453226  1
  O  O51  1  0.492520  0.844932  0.209833  1
  O  O52  1  0.810584  0.160417  0.213790  1
  O  O53  1  0.497007  0.838401  0.710712  1
  O  O54  1  0.455876  0.841510  0.455407  1
  O  O55  1  0.816366  0.201904  0.713488  1
  O  O56  1  0.811581  0.197631  0.953429  1
  O  O57  1  0.491835  0.834005  0.956694  1
  O  O58  1  0.829425  0.517000  0.047135  1
  O  O59  1  0.820097  0.526973  0.287053  1
  O  O60  1  0.806606  0.505795  0.787652  1
  O  O61  1  0.822375  0.501559  0.543126  1
  O  O62  1  0.831742  0.819495  0.118815  1
  O  O63  1  0.831802  0.846372  0.381222  1
  O  O64  1  0.824680  0.818437  0.621298  1
  O  O65  1  0.820087  0.820219  0.879668  1
