# generated using pymatgen
data_U
_symmetry_space_group_name_H-M   'P 1'
_cell_length_a   5.64024930
_cell_length_b   10.45191686
_cell_length_c   10.45191686
_cell_angle_alpha   90.00000000
_cell_angle_beta   90.00000000
_cell_angle_gamma   90.00000000
_symmetry_Int_Tables_number   1
_chemical_formula_structural   U
_chemical_formula_sum   U30
_cell_volume   616.15530668
_cell_formula_units_Z   30
loop_
 _symmetry_equiv_pos_site_id
 _symmetry_equiv_pos_as_xyz
  1  'x, y, z'
loop_
 _atom_site_type_symbol
 _atom_site_label
 _atom_site_symmetry_multiplicity
 _atom_site_fract_x
 _atom_site_fract_y
 _atom_site_fract_z
 _atom_site_occupancy
  U  U0  1  0.500000  0.000000  0.000000  1
  U  U1  1  0.000000  0.500000  0.500000  1
  U  U2  1  0.000000  0.110086  0.110086  1
  U  U3  1  0.500000  0.389914  0.610086  1
  U  U4  1  0.500000  0.610086  0.389914  1
  U  U5  1  0.000000  0.889914  0.889914  1
  U  U6  1  0.274500  0.321231  0.321231  1
  U  U7  1  0.774500  0.178769  0.821231  1
  U  U8  1  0.774500  0.821231  0.178769  1
  U  U9  1  0.274500  0.678769  0.678769  1
  U  U10  1  0.225500  0.821231  0.178769  1
  U  U11  1  0.225500  0.178769  0.821231  1
  U  U12  1  0.725500  0.321231  0.321231  1
  U  U13  1  0.725500  0.678769  0.678769  1
  U  U14  1  0.000000  0.556266  0.232933  1
  U  U15  1  0.500000  0.267067  0.056266  1
  U  U16  1  0.500000  0.732933  0.943734  1
  U  U17  1  0.000000  0.443734  0.767067  1
  U  U18  1  0.500000  0.056266  0.267067  1
  U  U19  1  0.500000  0.943734  0.732933  1
  U  U20  1  0.000000  0.232933  0.556266  1
  U  U21  1  0.000000  0.767067  0.443734  1
  U  U22  1  0.000000  0.364057  0.048789  1
  U  U23  1  0.500000  0.451211  0.864057  1
  U  U24  1  0.500000  0.548789  0.135943  1
  U  U25  1  0.000000  0.635943  0.951211  1
  U  U26  1  0.500000  0.864057  0.451211  1
  U  U27  1  0.500000  0.135943  0.548789  1
  U  U28  1  0.000000  0.048789  0.364057  1
  U  U29  1  0.000000  0.951211  0.635943  1
