# generated using pymatgen
data_SnH8(NF3)2
_symmetry_space_group_name_H-M   'P 1'
_cell_length_a   6.06915872
_cell_length_b   6.06931373
_cell_length_c   4.77601723
_cell_angle_alpha   89.99965907
_cell_angle_beta   90.00093116
_cell_angle_gamma   120.00061142
_symmetry_Int_Tables_number   1
_chemical_formula_structural   SnH8(NF3)2
_chemical_formula_sum   'Sn1 H8 N2 F6'
_cell_volume   152.35682836
_cell_formula_units_Z   1
loop_
 _symmetry_equiv_pos_site_id
 _symmetry_equiv_pos_as_xyz
  1  'x, y, z'
loop_
 _atom_site_type_symbol
 _atom_site_label
 _atom_site_symmetry_multiplicity
 _atom_site_fract_x
 _atom_site_fract_y
 _atom_site_fract_z
 _atom_site_occupancy
  Sn  Sn0  1  0.000001  0.000000  0.000000  1
  H  H1  1  0.666610  0.333306  0.087867  1
  H  H2  1  0.758586  0.517172  0.379218  1
  H  H3  1  0.758584  0.241416  0.379219  1
  H  H4  1  0.482860  0.241431  0.379260  1
  H  H5  1  0.517139  0.758567  0.620740  1
  H  H6  1  0.241417  0.758584  0.620782  1
  H  H7  1  0.241413  0.482828  0.620781  1
  H  H8  1  0.333390  0.666695  0.912134  1
  N  N9  1  0.666611  0.333303  0.303121  1
  N  N10  1  0.333388  0.666697  0.696879  1
  F  F11  1  0.683058  0.841527  0.234300  1
  F  F12  1  0.158446  0.316907  0.234362  1
  F  F13  1  0.158445  0.841536  0.234360  1
  F  F14  1  0.841552  0.158462  0.765640  1
  F  F15  1  0.841555  0.683095  0.765639  1
  F  F16  1  0.316941  0.158472  0.765702  1
