# generated using pymatgen
data_Hf9CoMo4
_symmetry_space_group_name_H-M   'P 1'
_cell_length_a   8.68450168
_cell_length_b   8.68450034
_cell_length_c   8.41580054
_cell_angle_alpha   90.00000000
_cell_angle_beta   90.00000000
_cell_angle_gamma   120.00128547
_symmetry_Int_Tables_number   1
_chemical_formula_structural   Hf9CoMo4
_chemical_formula_sum   'Hf18 Co2 Mo8'
_cell_volume   549.68030921
_cell_formula_units_Z   2
loop_
 _symmetry_equiv_pos_site_id
 _symmetry_equiv_pos_as_xyz
  1  'x, y, z'
loop_
 _atom_site_type_symbol
 _atom_site_label
 _atom_site_symmetry_multiplicity
 _atom_site_fract_x
 _atom_site_fract_y
 _atom_site_fract_z
 _atom_site_occupancy
  Hf  Hf0  1  0.201503  0.798495  0.058219  1
  Hf  Hf1  1  0.596978  0.798468  0.058262  1
  Hf  Hf2  1  0.798469  0.596977  0.558263  1
  Hf  Hf3  1  0.201532  0.403022  0.058262  1
  Hf  Hf4  1  0.798496  0.201505  0.558219  1
  Hf  Hf5  1  0.403023  0.201532  0.558263  1
  Hf  Hf6  1  0.798469  0.596977  0.941737  1
  Hf  Hf7  1  0.798496  0.201505  0.941781  1
  Hf  Hf8  1  0.403023  0.201532  0.941737  1
  Hf  Hf9  1  0.596978  0.798468  0.441737  1
  Hf  Hf10  1  0.201503  0.798495  0.441781  1
  Hf  Hf11  1  0.201532  0.403022  0.441737  1
  Hf  Hf12  1  0.542040  0.084028  0.250000  1
  Hf  Hf13  1  0.457960  0.915972  0.749999  1
  Hf  Hf14  1  0.915972  0.457960  0.250000  1
  Hf  Hf15  1  0.542037  0.457963  0.250000  1
  Hf  Hf16  1  0.457963  0.542037  0.749999  1
  Hf  Hf17  1  0.084027  0.542040  0.749999  1
  Co  Co18  1  0.666685  0.333315  0.749999  1
  Co  Co19  1  0.333315  0.666685  0.250000  1
  Mo  Mo20  1  -0.000000  -0.000000  0.000000  1
  Mo  Mo21  1  -0.000000  -0.000000  0.500000  1
  Mo  Mo22  1  0.888155  0.776308  0.250000  1
  Mo  Mo23  1  0.111846  0.223691  0.749999  1
  Mo  Mo24  1  0.223690  0.111846  0.250000  1
  Mo  Mo25  1  0.888150  0.111851  0.250000  1
  Mo  Mo26  1  0.111852  0.888150  0.749999  1
  Mo  Mo27  1  0.776310  0.888156  0.749999  1
