# generated using pymatgen
data_SmAlCu
_symmetry_space_group_name_H-M   'P 1'
_cell_length_a   7.12996836
_cell_length_b   7.12978468
_cell_length_c   4.09019795
_cell_angle_alpha   90.00000000
_cell_angle_beta   90.00000000
_cell_angle_gamma   120.00084739
_symmetry_Int_Tables_number   1
_chemical_formula_structural   SmAlCu
_chemical_formula_sum   'Sm3 Al3 Cu3'
_cell_volume   180.06747186
_cell_formula_units_Z   3
loop_
 _symmetry_equiv_pos_site_id
 _symmetry_equiv_pos_as_xyz
  1  'x, y, z'
loop_
 _atom_site_type_symbol
 _atom_site_label
 _atom_site_symmetry_multiplicity
 _atom_site_fract_x
 _atom_site_fract_y
 _atom_site_fract_z
 _atom_site_occupancy
  Sm  Sm0  1  0.583680  1.000000  0.500000  1
  Sm  Sm1  1  0.999984  0.583675  0.500000  1
  Sm  Sm2  1  0.416308  0.416326  0.500000  1
  Al  Al3  1  0.232461  0.000000  0.000000  1
  Al  Al4  1  0.999997  0.232466  0.000000  1
  Al  Al5  1  0.767530  0.767534  0.000000  1
  Cu  Cu6  1  0.999991  0.000000  0.500000  1
  Cu  Cu7  1  0.333313  0.666678  0.000000  1
  Cu  Cu8  1  0.666637  0.333322  0.000000  1
