# generated using pymatgen
data_InPbCl3
_symmetry_space_group_name_H-M   'P 1'
_cell_length_a   4.29717404
_cell_length_b   7.32966917
_cell_length_c   10.68204177
_cell_angle_alpha   90.00001075
_cell_angle_beta   89.99993019
_cell_angle_gamma   107.02438512
_symmetry_Int_Tables_number   1
_chemical_formula_structural   InPbCl3
_chemical_formula_sum   'In2 Pb2 Cl6'
_cell_volume   321.70762237
_cell_formula_units_Z   2
loop_
 _symmetry_equiv_pos_site_id
 _symmetry_equiv_pos_as_xyz
  1  'x, y, z'
loop_
 _atom_site_type_symbol
 _atom_site_label
 _atom_site_symmetry_multiplicity
 _atom_site_fract_x
 _atom_site_fract_y
 _atom_site_fract_z
 _atom_site_occupancy
  In  In0  1  0.254279  0.506728  0.000007  1
  In  In1  1  0.745720  0.493271  0.500007  1
  Pb  Pb2  1  0.000015  0.000011  0.749987  1
  Pb  Pb3  1  0.999984  0.999988  0.249988  1
  Cl  Cl4  1  0.364889  0.729924  0.692925  1
  Cl  Cl5  1  0.635110  0.270077  0.192929  1
  Cl  Cl6  1  0.364879  0.729901  0.307036  1
  Cl  Cl7  1  0.635122  0.270097  0.807033  1
  Cl  Cl8  1  0.916528  0.830484  0.999985  1
  Cl  Cl9  1  0.083472  0.169514  0.499985  1
