# generated using pymatgen
data_Tl3Br
_symmetry_space_group_name_H-M   'P 1'
_cell_length_a   6.97888647
_cell_length_b   6.97888662
_cell_length_c   6.26983487
_cell_angle_alpha   90.00000000
_cell_angle_beta   90.00000000
_cell_angle_gamma   120.00245250
_symmetry_Int_Tables_number   1
_chemical_formula_structural   Tl3Br
_chemical_formula_sum   'Tl6 Br2'
_cell_volume   264.45286580
_cell_formula_units_Z   2
loop_
 _symmetry_equiv_pos_site_id
 _symmetry_equiv_pos_as_xyz
  1  'x, y, z'
loop_
 _atom_site_type_symbol
 _atom_site_label
 _atom_site_symmetry_multiplicity
 _atom_site_fract_x
 _atom_site_fract_y
 _atom_site_fract_z
 _atom_site_occupancy
  Tl  Tl0  1  0.167391  0.334769  0.250001  1
  Tl  Tl1  1  0.665231  0.832610  0.250001  1
  Tl  Tl2  1  0.167386  0.832614  0.250001  1
  Tl  Tl3  1  0.832609  0.665231  0.750000  1
  Tl  Tl4  1  0.334768  0.167390  0.750000  1
  Tl  Tl5  1  0.832614  0.167387  0.750000  1
  Br  Br6  1  0.333324  0.666677  0.750000  1
  Br  Br7  1  0.666677  0.333323  0.250001  1
