# generated using pymatgen
data_YbH2ClO2
_symmetry_space_group_name_H-M   'P 1'
_cell_length_a   6.10021766
_cell_length_b   3.63324203
_cell_length_c   6.69874503
_cell_angle_alpha   90.00000000
_cell_angle_beta   105.62477438
_cell_angle_gamma   90.00000000
_symmetry_Int_Tables_number   1
_chemical_formula_structural   YbH2ClO2
_chemical_formula_sum   'Yb2 H4 Cl2 O4'
_cell_volume   142.98162521
_cell_formula_units_Z   2
loop_
 _symmetry_equiv_pos_site_id
 _symmetry_equiv_pos_as_xyz
  1  'x, y, z'
loop_
 _atom_site_type_symbol
 _atom_site_label
 _atom_site_symmetry_multiplicity
 _atom_site_fract_x
 _atom_site_fract_y
 _atom_site_fract_z
 _atom_site_occupancy
  Yb  Yb0  1  0.285795  0.250001  0.102375  1
  Yb  Yb1  1  0.714206  0.750001  0.897626  1
  H  H2  1  0.874087  0.250001  0.245818  1
  H  H3  1  0.645891  0.750001  0.318507  1
  H  H4  1  0.354110  0.250001  0.681492  1
  H  H5  1  0.125912  0.750001  0.754181  1
  Cl  Cl6  1  0.222609  0.750001  0.425663  1
  Cl  Cl7  1  0.777389  0.250001  0.574336  1
  O  O8  1  0.892411  0.250001  0.104067  1
  O  O9  1  0.553441  0.750001  0.173601  1
  O  O10  1  0.446559  0.250001  0.826399  1
  O  O11  1  0.107588  0.750001  0.895932  1
