# generated using pymatgen
data_InSnBr3
_symmetry_space_group_name_H-M   'P 1'
_cell_length_a   8.17832345
_cell_length_b   8.17832398
_cell_length_c   8.25950637
_cell_angle_alpha   60.32461016
_cell_angle_beta   60.32461127
_cell_angle_gamma   59.99999771
_symmetry_Int_Tables_number   1
_chemical_formula_structural   InSnBr3
_chemical_formula_sum   'In2 Sn2 Br6'
_cell_volume   392.53754955
_cell_formula_units_Z   2
loop_
 _symmetry_equiv_pos_site_id
 _symmetry_equiv_pos_as_xyz
  1  'x, y, z'
loop_
 _atom_site_type_symbol
 _atom_site_label
 _atom_site_symmetry_multiplicity
 _atom_site_fract_x
 _atom_site_fract_y
 _atom_site_fract_z
 _atom_site_occupancy
  In  In0  1  0.294168  0.294168  0.117495  1
  In  In1  1  0.794168  0.794169  0.617495  1
  Sn  Sn2  1  0.997294  0.997294  0.008119  1
  Sn  Sn3  1  0.497294  0.497294  0.508119  1
  Br  Br4  1  0.662231  0.858569  0.262961  1
  Br  Br5  1  0.216239  0.662229  0.262962  1
  Br  Br6  1  0.858568  0.216240  0.262962  1
  Br  Br7  1  0.716240  0.358569  0.762962  1
  Br  Br8  1  0.358568  0.162231  0.762962  1
  Br  Br9  1  0.162230  0.716238  0.762963  1
