# generated using pymatgen
data_KTi5Se8
_symmetry_space_group_name_H-M   'P 1'
_cell_length_a   3.62092175
_cell_length_b   9.23470235
_cell_length_c   9.62581838
_cell_angle_alpha   104.62017385
_cell_angle_beta   100.84097726
_cell_angle_gamma   90.00000000
_symmetry_Int_Tables_number   1
_chemical_formula_structural   KTi5Se8
_chemical_formula_sum   'K1 Ti5 Se8'
_cell_volume   305.50708512
_cell_formula_units_Z   1
loop_
 _symmetry_equiv_pos_site_id
 _symmetry_equiv_pos_as_xyz
  1  'x, y, z'
loop_
 _atom_site_type_symbol
 _atom_site_label
 _atom_site_symmetry_multiplicity
 _atom_site_fract_x
 _atom_site_fract_y
 _atom_site_fract_z
 _atom_site_occupancy
  K  K0  1  0.499999  0.500000  -0.000000  1
  Ti  Ti1  1  -0.000000  0.000000  0.000000  1
  Ti  Ti2  1  0.655734  0.999021  0.311470  1
  Ti  Ti3  1  0.708471  0.348139  0.416945  1
  Ti  Ti4  1  0.291528  0.651861  0.583055  1
  Ti  Ti5  1  0.344265  0.000979  0.688530  1
  Se  Se6  1  0.573916  0.174771  0.147835  1
  Se  Se7  1  0.086669  0.820836  0.173338  1
  Se  Se8  1  0.160463  0.497745  0.320926  1
  Se  Se9  1  0.243441  0.165294  0.486881  1
  Se  Se10  1  0.756558  0.834707  0.513119  1
  Se  Se11  1  0.839536  0.502255  0.679074  1
  Se  Se12  1  0.913330  0.179165  0.826662  1
  Se  Se13  1  0.426083  0.825229  0.852165  1
