# generated using pymatgen
data_NaCa9Mg(PO4)7
_symmetry_space_group_name_H-M   'P 1'
_cell_length_a   13.85165453
_cell_length_b   13.85165452
_cell_length_c   13.85165452
_cell_angle_alpha   44.28118610
_cell_angle_beta   44.28118612
_cell_angle_gamma   44.28118610
_symmetry_Int_Tables_number   1
_chemical_formula_structural   NaCa9Mg(PO4)7
_chemical_formula_sum   'Na2 Ca18 Mg2 P14 O56'
_cell_volume   1177.36296644
_cell_formula_units_Z   2
loop_
 _symmetry_equiv_pos_site_id
 _symmetry_equiv_pos_as_xyz
  1  'x, y, z'
loop_
 _atom_site_type_symbol
 _atom_site_label
 _atom_site_symmetry_multiplicity
 _atom_site_fract_x
 _atom_site_fract_y
 _atom_site_fract_z
 _atom_site_occupancy
  O  O0  1  0.110519  0.671341  0.688710  1
  O  O1  1  0.671341  0.688710  0.110519  1
  O  O2  1  0.688710  0.110519  0.671341  1
  O  O3  1  0.188710  0.171341  0.610519  1
  O  O4  1  0.171341  0.610519  0.188710  1
  O  O5  1  0.610519  0.188710  0.171341  1
  O  O6  1  0.362986  0.613780  0.635172  1
  O  O7  1  0.613780  0.635172  0.362986  1
  O  O8  1  0.635172  0.362986  0.613780  1
  O  O9  1  0.135172  0.113780  0.862986  1
  O  O10  1  0.113780  0.862986  0.135172  1
  O  O11  1  0.862986  0.135172  0.113780  1
  O  O12  1  0.128751  0.851304  0.670707  1
  O  O13  1  0.851304  0.670707  0.128751  1
  O  O14  1  0.670707  0.128751  0.851304  1
  O  O15  1  0.170707  0.351304  0.628751  1
  O  O16  1  0.351304  0.628751  0.170707  1
  O  O17  1  0.628751  0.170707  0.351304  1
  O  O18  1  0.145498  0.585911  0.897140  1
  O  O19  1  0.585911  0.897140  0.145498  1
  O  O20  1  0.897140  0.145498  0.585911  1
  O  O21  1  0.397140  0.085911  0.645498  1
  O  O22  1  0.377344  0.847340  0.634885  1
  O  O23  1  0.085911  0.645498  0.397140  1
  O  O24  1  0.146817  0.870921  0.878514  1
  O  O25  1  0.870921  0.878514  0.146817  1
  O  O26  1  0.878514  0.146817  0.870921  1
  O  O27  1  0.378514  0.370921  0.646817  1
  O  O28  1  0.370921  0.646817  0.378514  1
  O  O29  1  0.646817  0.378514  0.370921  1
  O  O30  1  0.334866  0.609365  0.890168  1
  O  O31  1  0.609365  0.890168  0.334866  1
  O  O32  1  0.890168  0.334866  0.609365  1
  O  O33  1  0.390168  0.109365  0.834866  1
  O  O34  1  0.109365  0.834866  0.390168  1
  O  O35  1  0.834866  0.390168  0.109365  1
  O  O36  1  0.306504  0.306504  0.306504  1
  O  O37  1  0.806504  0.806504  0.806504  1
  O  O38  1  0.253441  0.109461  0.390952  1
  O  O39  1  0.390952  0.253441  0.109461  1
  O  O40  1  0.109461  0.390952  0.253441  1
  O  O41  1  0.609461  0.753441  0.890952  1
  O  O42  1  0.890952  0.609461  0.753441  1
  O  O43  1  0.753441  0.890952  0.609461  1
  O  O44  1  0.916046  0.349530  0.252725  1
  O  O45  1  0.252725  0.916046  0.349530  1
  O  O46  1  0.349530  0.252725  0.916046  1
  O  O47  1  0.849530  0.416046  0.752725  1
  O  O48  1  0.752725  0.849530  0.416046  1
  O  O49  1  0.416046  0.752725  0.849530  1
  O  O50  1  0.877344  0.134885  0.347340  1
  O  O51  1  0.347340  0.877344  0.134885  1
  O  O52  1  0.134885  0.347340  0.877344  1
  O  O53  1  0.634885  0.377344  0.847340  1
  O  O54  1  0.847340  0.634885  0.377344  1
  O  O55  1  0.645498  0.397140  0.085911  1
  Na  Na56  1  0.186253  0.186253  0.186253  1
  Na  Na57  1  0.686253  0.686253  0.686253  1
  Mg  Mg58  1  0.000095  0.000095  0.000095  1
  Mg  Mg59  1  0.500095  0.500095  0.500095  1
  P  P60  1  0.181379  0.686197  0.223947  1
  P  P61  1  0.686197  0.223947  0.181379  1
  P  P62  1  0.322384  0.771528  0.809022  1
  P  P63  1  0.771528  0.809022  0.322384  1
  P  P64  1  0.809022  0.322384  0.771528  1
  P  P65  1  0.309022  0.271528  0.822384  1
  P  P66  1  0.271528  0.822384  0.309022  1
  P  P67  1  0.822384  0.309022  0.271528  1
  P  P68  1  0.765165  0.765165  0.765165  1
  P  P69  1  0.265165  0.265165  0.265165  1
  P  P70  1  0.223947  0.181379  0.686197  1
  P  P71  1  0.723947  0.186197  0.681379  1
  P  P72  1  0.681379  0.723947  0.186197  1
  P  P73  1  0.186197  0.681379  0.723947  1
  Ca  Ca74  1  0.946692  0.556948  0.970205  1
  Ca  Ca75  1  0.556948  0.970205  0.946692  1
  Ca  Ca76  1  0.970205  0.946692  0.556948  1
  Ca  Ca77  1  0.470205  0.056948  0.446692  1
  Ca  Ca78  1  0.056948  0.446692  0.470205  1
  Ca  Ca79  1  0.446692  0.470205  0.056948  1
  Ca  Ca80  1  0.347001  0.906152  0.938289  1
  Ca  Ca81  1  0.906152  0.938289  0.347001  1
  Ca  Ca82  1  0.938289  0.347001  0.906152  1
  Ca  Ca83  1  0.438289  0.406152  0.847001  1
  Ca  Ca84  1  0.406152  0.847001  0.438289  1
  Ca  Ca85  1  0.847001  0.438289  0.406152  1
  Ca  Ca86  1  0.659541  0.074627  0.062179  1
  Ca  Ca87  1  0.074627  0.062179  0.659541  1
  Ca  Ca88  1  0.062179  0.659541  0.074627  1
  Ca  Ca89  1  0.562179  0.574627  0.159541  1
  Ca  Ca90  1  0.574627  0.159541  0.562179  1
  Ca  Ca91  1  0.159541  0.562179  0.574627  1
