# generated using pymatgen
data_LaNd3
_symmetry_space_group_name_H-M   'P 1'
_cell_length_a   7.44377200
_cell_length_b   7.44377230
_cell_length_c   6.01831000
_cell_angle_alpha   90.00000000
_cell_angle_beta   90.00000000
_cell_angle_gamma   119.99999866
_symmetry_Int_Tables_number   1
_chemical_formula_structural   LaNd3
_chemical_formula_sum   'La2 Nd6'
_cell_volume   288.79610671
_cell_formula_units_Z   2
loop_
 _symmetry_equiv_pos_site_id
 _symmetry_equiv_pos_as_xyz
  1  'x, y, z'
loop_
 _atom_site_type_symbol
 _atom_site_label
 _atom_site_symmetry_multiplicity
 _atom_site_fract_x
 _atom_site_fract_y
 _atom_site_fract_z
 _atom_site_occupancy
  La  La0  1  0.666667  0.333333  0.250000  1
  La  La1  1  0.333334  0.666668  0.750000  1
  Nd  Nd2  1  0.834020  0.165982  0.750000  1
  Nd  Nd3  1  0.331961  0.165982  0.750000  1
  Nd  Nd4  1  0.834020  0.668039  0.750000  1
  Nd  Nd5  1  0.165980  0.834019  0.250000  1
  Nd  Nd6  1  0.668038  0.834019  0.250000  1
  Nd  Nd7  1  0.165981  0.331962  0.250000  1
