# generated using pymatgen
data_Li3Mn3(PO4)4
_symmetry_space_group_name_H-M   'P 1'
_cell_length_a   13.42394201
_cell_length_b   8.10125719
_cell_length_c   9.06890799
_cell_angle_alpha   89.97727020
_cell_angle_beta   85.41622765
_cell_angle_gamma   90.09851730
_symmetry_Int_Tables_number   1
_chemical_formula_structural   Li3Mn3(PO4)4
_chemical_formula_sum   'Li9 Mn9 P12 O48'
_cell_volume   983.09499331
_cell_formula_units_Z   3
loop_
 _symmetry_equiv_pos_site_id
 _symmetry_equiv_pos_as_xyz
  1  'x, y, z'
loop_
 _atom_site_type_symbol
 _atom_site_label
 _atom_site_symmetry_multiplicity
 _atom_site_fract_x
 _atom_site_fract_y
 _atom_site_fract_z
 _atom_site_occupancy
  Li  Li0  1  0.166106  0.485246  0.342610  1
  Li  Li1  1  0.501944  0.515094  0.992193  1
  Li  Li2  1  0.173400  0.146123  0.442504  1
  Li  Li3  1  0.824909  0.647563  0.055272  1
  Li  Li4  1  0.160311  0.003986  0.820652  1
  Li  Li5  1  0.501911  0.991297  0.513449  1
  Li  Li6  1  0.833629  0.983284  0.156525  1
  Li  Li7  1  0.494245  0.852344  0.892266  1
  Li  Li8  1  0.836949  0.506966  0.681830  1
  Mn  Mn9  1  0.168022  0.855830  0.224163  1
  Mn  Mn10  1  0.498142  0.142821  0.107948  1
  Mn  Mn11  1  0.155705  0.651927  0.714532  1
  Mn  Mn12  1  0.500873  0.649204  0.388800  1
  Mn  Mn13  1  0.164001  0.355092  0.941727  1
  Mn  Mn14  1  0.503839  0.354546  0.614641  1
  Mn  Mn15  1  0.831258  0.358985  0.272921  1
  Mn  Mn16  1  0.828724  0.847882  0.555903  1
  Mn  Mn17  1  0.844504  0.150104  0.786832  1
  P  P18  1  0.054445  0.196040  0.145962  1
  P  P19  1  0.280401  0.697254  0.023457  1
  P  P20  1  0.055663  0.298327  0.635165  1
  P  P21  1  0.386453  0.301672  0.309276  1
  P  P22  1  0.278415  0.797098  0.518952  1
  P  P23  1  0.614130  0.806073  0.187171  1
  P  P24  1  0.387451  0.202375  0.814794  1
  P  P25  1  0.722154  0.198854  0.476118  1
  P  P26  1  0.611060  0.701967  0.697171  1
  P  P27  1  0.945260  0.697145  0.354648  1
  P  P28  1  0.720876  0.296140  0.980625  1
  P  P29  1  0.944137  0.799818  0.864221  1
  O  O30  1  0.224091  0.867558  0.015875  1
  O  O31  1  0.110792  0.366836  0.150782  1
  O  O32  1  0.101815  0.066872  0.244417  1
  O  O33  1  0.057116  0.707125  0.316583  1
  O  O34  1  0.249223  0.656477  0.191693  1
  O  O35  1  0.072877  0.363406  0.478802  1
  O  O36  1  0.417434  0.343252  0.141610  1
  O  O37  1  0.276464  0.296968  0.349744  1
  O  O38  1  0.231228  0.917229  0.413147  1
  O  O39  1  0.608143  0.289833  0.013954  1
  O  O40  1  0.563340  0.932761  0.088592  1
  O  O41  1  0.227591  0.621319  0.518058  1
  O  O42  1  0.108390  0.135558  0.655631  1
  O  O43  1  0.557752  0.633940  0.183380  1
  O  O44  1  0.443178  0.132029  0.317669  1
  O  O45  1  0.101083  0.430814  0.748450  1
  O  O46  1  0.058731  0.795026  0.815046  1
  O  O47  1  0.439385  0.429311  0.410764  1
  O  O48  1  0.391606  0.791274  0.486098  1
  O  O49  1  0.768647  0.417564  0.085844  1
  O  O50  1  0.246873  0.843953  0.684620  1
  O  O51  1  0.724668  0.797298  0.151012  1
  O  O52  1  0.583001  0.845016  0.356650  1
  O  O53  1  0.927766  0.863774  0.021130  1
  O  O54  1  0.081708  0.158490  0.976338  1
  O  O55  1  0.418293  0.158371  0.647412  1
  O  O56  1  0.274679  0.210095  0.848496  1
  O  O57  1  0.748820  0.157824  0.308350  1
  O  O58  1  0.228211  0.570255  0.921744  1
  O  O59  1  0.609927  0.209239  0.515540  1
  O  O60  1  0.563997  0.570328  0.583519  1
  O  O61  1  0.942942  0.208107  0.185822  1
  O  O62  1  0.898262  0.568905  0.253648  1
  O  O63  1  0.559265  0.865879  0.676626  1
  O  O64  1  0.439858  0.377452  0.815417  1
  O  O65  1  0.890766  0.868813  0.350209  1
  O  O66  1  0.777648  0.368268  0.484320  1
  O  O67  1  0.434893  0.081128  0.918755  1
  O  O68  1  0.390612  0.702291  0.984428  1
  O  O69  1  0.768370  0.068822  0.577828  1
  O  O70  1  0.724589  0.703136  0.645294  1
  O  O71  1  0.592305  0.637146  0.853225  1
  O  O72  1  0.915888  0.656179  0.522780  1
  O  O73  1  0.753101  0.341069  0.814443  1
  O  O74  1  0.941470  0.293396  0.684697  1
  O  O75  1  0.898914  0.931077  0.751276  1
  O  O76  1  0.892311  0.635763  0.844385  1
  O  O77  1  0.773064  0.121720  0.983570  1
