# generated using pymatgen
data_Rb2Al2Si3O10
_symmetry_space_group_name_H-M   'P 1'
_cell_length_a   10.00076875
_cell_length_b   9.33266605
_cell_length_c   12.86497490
_cell_angle_alpha   50.54636373
_cell_angle_beta   46.10041984
_cell_angle_gamma   83.35321643
_symmetry_Int_Tables_number   1
_chemical_formula_structural   Rb2Al2Si3O10
_chemical_formula_sum   'Rb4 Al4 Si6 O20'
_cell_volume   542.33544546
_cell_formula_units_Z   2
loop_
 _symmetry_equiv_pos_site_id
 _symmetry_equiv_pos_as_xyz
  1  'x, y, z'
loop_
 _atom_site_type_symbol
 _atom_site_label
 _atom_site_symmetry_multiplicity
 _atom_site_fract_x
 _atom_site_fract_y
 _atom_site_fract_z
 _atom_site_occupancy
  Rb  Rb0  1  0.257619  0.987785  0.112090  1
  Rb  Rb1  1  0.987784  0.257620  0.642507  1
  Rb  Rb2  1  0.607493  0.137910  0.262214  1
  Rb  Rb3  1  0.137910  0.607493  0.992381  1
  Al  Al4  1  0.667200  0.565377  0.516190  1
  Al  Al5  1  0.565376  0.667200  0.251234  1
  Al  Al6  1  0.998767  0.733809  0.684623  1
  Al  Al7  1  0.733809  0.998767  0.582799  1
  Si  Si8  1  0.694196  0.557790  0.738618  1
  Si  Si9  1  0.557790  0.694196  0.009396  1
  Si  Si10  1  0.240604  0.511382  0.692209  1
  Si  Si11  1  0.511381  0.240605  0.555804  1
  Si  Si12  1  -0.000233  -0.000234  0.000234  1
  Si  Si13  1  0.249769  0.249770  0.250231  1
  O  O14  1  0.416855  0.374189  0.000451  1
  O  O15  1  0.374189  0.416855  0.208505  1
  O  O16  1  0.041495  0.249549  0.875811  1
  O  O17  1  0.249549  0.041494  0.833145  1
  O  O18  1  0.765953  0.816789  0.573699  1
  O  O19  1  0.816789  0.765953  0.843559  1
  O  O20  1  0.406441  0.676300  0.433212  1
  O  O21  1  0.676301  0.406441  0.484046  1
  O  O22  1  0.387060  0.494802  0.712616  1
  O  O23  1  0.494801  0.387061  0.405523  1
  O  O24  1  0.844476  0.537383  0.755200  1
  O  O25  1  0.537383  0.844475  0.862940  1
  O  O26  1  0.731723  0.486712  0.636112  1
  O  O27  1  0.486712  0.731722  0.145454  1
  O  O28  1  0.104548  0.613890  0.763287  1
  O  O29  1  0.613889  0.104548  0.518276  1
  O  O30  1  0.879776  0.854609  0.237415  1
  O  O31  1  0.854608  0.879776  0.028200  1
  O  O32  1  0.221798  0.012583  0.395394  1
  O  O33  1  0.012584  0.221798  0.370225  1
