# generated using pymatgen
data_LaNp3
_symmetry_space_group_name_H-M   'P 1'
_cell_length_a   4.56673905
_cell_length_b   4.56745047
_cell_length_c   4.56872004
_cell_angle_alpha   90.00376018
_cell_angle_beta   89.99357548
_cell_angle_gamma   90.01887019
_symmetry_Int_Tables_number   1
_chemical_formula_structural   LaNp3
_chemical_formula_sum   'La1 Np3'
_cell_volume   95.29597593
_cell_formula_units_Z   1
loop_
 _symmetry_equiv_pos_site_id
 _symmetry_equiv_pos_as_xyz
  1  'x, y, z'
loop_
 _atom_site_type_symbol
 _atom_site_label
 _atom_site_symmetry_multiplicity
 _atom_site_fract_x
 _atom_site_fract_y
 _atom_site_fract_z
 _atom_site_occupancy
  La  La0  1  0.000018  0.999982  0.000015  1
  Np  Np1  1  0.000044  0.500062  0.499929  1
  Np  Np2  1  0.500076  0.500012  0.999984  1
  Np  Np3  1  0.499863  0.999947  0.500074  1
