# generated using pymatgen
data_DyO3
_symmetry_space_group_name_H-M   'P 1'
_cell_length_a   4.65296396
_cell_length_b   4.65296441
_cell_length_c   4.65995084
_cell_angle_alpha   90.00000000
_cell_angle_beta   90.00000000
_cell_angle_gamma   119.99998969
_symmetry_Int_Tables_number   1
_chemical_formula_structural   DyO3
_chemical_formula_sum   'Dy2 O6'
_cell_volume   87.37182983
_cell_formula_units_Z   2
loop_
 _symmetry_equiv_pos_site_id
 _symmetry_equiv_pos_as_xyz
  1  'x, y, z'
loop_
 _atom_site_type_symbol
 _atom_site_label
 _atom_site_symmetry_multiplicity
 _atom_site_fract_x
 _atom_site_fract_y
 _atom_site_fract_z
 _atom_site_occupancy
  Dy  Dy0  1  0.333333  0.666667  0.749998  1
  Dy  Dy1  1  0.666666  0.333331  0.249998  1
  O  O2  1  0.181022  0.362044  0.249998  1
  O  O3  1  0.637955  0.818976  0.249998  1
  O  O4  1  0.181021  0.818976  0.249998  1
  O  O5  1  0.818976  0.637954  0.749998  1
  O  O6  1  0.362045  0.181022  0.749998  1
  O  O7  1  0.818976  0.181022  0.749998  1
