# generated using pymatgen
data_Cs2ZrCu3F12
_symmetry_space_group_name_H-M   'P 1'
_cell_length_a   8.19901032
_cell_length_b   8.19901032
_cell_length_c   8.19901033
_cell_angle_alpha   52.35971842
_cell_angle_beta   52.35971839
_cell_angle_gamma   52.35971839
_symmetry_Int_Tables_number   1
_chemical_formula_structural   Cs2ZrCu3F12
_chemical_formula_sum   'Cs2 Zr1 Cu3 F12'
_cell_volume   319.80129649
_cell_formula_units_Z   1
loop_
 _symmetry_equiv_pos_site_id
 _symmetry_equiv_pos_as_xyz
  1  'x, y, z'
loop_
 _atom_site_type_symbol
 _atom_site_label
 _atom_site_symmetry_multiplicity
 _atom_site_fract_x
 _atom_site_fract_y
 _atom_site_fract_z
 _atom_site_occupancy
  F  F0  1  0.417355  0.417355  0.825427  1
  F  F1  1  0.417355  0.825427  0.417355  1
  F  F2  1  0.825427  0.417355  0.417355  1
  F  F3  1  0.174573  0.582645  0.582645  1
  F  F4  1  0.582645  0.582645  0.174573  1
  F  F5  1  0.582645  0.174573  0.582645  1
  F  F6  1  0.192410  0.576055  0.192410  1
  F  F7  1  0.192410  0.192410  0.576055  1
  F  F8  1  0.576055  0.192410  0.192410  1
  F  F9  1  0.423945  0.807590  0.807590  1
  F  F10  1  0.807590  0.423945  0.807590  1
  F  F11  1  0.807590  0.807590  0.423945  1
  Cu  Cu12  1  0.500000  0.000000  0.500000  1
  Cu  Cu13  1  0.000000  0.500000  0.500000  1
  Cu  Cu14  1  0.500000  0.500000  0.000000  1
  Zr  Zr15  1  0.500000  0.500000  0.500000  1
  Cs  Cs16  1  0.894116  0.894116  0.894116  1
  Cs  Cs17  1  0.105884  0.105884  0.105884  1
