# generated using pymatgen
data_Ba2PrRuO6
_symmetry_space_group_name_H-M   'P 1'
_cell_length_a   6.07343854
_cell_length_b   6.07038613
_cell_length_c   8.66416274
_cell_angle_alpha   90.00000000
_cell_angle_beta   90.07377901
_cell_angle_gamma   90.00000000
_symmetry_Int_Tables_number   1
_chemical_formula_structural   Ba2PrRuO6
_chemical_formula_sum   'Ba4 Pr2 Ru2 O12'
_cell_volume   319.43110147
_cell_formula_units_Z   2
loop_
 _symmetry_equiv_pos_site_id
 _symmetry_equiv_pos_as_xyz
  1  'x, y, z'
loop_
 _atom_site_type_symbol
 _atom_site_label
 _atom_site_symmetry_multiplicity
 _atom_site_fract_x
 _atom_site_fract_y
 _atom_site_fract_z
 _atom_site_occupancy
  Ba  Ba0  1  0.500620  0.495681  0.749887  1
  Ba  Ba1  1  0.999380  0.995683  0.750114  1
  Ba  Ba2  1  0.499379  0.504317  0.250113  1
  Ba  Ba3  1  0.000621  0.004317  0.249886  1
  Pr  Pr4  1  0.000001  0.500000  0.500000  1
  Pr  Pr5  1  0.500000  0.000000  0.000000  1
  Ru  Ru6  1  0.000000  0.500000  0.000000  1
  Ru  Ru7  1  0.499999  0.000000  0.500001  1
  O  O8  1  0.696486  0.261598  0.493905  1
  O  O9  1  0.803515  0.761598  0.006096  1
  O  O10  1  0.303514  0.738402  0.506096  1
  O  O11  1  0.196487  0.238402  0.993904  1
  O  O12  1  0.761333  0.803327  0.493303  1
  O  O13  1  0.738668  0.303327  0.006697  1
  O  O14  1  0.238669  0.196675  0.506698  1
  O  O15  1  0.261332  0.696675  0.993302  1
  O  O16  1  0.513389  0.001287  0.729872  1
  O  O17  1  0.986613  0.501285  0.770128  1
  O  O18  1  0.486612  0.998713  0.270129  1
  O  O19  1  0.013388  0.498715  0.229872  1
