# generated using pymatgen
data_Sr3BPO3
_symmetry_space_group_name_H-M   'P 1'
_cell_length_a   5.30854150
_cell_length_b   5.30854150
_cell_length_c   12.78243687
_cell_angle_alpha   90.00000000
_cell_angle_beta   90.00000000
_cell_angle_gamma   119.99999998
_symmetry_Int_Tables_number   1
_chemical_formula_structural   Sr3BPO3
_chemical_formula_sum   'Sr6 B2 P2 O6'
_cell_volume   311.95699070
_cell_formula_units_Z   2
loop_
 _symmetry_equiv_pos_site_id
 _symmetry_equiv_pos_as_xyz
  1  'x, y, z'
loop_
 _atom_site_type_symbol
 _atom_site_label
 _atom_site_symmetry_multiplicity
 _atom_site_fract_x
 _atom_site_fract_y
 _atom_site_fract_z
 _atom_site_occupancy
  B  B0  1  0.333333  0.666667  0.750000  1
  B  B1  1  0.666667  0.333333  0.250000  1
  O  O2  1  0.515632  0.484368  0.250000  1
  O  O3  1  0.968736  0.484368  0.250000  1
  O  O4  1  0.484368  0.968736  0.750000  1
  O  O5  1  0.515632  0.031264  0.250000  1
  O  O6  1  0.031264  0.515632  0.750000  1
  O  O7  1  0.484368  0.515632  0.750000  1
  P  P8  1  0.000000  0.000000  0.000000  1
  P  P9  1  0.000000  0.000000  0.500000  1
  Sr  Sr10  1  0.333333  0.666667  0.399685  1
  Sr  Sr11  1  0.000000  0.000000  0.250000  1
  Sr  Sr12  1  0.000000  0.000000  0.750000  1
  Sr  Sr13  1  0.666667  0.333333  0.899685  1
  Sr  Sr14  1  0.666667  0.333333  0.600315  1
  Sr  Sr15  1  0.333333  0.666667  0.100315  1
