# generated using pymatgen
data_Pu3Au
_symmetry_space_group_name_H-M   'P 1'
_cell_length_a   4.76228736
_cell_length_b   4.76228736
_cell_length_c   4.76228736
_cell_angle_alpha   119.95476689
_cell_angle_beta   119.95476689
_cell_angle_gamma   90.07836391
_symmetry_Int_Tables_number   1
_chemical_formula_structural   Pu3Au
_chemical_formula_sum   'Pu3 Au1'
_cell_volume   76.42372124
_cell_formula_units_Z   1
loop_
 _symmetry_equiv_pos_site_id
 _symmetry_equiv_pos_as_xyz
  1  'x, y, z'
loop_
 _atom_site_type_symbol
 _atom_site_label
 _atom_site_symmetry_multiplicity
 _atom_site_fract_x
 _atom_site_fract_y
 _atom_site_fract_z
 _atom_site_occupancy
  Pu  Pu0  1  0.749999  0.250000  0.499999  1
  Pu  Pu1  1  0.250000  0.749999  0.499999  1
  Pu  Pu2  1  0.500000  0.500000  0.000000  1
  Au  Au3  1  0.000000  0.000000  0.000000  1
