# generated using pymatgen
data_YbSm3
_symmetry_space_group_name_H-M   'P 1'
_cell_length_a   7.36881005
_cell_length_b   7.36881126
_cell_length_c   5.90018013
_cell_angle_alpha   90.00000000
_cell_angle_beta   90.00000000
_cell_angle_gamma   119.99999908
_symmetry_Int_Tables_number   1
_chemical_formula_structural   YbSm3
_chemical_formula_sum   'Yb2 Sm6'
_cell_volume   277.45381528
_cell_formula_units_Z   2
loop_
 _symmetry_equiv_pos_site_id
 _symmetry_equiv_pos_as_xyz
  1  'x, y, z'
loop_
 _atom_site_type_symbol
 _atom_site_label
 _atom_site_symmetry_multiplicity
 _atom_site_fract_x
 _atom_site_fract_y
 _atom_site_fract_z
 _atom_site_occupancy
  Yb  Yb0  1  0.333334  0.666667  0.749999  1
  Yb  Yb1  1  0.666666  0.333333  0.249998  1
  Sm  Sm2  1  0.164691  0.329382  0.249998  1
  Sm  Sm3  1  0.670617  0.835309  0.249998  1
  Sm  Sm4  1  0.164692  0.835309  0.249998  1
  Sm  Sm5  1  0.835309  0.670619  0.749999  1
  Sm  Sm6  1  0.329383  0.164691  0.749999  1
  Sm  Sm7  1  0.835308  0.164691  0.749999  1
