# generated using pymatgen
data_V2Cu3Pb(ClO4)2
_symmetry_space_group_name_H-M   'P 1'
_cell_length_a   8.62839988
_cell_length_b   8.62839988
_cell_length_c   8.62839988
_cell_angle_alpha   116.26498912
_cell_angle_beta   98.71334817
_cell_angle_gamma   113.95290400
_symmetry_Int_Tables_number   1
_chemical_formula_structural   V2Cu3Pb(ClO4)2
_chemical_formula_sum   'V4 Cu6 Pb2 Cl4 O16'
_cell_volume   481.55493552
_cell_formula_units_Z   2
loop_
 _symmetry_equiv_pos_site_id
 _symmetry_equiv_pos_as_xyz
  1  'x, y, z'
loop_
 _atom_site_type_symbol
 _atom_site_label
 _atom_site_symmetry_multiplicity
 _atom_site_fract_x
 _atom_site_fract_y
 _atom_site_fract_z
 _atom_site_occupancy
  V  V0  1  0.047139  0.250000  0.797140  1
  V  V1  1  0.452861  0.250000  0.202860  1
  V  V2  1  0.952860  0.750000  0.202860  1
  V  V3  1  0.547140  0.750000  0.797140  1
  Cu  Cu4  1  0.500000  0.500000  -0.000000  1
  Cu  Cu5  1  -0.000000  0.000000  -0.000000  1
  Cu  Cu6  1  0.672325  0.249319  0.921644  1
  Cu  Cu7  1  0.327675  0.750681  0.078357  1
  Cu  Cu8  1  0.827675  0.749318  0.576994  1
  Cu  Cu9  1  0.172324  0.250681  0.423006  1
  Pb  Pb10  1  0.750000  0.250000  0.500000  1
  Pb  Pb11  1  0.250000  0.750000  0.500000  1
  Cl  Cl12  1  0.412812  0.182356  0.595168  1
  Cl  Cl13  1  0.587188  0.817644  0.404833  1
  Cl  Cl14  1  0.087188  0.682356  0.769543  1
  Cl  Cl15  1  0.912812  0.317644  0.230458  1
  O  O16  1  0.524753  0.732950  0.991467  1
  O  O17  1  0.741482  0.533286  0.008533  1
  O  O18  1  0.975246  0.966713  0.208197  1
  O  O19  1  0.758517  0.767049  0.791803  1
  O  O20  1  0.475246  0.267049  0.008533  1
  O  O21  1  0.258517  0.466714  0.991467  1
  O  O22  1  0.024754  0.033287  0.791803  1
  O  O23  1  0.241483  0.232950  0.208197  1
  O  O24  1  0.452619  0.041431  0.181980  1
  O  O25  1  0.859450  0.270639  0.818019  1
  O  O26  1  0.047380  0.229361  0.588811  1
  O  O27  1  0.640549  0.458569  0.411188  1
  O  O28  1  0.547380  0.958569  0.818019  1
  O  O29  1  0.140550  0.729360  0.181981  1
  O  O30  1  0.952619  0.770640  0.411188  1
  O  O31  1  0.359449  0.541431  0.588811  1
