# generated using pymatgen
data_RbSnCl3
_symmetry_space_group_name_H-M   'P 1'
_cell_length_a   5.59618983
_cell_length_b   5.60129064
_cell_length_c   5.61290561
_cell_angle_alpha   90.61904200
_cell_angle_beta   90.57096157
_cell_angle_gamma   90.03880437
_symmetry_Int_Tables_number   1
_chemical_formula_structural   RbSnCl3
_chemical_formula_sum   'Rb1 Sn1 Cl3'
_cell_volume   175.92243945
_cell_formula_units_Z   1
loop_
 _symmetry_equiv_pos_site_id
 _symmetry_equiv_pos_as_xyz
  1  'x, y, z'
loop_
 _atom_site_type_symbol
 _atom_site_label
 _atom_site_symmetry_multiplicity
 _atom_site_fract_x
 _atom_site_fract_y
 _atom_site_fract_z
 _atom_site_occupancy
  Rb  Rb0  1  0.993506  0.990333  0.018062  1
  Sn  Sn1  1  0.507314  0.513432  0.479390  1
  Cl  Cl2  1  0.502630  0.509897  0.992469  1
  Cl  Cl3  1  0.517743  0.009042  0.475227  1
  Cl  Cl4  1  0.008808  0.527294  0.464852  1
