# generated using pymatgen
data_LuH2ClO2
_symmetry_space_group_name_H-M   'P 1'
_cell_length_a   12.62622568
_cell_length_b   3.50420575
_cell_length_c   6.20672643
_cell_angle_alpha   90.00000000
_cell_angle_beta   90.00000000
_cell_angle_gamma   90.00000000
_symmetry_Int_Tables_number   1
_chemical_formula_structural   LuH2ClO2
_chemical_formula_sum   'Lu4 H8 Cl4 O8'
_cell_volume   274.61594447
_cell_formula_units_Z   4
loop_
 _symmetry_equiv_pos_site_id
 _symmetry_equiv_pos_as_xyz
  1  'x, y, z'
loop_
 _atom_site_type_symbol
 _atom_site_label
 _atom_site_symmetry_multiplicity
 _atom_site_fract_x
 _atom_site_fract_y
 _atom_site_fract_z
 _atom_site_occupancy
  Lu  Lu0  1  0.051099  0.750000  0.249444  1
  Lu  Lu1  1  0.551100  0.750000  0.250556  1
  Lu  Lu2  1  0.448901  0.249999  0.749444  1
  Lu  Lu3  1  0.948900  0.249999  0.750556  1
  H  H4  1  0.845295  0.750000  0.045930  1
  H  H5  1  0.378762  0.249999  0.185768  1
  H  H6  1  0.878763  0.249999  0.314232  1
  H  H7  1  0.345295  0.750000  0.454070  1
  H  H8  1  0.654704  0.249999  0.545930  1
  H  H9  1  0.121238  0.750000  0.685768  1
  H  H10  1  0.621237  0.750000  0.814232  1
  H  H11  1  0.154704  0.249999  0.954069  1
  Cl  Cl12  1  0.712117  0.249999  0.116319  1
  Cl  Cl13  1  0.212117  0.249999  0.383681  1
  Cl  Cl14  1  0.787882  0.750000  0.616319  1
  Cl  Cl15  1  0.287883  0.750000  0.883680  1
  O  O16  1  0.080278  0.249999  0.001545  1
  O  O17  1  0.451931  0.249999  0.129322  1
  O  O18  1  0.951931  0.249999  0.370678  1
  O  O19  1  0.580279  0.249999  0.498455  1
  O  O20  1  0.419722  0.750000  0.501545  1
  O  O21  1  0.048070  0.750000  0.629322  1
  O  O22  1  0.548069  0.750000  0.870678  1
  O  O23  1  0.919721  0.750000  0.998455  1
