# generated using pymatgen
data_Na3AgS2
_symmetry_space_group_name_H-M   'P 1'
_cell_length_a   6.44631602
_cell_length_b   7.01219089
_cell_length_c   7.91525938
_cell_angle_alpha   116.29250743
_cell_angle_beta   114.02957442
_cell_angle_gamma   89.99999998
_symmetry_Int_Tables_number   1
_chemical_formula_structural   Na3AgS2
_chemical_formula_sum   'Na6 Ag2 S4'
_cell_volume   285.77993645
_cell_formula_units_Z   2
loop_
 _symmetry_equiv_pos_site_id
 _symmetry_equiv_pos_as_xyz
  1  'x, y, z'
loop_
 _atom_site_type_symbol
 _atom_site_label
 _atom_site_symmetry_multiplicity
 _atom_site_fract_x
 _atom_site_fract_y
 _atom_site_fract_z
 _atom_site_occupancy
  Na  Na0  1  0.500000  0.750000  0.000000  1
  Na  Na1  1  0.500000  0.250000  0.000000  1
  Na  Na2  1  0.767929  0.517929  0.535858  1
  Na  Na3  1  0.232071  0.982071  0.464142  1
  Na  Na4  1  0.232071  0.482071  0.464142  1
  Na  Na5  1  0.767929  0.017929  0.535858  1
  S  S6  1  0.138539  0.368535  0.737070  1
  S  S7  1  0.401469  0.131465  0.262930  1
  S  S8  1  0.598531  0.868535  0.737070  1
  S  S9  1  0.861461  0.631465  0.262930  1
  Ag  Ag10  1  0.000000  0.500000  0.000000  1
  Ag  Ag11  1  0.000000  0.000000  0.000000  1
