# generated using pymatgen
data_TmPa3
_symmetry_space_group_name_H-M   'P 1'
_cell_length_a   4.70588770
_cell_length_b   4.70596582
_cell_length_c   4.70780906
_cell_angle_alpha   90.01080652
_cell_angle_beta   89.99444584
_cell_angle_gamma   90.01151280
_symmetry_Int_Tables_number   1
_chemical_formula_structural   TmPa3
_chemical_formula_sum   'Tm1 Pa3'
_cell_volume   104.25794237
_cell_formula_units_Z   1
loop_
 _symmetry_equiv_pos_site_id
 _symmetry_equiv_pos_as_xyz
  1  'x, y, z'
loop_
 _atom_site_type_symbol
 _atom_site_label
 _atom_site_symmetry_multiplicity
 _atom_site_fract_x
 _atom_site_fract_y
 _atom_site_fract_z
 _atom_site_occupancy
  Tm  Tm0  1  -0.000016  -0.000020  0.000006  1
  Pa  Pa1  1  0.000060  0.499965  0.499972  1
  Pa  Pa2  1  0.500011  0.000058  0.500007  1
  Pa  Pa3  1  0.499945  0.499997  0.000016  1
