# generated using pymatgen
data_Rb2Yb2O5
_symmetry_space_group_name_H-M   'P 1'
_cell_length_a   9.37028287
_cell_length_b   4.41933243
_cell_length_c   4.41933243
_cell_angle_alpha   90.00000000
_cell_angle_beta   90.00000000
_cell_angle_gamma   90.00000000
_symmetry_Int_Tables_number   1
_chemical_formula_structural   Rb2Yb2O5
_chemical_formula_sum   'Rb2 Yb2 O5'
_cell_volume   183.00630141
_cell_formula_units_Z   1
loop_
 _symmetry_equiv_pos_site_id
 _symmetry_equiv_pos_as_xyz
  1  'x, y, z'
loop_
 _atom_site_type_symbol
 _atom_site_label
 _atom_site_symmetry_multiplicity
 _atom_site_fract_x
 _atom_site_fract_y
 _atom_site_fract_z
 _atom_site_occupancy
  Yb  Yb0  1  0.265137  0.500000  0.500000  1
  Yb  Yb1  1  0.734863  0.500000  0.500000  1
  Rb  Rb2  1  0.000000  0.000000  0.000000  1
  Rb  Rb3  1  0.500000  0.000000  0.000000  1
  O  O4  1  0.216783  0.500000  0.000000  1
  O  O5  1  0.783216  0.500000  0.000000  1
  O  O6  1  0.216783  0.000000  0.500000  1
  O  O7  1  0.783216  0.000000  0.500000  1
  O  O8  1  0.500000  0.500000  0.500000  1
