# generated using pymatgen
data_Ge3Rh2Se3
_symmetry_space_group_name_H-M   'P 1'
_cell_length_a   8.68307086
_cell_length_b   8.68307014
_cell_length_c   8.68307122
_cell_angle_alpha   89.85825937
_cell_angle_beta   89.85825943
_cell_angle_gamma   89.85826606
_symmetry_Int_Tables_number   1
_chemical_formula_structural   Ge3Rh2Se3
_chemical_formula_sum   'Ge12 Rh8 Se12'
_cell_volume   654.66034875
_cell_formula_units_Z   4
loop_
 _symmetry_equiv_pos_site_id
 _symmetry_equiv_pos_as_xyz
  1  'x, y, z'
loop_
 _atom_site_type_symbol
 _atom_site_label
 _atom_site_symmetry_multiplicity
 _atom_site_fract_x
 _atom_site_fract_y
 _atom_site_fract_z
 _atom_site_occupancy
  Ge  Ge0  1  0.497761  0.835888  0.651213  1
  Ge  Ge1  1  0.651213  0.497762  0.835887  1
  Ge  Ge2  1  0.835887  0.651214  0.497762  1
  Ge  Ge3  1  0.502238  0.164112  0.348786  1
  Ge  Ge4  1  0.348786  0.502238  0.164112  1
  Ge  Ge5  1  0.164113  0.348786  0.502238  1
  Ge  Ge6  1  0.997424  0.336376  0.848185  1
  Ge  Ge7  1  0.848186  0.997424  0.336376  1
  Ge  Ge8  1  0.336376  0.848185  0.997424  1
  Ge  Ge9  1  0.002576  0.663624  0.151815  1
  Ge  Ge10  1  0.151815  0.002576  0.663624  1
  Ge  Ge11  1  0.663624  0.151815  0.002576  1
  Rh  Rh12  1  0.252303  0.252303  0.252303  1
  Rh  Rh13  1  0.747696  0.747696  0.747696  1
  Rh  Rh14  1  0.249205  0.753929  0.747485  1
  Rh  Rh15  1  0.747484  0.249206  0.753929  1
  Rh  Rh16  1  0.753929  0.747485  0.249206  1
  Rh  Rh17  1  0.750795  0.246071  0.252515  1
  Rh  Rh18  1  0.252516  0.750794  0.246072  1
  Rh  Rh19  1  0.246072  0.252516  0.750794  1
  Se  Se20  1  0.501313  0.852145  0.356000  1
  Se  Se21  1  0.356000  0.501313  0.852144  1
  Se  Se22  1  0.852146  0.355999  0.501312  1
  Se  Se23  1  0.498686  0.147855  0.644000  1
  Se  Se24  1  0.643999  0.498687  0.147855  1
  Se  Se25  1  0.147854  0.644000  0.498687  1
  Se  Se26  1  0.003569  0.352446  0.143314  1
  Se  Se27  1  0.143314  0.003570  0.352446  1
  Se  Se28  1  0.352446  0.143314  0.003569  1
  Se  Se29  1  0.996430  0.647554  0.856685  1
  Se  Se30  1  0.856685  0.996430  0.647554  1
  Se  Se31  1  0.647553  0.856685  0.996431  1
