# generated using pymatgen
data_H2
_symmetry_space_group_name_H-M   'P 1'
_cell_length_a   3.75737993
_cell_length_b   4.84157347
_cell_length_c   3.40831861
_cell_angle_alpha   44.74594033
_cell_angle_beta   90.00000000
_cell_angle_gamma   90.00000000
_symmetry_Int_Tables_number   1
_chemical_formula_structural   H2
_chemical_formula_sum   H4
_cell_volume   43.64781647
_cell_formula_units_Z   2
loop_
 _symmetry_equiv_pos_site_id
 _symmetry_equiv_pos_as_xyz
  1  'x, y, z'
loop_
 _atom_site_type_symbol
 _atom_site_label
 _atom_site_symmetry_multiplicity
 _atom_site_fract_x
 _atom_site_fract_y
 _atom_site_fract_z
 _atom_site_occupancy
  H  H0  1  0.573940  0.947492  0.105083  1
  H  H1  1  0.926062  0.447492  0.105084  1
  H  H2  1  0.073938  0.552509  0.894915  1
  H  H3  1  0.426060  0.052507  0.894917  1
