# generated using pymatgen
data_YTe3
_symmetry_space_group_name_H-M   'P 1'
_cell_length_a   4.33099787
_cell_length_b   4.33525041
_cell_length_c   13.16325454
_cell_angle_alpha   90.00000000
_cell_angle_beta   99.46882319
_cell_angle_gamma   90.00000000
_symmetry_Int_Tables_number   1
_chemical_formula_structural   YTe3
_chemical_formula_sum   'Y2 Te6'
_cell_volume   243.78535362
_cell_formula_units_Z   2
loop_
 _symmetry_equiv_pos_site_id
 _symmetry_equiv_pos_as_xyz
  1  'x, y, z'
loop_
 _atom_site_type_symbol
 _atom_site_label
 _atom_site_symmetry_multiplicity
 _atom_site_fract_x
 _atom_site_fract_y
 _atom_site_fract_z
 _atom_site_occupancy
  Y  Y0  1  0.169483  0.250000  0.338967  1
  Y  Y1  1  0.830517  0.750000  0.661033  1
  Te  Te2  1  0.927461  0.250000  0.854922  1
  Te  Te3  1  0.072539  0.750000  0.145078  1
  Te  Te4  1  0.572586  0.250000  0.145172  1
  Te  Te5  1  0.427414  0.750000  0.854828  1
  Te  Te6  1  0.293915  0.250000  0.587831  1
  Te  Te7  1  0.706085  0.750000  0.412169  1
