# generated using pymatgen
data_KCaCl3
_symmetry_space_group_name_H-M   'P 1'
_cell_length_a   7.30460652
_cell_length_b   7.30460649
_cell_length_c   8.10822991
_cell_angle_alpha   63.22782745
_cell_angle_beta   63.22782870
_cell_angle_gamma   59.99999946
_symmetry_Int_Tables_number   1
_chemical_formula_structural   KCaCl3
_chemical_formula_sum   'K2 Ca2 Cl6'
_cell_volume   320.00234010
_cell_formula_units_Z   2
loop_
 _symmetry_equiv_pos_site_id
 _symmetry_equiv_pos_as_xyz
  1  'x, y, z'
loop_
 _atom_site_type_symbol
 _atom_site_label
 _atom_site_symmetry_multiplicity
 _atom_site_fract_x
 _atom_site_fract_y
 _atom_site_fract_z
 _atom_site_occupancy
  K  K0  1  0.857975  0.857975  0.426076  1
  K  K1  1  0.142026  0.142026  0.573922  1
  Ca  Ca2  1  0.658854  0.658854  0.023438  1
  Ca  Ca3  1  0.341145  0.341146  0.976563  1
  Cl  Cl4  1  0.463477  0.702385  0.774287  1
  Cl  Cl5  1  0.059849  0.463477  0.774287  1
  Cl  Cl6  1  0.702386  0.059850  0.774287  1
  Cl  Cl7  1  0.536523  0.297614  0.225713  1
  Cl  Cl8  1  0.297615  0.940149  0.225712  1
  Cl  Cl9  1  0.940150  0.536523  0.225712  1
