# generated using pymatgen
data_YbF
_symmetry_space_group_name_H-M   'P 1'
_cell_length_a   3.87872505
_cell_length_b   3.87872522
_cell_length_c   6.20971182
_cell_angle_alpha   90.05046823
_cell_angle_beta   89.94952591
_cell_angle_gamma   120.00096264
_symmetry_Int_Tables_number   1
_chemical_formula_structural   YbF
_chemical_formula_sum   'Yb2 F2'
_cell_volume   80.90505356
_cell_formula_units_Z   2
loop_
 _symmetry_equiv_pos_site_id
 _symmetry_equiv_pos_as_xyz
  1  'x, y, z'
loop_
 _atom_site_type_symbol
 _atom_site_label
 _atom_site_symmetry_multiplicity
 _atom_site_fract_x
 _atom_site_fract_y
 _atom_site_fract_z
 _atom_site_occupancy
  Yb  Yb0  1  0.000096  0.999904  0.374988  1
  Yb  Yb1  1  0.333434  0.666565  0.875904  1
  F  F2  1  0.999912  0.000087  0.999505  1
  F  F3  1  0.333221  0.666777  0.499605  1
