# generated using pymatgen
data_Li3H3N2
_symmetry_space_group_name_H-M   'P 1'
_cell_length_a   3.46047893
_cell_length_b   3.72946305
_cell_length_c   5.14346096
_cell_angle_alpha   88.17387791
_cell_angle_beta   89.99999980
_cell_angle_gamma   89.99998727
_symmetry_Int_Tables_number   1
_chemical_formula_structural   Li3H3N2
_chemical_formula_sum   'Li3 H3 N2'
_cell_volume   66.34639774
_cell_formula_units_Z   1
loop_
 _symmetry_equiv_pos_site_id
 _symmetry_equiv_pos_as_xyz
  1  'x, y, z'
loop_
 _atom_site_type_symbol
 _atom_site_label
 _atom_site_symmetry_multiplicity
 _atom_site_fract_x
 _atom_site_fract_y
 _atom_site_fract_z
 _atom_site_occupancy
  Li  Li0  1  0.000001  0.541763  0.761263  1
  Li  Li1  1  0.500002  0.037401  0.683438  1
  Li  Li2  1  1.000000  0.391270  0.319708  1
  H  H3  1  0.770722  0.960822  0.092874  1
  H  H4  1  0.500000  0.698577  0.367238  1
  H  H5  1  0.229282  0.960821  0.092874  1
  N  N6  1  0.000001  0.050731  0.979692  1
  N  N7  1  0.499999  0.520614  0.526914  1
