# generated using pymatgen
data_Cs2Si(HO2)2
_symmetry_space_group_name_H-M   'P 1'
_cell_length_a   5.82680411
_cell_length_b   6.06603452
_cell_length_c   9.05132222
_cell_angle_alpha   78.10219535
_cell_angle_beta   74.69020755
_cell_angle_gamma   88.13783842
_symmetry_Int_Tables_number   1
_chemical_formula_structural   Cs2Si(HO2)2
_chemical_formula_sum   'Cs4 Si2 H4 O8'
_cell_volume   301.86032204
_cell_formula_units_Z   2
loop_
 _symmetry_equiv_pos_site_id
 _symmetry_equiv_pos_as_xyz
  1  'x, y, z'
loop_
 _atom_site_type_symbol
 _atom_site_label
 _atom_site_symmetry_multiplicity
 _atom_site_fract_x
 _atom_site_fract_y
 _atom_site_fract_z
 _atom_site_occupancy
  Cs  Cs0  1  0.546030  0.137063  0.304608  1
  Cs  Cs1  1  0.453970  0.862937  0.695392  1
  Cs  Cs2  1  0.776647  0.738416  0.019711  1
  Cs  Cs3  1  0.223353  0.261584  0.980289  1
  Si  Si4  1  0.134456  0.660643  0.296101  1
  Si  Si5  1  0.865544  0.339357  0.703899  1
  H  H6  1  0.303403  0.504797  0.488559  1
  H  H7  1  0.696597  0.495203  0.511441  1
  H  H8  1  0.975276  0.701482  0.590033  1
  H  H9  1  0.024724  0.298518  0.409967  1
  O  O10  1  0.361353  0.609672  0.387076  1
  O  O11  1  0.638647  0.390328  0.612924  1
  O  O12  1  0.035209  0.393774  0.302863  1
  O  O13  1  0.964791  0.606226  0.697137  1
  O  O14  1  0.926606  0.794427  0.395016  1
  O  O15  1  0.073394  0.205573  0.604984  1
  O  O16  1  0.255437  0.769585  0.113587  1
  O  O17  1  0.744563  0.230415  0.886413  1
