# generated using pymatgen
data_UGePt
_symmetry_space_group_name_H-M   'P 1'
_cell_length_a   6.90124034
_cell_length_b   4.44844899
_cell_length_c   7.62878748
_cell_angle_alpha   90.00000000
_cell_angle_beta   90.00000000
_cell_angle_gamma   90.00000000
_symmetry_Int_Tables_number   1
_chemical_formula_structural   UGePt
_chemical_formula_sum   'U4 Ge4 Pt4'
_cell_volume   234.20236904
_cell_formula_units_Z   4
loop_
 _symmetry_equiv_pos_site_id
 _symmetry_equiv_pos_as_xyz
  1  'x, y, z'
loop_
 _atom_site_type_symbol
 _atom_site_label
 _atom_site_symmetry_multiplicity
 _atom_site_fract_x
 _atom_site_fract_y
 _atom_site_fract_z
 _atom_site_occupancy
  U  U0  1  0.992827  0.249999  0.201788  1
  U  U1  1  0.492827  0.249999  0.298212  1
  U  U2  1  0.507173  0.750000  0.701787  1
  U  U3  1  0.007173  0.750000  0.798213  1
  Ge  Ge4  1  0.696309  0.750000  0.089873  1
  Ge  Ge5  1  0.196309  0.750000  0.410127  1
  Ge  Ge6  1  0.803692  0.249999  0.589873  1
  Ge  Ge7  1  0.303691  0.249999  0.910127  1
  Pt  Pt8  1  0.294859  0.750000  0.081884  1
  Pt  Pt9  1  0.794859  0.750000  0.418117  1
  Pt  Pt10  1  0.205141  0.249999  0.581884  1
  Pt  Pt11  1  0.705140  0.249999  0.918116  1
