# generated using pymatgen
data_H4C2O
_symmetry_space_group_name_H-M   'P 1'
_cell_length_a   4.54885347
_cell_length_b   5.35150371
_cell_length_c   19.19558222
_cell_angle_alpha   86.69905114
_cell_angle_beta   87.45244756
_cell_angle_gamma   81.49752417
_symmetry_Int_Tables_number   1
_chemical_formula_structural   H4C2O
_chemical_formula_sum   'H28 C14 O7'
_cell_volume   461.07390847
_cell_formula_units_Z   7
loop_
 _symmetry_equiv_pos_site_id
 _symmetry_equiv_pos_as_xyz
  1  'x, y, z'
loop_
 _atom_site_type_symbol
 _atom_site_label
 _atom_site_symmetry_multiplicity
 _atom_site_fract_x
 _atom_site_fract_y
 _atom_site_fract_z
 _atom_site_occupancy
  H  H0  1  0.727207  0.078769  0.407777  1
  H  H1  1  0.555922  0.186032  0.526758  1
  H  H2  1  0.160216  0.770347  0.120114  1
  H  H3  1  0.128801  0.920606  0.716583  1
  H  H4  1  0.877912  0.155833  0.627457  1
  H  H5  1  0.118229  0.016193  0.393980  1
  H  H6  1  0.823844  0.752171  0.739383  1
  H  H7  1  0.809500  0.869069  0.162565  1
  H  H8  1  0.769215  0.495677  0.457213  1
  H  H9  1  0.438368  0.507243  0.682938  1
  H  H10  1  0.203795  0.053537  0.830171  1
  H  H11  1  0.555292  0.003815  0.644948  1
  H  H12  1  0.162218  0.427943  0.450810  1
  H  H13  1  0.687488  0.695424  0.058976  1
  H  H14  1  0.534486  0.956517  0.876268  1
  H  H15  1  0.365159  0.612259  0.357397  1
  H  H16  1  0.988749  0.964007  0.938841  1
  H  H17  1  0.273528  0.974968  0.998839  1
  H  H18  1  0.064239  0.858077  0.263878  1
  H  H19  1  0.418224  0.700516  0.234019  1
  H  H20  1  0.648736  0.454096  0.125368  1
  H  H21  1  0.726345  0.382034  0.979530  1
  H  H22  1  0.718144  0.366414  0.842092  1
  H  H23  1  0.642166  0.203200  0.767784  1
  H  H24  1  0.139611  0.344808  0.715792  1
  H  H25  1  0.741062  0.126762  0.043210  1
  H  H26  1  0.590689  0.851412  0.524229  1
  H  H27  1  0.350521  0.326558  0.315251  1
  C  C28  1  0.769671  0.992320  0.614665  1
  C  C29  1  0.879181  0.251310  0.012739  1
  C  C30  1  0.941023  0.113033  0.427879  1
  C  C31  1  0.375800  0.124906  0.859459  1
  C  C32  1  0.247483  0.515086  0.720950  1
  C  C33  1  0.539407  0.304329  0.813352  1
  C  C34  1  0.956180  0.397203  0.426206  1
  C  C35  1  0.194738  0.670159  0.254994  1
  C  C36  1  0.964559  0.700492  0.146598  1
  C  C37  1  0.104147  0.093746  0.966867  1
  C  C38  1  0.228755  0.518058  0.323731  1
  C  C39  1  0.707969  0.008240  0.537628  1
  C  C40  1  0.027027  0.752017  0.705299  1
  C  C41  1  0.812480  0.558337  0.096368  1
  O  O42  1  0.025183  0.388614  0.058824  1
  O  O43  1  0.941750  0.509644  0.356951  1
  O  O44  1  0.347108  0.527853  0.789849  1
  O  O45  1  0.956011  0.761606  0.633660  1
  O  O46  1  0.980890  0.003915  0.497296  1
  O  O47  1  0.049595  0.541100  0.206576  1
  O  O48  1  0.242085  0.255632  0.917951  1
