# generated using pymatgen
data_Au3N
_symmetry_space_group_name_H-M   'P 1'
_cell_length_a   9.68543826
_cell_length_b   2.74527282
_cell_length_c   5.56107998
_cell_angle_alpha   83.42571229
_cell_angle_beta   76.20009445
_cell_angle_gamma   85.32584463
_symmetry_Int_Tables_number   1
_chemical_formula_structural   Au3N
_chemical_formula_sum   'Au6 N2'
_cell_volume   142.42696542
_cell_formula_units_Z   2
loop_
 _symmetry_equiv_pos_site_id
 _symmetry_equiv_pos_as_xyz
  1  'x, y, z'
loop_
 _atom_site_type_symbol
 _atom_site_label
 _atom_site_symmetry_multiplicity
 _atom_site_fract_x
 _atom_site_fract_y
 _atom_site_fract_z
 _atom_site_occupancy
  Au  Au0  1  0.630311  0.728709  0.343423  1
  Au  Au1  1  0.133080  0.226063  0.441470  1
  Au  Au2  1  0.372458  0.736086  0.139288  1
  Au  Au3  1  0.866920  0.773937  0.558530  1
  Au  Au4  1  0.627542  0.263914  0.860712  1
  Au  Au5  1  0.369689  0.271291  0.656577  1
  N  N6  1  -0.000000  0.500000  -0.000000  1
  N  N7  1  0.000000  -0.000000  0.000000  1
