# generated using pymatgen
data_MgH8(ClO6)2
_symmetry_space_group_name_H-M   'P 1'
_cell_length_a   5.76298628
_cell_length_b   7.24650453
_cell_length_c   7.24650453
_cell_angle_alpha   71.70884854
_cell_angle_beta   72.59786574
_cell_angle_gamma   72.59786574
_symmetry_Int_Tables_number   1
_chemical_formula_structural   MgH8(ClO6)2
_chemical_formula_sum   'Mg1 H8 Cl2 O12'
_cell_volume   267.05728078
_cell_formula_units_Z   1
loop_
 _symmetry_equiv_pos_site_id
 _symmetry_equiv_pos_as_xyz
  1  'x, y, z'
loop_
 _atom_site_type_symbol
 _atom_site_label
 _atom_site_symmetry_multiplicity
 _atom_site_fract_x
 _atom_site_fract_y
 _atom_site_fract_z
 _atom_site_occupancy
  Mg  Mg0  1  0.500000  0.003388  0.996612  1
  H  H1  1  0.368555  0.785275  0.813918  1
  H  H2  1  0.631445  0.186082  0.214725  1
  H  H3  1  0.889529  0.105852  0.095848  1
  H  H4  1  0.110471  0.904152  0.894148  1
  H  H5  1  0.614244  0.625290  0.249881  1
  H  H6  1  0.385756  0.750119  0.374710  1
  H  H7  1  0.368249  0.369508  0.737355  1
  H  H8  1  0.631751  0.262645  0.630492  1
  Cl  Cl9  1  0.905407  0.724384  0.700691  1
  Cl  Cl10  1  0.094593  0.299309  0.275616  1
  O  O11  1  0.823884  0.839927  0.520492  1
  O  O12  1  0.176116  0.479508  0.160073  1
  O  O13  1  0.500000  0.756680  0.243320  1
  O  O14  1  0.839617  0.857378  0.841661  1
  O  O15  1  0.160383  0.158339  0.142622  1
  O  O16  1  0.180045  0.656568  0.659113  1
  O  O17  1  0.819955  0.340887  0.343432  1
  O  O18  1  0.211126  0.200624  0.442243  1
  O  O19  1  0.788874  0.557757  0.799376  1
  O  O20  1  0.500000  0.247794  0.752206  1
  O  O21  1  0.287577  0.890203  0.885878  1
  O  O22  1  0.712423  0.114122  0.109797  1
