# generated using pymatgen
data_Na8Ta7VO24
_symmetry_space_group_name_H-M   'P 1'
_cell_length_a   7.91867934
_cell_length_b   7.91867956
_cell_length_c   7.91863946
_cell_angle_alpha   90.00000000
_cell_angle_beta   90.00000000
_cell_angle_gamma   90.00071993
_symmetry_Int_Tables_number   1
_chemical_formula_structural   Na8Ta7VO24
_chemical_formula_sum   'Na8 Ta7 V1 O24'
_cell_volume   496.54212159
_cell_formula_units_Z   1
loop_
 _symmetry_equiv_pos_site_id
 _symmetry_equiv_pos_as_xyz
  1  'x, y, z'
loop_
 _atom_site_type_symbol
 _atom_site_label
 _atom_site_symmetry_multiplicity
 _atom_site_fract_x
 _atom_site_fract_y
 _atom_site_fract_z
 _atom_site_occupancy
  Na  Na0  1  0.001458  0.001458  0.001464  1
  Na  Na1  1  0.001458  0.001458  0.498536  1
  Na  Na2  1  0.001455  0.498545  0.001454  1
  Na  Na3  1  0.001455  0.498545  0.498546  1
  Na  Na4  1  0.498545  0.001455  0.001454  1
  Na  Na5  1  0.498545  0.001455  0.498546  1
  Na  Na6  1  0.498542  0.498542  0.001464  1
  Na  Na7  1  0.498542  0.498542  0.498536  1
  Ta  Ta8  1  0.250000  0.250000  0.750000  1
  Ta  Ta9  1  0.250000  0.750000  0.250000  1
  Ta  Ta10  1  0.250000  0.750000  0.750000  1
  Ta  Ta11  1  0.750000  0.250000  0.250000  1
  Ta  Ta12  1  0.750000  0.250000  0.750000  1
  Ta  Ta13  1  0.750000  0.750000  0.250000  1
  Ta  Ta14  1  0.750000  0.750000  0.750000  1
  V  V15  1  0.250000  0.250000  0.250000  1
  O  O16  1  0.250000  0.006066  0.250000  1
  O  O17  1  0.250000  0.000532  0.750000  1
  O  O18  1  0.250000  0.493934  0.250000  1
  O  O19  1  0.250000  0.499468  0.750000  1
  O  O20  1  0.750001  0.000533  0.250000  1
  O  O21  1  0.750000  0.000050  0.750000  1
  O  O22  1  0.749999  0.499467  0.250000  1
  O  O23  1  0.750000  0.499950  0.750000  1
  O  O24  1  0.006066  0.250000  0.250000  1
  O  O25  1  0.000532  0.250000  0.750000  1
  O  O26  1  0.000533  0.750001  0.250000  1
  O  O27  1  0.000050  0.750000  0.750000  1
  O  O28  1  0.493934  0.250000  0.250000  1
  O  O29  1  0.499468  0.250000  0.750000  1
  O  O30  1  0.499467  0.749999  0.250000  1
  O  O31  1  0.499950  0.750000  0.750000  1
  O  O32  1  0.250000  0.250000  0.006067  1
  O  O33  1  0.250000  0.250000  0.493933  1
  O  O34  1  0.250000  0.750000  0.000531  1
  O  O35  1  0.250000  0.750000  0.499469  1
  O  O36  1  0.750000  0.250000  0.000531  1
  O  O37  1  0.750000  0.250000  0.499469  1
  O  O38  1  0.750000  0.750000  0.000049  1
  O  O39  1  0.750000  0.750000  0.499951  1
