# generated using pymatgen
data_RbAgO2
_symmetry_space_group_name_H-M   'P 1'
_cell_length_a   4.78559106
_cell_length_b   6.06392048
_cell_length_c   6.69935993
_cell_angle_alpha   90.00000000
_cell_angle_beta   69.07364128
_cell_angle_gamma   90.00000000
_symmetry_Int_Tables_number   1
_chemical_formula_structural   RbAgO2
_chemical_formula_sum   'Rb2 Ag2 O4'
_cell_volume   181.58835264
_cell_formula_units_Z   2
loop_
 _symmetry_equiv_pos_site_id
 _symmetry_equiv_pos_as_xyz
  1  'x, y, z'
loop_
 _atom_site_type_symbol
 _atom_site_label
 _atom_site_symmetry_multiplicity
 _atom_site_fract_x
 _atom_site_fract_y
 _atom_site_fract_z
 _atom_site_occupancy
  Rb  Rb0  1  0.299521  0.250000  0.400959  1
  Rb  Rb1  1  0.700479  0.750000  0.599041  1
  Ag  Ag2  1  0.002942  0.250000  0.994115  1
  Ag  Ag3  1  0.997058  0.750000  0.005885  1
  O  O4  1  0.109238  0.994222  0.781525  1
  O  O5  1  0.890762  0.005778  0.218475  1
  O  O6  1  0.890762  0.494222  0.218475  1
  O  O7  1  0.109238  0.505778  0.781525  1
