# generated using pymatgen
data_HPd3
_symmetry_space_group_name_H-M   'P 1'
_cell_length_a   5.55299890
_cell_length_b   5.54845381
_cell_length_c   4.08100196
_cell_angle_alpha   90.02565576
_cell_angle_beta   89.96980844
_cell_angle_gamma   119.92371899
_symmetry_Int_Tables_number   1
_chemical_formula_structural   HPd3
_chemical_formula_sum   'H2 Pd6'
_cell_volume   108.97584333
_cell_formula_units_Z   2
loop_
 _symmetry_equiv_pos_site_id
 _symmetry_equiv_pos_as_xyz
  1  'x, y, z'
loop_
 _atom_site_type_symbol
 _atom_site_label
 _atom_site_symmetry_multiplicity
 _atom_site_fract_x
 _atom_site_fract_y
 _atom_site_fract_z
 _atom_site_occupancy
  H  H0  1  0.333302  0.666707  0.749989  1
  H  H1  1  0.666674  0.333330  0.250001  1
  Pd  Pd2  1  0.174449  0.348961  0.250039  1
  Pd  Pd3  1  0.650798  0.825369  0.250093  1
  Pd  Pd4  1  0.174269  0.825604  0.249824  1
  Pd  Pd5  1  0.825804  0.651201  0.749956  1
  Pd  Pd6  1  0.349011  0.174378  0.749911  1
  Pd  Pd7  1  0.825694  0.174452  0.750184  1
