# generated using pymatgen
data_Ce4GdO9
_symmetry_space_group_name_H-M   'P 1'
_cell_length_a   3.81454077
_cell_length_b   10.36920514
_cell_length_c   5.53465394
_cell_angle_alpha   105.43158378
_cell_angle_beta   89.96574248
_cell_angle_gamma   79.37698137
_symmetry_Int_Tables_number   1
_chemical_formula_structural   Ce4GdO9
_chemical_formula_sum   'Ce4 Gd1 O9'
_cell_volume   207.12250529
_cell_formula_units_Z   1
loop_
 _symmetry_equiv_pos_site_id
 _symmetry_equiv_pos_as_xyz
  1  'x, y, z'
loop_
 _atom_site_type_symbol
 _atom_site_label
 _atom_site_symmetry_multiplicity
 _atom_site_fract_x
 _atom_site_fract_y
 _atom_site_fract_z
 _atom_site_occupancy
  Ce  Ce0  1  0.610102  0.787119  0.406487  1
  Ce  Ce1  1  0.803798  0.396816  0.204532  1
  Ce  Ce2  1  0.199489  0.601901  0.805784  1
  Ce  Ce3  1  0.398973  0.212925  0.618896  1
  Gd  Gd4  1  0.005117  0.000234  0.951898  1
  O  O5  1  0.698314  0.607140  0.059552  1
  O  O6  1  0.085508  0.834050  0.176016  1
  O  O7  1  0.107159  0.790541  0.648000  1
  O  O8  1  0.703825  0.595075  0.552415  1
  O  O9  1  0.303687  0.393368  0.456670  1
  O  O10  1  0.921694  0.169491  0.338369  1
  O  O11  1  0.901048  0.209263  0.853222  1
  O  O12  1  0.505035  0.000295  0.733776  1
  O  O13  1  0.301863  0.403932  0.960823  1
