# generated using pymatgen
data_Y(Mg4Al3)4
_symmetry_space_group_name_H-M   'P 1'
_cell_length_a   9.12389595
_cell_length_b   9.12389423
_cell_length_c   9.12389595
_cell_angle_alpha   109.47122359
_cell_angle_beta   109.47122389
_cell_angle_gamma   109.47122359
_symmetry_Int_Tables_number   1
_chemical_formula_structural   Y(Mg4Al3)4
_chemical_formula_sum   'Y1 Mg16 Al12'
_cell_volume   584.68095820
_cell_formula_units_Z   1
loop_
 _symmetry_equiv_pos_site_id
 _symmetry_equiv_pos_as_xyz
  1  'x, y, z'
loop_
 _atom_site_type_symbol
 _atom_site_label
 _atom_site_symmetry_multiplicity
 _atom_site_fract_x
 _atom_site_fract_y
 _atom_site_fract_z
 _atom_site_occupancy
  Y  Y0  1  0.000000  0.000000  0.000000  1
  Mg  Mg1  1  0.602726  0.319200  0.000000  1
  Mg  Mg2  1  0.000000  0.357854  0.000000  1
  Mg  Mg3  1  0.357854  0.000000  0.000000  1
  Mg  Mg4  1  0.319200  0.602725  0.000000  1
  Mg  Mg5  1  0.680800  0.680801  0.283525  1
  Mg  Mg6  1  0.602725  0.000000  0.319200  1
  Mg  Mg7  1  0.000000  0.602725  0.319200  1
  Mg  Mg8  1  0.000000  0.000000  0.357854  1
  Mg  Mg9  1  0.716476  0.397277  0.397276  1
  Mg  Mg10  1  0.397277  0.716476  0.397277  1
  Mg  Mg11  1  0.000000  0.319200  0.602726  1
  Mg  Mg12  1  0.319200  0.000000  0.602725  1
  Mg  Mg13  1  0.642146  0.642146  0.642146  1
  Mg  Mg14  1  0.283525  0.680801  0.680800  1
  Mg  Mg15  1  0.680801  0.283525  0.680801  1
  Mg  Mg16  1  0.397276  0.397277  0.716476  1
  Al  Al17  1  0.813136  0.631625  0.000000  1
  Al  Al18  1  0.631625  0.813136  0.000000  1
  Al  Al19  1  0.368376  0.368376  0.181510  1
  Al  Al20  1  0.818489  0.186865  0.186864  1
  Al  Al21  1  0.186864  0.818489  0.186864  1
  Al  Al22  1  0.368376  0.181511  0.368376  1
  Al  Al23  1  0.181510  0.368376  0.368376  1
  Al  Al24  1  0.813136  0.000000  0.631625  1
  Al  Al25  1  0.000000  0.813136  0.631625  1
  Al  Al26  1  0.000000  0.631625  0.813136  1
  Al  Al27  1  0.631625  0.000000  0.813136  1
  Al  Al28  1  0.186864  0.186865  0.818489  1
