# generated using pymatgen
data_OF3
_symmetry_space_group_name_H-M   'P 1'
_cell_length_a   6.40955462
_cell_length_b   6.30790861
_cell_length_c   2.93380723
_cell_angle_alpha   90.82205332
_cell_angle_beta   90.12249366
_cell_angle_gamma   120.05513677
_symmetry_Int_Tables_number   1
_chemical_formula_structural   OF3
_chemical_formula_sum   'O2 F6'
_cell_volume   102.65118977
_cell_formula_units_Z   2
loop_
 _symmetry_equiv_pos_site_id
 _symmetry_equiv_pos_as_xyz
  1  'x, y, z'
loop_
 _atom_site_type_symbol
 _atom_site_label
 _atom_site_symmetry_multiplicity
 _atom_site_fract_x
 _atom_site_fract_y
 _atom_site_fract_z
 _atom_site_occupancy
  O  O0  1  0.320991  0.672738  0.993322  1
  O  O1  1  0.744295  0.317283  0.059502  1
  F  F2  1  0.167509  0.372158  0.373908  1
  F  F3  1  0.551490  0.784493  0.204542  1
  F  F4  1  0.218679  0.819359  0.129150  1
  F  F5  1  0.746230  0.584459  0.666671  1
  F  F6  1  0.443915  0.277654  0.753572  1
  F  F7  1  0.806892  0.171859  0.819329  1
