# generated using pymatgen
data_Y5(In2Pd)2
_symmetry_space_group_name_H-M   'P 1'
_cell_length_a   18.36984706
_cell_length_b   8.12204910
_cell_length_c   3.66229266
_cell_angle_alpha   90.00000000
_cell_angle_beta   90.00000000
_cell_angle_gamma   90.00000000
_symmetry_Int_Tables_number   1
_chemical_formula_structural   Y5(In2Pd)2
_chemical_formula_sum   'Y10 In8 Pd4'
_cell_volume   546.41699390
_cell_formula_units_Z   2
loop_
 _symmetry_equiv_pos_site_id
 _symmetry_equiv_pos_as_xyz
  1  'x, y, z'
loop_
 _atom_site_type_symbol
 _atom_site_label
 _atom_site_symmetry_multiplicity
 _atom_site_fract_x
 _atom_site_fract_y
 _atom_site_fract_z
 _atom_site_occupancy
  Y  Y0  1  0.281647  0.740350  0.000000  1
  Y  Y1  1  0.718353  0.259650  0.000000  1
  Y  Y2  1  0.781647  0.759649  0.000000  1
  Y  Y3  1  0.218353  0.240350  0.000000  1
  Y  Y4  1  0.081385  0.619460  0.000000  1
  Y  Y5  1  0.918615  0.380541  0.000000  1
  Y  Y6  1  0.581385  0.880540  0.000000  1
  Y  Y7  1  0.418615  0.119461  0.000000  1
  Y  Y8  1  0.500000  0.499999  0.000000  1
  Y  Y9  1  0.000000  0.000000  0.000000  1
  In  In10  1  0.650308  0.578929  0.500002  1
  In  In11  1  0.349692  0.421071  0.500002  1
  In  In12  1  0.150308  0.921072  0.500002  1
  In  In13  1  0.849691  0.078928  0.500002  1
  In  In14  1  0.931765  0.709623  0.500002  1
  In  In15  1  0.068235  0.290378  0.500002  1
  In  In16  1  0.431765  0.790378  0.500002  1
  In  In17  1  0.568235  0.209623  0.500002  1
  Pd  Pd18  1  0.195013  0.526220  0.500002  1
  Pd  Pd19  1  0.804986  0.473779  0.500002  1
  Pd  Pd20  1  0.695013  0.973780  0.500002  1
  Pd  Pd21  1  0.304987  0.026220  0.500002  1
