# generated using pymatgen
data_Ac3La
_symmetry_space_group_name_H-M   'P 1'
_cell_length_a   7.91620300
_cell_length_b   7.91620334
_cell_length_c   6.39217700
_cell_angle_alpha   90.00000000
_cell_angle_beta   90.00000000
_cell_angle_gamma   120.00000277
_symmetry_Int_Tables_number   1
_chemical_formula_structural   Ac3La
_chemical_formula_sum   'Ac6 La2'
_cell_volume   346.90716937
_cell_formula_units_Z   2
loop_
 _symmetry_equiv_pos_site_id
 _symmetry_equiv_pos_as_xyz
  1  'x, y, z'
loop_
 _atom_site_type_symbol
 _atom_site_label
 _atom_site_symmetry_multiplicity
 _atom_site_fract_x
 _atom_site_fract_y
 _atom_site_fract_z
 _atom_site_occupancy
  Ac  Ac0  1  0.832043  0.167957  0.750000  1
  Ac  Ac1  1  0.335914  0.167957  0.750000  1
  Ac  Ac2  1  0.832043  0.664086  0.750000  1
  Ac  Ac3  1  0.167956  0.832044  0.249999  1
  Ac  Ac4  1  0.664088  0.832044  0.249999  1
  Ac  Ac5  1  0.167956  0.335912  0.249999  1
  La  La6  1  0.666667  0.333335  0.249999  1
  La  La7  1  0.333333  0.666666  0.750000  1
