# generated using pymatgen
data_U3Nb
_symmetry_space_group_name_H-M   'P 1'
_cell_length_a   5.93037697
_cell_length_b   5.93105808
_cell_length_c   5.47549041
_cell_angle_alpha   90.00791188
_cell_angle_beta   89.98120018
_cell_angle_gamma   119.96770297
_symmetry_Int_Tables_number   1
_chemical_formula_structural   U3Nb
_chemical_formula_sum   'U6 Nb2'
_cell_volume   166.84352478
_cell_formula_units_Z   2
loop_
 _symmetry_equiv_pos_site_id
 _symmetry_equiv_pos_as_xyz
  1  'x, y, z'
loop_
 _atom_site_type_symbol
 _atom_site_label
 _atom_site_symmetry_multiplicity
 _atom_site_fract_x
 _atom_site_fract_y
 _atom_site_fract_z
 _atom_site_occupancy
  U  U0  1  0.822784  0.177129  0.749947  1
  U  U1  1  0.354438  0.177171  0.750032  1
  U  U2  1  0.822800  0.645579  0.749991  1
  U  U3  1  0.177284  0.822769  0.250045  1
  U  U4  1  0.645582  0.822894  0.249989  1
  U  U5  1  0.177099  0.354397  0.250001  1
  Nb  Nb6  1  0.666704  0.333372  0.249987  1
  Nb  Nb7  1  0.333313  0.666690  0.750003  1
