# generated using pymatgen
data_B2(CN2)3
_symmetry_space_group_name_H-M   'P 1'
_cell_length_a   7.74529525
_cell_length_b   7.74529473
_cell_length_c   9.61264292
_cell_angle_alpha   66.03098464
_cell_angle_beta   66.03098571
_cell_angle_gamma   59.82187244
_symmetry_Int_Tables_number   1
_chemical_formula_structural   B2(CN2)3
_chemical_formula_sum   'B4 C6 N12'
_cell_volume   440.36391651
_cell_formula_units_Z   2
loop_
 _symmetry_equiv_pos_site_id
 _symmetry_equiv_pos_as_xyz
  1  'x, y, z'
loop_
 _atom_site_type_symbol
 _atom_site_label
 _atom_site_symmetry_multiplicity
 _atom_site_fract_x
 _atom_site_fract_y
 _atom_site_fract_z
 _atom_site_occupancy
  B  B0  1  0.396902  0.396593  0.808639  1
  B  B1  1  0.103382  0.103297  0.691165  1
  B  B2  1  0.603297  0.603382  0.191165  1
  B  B3  1  0.896593  0.896902  0.308639  1
  C  C4  1  0.857540  0.642352  0.249834  1
  C  C5  1  0.142352  0.357540  0.749834  1
  C  C6  1  0.750418  0.142470  0.749721  1
  C  C7  1  0.357503  0.749466  0.750438  1
  C  C8  1  0.642470  0.250418  0.249721  1
  C  C9  1  0.249466  0.857503  0.250438  1
  N  N10  1  0.936638  0.069173  0.692841  1
  N  N11  1  0.696761  0.064703  0.306339  1
  N  N12  1  0.564703  0.196761  0.806339  1
  N  N13  1  0.197426  0.431395  0.806378  1
  N  N14  1  0.068717  0.302698  0.693511  1
  N  N15  1  0.569173  0.436638  0.192841  1
  N  N16  1  0.063540  0.930822  0.307187  1
  N  N17  1  0.931395  0.697426  0.306378  1
  N  N18  1  0.435460  0.802944  0.193647  1
  N  N19  1  0.802698  0.568717  0.193511  1
  N  N20  1  0.302944  0.935460  0.693647  1
  N  N21  1  0.430822  0.563540  0.807187  1
