# generated using pymatgen
data_CaPS3
_symmetry_space_group_name_H-M   'P 1'
_cell_length_a   6.62464483
_cell_length_b   7.35601459
_cell_length_c   9.27153446
_cell_angle_alpha   90.00000000
_cell_angle_beta   92.24689440
_cell_angle_gamma   90.00000000
_symmetry_Int_Tables_number   1
_chemical_formula_structural   CaPS3
_chemical_formula_sum   'Ca4 P4 S12'
_cell_volume   451.46362861
_cell_formula_units_Z   4
loop_
 _symmetry_equiv_pos_site_id
 _symmetry_equiv_pos_as_xyz
  1  'x, y, z'
loop_
 _atom_site_type_symbol
 _atom_site_label
 _atom_site_symmetry_multiplicity
 _atom_site_fract_x
 _atom_site_fract_y
 _atom_site_fract_z
 _atom_site_occupancy
  P  P0  1  0.569036  0.608656  0.933878  1
  P  P1  1  0.930964  0.108656  0.566122  1
  P  P2  1  0.430964  0.391344  0.066122  1
  P  P3  1  0.069036  0.891344  0.433878  1
  S  S4  1  0.852739  0.693939  0.431952  1
  S  S5  1  0.647261  0.193939  0.068048  1
  S  S6  1  0.147261  0.306061  0.568048  1
  S  S7  1  0.352739  0.806061  0.931952  1
  S  S8  1  0.123991  0.006472  0.240632  1
  S  S9  1  0.376009  0.506472  0.259368  1
  S  S10  1  0.876009  0.993528  0.759368  1
  S  S11  1  0.623991  0.493528  0.740632  1
  S  S12  1  0.320672  0.806192  0.547182  1
  S  S13  1  0.179328  0.306192  0.952818  1
  S  S14  1  0.679328  0.193808  0.452818  1
  S  S15  1  0.820672  0.693808  0.047182  1
  Ca  Ca16  1  0.038192  0.619469  0.752346  1
  Ca  Ca17  1  0.461808  0.119469  0.747654  1
  Ca  Ca18  1  0.961808  0.380531  0.247654  1
  Ca  Ca19  1  0.538192  0.880531  0.252346  1
