# generated using pymatgen
data_HfPtPb
_symmetry_space_group_name_H-M   'P 1'
_cell_length_a   4.61955143
_cell_length_b   4.62299648
_cell_length_c   4.62521501
_cell_angle_alpha   59.95551771
_cell_angle_beta   60.02932869
_cell_angle_gamma   60.05816870
_symmetry_Int_Tables_number   1
_chemical_formula_structural   HfPtPb
_chemical_formula_sum   'Hf1 Pt1 Pb1'
_cell_volume   69.86838492
_cell_formula_units_Z   1
loop_
 _symmetry_equiv_pos_site_id
 _symmetry_equiv_pos_as_xyz
  1  'x, y, z'
loop_
 _atom_site_type_symbol
 _atom_site_label
 _atom_site_symmetry_multiplicity
 _atom_site_fract_x
 _atom_site_fract_y
 _atom_site_fract_z
 _atom_site_occupancy
  Hf  Hf0  1  0.499999  0.500034  0.500073  1
  Pt  Pt1  1  0.000056  0.999960  0.999903  1
  Pb  Pb2  1  0.249945  0.250006  0.250023  1
