# generated using pymatgen
data_H6PbCI3N
_symmetry_space_group_name_H-M   'P 1'
_cell_length_a   9.13663073
_cell_length_b   9.15090738
_cell_length_c   13.00602373
_cell_angle_alpha   90.04749814
_cell_angle_beta   90.06731821
_cell_angle_gamma   90.13471272
_symmetry_Int_Tables_number   1
_chemical_formula_structural   H6PbCI3N
_chemical_formula_sum   'H24 Pb4 C4 I12 N4'
_cell_volume   1087.40950363
_cell_formula_units_Z   4
loop_
 _symmetry_equiv_pos_site_id
 _symmetry_equiv_pos_as_xyz
  1  'x, y, z'
loop_
 _atom_site_type_symbol
 _atom_site_label
 _atom_site_symmetry_multiplicity
 _atom_site_fract_x
 _atom_site_fract_y
 _atom_site_fract_z
 _atom_site_occupancy
  H  H0  1  0.421568  0.924889  0.708452  1
  H  H1  1  0.613727  0.964683  0.712646  1
  H  H2  1  0.399450  0.028640  0.880978  1
  H  H3  1  0.574341  0.076290  0.882432  1
  H  H4  1  0.532212  0.900142  0.882792  1
  H  H5  1  0.925635  0.420982  0.707785  1
  H  H6  1  0.115137  0.470639  0.711861  1
  H  H7  1  0.896855  0.519205  0.879198  1
  H  H8  1  0.070917  0.579495  0.883390  1
  H  H9  1  0.031986  0.400441  0.880385  1
  H  H10  1  0.891736  0.490725  0.208080  1
  H  H11  1  0.065029  0.401331  0.211905  1
  H  H12  1  0.936024  0.584669  0.380806  1
  H  H13  1  0.104112  0.510323  0.382474  1
  H  H14  1  0.957255  0.403898  0.380439  1
  H  H15  1  0.426044  0.921201  0.208378  1
  H  H16  1  0.614633  0.976118  0.211888  1
  H  H17  1  0.397000  0.015960  0.380899  1
  H  H18  1  0.570034  0.079521  0.384652  1
  H  H19  1  0.534219  0.900099  0.381066  1
  H  H20  1  0.055797  0.598361  0.209400  1
  H  H21  1  0.975885  0.610046  0.709354  1
  H  H22  1  0.481086  0.110583  0.710011  1
  H  H23  1  0.471632  0.111154  0.211266  1
  Pb  Pb24  1  0.998659  0.000227  0.001364  1
  Pb  Pb25  1  0.497833  0.499733  0.501267  1
  Pb  Pb26  1  0.002580  0.999561  0.501208  1
  Pb  Pb27  1  0.500372  0.498940  0.001205  1
  C  C28  1  0.503856  0.002525  0.237687  1
  C  C29  1  0.004904  0.501077  0.736737  1
  C  C30  1  0.003922  0.497986  0.236932  1
  C  C31  1  0.504916  0.000192  0.737575  1
  I  I32  1  0.000305  0.000139  0.250325  1
  I  I33  1  0.500582  0.500065  0.750290  1
  I  I34  1  0.000098  0.000214  0.750297  1
  I  I35  1  0.499660  0.500240  0.250293  1
  I  I36  1  0.221849  0.722605  0.006667  1
  I  I37  1  0.723539  0.223432  0.506189  1
  I  I38  1  0.275851  0.220587  0.006049  1
  I  I39  1  0.777669  0.722828  0.505823  1
  I  I40  1  0.776267  0.276913  0.005740  1
  I  I41  1  0.277848  0.777673  0.506765  1
  I  I42  1  0.720243  0.776034  0.006372  1
  I  I43  1  0.221942  0.278495  0.506389  1
  N  N44  1  0.500980  -0.000474  0.352127  1
  N  N45  1  0.000926  0.500183  0.851079  1
  N  N46  1  0.000398  0.499526  0.351276  1
  N  N47  1  0.501823  0.000682  0.851965  1
