# generated using pymatgen
data_RbOsO3
_symmetry_space_group_name_H-M   'P 1'
_cell_length_a   5.52987648
_cell_length_b   5.52987623
_cell_length_c   7.02025593
_cell_angle_alpha   66.80563669
_cell_angle_beta   66.80563598
_cell_angle_gamma   60.00000032
_symmetry_Int_Tables_number   1
_chemical_formula_structural   RbOsO3
_chemical_formula_sum   'Rb2 Os2 O6'
_cell_volume   165.57655356
_cell_formula_units_Z   2
loop_
 _symmetry_equiv_pos_site_id
 _symmetry_equiv_pos_as_xyz
  1  'x, y, z'
loop_
 _atom_site_type_symbol
 _atom_site_label
 _atom_site_symmetry_multiplicity
 _atom_site_fract_x
 _atom_site_fract_y
 _atom_site_fract_z
 _atom_site_occupancy
  Rb  Rb0  1  0.864297  0.864296  0.407110  1
  Rb  Rb1  1  0.135704  0.135702  0.592890  1
  Os  Os2  1  0.665827  0.665825  0.002522  1
  Os  Os3  1  0.334174  0.334173  0.997480  1
  O  O4  1  0.468229  0.648115  0.828512  1
  O  O5  1  0.055144  0.468228  0.828512  1
  O  O6  1  0.648116  0.055145  0.828510  1
  O  O7  1  0.531772  0.351885  0.171488  1
  O  O8  1  0.351886  0.944855  0.171489  1
  O  O9  1  0.944855  0.531771  0.171489  1
