# generated using pymatgen
data_RbTlBr3
_symmetry_space_group_name_H-M   'P 1'
_cell_length_a   5.83303366
_cell_length_b   5.83635246
_cell_length_c   5.83575794
_cell_angle_alpha   90.00743946
_cell_angle_beta   90.06098967
_cell_angle_gamma   90.00685260
_symmetry_Int_Tables_number   1
_chemical_formula_structural   RbTlBr3
_chemical_formula_sum   'Rb1 Tl1 Br3'
_cell_volume   198.67032887
_cell_formula_units_Z   1
loop_
 _symmetry_equiv_pos_site_id
 _symmetry_equiv_pos_as_xyz
  1  'x, y, z'
loop_
 _atom_site_type_symbol
 _atom_site_label
 _atom_site_symmetry_multiplicity
 _atom_site_fract_x
 _atom_site_fract_y
 _atom_site_fract_z
 _atom_site_occupancy
  Rb  Rb0  1  0.998886  0.997365  0.996957  1
  Tl  Tl1  1  0.482772  0.497795  0.492323  1
  Br  Br2  1  0.485324  0.999310  0.495365  1
  Br  Br3  1  0.984033  0.507072  0.509907  1
  Br  Br4  1  0.488987  0.498459  0.995449  1
