# generated using pymatgen
data_Cs2NaCaF6
_symmetry_space_group_name_H-M   'P 1'
_cell_length_a   6.53772929
_cell_length_b   6.53491038
_cell_length_c   6.53982017
_cell_angle_alpha   59.99674068
_cell_angle_beta   59.95773087
_cell_angle_gamma   60.03069731
_symmetry_Int_Tables_number   1
_chemical_formula_structural   Cs2NaCaF6
_chemical_formula_sum   'Cs2 Na1 Ca1 F6'
_cell_volume   197.54604684
_cell_formula_units_Z   1
loop_
 _symmetry_equiv_pos_site_id
 _symmetry_equiv_pos_as_xyz
  1  'x, y, z'
loop_
 _atom_site_type_symbol
 _atom_site_label
 _atom_site_symmetry_multiplicity
 _atom_site_fract_x
 _atom_site_fract_y
 _atom_site_fract_z
 _atom_site_occupancy
  Cs  Cs0  1  0.250003  0.249998  0.250002  1
  Cs  Cs1  1  0.750006  0.750001  0.749997  1
  Na  Na2  1  0.500063  0.499812  0.500091  1
  Ca  Ca3  1  -0.000125  0.000286  0.999866  1
  F  F4  1  0.245824  0.754171  0.754182  1
  F  F5  1  0.245839  0.754151  0.245847  1
  F  F6  1  0.754201  0.245800  0.754193  1
  F  F7  1  0.754239  0.754233  0.245768  1
  F  F8  1  0.245757  0.245748  0.754245  1
  F  F9  1  0.754194  0.245801  0.245810  1
