# generated using pymatgen
data_BaAs2Pd
_symmetry_space_group_name_H-M   'P 1'
_cell_length_a   4.64309651
_cell_length_b   4.75714002
_cell_length_c   9.07464338
_cell_angle_alpha   105.19539876
_cell_angle_beta   90.00000000
_cell_angle_gamma   90.00000000
_symmetry_Int_Tables_number   1
_chemical_formula_structural   BaAs2Pd
_chemical_formula_sum   'Ba2 As4 Pd2'
_cell_volume   193.43159965
_cell_formula_units_Z   2
loop_
 _symmetry_equiv_pos_site_id
 _symmetry_equiv_pos_as_xyz
  1  'x, y, z'
loop_
 _atom_site_type_symbol
 _atom_site_label
 _atom_site_symmetry_multiplicity
 _atom_site_fract_x
 _atom_site_fract_y
 _atom_site_fract_z
 _atom_site_occupancy
  As  As0  1  0.250000  0.962461  0.924922  1
  As  As1  1  0.750000  0.037539  0.075078  1
  As  As2  1  0.750000  0.749737  0.499475  1
  As  As3  1  0.250000  0.250263  0.500525  1
  Pd  Pd4  1  0.750000  0.186100  0.372200  1
  Pd  Pd5  1  0.250000  0.813900  0.627800  1
  Ba  Ba6  1  0.250000  0.605592  0.211183  1
  Ba  Ba7  1  0.750000  0.394408  0.788817  1
