# generated using pymatgen
data_CuClO2
_symmetry_space_group_name_H-M   'P 1'
_cell_length_a   3.55841384
_cell_length_b   6.90836133
_cell_length_c   6.91284426
_cell_angle_alpha   61.38181721
_cell_angle_beta   89.54488420
_cell_angle_gamma   89.12853272
_symmetry_Int_Tables_number   1
_chemical_formula_structural   CuClO2
_chemical_formula_sum   'Cu2 Cl2 O4'
_cell_volume   149.15878442
_cell_formula_units_Z   2
loop_
 _symmetry_equiv_pos_site_id
 _symmetry_equiv_pos_as_xyz
  1  'x, y, z'
loop_
 _atom_site_type_symbol
 _atom_site_label
 _atom_site_symmetry_multiplicity
 _atom_site_fract_x
 _atom_site_fract_y
 _atom_site_fract_z
 _atom_site_occupancy
  Cu  Cu0  1  0.028724  0.760160  0.343908  1
  Cu  Cu1  1  0.513104  0.082309  0.671928  1
  Cl  Cl2  1  0.533796  0.640500  0.220937  1
  Cl  Cl3  1  0.007694  0.205647  0.791318  1
  O  O4  1  0.219958  0.840647  0.693061  1
  O  O5  1  0.720935  0.000942  0.323689  1
  O  O6  1  0.815481  0.105575  0.429471  1
  O  O7  1  0.324268  0.735970  0.587268  1
