# generated using pymatgen
data_EuMgF4
_symmetry_space_group_name_H-M   'P 1'
_cell_length_a   4.08495022
_cell_length_b   5.60793345
_cell_length_c   7.75317523
_cell_angle_alpha   90.00000000
_cell_angle_beta   105.27411429
_cell_angle_gamma   90.00000000
_symmetry_Int_Tables_number   1
_chemical_formula_structural   EuMgF4
_chemical_formula_sum   'Eu2 Mg2 F8'
_cell_volume   171.33691156
_cell_formula_units_Z   2
loop_
 _symmetry_equiv_pos_site_id
 _symmetry_equiv_pos_as_xyz
  1  'x, y, z'
loop_
 _atom_site_type_symbol
 _atom_site_label
 _atom_site_symmetry_multiplicity
 _atom_site_fract_x
 _atom_site_fract_y
 _atom_site_fract_z
 _atom_site_occupancy
  F  F0  1  0.000000  0.000000  0.000000  1
  F  F1  1  0.000000  0.500000  0.000000  1
  F  F2  1  0.186995  0.496635  0.373991  1
  F  F3  1  0.813005  0.503365  0.626009  1
  F  F4  1  0.399244  0.750000  0.798487  1
  F  F5  1  0.600756  0.250000  0.201513  1
  F  F6  1  0.186995  0.003365  0.373991  1
  F  F7  1  0.813005  0.996635  0.626009  1
  Mg  Mg8  1  0.088615  0.250000  0.177230  1
  Mg  Mg9  1  0.911385  0.750000  0.822770  1
  Eu  Eu10  1  0.667008  0.750000  0.334015  1
  Eu  Eu11  1  0.332992  0.250000  0.665985  1
