# generated using pymatgen
data_Sm3Ni7B2
_symmetry_space_group_name_H-M   'P 1'
_cell_length_a   5.15986547
_cell_length_b   5.15994286
_cell_length_c   14.41831431
_cell_angle_alpha   90.00003616
_cell_angle_beta   89.99975876
_cell_angle_gamma   120.00514277
_symmetry_Int_Tables_number   1
_chemical_formula_structural   Sm3Ni7B2
_chemical_formula_sum   'Sm6 Ni14 B4'
_cell_volume   332.43434266
_cell_formula_units_Z   2
loop_
 _symmetry_equiv_pos_site_id
 _symmetry_equiv_pos_as_xyz
  1  'x, y, z'
loop_
 _atom_site_type_symbol
 _atom_site_label
 _atom_site_symmetry_multiplicity
 _atom_site_fract_x
 _atom_site_fract_y
 _atom_site_fract_z
 _atom_site_occupancy
  Sm  Sm0  1  0.333311  0.666662  0.749991  1
  Sm  Sm1  1  0.666643  0.333353  0.250014  1
  Sm  Sm2  1  0.333371  0.666663  0.531334  1
  Sm  Sm3  1  0.666631  0.333341  0.031343  1
  Sm  Sm4  1  0.666700  0.333350  0.468654  1
  Sm  Sm5  1  0.333332  0.666659  0.968637  1
  Ni  Ni6  1  0.999965  0.000001  0.999994  1
  Ni  Ni7  1  0.999977  1.000000  0.500010  1
  Ni  Ni8  1  0.165193  0.330418  0.151058  1
  Ni  Ni9  1  0.834804  0.669593  0.651062  1
  Ni  Ni10  1  0.669580  0.834788  0.151062  1
  Ni  Ni11  1  0.165214  0.834799  0.151064  1
  Ni  Ni12  1  0.834803  0.165201  0.651074  1
  Ni  Ni13  1  0.330404  0.165196  0.651062  1
  Ni  Ni14  1  0.834799  0.669584  0.848936  1
  Ni  Ni15  1  0.834792  0.165198  0.848931  1
  Ni  Ni16  1  0.330423  0.165190  0.848942  1
  Ni  Ni17  1  0.669581  0.834810  0.348935  1
  Ni  Ni18  1  0.165202  0.834785  0.348949  1
  Ni  Ni19  1  0.165205  0.330428  0.348941  1
  B  B20  1  0.333314  0.666664  0.250005  1
  B  B21  1  0.666646  0.333334  0.750003  1
  B  B22  1  0.999986  0.000017  0.249983  1
  B  B23  1  0.000025  0.999970  0.750014  1
