# generated using pymatgen
data_RbTlF3
_symmetry_space_group_name_H-M   'P 1'
_cell_length_a   4.74679844
_cell_length_b   4.74972539
_cell_length_c   4.74919953
_cell_angle_alpha   89.62413093
_cell_angle_beta   89.34258204
_cell_angle_gamma   89.84344334
_symmetry_Int_Tables_number   1
_chemical_formula_structural   RbTlF3
_chemical_formula_sum   'Rb1 Tl1 F3'
_cell_volume   107.06567046
_cell_formula_units_Z   1
loop_
 _symmetry_equiv_pos_site_id
 _symmetry_equiv_pos_as_xyz
  1  'x, y, z'
loop_
 _atom_site_type_symbol
 _atom_site_label
 _atom_site_symmetry_multiplicity
 _atom_site_fract_x
 _atom_site_fract_y
 _atom_site_fract_z
 _atom_site_occupancy
  Rb  Rb0  1  0.991984  0.996498  0.992344  1
  Tl  Tl1  1  0.485986  0.498669  0.494845  1
  F  F2  1  0.485128  0.998921  0.495011  1
  F  F3  1  0.985284  0.508070  0.512691  1
  F  F4  1  0.491620  0.497843  0.995107  1
