# generated using pymatgen
data_AgClO2
_symmetry_space_group_name_H-M   'P 1'
_cell_length_a   3.47542849
_cell_length_b   5.16651960
_cell_length_c   10.64400038
_cell_angle_alpha   75.95426111
_cell_angle_beta   89.85585791
_cell_angle_gamma   89.40604716
_symmetry_Int_Tables_number   1
_chemical_formula_structural   AgClO2
_chemical_formula_sum   'Ag2 Cl2 O4'
_cell_volume   185.39820053
_cell_formula_units_Z   2
loop_
 _symmetry_equiv_pos_site_id
 _symmetry_equiv_pos_as_xyz
  1  'x, y, z'
loop_
 _atom_site_type_symbol
 _atom_site_label
 _atom_site_symmetry_multiplicity
 _atom_site_fract_x
 _atom_site_fract_y
 _atom_site_fract_z
 _atom_site_occupancy
  Ag  Ag0  1  0.000000  0.500000  0.500000  1
  Ag  Ag1  1  0.500000  0.000000  0.500000  1
  Cl  Cl2  1  0.750000  0.338230  0.323540  1
  Cl  Cl3  1  0.250000  0.661770  0.676460  1
  O  O4  1  0.751770  0.913870  0.933840  1
  O  O5  1  0.748230  0.152290  0.933840  1
  O  O6  1  0.251770  0.847710  0.066160  1
  O  O7  1  0.248230  0.086130  0.066160  1
