# generated using pymatgen
data_BaHo2PdO5
_symmetry_space_group_name_H-M   'P 1'
_cell_length_a   5.91639464
_cell_length_b   6.55254370
_cell_length_c   6.55254370
_cell_angle_alpha   90.00000000
_cell_angle_beta   90.00000000
_cell_angle_gamma   90.00000000
_symmetry_Int_Tables_number   1
_chemical_formula_structural   BaHo2PdO5
_chemical_formula_sum   'Ba2 Ho4 Pd2 O10'
_cell_volume   254.02530821
_cell_formula_units_Z   2
loop_
 _symmetry_equiv_pos_site_id
 _symmetry_equiv_pos_as_xyz
  1  'x, y, z'
loop_
 _atom_site_type_symbol
 _atom_site_label
 _atom_site_symmetry_multiplicity
 _atom_site_fract_x
 _atom_site_fract_y
 _atom_site_fract_z
 _atom_site_occupancy
  O  O0  1  0.500000  0.500000  0.500000  1
  O  O1  1  0.500000  0.000000  0.000000  1
  O  O2  1  0.261407  0.640536  0.140536  1
  O  O3  1  0.261407  0.359464  0.859464  1
  O  O4  1  0.261407  0.140536  0.359464  1
  O  O5  1  0.261407  0.859464  0.640536  1
  O  O6  1  0.738593  0.640536  0.140536  1
  O  O7  1  0.738593  0.859464  0.640536  1
  O  O8  1  0.738593  0.359464  0.859464  1
  O  O9  1  0.738593  0.140536  0.359464  1
  Pd  Pd10  1  0.000000  0.500000  0.000000  1
  Pd  Pd11  1  0.000000  0.000000  0.500000  1
  Ba  Ba12  1  0.000000  0.500000  0.500000  1
  Ba  Ba13  1  0.000000  0.000000  0.000000  1
  Ho  Ho14  1  0.500000  0.674199  0.825801  1
  Ho  Ho15  1  0.500000  0.174199  0.674199  1
  Ho  Ho16  1  0.500000  0.825801  0.325801  1
  Ho  Ho17  1  0.500000  0.325801  0.174199  1
