# generated using pymatgen
data_Sm2Ge5Ir3
_symmetry_space_group_name_H-M   'P 1'
_cell_length_a   8.44348998
_cell_length_b   8.44348998
_cell_length_c   8.44348998
_cell_angle_alpha   104.92792764
_cell_angle_beta   90.16323902
_cell_angle_gamma   137.69285336
_symmetry_Int_Tables_number   1
_chemical_formula_structural   Sm2Ge5Ir3
_chemical_formula_sum   'Sm4 Ge10 Ir6'
_cell_volume   373.80392773
_cell_formula_units_Z   2
loop_
 _symmetry_equiv_pos_site_id
 _symmetry_equiv_pos_as_xyz
  1  'x, y, z'
loop_
 _atom_site_type_symbol
 _atom_site_label
 _atom_site_symmetry_multiplicity
 _atom_site_fract_x
 _atom_site_fract_y
 _atom_site_fract_z
 _atom_site_occupancy
  Sm  Sm0  1  0.633359  0.227598  0.860957  1
  Sm  Sm1  1  0.366640  0.772401  0.139042  1
  Sm  Sm2  1  0.866640  0.727598  0.594238  1
  Sm  Sm3  1  0.133360  0.272402  0.405762  1
  Ge  Ge4  1  0.749999  0.250000  0.500000  1
  Ge  Ge5  1  0.250000  0.750000  0.500000  1
  Ge  Ge6  1  0.973881  0.749999  0.223882  1
  Ge  Ge7  1  0.526117  0.750000  0.776118  1
  Ge  Ge8  1  0.026118  0.250001  0.776118  1
  Ge  Ge9  1  0.473882  0.250000  0.223882  1
  Ge  Ge10  1  0.900779  0.161154  0.061934  1
  Ge  Ge11  1  0.099221  0.838846  0.938067  1
  Ge  Ge12  1  0.599221  0.661154  0.260376  1
  Ge  Ge13  1  0.400779  0.338846  0.739625  1
  Ir  Ir14  1  0.641723  0.889904  0.531629  1
  Ir  Ir15  1  0.358276  0.110095  0.468370  1
  Ir  Ir16  1  0.749999  0.749999  0.000000  1
  Ir  Ir17  1  0.250000  0.250000  0.000000  1
  Ir  Ir18  1  0.858275  0.389904  0.248181  1
  Ir  Ir19  1  0.141724  0.610095  0.751819  1
