# generated using pymatgen
data_Fe3Co2Te(PO4)6
_symmetry_space_group_name_H-M   'P 1'
_cell_length_a   8.59776195
_cell_length_b   8.73260773
_cell_length_c   8.73260816
_cell_angle_alpha   60.00000074
_cell_angle_beta   59.47981126
_cell_angle_gamma   59.47981039
_symmetry_Int_Tables_number   1
_chemical_formula_structural   Fe3Co2Te(PO4)6
_chemical_formula_sum   'Fe3 Co2 Te1 P6 O24'
_cell_volume   459.93717127
_cell_formula_units_Z   1
loop_
 _symmetry_equiv_pos_site_id
 _symmetry_equiv_pos_as_xyz
  1  'x, y, z'
loop_
 _atom_site_type_symbol
 _atom_site_label
 _atom_site_symmetry_multiplicity
 _atom_site_fract_x
 _atom_site_fract_y
 _atom_site_fract_z
 _atom_site_occupancy
  Fe  Fe0  1  0.062061  0.645979  0.645979  1
  Fe  Fe1  1  0.432618  0.855793  0.855793  1
  Fe  Fe2  1  0.933541  0.355487  0.355487  1
  Co  Co3  1  0.005676  -0.001892  -0.001892  1
  Co  Co4  1  0.495793  0.501402  0.501402  1
  Te  Te5  1  0.561641  0.146120  0.146120  1
  P  P6  1  0.244996  0.253649  0.552664  1
  P  P7  1  0.244996  0.948690  0.253649  1
  P  P8  1  0.244996  0.552664  0.948690  1
  P  P9  1  0.746946  0.461940  0.046495  1
  P  P10  1  0.746946  0.046495  0.744620  1
  P  P11  1  0.746946  0.744620  0.461940  1
  O  O12  1  0.077219  0.111181  0.316023  1
  O  O13  1  0.077219  0.495578  0.111181  1
  O  O14  1  0.077219  0.316023  0.495578  1
  O  O15  1  0.226709  0.091270  0.743110  1
  O  O16  1  0.441241  0.188397  0.397278  1
  O  O17  1  0.270338  0.411360  0.565023  1
  O  O18  1  0.226709  0.938911  0.091270  1
  O  O19  1  0.270338  0.753280  0.411360  1
  O  O20  1  0.565188  0.610126  0.005069  1
  O  O21  1  0.270338  0.565023  0.753280  1
  O  O22  1  0.775691  0.258742  0.058397  1
  O  O23  1  0.565188  0.005069  0.819617  1
  O  O24  1  0.441241  0.973084  0.188397  1
  O  O25  1  0.226709  0.743110  0.938911  1
  O  O26  1  0.724670  0.439345  0.245024  1
  O  O27  1  0.441241  0.397278  0.973084  1
  O  O28  1  0.724670  0.245024  0.590963  1
  O  O29  1  0.775691  0.058397  0.907170  1
  O  O30  1  0.724670  0.590963  0.439345  1
  O  O31  1  0.565188  0.819617  0.610126  1
  O  O32  1  0.775691  0.907170  0.258742  1
  O  O33  1  0.929894  0.682049  0.496880  1
  O  O34  1  0.929894  0.496880  0.891177  1
  O  O35  1  0.929894  0.891177  0.682049  1
