# generated using pymatgen
data_BaSi4O9
_symmetry_space_group_name_H-M   'P 1'
_cell_length_a   6.57940927
_cell_length_b   6.57940927
_cell_length_c   9.46998775
_cell_angle_alpha   90.00000000
_cell_angle_beta   90.00000000
_cell_angle_gamma   120.00000004
_symmetry_Int_Tables_number   1
_chemical_formula_structural   BaSi4O9
_chemical_formula_sum   'Ba2 Si8 O18'
_cell_volume   355.02084529
_cell_formula_units_Z   2
loop_
 _symmetry_equiv_pos_site_id
 _symmetry_equiv_pos_as_xyz
  1  'x, y, z'
loop_
 _atom_site_type_symbol
 _atom_site_label
 _atom_site_symmetry_multiplicity
 _atom_site_fract_x
 _atom_site_fract_y
 _atom_site_fract_z
 _atom_site_occupancy
  O  O0  1  0.556895  0.893874  0.606940  1
  O  O1  1  0.106126  0.443105  0.393060  1
  O  O2  1  0.106126  0.663021  0.606940  1
  O  O3  1  0.336979  0.443105  0.606940  1
  O  O4  1  0.106126  0.663021  0.893060  1
  O  O5  1  0.336979  0.443105  0.893060  1
  O  O6  1  0.556895  0.893874  0.893060  1
  O  O7  1  0.336979  0.893874  0.106940  1
  O  O8  1  0.556895  0.663021  0.106940  1
  O  O9  1  0.556895  0.663021  0.393060  1
  O  O10  1  0.922649  0.735657  0.250000  1
  O  O11  1  0.813008  0.077351  0.250000  1
  O  O12  1  0.264343  0.186992  0.250000  1
  O  O13  1  0.264343  0.077351  0.750000  1
  O  O14  1  0.813008  0.735657  0.750000  1
  O  O15  1  0.922649  0.186992  0.750000  1
  O  O16  1  0.106126  0.443105  0.106940  1
  O  O17  1  0.336979  0.893874  0.393060  1
  Si  Si18  1  0.089152  0.788699  0.750000  1
  Si  Si19  1  0.211301  0.300453  0.750000  1
  Si  Si20  1  0.699547  0.910848  0.750000  1
  Si  Si21  1  0.699547  0.788699  0.250000  1
  Si  Si22  1  0.211301  0.910848  0.250000  1
  Si  Si23  1  0.089152  0.300453  0.250000  1
  Si  Si24  1  0.333333  0.666667  0.500000  1
  Si  Si25  1  0.333333  0.666667  0.000000  1
  Ba  Ba26  1  0.666667  0.333333  0.500000  1
  Ba  Ba27  1  0.666667  0.333333  0.000000  1
