# generated using pymatgen
data_Ni3As
_symmetry_space_group_name_H-M   'P 1'
_cell_length_a   5.09310748
_cell_length_b   5.09489877
_cell_length_c   4.10956439
_cell_angle_alpha   90.00023779
_cell_angle_beta   89.99899855
_cell_angle_gamma   120.00294233
_symmetry_Int_Tables_number   1
_chemical_formula_structural   Ni3As
_chemical_formula_sum   'Ni6 As2'
_cell_volume   92.34894636
_cell_formula_units_Z   2
loop_
 _symmetry_equiv_pos_site_id
 _symmetry_equiv_pos_as_xyz
  1  'x, y, z'
loop_
 _atom_site_type_symbol
 _atom_site_label
 _atom_site_symmetry_multiplicity
 _atom_site_fract_x
 _atom_site_fract_y
 _atom_site_fract_z
 _atom_site_occupancy
  Ni  Ni0  1  0.167047  0.334100  0.250009  1
  Ni  Ni1  1  0.665903  0.832987  0.250008  1
  Ni  Ni2  1  0.167083  0.832980  0.249959  1
  Ni  Ni3  1  0.832909  0.665850  0.749991  1
  Ni  Ni4  1  0.334155  0.167070  0.749990  1
  Ni  Ni5  1  0.832928  0.167033  0.750038  1
  As  As6  1  0.333318  0.666640  0.749998  1
  As  As7  1  0.666654  0.333331  0.249998  1
