# generated using pymatgen
data_Cs2Li3(BO2)5
_symmetry_space_group_name_H-M   'P 1'
_cell_length_a   6.90882983
_cell_length_b   6.90882983
_cell_length_c   13.07438568
_cell_angle_alpha   90.00000000
_cell_angle_beta   90.00000000
_cell_angle_gamma   64.51278258
_symmetry_Int_Tables_number   1
_chemical_formula_structural   Cs2Li3(BO2)5
_chemical_formula_sum   'Cs4 Li6 B10 O20'
_cell_volume   563.33240298
_cell_formula_units_Z   2
loop_
 _symmetry_equiv_pos_site_id
 _symmetry_equiv_pos_as_xyz
  1  'x, y, z'
loop_
 _atom_site_type_symbol
 _atom_site_label
 _atom_site_symmetry_multiplicity
 _atom_site_fract_x
 _atom_site_fract_y
 _atom_site_fract_z
 _atom_site_occupancy
  Cs  Cs0  1  0.708699  0.291301  0.500000  1
  Cs  Cs1  1  0.291301  0.708699  0.000000  1
  Cs  Cs2  1  0.233818  0.233818  0.250000  1
  Cs  Cs3  1  0.766182  0.766182  0.750000  1
  Li  Li4  1  0.680303  0.680303  0.250000  1
  Li  Li5  1  0.319697  0.319697  0.750000  1
  Li  Li6  1  0.822247  0.555209  0.037143  1
  Li  Li7  1  0.177753  0.444791  0.537143  1
  Li  Li8  1  0.444791  0.177753  0.962857  1
  Li  Li9  1  0.555209  0.822247  0.462857  1
  B  B10  1  0.916477  0.916477  0.250000  1
  B  B11  1  0.083523  0.083523  0.750000  1
  B  B12  1  0.718874  0.278165  0.163828  1
  B  B13  1  0.281126  0.721835  0.663829  1
  B  B14  1  0.721835  0.281126  0.836171  1
  B  B15  1  0.278165  0.718874  0.336171  1
  B  B16  1  0.953981  0.715128  0.417707  1
  B  B17  1  0.046018  0.284871  0.917707  1
  B  B18  1  0.284871  0.046018  0.582292  1
  B  B19  1  0.715128  0.953981  0.082293  1
  O  O20  1  0.695506  0.477831  0.149567  1
  O  O21  1  0.304493  0.522168  0.649567  1
  O  O22  1  0.522168  0.304493  0.850433  1
  O  O23  1  0.477831  0.695506  0.350432  1
  O  O24  1  0.827152  0.850890  0.340801  1
  O  O25  1  0.172849  0.149110  0.840801  1
  O  O26  1  0.149110  0.172849  0.659199  1
  O  O27  1  0.850890  0.827152  0.159199  1
  O  O28  1  0.152096  0.828485  0.252933  1
  O  O29  1  0.847904  0.171515  0.752933  1
  O  O30  1  0.171515  0.847904  0.747067  1
  O  O31  1  0.828485  0.152096  0.247067  1
  O  O32  1  0.370047  0.819323  0.592565  1
  O  O33  1  0.629952  0.180676  0.092565  1
  O  O34  1  0.180676  0.629952  0.407434  1
  O  O35  1  0.819323  0.370047  0.907435  1
  O  O36  1  0.870443  0.659081  0.498694  1
  O  O37  1  0.129556  0.340919  0.998695  1
  O  O38  1  0.340919  0.129556  0.501305  1
  O  O39  1  0.659081  0.870443  0.001306  1
