# generated using pymatgen
data_LiS4
_symmetry_space_group_name_H-M   'P 1'
_cell_length_a   12.86585468
_cell_length_b   12.35602044
_cell_length_c   13.38132905
_cell_angle_alpha   87.66384947
_cell_angle_beta   95.66762279
_cell_angle_gamma   90.12999332
_symmetry_Int_Tables_number   1
_chemical_formula_structural   LiS4
_chemical_formula_sum   'Li2 S8'
_cell_volume   2115.07849702
_cell_formula_units_Z   2
loop_
 _symmetry_equiv_pos_site_id
 _symmetry_equiv_pos_as_xyz
  1  'x, y, z'
loop_
 _atom_site_type_symbol
 _atom_site_label
 _atom_site_symmetry_multiplicity
 _atom_site_fract_x
 _atom_site_fract_y
 _atom_site_fract_z
 _atom_site_occupancy
  Li  Li0  1  0.682774  0.647496  0.523810  1
  Li  Li1  1  0.517760  0.521705  0.466486  1
  S  S2  1  0.702095  0.463654  0.492440  1
  S  S3  1  0.634659  0.430099  0.624958  1
  S  S4  1  0.542417  0.295313  0.605324  1
  S  S5  1  0.412526  0.339014  0.505434  1
  S  S6  1  0.309749  0.421183  0.588293  1
  S  S7  1  0.304262  0.583690  0.543776  1
  S  S8  1  0.430447  0.667883  0.609759  1
  S  S9  1  0.513311  0.716566  0.489721  1
