# generated using pymatgen
data_HC6
_symmetry_space_group_name_H-M   'P 1'
_cell_length_a   2.46457041
_cell_length_b   3.75467652
_cell_length_c   14.33747447
_cell_angle_alpha   83.74283915
_cell_angle_beta   84.12202632
_cell_angle_gamma   89.84150706
_symmetry_Int_Tables_number   1
_chemical_formula_structural   HC6
_chemical_formula_sum   'H2 C12'
_cell_volume   131.18566476
_cell_formula_units_Z   2
loop_
 _symmetry_equiv_pos_site_id
 _symmetry_equiv_pos_as_xyz
  1  'x, y, z'
loop_
 _atom_site_type_symbol
 _atom_site_label
 _atom_site_symmetry_multiplicity
 _atom_site_fract_x
 _atom_site_fract_y
 _atom_site_fract_z
 _atom_site_occupancy
  H  H0  1  0.772211  0.252496  0.045355  1
  H  H1  1  0.227789  0.747504  0.954645  1
  C  C2  1  0.194711  0.056595  0.164129  1
  C  C3  1  0.805289  0.943405  0.835871  1
  C  C4  1  0.974084  0.420478  0.548141  1
  C  C5  1  0.025916  0.579522  0.451859  1
  C  C6  1  0.609272  0.817498  0.308152  1
  C  C7  1  0.390728  0.182502  0.691848  1
  C  C8  1  0.722760  0.131848  0.118548  1
  C  C9  1  0.277240  0.868152  0.881452  1
  C  C10  1  0.552464  0.658162  0.404254  1
  C  C11  1  0.447536  0.341838  0.595746  1
  C  C12  1  0.137469  0.896191  0.260845  1
  C  C13  1  0.862531  0.103809  0.739155  1
