# generated using pymatgen
data_TlCdF3
_symmetry_space_group_name_H-M   'P 1'
_cell_length_a   4.49323748
_cell_length_b   4.49590825
_cell_length_c   4.49615069
_cell_angle_alpha   89.66434480
_cell_angle_beta   89.24828725
_cell_angle_gamma   89.88271422
_symmetry_Int_Tables_number   1
_chemical_formula_structural   TlCdF3
_chemical_formula_sum   'Tl1 Cd1 F3'
_cell_volume   90.81801311
_cell_formula_units_Z   1
loop_
 _symmetry_equiv_pos_site_id
 _symmetry_equiv_pos_as_xyz
  1  'x, y, z'
loop_
 _atom_site_type_symbol
 _atom_site_label
 _atom_site_symmetry_multiplicity
 _atom_site_fract_x
 _atom_site_fract_y
 _atom_site_fract_z
 _atom_site_occupancy
  Tl  Tl0  1  0.994466  0.994239  0.986948  1
  Cd  Cd1  1  0.487472  0.498395  0.494319  1
  F  F2  1  0.483096  0.999144  0.498628  1
  F  F3  1  0.986628  0.509316  0.514208  1
  F  F4  1  0.488339  0.498904  0.995897  1
