# generated using pymatgen
data_Ni3H
_symmetry_space_group_name_H-M   'P 1'
_cell_length_a   4.97671971
_cell_length_b   4.94759877
_cell_length_c   3.56633208
_cell_angle_alpha   90.06711854
_cell_angle_beta   89.93450390
_cell_angle_gamma   119.57704012
_symmetry_Int_Tables_number   1
_chemical_formula_structural   Ni3H
_chemical_formula_sum   'Ni6 H2'
_cell_volume   76.37037402
_cell_formula_units_Z   2
loop_
 _symmetry_equiv_pos_site_id
 _symmetry_equiv_pos_as_xyz
  1  'x, y, z'
loop_
 _atom_site_type_symbol
 _atom_site_label
 _atom_site_symmetry_multiplicity
 _atom_site_fract_x
 _atom_site_fract_y
 _atom_site_fract_z
 _atom_site_occupancy
  Ni  Ni0  1  0.175411  0.352231  0.250186  1
  Ni  Ni1  1  0.646407  0.823578  0.250170  1
  Ni  Ni2  1  0.175896  0.823350  0.249679  1
  Ni  Ni3  1  0.824351  0.647871  0.749817  1
  Ni  Ni4  1  0.353582  0.176754  0.749824  1
  Ni  Ni5  1  0.824560  0.176223  0.750322  1
  H  H6  1  0.333278  0.666684  0.749937  1
  H  H7  1  0.666514  0.333305  0.250058  1
