# generated using pymatgen
data_Cu3OF5
_symmetry_space_group_name_H-M   'P 1'
_cell_length_a   7.80440689
_cell_length_b   5.52355355
_cell_length_c   5.39306693
_cell_angle_alpha   71.10850252
_cell_angle_beta   106.98041865
_cell_angle_gamma   105.56887066
_symmetry_Int_Tables_number   1
_chemical_formula_structural   Cu3OF5
_chemical_formula_sum   'Cu6 O2 F10'
_cell_volume   206.45361066
_cell_formula_units_Z   2
loop_
 _symmetry_equiv_pos_site_id
 _symmetry_equiv_pos_as_xyz
  1  'x, y, z'
loop_
 _atom_site_type_symbol
 _atom_site_label
 _atom_site_symmetry_multiplicity
 _atom_site_fract_x
 _atom_site_fract_y
 _atom_site_fract_z
 _atom_site_occupancy
  Cu  Cu0  1  0.662942  0.622821  0.697825  1
  Cu  Cu1  1  0.821195  0.323541  0.316496  1
  Cu  Cu2  1  0.178805  0.676459  0.683504  1
  Cu  Cu3  1  0.337058  0.377179  0.302175  1
  Cu  Cu4  1  0.500000  0.000000  0.000000  1
  Cu  Cu5  1  0.000000  0.000000  0.000000  1
  O  O6  1  0.658528  0.327862  0.985512  1
  O  O7  1  0.341472  0.672138  0.014488  1
  F  F8  1  0.994122  0.766183  0.797762  1
  F  F9  1  0.692909  0.855356  0.909427  1
  F  F10  1  0.655228  0.919330  0.394442  1
  F  F11  1  0.979437  0.281694  0.676039  1
  F  F12  1  0.654342  0.432421  0.452014  1
  F  F13  1  0.345658  0.567579  0.547986  1
  F  F14  1  0.020563  0.718306  0.323961  1
  F  F15  1  0.344772  0.080670  0.605558  1
  F  F16  1  0.307091  0.144644  0.090573  1
  F  F17  1  0.005878  0.233817  0.202238  1
