# generated using pymatgen
data_K2LiGaAs2
_symmetry_space_group_name_H-M   'P 1'
_cell_length_a   6.28527913
_cell_length_b   10.00776503
_cell_length_c   10.00776503
_cell_angle_alpha   102.04873206
_cell_angle_beta   90.00000000
_cell_angle_gamma   90.00000000
_symmetry_Int_Tables_number   1
_chemical_formula_structural   K2LiGaAs2
_chemical_formula_sum   'K8 Li4 Ga4 As8'
_cell_volume   615.63667599
_cell_formula_units_Z   4
loop_
 _symmetry_equiv_pos_site_id
 _symmetry_equiv_pos_as_xyz
  1  'x, y, z'
loop_
 _atom_site_type_symbol
 _atom_site_label
 _atom_site_symmetry_multiplicity
 _atom_site_fract_x
 _atom_site_fract_y
 _atom_site_fract_z
 _atom_site_occupancy
  Li  Li0  1  0.500000  0.879915  0.879915  1
  Li  Li1  1  0.500000  0.120085  0.120085  1
  Li  Li2  1  0.000000  0.620085  0.620085  1
  Li  Li3  1  0.000000  0.379915  0.379915  1
  K  K4  1  0.750000  0.922220  0.577780  1
  K  K5  1  0.780379  0.329381  0.670619  1
  K  K6  1  0.219621  0.670619  0.329381  1
  K  K7  1  0.750000  0.422220  0.077780  1
  K  K8  1  0.250000  0.577780  0.922220  1
  K  K9  1  0.250000  0.077780  0.422220  1
  K  K10  1  0.280379  0.170619  0.829381  1
  K  K11  1  0.719621  0.829381  0.170619  1
  Ga  Ga12  1  0.000000  0.131513  0.131513  1
  Ga  Ga13  1  0.500000  0.631513  0.631513  1
  Ga  Ga14  1  0.500000  0.368487  0.368487  1
  Ga  Ga15  1  0.000000  0.868487  0.868487  1
  As  As16  1  0.750000  0.156997  0.343003  1
  As  As17  1  0.212840  0.907296  0.092704  1
  As  As18  1  0.712840  0.592704  0.407296  1
  As  As19  1  0.287160  0.407296  0.592704  1
  As  As20  1  0.250000  0.343003  0.156997  1
  As  As21  1  0.250000  0.843003  0.656997  1
  As  As22  1  0.750000  0.656997  0.843003  1
  As  As23  1  0.787160  0.092704  0.907296  1
