# generated using pymatgen
data_Mg5Sc
_symmetry_space_group_name_H-M   'P 1'
_cell_length_a   3.19675838
_cell_length_b   6.18077015
_cell_length_c   7.57704094
_cell_angle_alpha   75.48135016
_cell_angle_beta   90.00000000
_cell_angle_gamma   104.98731468
_symmetry_Int_Tables_number   1
_chemical_formula_structural   Mg5Sc
_chemical_formula_sum   'Mg5 Sc1'
_cell_volume   139.66268005
_cell_formula_units_Z   1
loop_
 _symmetry_equiv_pos_site_id
 _symmetry_equiv_pos_as_xyz
  1  'x, y, z'
loop_
 _atom_site_type_symbol
 _atom_site_label
 _atom_site_symmetry_multiplicity
 _atom_site_fract_x
 _atom_site_fract_y
 _atom_site_fract_z
 _atom_site_occupancy
  Mg  Mg0  1  0.000876  0.001752  0.997873  1
  Mg  Mg1  1  0.721956  0.443916  0.055642  1
  Mg  Mg2  1  0.333829  0.667659  0.335121  1
  Mg  Mg3  1  0.056711  0.113423  0.386467  1
  Mg  Mg4  1  0.665568  0.331140  0.666472  1
  Sc  Sc5  1  0.387721  0.775441  0.725092  1
