# generated using pymatgen
data_AgBrO2
_symmetry_space_group_name_H-M   'P 1'
_cell_length_a   3.59624148
_cell_length_b   4.21500975
_cell_length_c   11.04855640
_cell_angle_alpha   84.34997945
_cell_angle_beta   90.00000000
_cell_angle_gamma   90.00000000
_symmetry_Int_Tables_number   1
_chemical_formula_structural   AgBrO2
_chemical_formula_sum   'Ag2 Br2 O4'
_cell_volume   166.66252142
_cell_formula_units_Z   2
loop_
 _symmetry_equiv_pos_site_id
 _symmetry_equiv_pos_as_xyz
  1  'x, y, z'
loop_
 _atom_site_type_symbol
 _atom_site_label
 _atom_site_symmetry_multiplicity
 _atom_site_fract_x
 _atom_site_fract_y
 _atom_site_fract_z
 _atom_site_occupancy
  Ag  Ag0  1  0.250000  0.147504  0.094229  1
  Ag  Ag1  1  0.750000  0.852496  0.905771  1
  Br  Br2  1  0.250000  0.364521  0.840105  1
  Br  Br3  1  0.750000  0.635479  0.159895  1
  O  O4  1  0.250000  0.802222  0.474346  1
  O  O5  1  0.750000  0.928379  0.580171  1
  O  O6  1  0.250000  0.071621  0.419829  1
  O  O7  1  0.750000  0.197778  0.525654  1
