# generated using pymatgen
data_KSbSe2
_symmetry_space_group_name_H-M   'P 1'
_cell_length_a   6.68325512
_cell_length_b   6.62248775
_cell_length_c   12.59616128
_cell_angle_alpha   89.95680159
_cell_angle_beta   96.95866847
_cell_angle_gamma   89.94630636
_symmetry_Int_Tables_number   1
_chemical_formula_structural   KSbSe2
_chemical_formula_sum   'K4 Sb4 Se8'
_cell_volume   553.39613490
_cell_formula_units_Z   4
loop_
 _symmetry_equiv_pos_site_id
 _symmetry_equiv_pos_as_xyz
  1  'x, y, z'
loop_
 _atom_site_type_symbol
 _atom_site_label
 _atom_site_symmetry_multiplicity
 _atom_site_fract_x
 _atom_site_fract_y
 _atom_site_fract_z
 _atom_site_occupancy
  K  K0  1  0.516087  0.738064  0.879777  1
  K  K1  1  0.483913  0.261936  0.120223  1
  K  K2  1  0.984638  0.737577  0.620319  1
  K  K3  1  0.015362  0.262423  0.379681  1
  Se  Se4  1  0.514804  0.188861  0.385950  1
  Se  Se5  1  0.485196  0.811139  0.614050  1
  Se  Se6  1  0.984459  0.188864  0.113761  1
  Se  Se7  1  0.015541  0.811136  0.886239  1
  Se  Se8  1  0.932357  0.228951  0.645140  1
  Se  Se9  1  0.067643  0.771049  0.354860  1
  Se  Se10  1  0.567560  0.229315  0.854625  1
  Se  Se11  1  0.432440  0.770685  0.145375  1
  Sb  Sb12  1  0.040558  0.798721  0.121127  1
  Sb  Sb13  1  0.959442  0.201279  0.878873  1
  Sb  Sb14  1  0.459440  0.798777  0.379030  1
  Sb  Sb15  1  0.540560  0.201223  0.620970  1
