# generated using pymatgen
data_CeAgAs2
_symmetry_space_group_name_H-M   'P 1'
_cell_length_a   4.09296934
_cell_length_b   4.09296934
_cell_length_c   20.40416054
_cell_angle_alpha   90.00000000
_cell_angle_beta   90.00000000
_cell_angle_gamma   90.04600266
_symmetry_Int_Tables_number   1
_chemical_formula_structural   CeAgAs2
_chemical_formula_sum   'Ce4 Ag4 As8'
_cell_volume   341.81850788
_cell_formula_units_Z   4
loop_
 _symmetry_equiv_pos_site_id
 _symmetry_equiv_pos_as_xyz
  1  'x, y, z'
loop_
 _atom_site_type_symbol
 _atom_site_label
 _atom_site_symmetry_multiplicity
 _atom_site_fract_x
 _atom_site_fract_y
 _atom_site_fract_z
 _atom_site_occupancy
  Ce  Ce0  1  0.738827  0.761174  0.111209  1
  Ce  Ce1  1  0.261174  0.238827  0.888791  1
  Ce  Ce2  1  0.238827  0.261174  0.388791  1
  Ce  Ce3  1  0.761174  0.738827  0.611209  1
  Ag  Ag4  1  0.764452  0.235548  0.750000  1
  Ag  Ag5  1  0.735548  0.264452  0.250000  1
  Ag  Ag6  1  0.235548  0.764452  0.250000  1
  Ag  Ag7  1  0.264452  0.735548  0.750000  1
  As  As8  1  0.244105  0.744104  0.999999  1
  As  As9  1  0.255897  0.755895  0.500000  1
  As  As10  1  0.755896  0.255896  0.999999  1
  As  As11  1  0.744105  0.244104  0.500000  1
  As  As12  1  0.737565  0.762436  0.343621  1
  As  As13  1  0.262437  0.237564  0.656379  1
  As  As14  1  0.237565  0.262436  0.156379  1
  As  As15  1  0.762438  0.737564  0.843621  1
