# generated using pymatgen
data_HgS
_symmetry_space_group_name_H-M   'P 1'
_cell_length_a   4.43070868
_cell_length_b   4.43070869
_cell_length_c   9.74559109
_cell_angle_alpha   90.00000000
_cell_angle_beta   90.00000000
_cell_angle_gamma   119.99999996
_symmetry_Int_Tables_number   1
_chemical_formula_structural   HgS
_chemical_formula_sum   'Hg3 S3'
_cell_volume   165.68576966
_cell_formula_units_Z   3
loop_
 _symmetry_equiv_pos_site_id
 _symmetry_equiv_pos_as_xyz
  1  'x, y, z'
loop_
 _atom_site_type_symbol
 _atom_site_label
 _atom_site_symmetry_multiplicity
 _atom_site_fract_x
 _atom_site_fract_y
 _atom_site_fract_z
 _atom_site_occupancy
  S  S0  1  0.543488  0.543488  0.500000  1
  S  S1  1  0.000000  0.456512  0.833333  1
  S  S2  1  0.456512  0.000000  0.166667  1
  Hg  Hg3  1  0.241550  0.241550  0.000000  1
  Hg  Hg4  1  0.000000  0.758450  0.333333  1
  Hg  Hg5  1  0.758450  0.000000  0.666667  1
