# generated using pymatgen
data_ReH6CN3O4
_symmetry_space_group_name_H-M   'P 1'
_cell_length_a   5.05466211
_cell_length_b   7.86407524
_cell_length_c   8.60249107
_cell_angle_alpha   74.81281348
_cell_angle_beta   88.75122104
_cell_angle_gamma   81.26969571
_symmetry_Int_Tables_number   1
_chemical_formula_structural   ReH6CN3O4
_chemical_formula_sum   'Re2 H12 C2 N6 O8'
_cell_volume   326.12705961
_cell_formula_units_Z   2
loop_
 _symmetry_equiv_pos_site_id
 _symmetry_equiv_pos_as_xyz
  1  'x, y, z'
loop_
 _atom_site_type_symbol
 _atom_site_label
 _atom_site_symmetry_multiplicity
 _atom_site_fract_x
 _atom_site_fract_y
 _atom_site_fract_z
 _atom_site_occupancy
  Re  Re0  1  0.997217  0.745444  0.314931  1
  Re  Re1  1  0.002785  0.254558  0.685064  1
  H  H2  1  0.798598  0.398524  0.035467  1
  H  H3  1  0.504060  0.754017  0.058404  1
  H  H4  1  0.312191  0.109328  0.082196  1
  H  H5  1  0.815620  0.391605  0.239758  1
  H  H6  1  0.318340  0.107655  0.348349  1
  H  H7  1  0.518515  0.233133  0.420683  1
  H  H8  1  0.481486  0.766867  0.579316  1
  H  H9  1  0.681659  0.892345  0.651650  1
  H  H10  1  0.184381  0.608395  0.760242  1
  H  H11  1  0.687809  0.890671  0.917805  1
  H  H12  1  0.495940  0.245982  0.941596  1
  H  H13  1  0.201404  0.601475  0.964533  1
  C  C14  1  0.547302  0.247886  0.178761  1
  C  C15  1  0.452698  0.752115  0.821239  1
  N  N16  1  0.449606  0.194598  0.058099  1
  N  N17  1  0.720648  0.365031  0.147671  1
  N  N18  1  0.468298  0.182909  0.329693  1
  N  N19  1  0.531702  0.817091  0.670306  1
  N  N20  1  0.279353  0.634968  0.852329  1
  N  N21  1  0.550396  0.805402  0.941900  1
  O  O22  1  0.138345  0.606876  0.194094  1
  O  O23  1  0.064295  0.963377  0.234207  1
  O  O24  1  0.648525  0.755675  0.314825  1
  O  O25  1  0.875463  0.336130  0.486793  1
  O  O26  1  0.124535  0.663871  0.513207  1
  O  O27  1  0.351473  0.244324  0.685176  1
  O  O28  1  0.935703  0.036622  0.765795  1
  O  O29  1  0.861654  0.393124  0.805906  1
