# generated using pymatgen
data_Ca3ReO6
_symmetry_space_group_name_H-M   'P 1'
_cell_length_a   5.57459140
_cell_length_b   5.85850317
_cell_length_c   8.07261064
_cell_angle_alpha   90.00000000
_cell_angle_beta   90.06988216
_cell_angle_gamma   90.00000000
_symmetry_Int_Tables_number   1
_chemical_formula_structural   Ca3ReO6
_chemical_formula_sum   'Ca6 Re2 O12'
_cell_volume   263.64126848
_cell_formula_units_Z   2
loop_
 _symmetry_equiv_pos_site_id
 _symmetry_equiv_pos_as_xyz
  1  'x, y, z'
loop_
 _atom_site_type_symbol
 _atom_site_label
 _atom_site_symmetry_multiplicity
 _atom_site_fract_x
 _atom_site_fract_y
 _atom_site_fract_z
 _atom_site_occupancy
  O  O0  1  0.885808  0.552618  0.274284  1
  O  O1  1  0.614192  0.052618  0.225716  1
  O  O2  1  0.114192  0.447382  0.725716  1
  O  O3  1  0.385808  0.947382  0.774284  1
  O  O4  1  0.832777  0.775609  0.570541  1
  O  O5  1  0.667223  0.275609  0.929459  1
  O  O6  1  0.167223  0.224391  0.429459  1
  O  O7  1  0.332777  0.724391  0.070541  1
  O  O8  1  0.215185  0.176158  0.050334  1
  O  O9  1  0.284815  0.676158  0.449666  1
  O  O10  1  0.784815  0.823842  0.949666  1
  O  O11  1  0.715185  0.323842  0.550334  1
  Ca  Ca12  1  0.515999  0.558613  0.743437  1
  Ca  Ca13  1  0.984001  0.058613  0.756563  1
  Ca  Ca14  1  0.000000  0.500000  0.000000  1
  Ca  Ca15  1  0.500000  0.000000  0.500000  1
  Ca  Ca16  1  0.015999  0.941387  0.243437  1
  Ca  Ca17  1  0.484001  0.441387  0.256563  1
  Re  Re18  1  0.500000  0.000000  0.000000  1
  Re  Re19  1  0.000000  0.500000  0.500000  1
