# generated using pymatgen
data_NiH3
_symmetry_space_group_name_H-M   'P 1'
_cell_length_a   5.13036164
_cell_length_b   5.08585341
_cell_length_c   2.34043202
_cell_angle_alpha   90.03417822
_cell_angle_beta   89.96235884
_cell_angle_gamma   119.65304685
_symmetry_Int_Tables_number   1
_chemical_formula_structural   NiH3
_chemical_formula_sum   'Ni2 H6'
_cell_volume   53.06963792
_cell_formula_units_Z   2
loop_
 _symmetry_equiv_pos_site_id
 _symmetry_equiv_pos_as_xyz
  1  'x, y, z'
loop_
 _atom_site_type_symbol
 _atom_site_label
 _atom_site_symmetry_multiplicity
 _atom_site_fract_x
 _atom_site_fract_y
 _atom_site_fract_z
 _atom_site_occupancy
  Ni  Ni0  1  0.336860  0.668192  0.749884  1
  Ni  Ni1  1  0.662889  0.331371  0.250124  1
  H  H2  1  0.206418  0.413321  0.249692  1
  H  H3  1  0.589227  0.794930  0.249658  1
  H  H4  1  0.206589  0.793553  0.250386  1
  H  H5  1  0.793587  0.586646  0.750308  1
  H  H6  1  0.410791  0.205295  0.750345  1
  H  H7  1  0.793644  0.206692  0.749615  1
