# generated using pymatgen
data_Ba2Sb
_symmetry_space_group_name_H-M   'P 1'
_cell_length_a   5.29866618
_cell_length_b   5.29866618
_cell_length_c   10.23205138
_cell_angle_alpha   105.00628030
_cell_angle_beta   105.00628027
_cell_angle_gamma   90.00000002
_symmetry_Int_Tables_number   1
_chemical_formula_structural   Ba2Sb
_chemical_formula_sum   'Ba4 Sb2'
_cell_volume   267.32135629
_cell_formula_units_Z   2
loop_
 _symmetry_equiv_pos_site_id
 _symmetry_equiv_pos_as_xyz
  1  'x, y, z'
loop_
 _atom_site_type_symbol
 _atom_site_label
 _atom_site_symmetry_multiplicity
 _atom_site_fract_x
 _atom_site_fract_y
 _atom_site_fract_z
 _atom_site_occupancy
  Sb  Sb0  1  0.866318  0.866318  0.732635  1
  Sb  Sb1  1  0.133682  0.133682  0.267365  1
  Ba  Ba2  1  0.319820  0.319820  0.639640  1
  Ba  Ba3  1  0.680180  0.680180  0.360360  1
  Ba  Ba4  1  0.000000  0.500000  0.000000  1
  Ba  Ba5  1  0.500000  0.000000  0.000000  1
