# generated using pymatgen
data_KCoH3(CO2)3
_symmetry_space_group_name_H-M   'P 1'
_cell_length_a   6.83792547
_cell_length_b   7.05963983
_cell_length_c   7.05963983
_cell_angle_alpha   80.24465599
_cell_angle_beta   92.95831356
_cell_angle_gamma   92.95831356
_symmetry_Int_Tables_number   1
_chemical_formula_structural   KCoH3(CO2)3
_chemical_formula_sum   'K2 Co2 H6 C6 O12'
_cell_volume   335.09844370
_cell_formula_units_Z   2
loop_
 _symmetry_equiv_pos_site_id
 _symmetry_equiv_pos_as_xyz
  1  'x, y, z'
loop_
 _atom_site_type_symbol
 _atom_site_label
 _atom_site_symmetry_multiplicity
 _atom_site_fract_x
 _atom_site_fract_y
 _atom_site_fract_z
 _atom_site_occupancy
  K  K0  1  0.750000  0.900237  0.099762  1
  K  K1  1  0.250000  0.099762  0.900237  1
  Co  Co2  1  -0.000000  0.500000  -0.000000  1
  Co  Co3  1  0.500000  -0.000000  0.500000  1
  H  H4  1  0.507473  0.434053  0.322179  1
  H  H5  1  0.250000  0.623403  0.376596  1
  H  H6  1  0.007473  0.322179  0.434053  1
  H  H7  1  0.992528  0.677821  0.565947  1
  H  H8  1  0.750000  0.376596  0.623403  1
  H  H9  1  0.492528  0.565947  0.677821  1
  C  C10  1  0.250000  0.745262  0.254737  1
  C  C11  1  0.636609  0.379511  0.262529  1
  C  C12  1  0.136609  0.262529  0.379511  1
  C  C13  1  0.863390  0.737472  0.620489  1
  C  C14  1  0.363390  0.620489  0.737472  1
  C  C15  1  0.750000  0.254737  0.745262  1
  O  O16  1  0.122120  0.740339  0.118489  1
  O  O17  1  0.748357  0.504497  0.166587  1
  O  O18  1  0.158862  0.298004  0.198874  1
  O  O19  1  0.377880  0.881510  0.259661  1
  O  O20  1  0.658862  0.198874  0.298004  1
  O  O21  1  0.751643  0.833414  0.495503  1
  O  O22  1  0.248357  0.166587  0.504497  1
  O  O23  1  0.341139  0.801127  0.701997  1
  O  O24  1  0.622120  0.118489  0.740339  1
  O  O25  1  0.841139  0.701997  0.801127  1
  O  O26  1  0.251643  0.495503  0.833414  1
  O  O27  1  0.877880  0.259661  0.881510  1
