# generated using pymatgen
data_Rb2Sn2Se5
_symmetry_space_group_name_H-M   'P 1'
_cell_length_a   7.35942582
_cell_length_b   7.35942582
_cell_length_c   12.27022024
_cell_angle_alpha   75.51484508
_cell_angle_beta   75.51484510
_cell_angle_gamma   73.41130246
_symmetry_Int_Tables_number   1
_chemical_formula_structural   Rb2Sn2Se5
_chemical_formula_sum   'Rb4 Sn4 Se10'
_cell_volume   605.11764551
_cell_formula_units_Z   2
loop_
 _symmetry_equiv_pos_site_id
 _symmetry_equiv_pos_as_xyz
  1  'x, y, z'
loop_
 _atom_site_type_symbol
 _atom_site_label
 _atom_site_symmetry_multiplicity
 _atom_site_fract_x
 _atom_site_fract_y
 _atom_site_fract_z
 _atom_site_occupancy
  Se  Se0  1  0.198347  0.801653  0.250000  1
  Se  Se1  1  0.801653  0.198347  0.750000  1
  Se  Se2  1  0.375640  0.642629  0.885047  1
  Se  Se3  1  0.357370  0.624360  0.614953  1
  Se  Se4  1  0.624360  0.357370  0.114953  1
  Se  Se5  1  0.642629  0.375640  0.385047  1
  Se  Se6  1  0.751474  0.871402  0.030985  1
  Se  Se7  1  0.128598  0.248526  0.469015  1
  Se  Se8  1  0.871402  0.751474  0.530985  1
  Se  Se9  1  0.248526  0.128598  0.969015  1
  Rb  Rb10  1  0.941565  0.591859  0.820450  1
  Rb  Rb11  1  0.408141  0.058435  0.679550  1
  Rb  Rb12  1  0.058435  0.408141  0.179550  1
  Rb  Rb13  1  0.591859  0.941565  0.320450  1
  Sn  Sn14  1  0.448490  0.745353  0.056182  1
  Sn  Sn15  1  0.254647  0.551510  0.443818  1
  Sn  Sn16  1  0.551510  0.254647  0.943818  1
  Sn  Sn17  1  0.745353  0.448490  0.556182  1
