# generated using pymatgen
data_Pr2Ge5Rh3
_symmetry_space_group_name_H-M   'P 1'
_cell_length_a   8.50885614
_cell_length_b   8.50885614
_cell_length_c   8.50885614
_cell_angle_alpha   106.39584206
_cell_angle_beta   88.51664109
_cell_angle_gamma   138.04025539
_symmetry_Int_Tables_number   1
_chemical_formula_structural   Pr2Ge5Rh3
_chemical_formula_sum   'Pr4 Ge10 Rh6'
_cell_volume   378.53384701
_cell_formula_units_Z   2
loop_
 _symmetry_equiv_pos_site_id
 _symmetry_equiv_pos_as_xyz
  1  'x, y, z'
loop_
 _atom_site_type_symbol
 _atom_site_label
 _atom_site_symmetry_multiplicity
 _atom_site_fract_x
 _atom_site_fract_y
 _atom_site_fract_z
 _atom_site_occupancy
  Pr  Pr0  1  0.633307  0.231583  0.864890  1
  Pr  Pr1  1  0.366694  0.768417  0.135109  1
  Pr  Pr2  1  0.866694  0.731584  0.598276  1
  Pr  Pr3  1  0.133307  0.268416  0.401723  1
  Ge  Ge4  1  0.749999  0.249999  0.500000  1
  Ge  Ge5  1  0.249999  0.749999  0.500000  1
  Ge  Ge6  1  0.971757  0.750000  0.221757  1
  Ge  Ge7  1  0.528241  0.749999  0.778242  1
  Ge  Ge8  1  0.028243  0.250001  0.778242  1
  Ge  Ge9  1  0.471756  0.249999  0.221757  1
  Ge  Ge10  1  0.900611  0.161022  0.061631  1
  Ge  Ge11  1  0.099391  0.838979  0.938370  1
  Ge  Ge12  1  0.599392  0.661022  0.260412  1
  Ge  Ge13  1  0.400610  0.338979  0.739589  1
  Rh  Rh14  1  0.859222  0.394804  0.254024  1
  Rh  Rh15  1  0.140779  0.605197  0.745976  1
  Rh  Rh16  1  0.640780  0.894805  0.535583  1
  Rh  Rh17  1  0.359221  0.105197  0.464418  1
  Rh  Rh18  1  0.750000  0.750000  -0.000000  1
  Rh  Rh19  1  0.249999  0.249999  0.000000  1
