# generated using pymatgen
data_Ce2USe5
_symmetry_space_group_name_H-M   'P 1'
_cell_length_a   12.43320710
_cell_length_b   8.46952252
_cell_length_c   7.84256762
_cell_angle_alpha   90.00000000
_cell_angle_beta   90.00000000
_cell_angle_gamma   90.00000000
_symmetry_Int_Tables_number   1
_chemical_formula_structural   Ce2USe5
_chemical_formula_sum   'Ce8 U4 Se20'
_cell_volume   825.84846676
_cell_formula_units_Z   4
loop_
 _symmetry_equiv_pos_site_id
 _symmetry_equiv_pos_as_xyz
  1  'x, y, z'
loop_
 _atom_site_type_symbol
 _atom_site_label
 _atom_site_symmetry_multiplicity
 _atom_site_fract_x
 _atom_site_fract_y
 _atom_site_fract_z
 _atom_site_occupancy
  Ce  Ce0  1  0.321856  0.000175  0.471363  1
  Ce  Ce1  1  0.178143  -0.000175  0.971364  1
  Ce  Ce2  1  0.821856  0.499826  0.028637  1
  Ce  Ce3  1  0.678143  0.500175  0.528637  1
  Ce  Ce4  1  0.678143  -0.000175  0.528637  1
  Ce  Ce5  1  0.821856  0.000175  0.028637  1
  Ce  Ce6  1  0.178143  0.500175  0.971364  1
  Ce  Ce7  1  0.321856  0.499826  0.471363  1
  U  U8  1  0.492454  0.249999  0.928182  1
  U  U9  1  0.007546  0.749999  0.428183  1
  U  U10  1  0.992453  0.249999  0.571818  1
  U  U11  1  0.507547  0.749999  0.071817  1
  Se  Se12  1  0.715982  0.249999  0.807433  1
  Se  Se13  1  0.784017  0.749999  0.307435  1
  Se  Se14  1  0.215982  0.249999  0.692566  1
  Se  Se15  1  0.284017  0.749999  0.192567  1
  Se  Se16  1  0.499133  0.249999  0.543404  1
  Se  Se17  1  0.000866  0.749999  0.043404  1
  Se  Se18  1  0.999133  0.249999  0.956596  1
  Se  Se19  1  0.500867  0.749999  0.456597  1
  Se  Se20  1  0.312464  0.249999  0.166971  1
  Se  Se21  1  0.187535  0.749999  0.666970  1
  Se  Se22  1  0.812464  0.249999  0.333029  1
  Se  Se23  1  0.687536  0.749999  0.833030  1
  Se  Se24  1  0.594623  0.456641  0.168830  1
  Se  Se25  1  0.905377  0.543359  0.668830  1
  Se  Se26  1  0.094623  0.043359  0.331171  1
  Se  Se27  1  0.405377  0.956641  0.831171  1
  Se  Se28  1  0.405377  0.543359  0.831171  1
  Se  Se29  1  0.094623  0.456641  0.331171  1
  Se  Se30  1  0.905377  0.956641  0.668830  1
  Se  Se31  1  0.594623  0.043359  0.168830  1
