# generated using pymatgen
data_CsScBr3
_symmetry_space_group_name_H-M   'P 1'
_cell_length_a   5.51935186
_cell_length_b   5.52396854
_cell_length_c   5.52290281
_cell_angle_alpha   90.01028793
_cell_angle_beta   90.02789052
_cell_angle_gamma   89.98919473
_symmetry_Int_Tables_number   1
_chemical_formula_structural   CsScBr3
_chemical_formula_sum   'Cs1 Sc1 Br3'
_cell_volume   168.38624487
_cell_formula_units_Z   1
loop_
 _symmetry_equiv_pos_site_id
 _symmetry_equiv_pos_as_xyz
  1  'x, y, z'
loop_
 _atom_site_type_symbol
 _atom_site_label
 _atom_site_symmetry_multiplicity
 _atom_site_fract_x
 _atom_site_fract_y
 _atom_site_fract_z
 _atom_site_occupancy
  Cs  Cs0  1  0.999596  0.005747  0.999405  1
  Sc  Sc1  1  0.500473  0.514574  0.503461  1
  Br  Br2  1  0.000423  0.513233  0.504350  1
  Br  Br3  1  0.498021  0.014304  0.499318  1
  Br  Br4  1  0.501487  0.512140  0.003470  1
