# generated using pymatgen
data_Al2SiO5
_symmetry_space_group_name_H-M   'P 1'
_cell_length_a   4.71805823
_cell_length_b   5.30209281
_cell_length_c   6.69984934
_cell_angle_alpha   109.65503271
_cell_angle_beta   90.00000000
_cell_angle_gamma   116.41848580
_symmetry_Int_Tables_number   1
_chemical_formula_structural   Al2SiO5
_chemical_formula_sum   'Al4 Si2 O10'
_cell_volume   139.10923032
_cell_formula_units_Z   2
loop_
 _symmetry_equiv_pos_site_id
 _symmetry_equiv_pos_as_xyz
  1  'x, y, z'
loop_
 _atom_site_type_symbol
 _atom_site_label
 _atom_site_symmetry_multiplicity
 _atom_site_fract_x
 _atom_site_fract_y
 _atom_site_fract_z
 _atom_site_occupancy
  O  O0  1  0.311476  0.500000  0.750000  1
  O  O1  1  0.688524  0.500000  0.250000  1
  O  O2  1  0.906948  0.662608  0.952222  1
  O  O3  1  0.744341  0.337392  0.547778  1
  O  O4  1  0.093052  0.337392  0.047778  1
  O  O5  1  0.255659  0.662608  0.452222  1
  O  O6  1  0.537652  0.860818  0.145988  1
  O  O7  1  0.176834  0.139182  0.354012  1
  O  O8  1  0.462348  0.139182  0.854012  1
  O  O9  1  0.823166  0.860818  0.645988  1
  Al  Al10  1  0.877094  0.233431  0.272946  1
  Al  Al11  1  0.143663  0.766569  0.227054  1
  Al  Al12  1  0.856337  0.233431  0.772946  1
  Al  Al13  1  0.122906  0.766569  0.727054  1
  Si  Si14  1  0.500000  0.500000  0.500000  1
  Si  Si15  1  0.500000  0.500000  0.000000  1
