# generated using pymatgen
data_LuSi3
_symmetry_space_group_name_H-M   'P 1'
_cell_length_a   4.08554096
_cell_length_b   4.08550231
_cell_length_c   4.08544798
_cell_angle_alpha   90.00048973
_cell_angle_beta   90.00015819
_cell_angle_gamma   90.00055017
_symmetry_Int_Tables_number   1
_chemical_formula_structural   LuSi3
_chemical_formula_sum   'Lu1 Si3'
_cell_volume   68.19220197
_cell_formula_units_Z   1
loop_
 _symmetry_equiv_pos_site_id
 _symmetry_equiv_pos_as_xyz
  1  'x, y, z'
loop_
 _atom_site_type_symbol
 _atom_site_label
 _atom_site_symmetry_multiplicity
 _atom_site_fract_x
 _atom_site_fract_y
 _atom_site_fract_z
 _atom_site_occupancy
  Lu  Lu0  1  0.999992  0.000004  1.000000  1
  Si  Si1  1  0.000003  0.500000  0.500000  1
  Si  Si2  1  0.500004  0.999998  0.499999  1
  Si  Si3  1  0.500004  0.500000  0.000003  1
