# generated using pymatgen
data_K3AlO3
_symmetry_space_group_name_H-M   'P 1'
_cell_length_a   6.56091157
_cell_length_b   6.61418264
_cell_length_c   6.61418264
_cell_angle_alpha   115.74945096
_cell_angle_beta   96.63471724
_cell_angle_gamma   96.63471719
_symmetry_Int_Tables_number   1
_chemical_formula_structural   K3AlO3
_chemical_formula_sum   'K6 Al2 O6'
_cell_volume   252.34642347
_cell_formula_units_Z   2
loop_
 _symmetry_equiv_pos_site_id
 _symmetry_equiv_pos_as_xyz
  1  'x, y, z'
loop_
 _atom_site_type_symbol
 _atom_site_label
 _atom_site_symmetry_multiplicity
 _atom_site_fract_x
 _atom_site_fract_y
 _atom_site_fract_z
 _atom_site_occupancy
  O  O0  1  0.737873  0.848804  0.588200  1
  O  O1  1  0.262127  0.411800  0.151196  1
  O  O2  1  0.262127  0.151196  0.411800  1
  O  O3  1  0.737873  0.588200  0.848804  1
  O  O4  1  0.142778  0.898282  0.898282  1
  O  O5  1  0.857222  0.101718  0.101718  1
  Al  Al6  1  0.853827  0.838719  0.838719  1
  Al  Al7  1  0.146173  0.161281  0.161281  1
  K  K8  1  0.648641  0.371720  0.371720  1
  K  K9  1  0.351359  0.628280  0.628280  1
  K  K10  1  0.500000  0.198620  0.801381  1
  K  K11  1  0.500000  0.801381  0.198620  1
  K  K12  1  0.000000  0.264400  0.735600  1
  K  K13  1  0.000000  0.735600  0.264400  1
