# generated using pymatgen
data_RbCr5Te8
_symmetry_space_group_name_H-M   'P 1'
_cell_length_a   4.04944076
_cell_length_b   9.66088478
_cell_length_c   10.44579602
_cell_angle_alpha   104.00546709
_cell_angle_beta   101.17644918
_cell_angle_gamma   90.00000000
_symmetry_Int_Tables_number   1
_chemical_formula_structural   RbCr5Te8
_chemical_formula_sum   'Rb1 Cr5 Te8'
_cell_volume   388.51135254
_cell_formula_units_Z   1
loop_
 _symmetry_equiv_pos_site_id
 _symmetry_equiv_pos_as_xyz
  1  'x, y, z'
loop_
 _atom_site_type_symbol
 _atom_site_label
 _atom_site_symmetry_multiplicity
 _atom_site_fract_x
 _atom_site_fract_y
 _atom_site_fract_z
 _atom_site_occupancy
  Rb  Rb0  1  0.500000  0.500000  -0.000000  1
  Cr  Cr1  1  0.000000  0.000000  0.000000  1
  Cr  Cr2  1  0.658924  0.985679  0.317849  1
  Cr  Cr3  1  0.704204  0.331208  0.408407  1
  Cr  Cr4  1  0.295796  0.668792  0.591593  1
  Cr  Cr5  1  0.341076  0.014320  0.682150  1
  Te  Te6  1  0.572679  0.160524  0.145357  1
  Te  Te7  1  0.088812  0.830916  0.177624  1
  Te  Te8  1  0.171353  0.491004  0.342705  1
  Te  Te9  1  0.239358  0.157333  0.478717  1
  Te  Te10  1  0.760643  0.842667  0.521284  1
  Te  Te11  1  0.828647  0.508995  0.657295  1
  Te  Te12  1  0.911188  0.169084  0.822376  1
  Te  Te13  1  0.427321  0.839475  0.854643  1
