# generated using pymatgen
data_Mo9HS18
_symmetry_space_group_name_H-M   'P 1'
_cell_length_a   3.16808934
_cell_length_b   13.20517870
_cell_length_c   43.29767905
_cell_angle_alpha   90.00000000
_cell_angle_beta   89.99989605
_cell_angle_gamma   90.00000000
_symmetry_Int_Tables_number   1
_chemical_formula_structural   Mo9HS18
_chemical_formula_sum   'Mo18 H2 S36'
_cell_volume   1811.36645089
_cell_formula_units_Z   2
loop_
 _symmetry_equiv_pos_site_id
 _symmetry_equiv_pos_as_xyz
  1  'x, y, z'
loop_
 _atom_site_type_symbol
 _atom_site_label
 _atom_site_symmetry_multiplicity
 _atom_site_fract_x
 _atom_site_fract_y
 _atom_site_fract_z
 _atom_site_occupancy
  Mo  Mo0  1  0.000025  0.129000  0.298291  1
  Mo  Mo1  1  0.000074  0.629000  0.127785  1
  Mo  Mo2  1  0.500078  0.629000  0.191648  1
  Mo  Mo3  1  0.000035  0.129000  0.170055  1
  Mo  Mo4  1  0.000068  0.629000  0.255514  1
  Mo  Mo5  1  0.500062  0.629000  0.063971  1
  Mo  Mo6  1  0.000061  0.629000  0.383281  1
  Mo  Mo7  1  0.000040  0.129000  0.042018  1
  Mo  Mo8  1  0.000028  0.129000  0.426337  1
  Mo  Mo9  1  0.500028  0.129000  0.362279  1
  Mo  Mo10  1  0.500056  0.629000  0.447395  1
  Mo  Mo11  1  0.500028  0.129000  0.234161  1
  Mo  Mo12  1  0.000057  0.629000  0.507754  1
  Mo  Mo13  1  0.500043  0.129000  0.106061  1
  Mo  Mo14  1  0.500069  0.629000  0.319394  1
  Mo  Mo15  1  0.000064  0.629000  0.999928  1
  Mo  Mo16  1  0.500050  0.129000  0.981222  1
  Mo  Mo17  1  0.500020  0.129000  0.487725  1
  H  H18  1  0.000016  0.225751  0.543283  1
  H  H19  1  0.000016  0.032249  0.543283  1
  S  S20  1  0.500066  0.514500  0.977628  1
  S  S21  1  0.500024  0.247560  0.319730  1
  S  S22  1  0.000056  0.747164  0.425877  1
  S  S23  1  0.000045  0.247583  0.127419  1
  S  S24  1  0.500037  0.247355  0.063465  1
  S  S25  1  0.500074  0.510246  0.106385  1
  S  S26  1  0.500024  0.010440  0.319730  1
  S  S27  1  0.000017  0.249265  0.512647  1
  S  S28  1  0.000045  0.010417  0.127419  1
  S  S29  1  0.000084  0.747653  0.170256  1
  S  S30  1  0.500027  0.250776  0.447172  1
  S  S31  1  0.500074  0.747754  0.106385  1
  S  S32  1  0.500066  0.743500  0.977628  1
  S  S33  1  0.500063  0.510397  0.361920  1
  S  S34  1  0.000056  0.510836  0.425877  1
  S  S35  1  0.500071  0.747655  0.234124  1
  S  S36  1  0.000017  0.008735  0.512647  1
  S  S37  1  0.500061  0.507594  0.490645  1
  S  S38  1  0.000026  0.247500  0.255622  1
  S  S39  1  0.500034  0.247536  0.191480  1
  S  S40  1  0.000028  0.247406  0.383673  1
  S  S41  1  0.000048  0.008244  0.998817  1
  S  S42  1  0.500061  0.750406  0.490645  1
  S  S43  1  0.500071  0.510345  0.234124  1
  S  S44  1  0.500063  0.747603  0.361920  1
  S  S45  1  0.000061  0.510486  0.042405  1
  S  S46  1  0.000084  0.510347  0.170256  1
  S  S47  1  0.000026  0.010500  0.255622  1
  S  S48  1  0.500037  0.010645  0.063465  1
  S  S49  1  0.000071  0.747642  0.298014  1
  S  S50  1  0.500034  0.010464  0.191480  1
  S  S51  1  0.000071  0.510358  0.298014  1
  S  S52  1  0.000028  0.010594  0.383673  1
  S  S53  1  0.500027  0.007224  0.447172  1
  S  S54  1  0.000048  0.249756  0.998817  1
  S  S55  1  0.000061  0.747514  0.042405  1
