# generated using pymatgen
data_LiVP2(HO4)2
_symmetry_space_group_name_H-M   'P 1'
_cell_length_a   8.06559658
_cell_length_b   18.48833315
_cell_length_c   8.06856041
_cell_angle_alpha   102.86409700
_cell_angle_beta   59.99463441
_cell_angle_gamma   102.75639565
_symmetry_Int_Tables_number   1
_chemical_formula_structural   LiVP2(HO4)2
_chemical_formula_sum   'Li6 V6 P12 H12 O48'
_cell_volume   1007.20065760
_cell_formula_units_Z   6
loop_
 _symmetry_equiv_pos_site_id
 _symmetry_equiv_pos_as_xyz
  1  'x, y, z'
loop_
 _atom_site_type_symbol
 _atom_site_label
 _atom_site_symmetry_multiplicity
 _atom_site_fract_x
 _atom_site_fract_y
 _atom_site_fract_z
 _atom_site_occupancy
  Li  Li0  1  0.246361  0.750058  0.251528  1
  Li  Li1  1  0.190146  0.575326  0.191559  1
  Li  Li2  1  0.692797  0.075333  0.690262  1
  Li  Li3  1  0.307203  0.924659  0.309763  1
  Li  Li4  1  0.809874  0.424703  0.808474  1
  Li  Li5  1  0.753644  0.249975  0.748522  1
  V  V6  1  0.999858  0.000057  0.000118  1
  V  V7  1  0.086708  0.259195  0.085998  1
  V  V8  1  0.413841  0.240700  0.413484  1
  V  V9  1  0.499954  0.500056  0.499941  1
  V  V10  1  0.586042  0.759167  0.586425  1
  V  V11  1  0.913385  0.740851  0.913949  1
  P  P12  1  0.257964  0.862082  0.686074  1
  P  P13  1  0.241166  0.636920  0.582180  1
  P  P14  1  0.313565  0.137361  0.081306  1
  P  P15  1  0.418505  0.362341  0.186392  1
  P  P16  1  0.082301  0.137373  0.741173  1
  P  P17  1  0.186187  0.362291  0.758573  1
  P  P18  1  0.813809  0.637683  0.241429  1
  P  P19  1  0.917614  0.862656  0.258858  1
  P  P20  1  0.581419  0.637647  0.813624  1
  P  P21  1  0.686437  0.862629  0.918662  1
  P  P22  1  0.758782  0.363067  0.417840  1
  P  P23  1  0.742072  0.137926  0.313931  1
  H  H24  1  0.093926  0.637326  0.976454  1
  H  H25  1  0.976378  0.636050  0.566054  1
  H  H26  1  0.066494  0.136381  0.476069  1
  H  H27  1  0.522930  0.862537  0.406399  1
  H  H28  1  0.566074  0.636793  0.093033  1
  H  H29  1  0.406794  0.863669  0.934336  1
  H  H30  1  0.593201  0.136321  0.065646  1
  H  H31  1  0.477129  0.137446  0.593598  1
  H  H32  1  0.433974  0.363215  0.907000  1
  H  H33  1  0.933471  0.863608  0.523942  1
  H  H34  1  0.023597  0.363956  0.434001  1
  H  H35  1  0.906080  0.362683  0.023544  1
  O  O36  1  0.025034  0.805519  0.085321  1
  O  O37  1  0.031077  0.874495  0.386689  1
  O  O38  1  0.043462  0.626525  0.113927  1
  O  O39  1  0.084450  0.805074  0.695578  1
  O  O40  1  0.113789  0.625033  0.468344  1
  O  O41  1  0.457446  0.874471  0.032241  1
  O  O42  1  0.210122  0.938981  0.796285  1
  O  O43  1  0.205700  0.332805  0.240504  1
  O  O44  1  0.112356  0.667777  0.794841  1
  O  O45  1  0.385276  0.873224  0.456694  1
  O  O46  1  0.467928  0.626176  0.042675  1
  O  O47  1  0.202080  0.060556  0.070359  1
  O  O48  1  0.286893  0.561046  0.572103  1
  O  O49  1  0.415387  0.693859  0.474678  1
  O  O50  1  0.696700  0.806115  0.025349  1
  O  O51  1  0.259838  0.167413  0.294365  1
  O  O52  1  0.387190  0.832985  0.740564  1
  O  O53  1  0.195193  0.305063  0.584870  1
  O  O54  1  0.430897  0.439328  0.297442  1
  O  O55  1  0.071544  0.061385  0.787275  1
  O  O56  1  0.296180  0.438792  0.711028  1
  O  O57  1  0.525390  0.305597  0.196338  1
  O  O58  1  0.704633  0.832214  0.388079  1
  O  O59  1  0.759662  0.667130  0.112215  1
  O  O60  1  0.240318  0.332874  0.887786  1
  O  O61  1  0.295404  0.167760  0.611856  1
  O  O62  1  0.474621  0.694372  0.803665  1
  O  O63  1  0.703871  0.561223  0.288933  1
  O  O64  1  0.928446  0.938589  0.212699  1
  O  O65  1  0.569133  0.560654  0.702543  1
  O  O66  1  0.804744  0.694914  0.415138  1
  O  O67  1  0.612752  0.166964  0.259426  1
  O  O68  1  0.740132  0.832563  0.705633  1
  O  O69  1  0.584649  0.306140  0.525351  1
  O  O70  1  0.303308  0.193865  0.974618  1
  O  O71  1  0.713049  0.438970  0.427919  1
  O  O72  1  0.797942  0.939450  0.929624  1
  O  O73  1  0.532134  0.373829  0.957361  1
  O  O74  1  0.614747  0.126764  0.543267  1
  O  O75  1  0.887713  0.332210  0.205125  1
  O  O76  1  0.794326  0.667208  0.759496  1
  O  O77  1  0.789812  0.061024  0.203806  1
  O  O78  1  0.886185  0.374976  0.531710  1
  O  O79  1  0.542549  0.125531  0.967767  1
  O  O80  1  0.915551  0.194900  0.304413  1
  O  O81  1  0.968914  0.125484  0.613279  1
  O  O82  1  0.956518  0.373494  0.886089  1
  O  O83  1  0.974972  0.194439  0.914588  1
