# generated using pymatgen
data_CsV5S8
_symmetry_space_group_name_H-M   'P 1'
_cell_length_a   3.36554209
_cell_length_b   8.96788223
_cell_length_c   9.00081505
_cell_angle_alpha   103.21563875
_cell_angle_beta   100.77528464
_cell_angle_gamma   90.00000000
_symmetry_Int_Tables_number   1
_chemical_formula_structural   CsV5S8
_chemical_formula_sum   'Cs1 V5 S8'
_cell_volume   259.54348485
_cell_formula_units_Z   1
loop_
 _symmetry_equiv_pos_site_id
 _symmetry_equiv_pos_as_xyz
  1  'x, y, z'
loop_
 _atom_site_type_symbol
 _atom_site_label
 _atom_site_symmetry_multiplicity
 _atom_site_fract_x
 _atom_site_fract_y
 _atom_site_fract_z
 _atom_site_occupancy
  Cs  Cs0  1  0.500000  0.500000  0.000000  1
  V  V1  1  0.000000  0.000000  0.000000  1
  V  V2  1  0.648740  0.993973  0.297478  1
  V  V3  1  0.705509  0.331049  0.411018  1
  V  V4  1  0.294492  0.668951  0.588983  1
  V  V5  1  0.351261  0.006026  0.702521  1
  S  S6  1  0.572019  0.167676  0.144036  1
  S  S7  1  0.088978  0.830013  0.177955  1
  S  S8  1  0.170307  0.491769  0.340614  1
  S  S9  1  0.239478  0.150717  0.478954  1
  S  S10  1  0.760523  0.849283  0.521045  1
  S  S11  1  0.829694  0.508231  0.659386  1
  S  S12  1  0.911024  0.169987  0.822045  1
  S  S13  1  0.427982  0.832324  0.855963  1
