# generated using pymatgen
data_La(PO3)3
_symmetry_space_group_name_H-M   'P 1'
_cell_length_a   7.18969727
_cell_length_b   7.18969728
_cell_length_c   7.49946167
_cell_angle_alpha   90.00000000
_cell_angle_beta   90.00000000
_cell_angle_gamma   105.09570914
_symmetry_Int_Tables_number   1
_chemical_formula_structural   La(PO3)3
_chemical_formula_sum   'La2 P6 O18'
_cell_volume   374.28294708
_cell_formula_units_Z   2
loop_
 _symmetry_equiv_pos_site_id
 _symmetry_equiv_pos_as_xyz
  1  'x, y, z'
loop_
 _atom_site_type_symbol
 _atom_site_label
 _atom_site_symmetry_multiplicity
 _atom_site_fract_x
 _atom_site_fract_y
 _atom_site_fract_z
 _atom_site_occupancy
  O  O0  1  0.251823  0.469254  0.711643  1
  O  O1  1  0.748177  0.530746  0.211643  1
  O  O2  1  0.469254  0.251823  0.788357  1
  O  O3  1  0.530746  0.748177  0.288357  1
  O  O4  1  0.777135  0.521716  0.784162  1
  O  O5  1  0.222865  0.478284  0.284162  1
  O  O6  1  0.521716  0.777135  0.715838  1
  O  O7  1  0.478284  0.222865  0.215838  1
  O  O8  1  0.372946  0.627054  0.000000  1
  O  O9  1  0.627054  0.372946  0.500000  1
  O  O10  1  0.826816  0.861901  0.083752  1
  O  O11  1  0.173184  0.138099  0.583752  1
  O  O12  1  0.861901  0.826816  0.416248  1
  O  O13  1  0.138099  0.173184  0.916248  1
  O  O14  1  0.221501  0.828478  0.211369  1
  O  O15  1  0.778499  0.171522  0.711369  1
  O  O16  1  0.828478  0.221501  0.288631  1
  O  O17  1  0.171522  0.778499  0.788631  1
  P  P18  1  0.331400  0.681879  0.798397  1
  P  P19  1  0.668600  0.318122  0.298397  1
  P  P20  1  0.681879  0.331400  0.701603  1
  P  P21  1  0.318122  0.668600  0.201603  1
  P  P22  1  0.251515  0.251515  0.750000  1
  P  P23  1  0.748485  0.748485  0.250000  1
  La  La24  1  0.870519  0.870519  0.750000  1
  La  La25  1  0.129481  0.129481  0.250000  1
