# generated using pymatgen
data_TlAgF3
_symmetry_space_group_name_H-M   'P 1'
_cell_length_a   4.42680559
_cell_length_b   4.42861972
_cell_length_c   4.42941054
_cell_angle_alpha   89.89551586
_cell_angle_beta   89.16991917
_cell_angle_gamma   89.58828065
_symmetry_Int_Tables_number   1
_chemical_formula_structural   TlAgF3
_chemical_formula_sum   'Tl1 Ag1 F3'
_cell_volume   86.82550930
_cell_formula_units_Z   1
loop_
 _symmetry_equiv_pos_site_id
 _symmetry_equiv_pos_as_xyz
  1  'x, y, z'
loop_
 _atom_site_type_symbol
 _atom_site_label
 _atom_site_symmetry_multiplicity
 _atom_site_fract_x
 _atom_site_fract_y
 _atom_site_fract_z
 _atom_site_occupancy
  Tl  Tl0  1  0.004684  0.002451  0.005115  1
  Ag  Ag1  1  0.502722  0.500188  0.513269  1
  F  F2  1  0.504903  0.000144  0.515838  1
  F  F3  1  0.494923  0.495932  0.013649  1
  F  F4  1  0.002769  0.501284  0.512130  1
