# generated using pymatgen
data_Tl(IO3)3
_symmetry_space_group_name_H-M   'P 1'
_cell_length_a   7.60629904
_cell_length_b   7.59853896
_cell_length_c   7.60050417
_cell_angle_alpha   82.48126013
_cell_angle_beta   82.45871515
_cell_angle_gamma   82.51413333
_symmetry_Int_Tables_number   1
_chemical_formula_structural   Tl(IO3)3
_chemical_formula_sum   'Tl2 I6 O18'
_cell_volume   428.87205326
_cell_formula_units_Z   2
loop_
 _symmetry_equiv_pos_site_id
 _symmetry_equiv_pos_as_xyz
  1  'x, y, z'
loop_
 _atom_site_type_symbol
 _atom_site_label
 _atom_site_symmetry_multiplicity
 _atom_site_fract_x
 _atom_site_fract_y
 _atom_site_fract_z
 _atom_site_occupancy
  Tl  Tl0  1  0.824170  0.824463  0.824348  1
  Tl  Tl1  1  0.175829  0.175537  0.175652  1
  I  I2  1  0.283548  0.875043  0.579818  1
  I  I3  1  0.579544  0.283849  0.874598  1
  I  I4  1  0.874545  0.579186  0.283599  1
  I  I5  1  0.716452  0.124956  0.420182  1
  I  I6  1  0.420456  0.716152  0.125402  1
  I  I7  1  0.125455  0.420814  0.716402  1
  O  O8  1  0.217769  0.742798  0.417798  1
  O  O9  1  0.417578  0.217816  0.742655  1
  O  O10  1  0.742963  0.416980  0.217161  1
  O  O11  1  0.782231  0.257201  0.582202  1
  O  O12  1  0.582423  0.782184  0.257346  1
  O  O13  1  0.257038  0.583019  0.782840  1
  O  O14  1  0.313792  0.085611  0.428935  1
  O  O15  1  0.428900  0.313971  0.085205  1
  O  O16  1  0.085204  0.428966  0.313512  1
  O  O17  1  0.686208  0.914389  0.571065  1
  O  O18  1  0.571101  0.686029  0.914796  1
  O  O19  1  0.914796  0.571033  0.686488  1
  O  O20  1  0.067401  0.960244  0.696527  1
  O  O21  1  0.696242  0.067654  0.960009  1
  O  O22  1  0.959635  0.696617  0.067591  1
  O  O23  1  0.932599  0.039757  0.303472  1
  O  O24  1  0.303759  0.932345  0.039992  1
  O  O25  1  0.040366  0.303383  0.932408  1
