# generated using pymatgen
data_YWN3
_symmetry_space_group_name_H-M   'P 1'
_cell_length_a   3.65097000
_cell_length_b   8.01112958
_cell_length_c   5.76671000
_cell_angle_alpha   71.97012157
_cell_angle_beta   90.00000000
_cell_angle_gamma   90.00000000
_symmetry_Int_Tables_number   1
_chemical_formula_structural   YWN3
_chemical_formula_sum   'Y2 W2 N6'
_cell_volume   160.38465233
_cell_formula_units_Z   2
loop_
 _symmetry_equiv_pos_site_id
 _symmetry_equiv_pos_as_xyz
  1  'x, y, z'
loop_
 _atom_site_type_symbol
 _atom_site_label
 _atom_site_symmetry_multiplicity
 _atom_site_fract_x
 _atom_site_fract_y
 _atom_site_fract_z
 _atom_site_occupancy
  Y  Y0  1  0.250000  0.596860  0.704240  1
  Y  Y1  1  0.750000  0.403140  0.295760  1
  W  W2  1  0.250000  0.180580  0.885550  1
  W  W3  1  0.750000  0.819420  0.114450  1
  N  N4  1  0.750000  0.662300  0.938160  1
  N  N5  1  0.750000  0.654800  0.426900  1
  N  N6  1  0.250000  0.337700  0.061840  1
  N  N7  1  0.250000  0.345200  0.573100  1
  N  N8  1  0.250000  0.910420  0.129240  1
  N  N9  1  0.750000  0.089580  0.870760  1
