# generated using pymatgen
data_Ag2GeS3
_symmetry_space_group_name_H-M   'P 1'
_cell_length_a   6.54532950
_cell_length_b   6.95629561
_cell_length_c   6.95629561
_cell_angle_alpha   118.96569755
_cell_angle_beta   90.00000000
_cell_angle_gamma   90.00000000
_symmetry_Int_Tables_number   1
_chemical_formula_structural   Ag2GeS3
_chemical_formula_sum   'Ag4 Ge2 S6'
_cell_volume   277.10914257
_cell_formula_units_Z   2
loop_
 _symmetry_equiv_pos_site_id
 _symmetry_equiv_pos_as_xyz
  1  'x, y, z'
loop_
 _atom_site_type_symbol
 _atom_site_label
 _atom_site_symmetry_multiplicity
 _atom_site_fract_x
 _atom_site_fract_y
 _atom_site_fract_z
 _atom_site_occupancy
  S  S0  1  0.823628  0.642665  0.642665  1
  S  S1  1  0.323628  0.357335  0.357335  1
  S  S2  1  0.376836  0.651607  0.963532  1
  S  S3  1  0.376836  0.963532  0.651607  1
  S  S4  1  0.876836  0.036468  0.348393  1
  S  S5  1  0.876836  0.348393  0.036468  1
  Ge  Ge6  1  0.959468  0.339234  0.339234  1
  Ge  Ge7  1  0.459468  0.660766  0.660766  1
  Ag  Ag8  1  0.490117  0.309970  0.995920  1
  Ag  Ag9  1  0.990117  0.690030  0.004080  1
  Ag  Ag10  1  0.490117  0.995920  0.309970  1
  Ag  Ag11  1  0.990117  0.004080  0.690030  1
