# generated using pymatgen
data_Re2S2O13
_symmetry_space_group_name_H-M   'P 1'
_cell_length_a   9.78972668
_cell_length_b   8.46039500
_cell_length_c   6.05887055
_cell_angle_alpha   90.00000000
_cell_angle_beta   90.00000000
_cell_angle_gamma   90.00000000
_symmetry_Int_Tables_number   1
_chemical_formula_structural   Re2S2O13
_chemical_formula_sum   'Re4 S4 O26'
_cell_volume   501.82567856
_cell_formula_units_Z   2
loop_
 _symmetry_equiv_pos_site_id
 _symmetry_equiv_pos_as_xyz
  1  'x, y, z'
loop_
 _atom_site_type_symbol
 _atom_site_label
 _atom_site_symmetry_multiplicity
 _atom_site_fract_x
 _atom_site_fract_y
 _atom_site_fract_z
 _atom_site_occupancy
  Re  Re0  1  0.599494  0.185804  0.035737  1
  Re  Re1  1  0.400507  0.814197  0.035737  1
  Re  Re2  1  0.900505  0.685802  0.035737  1
  Re  Re3  1  0.099494  0.314196  0.035737  1
  S  S4  1  0.816253  0.372730  0.709672  1
  S  S5  1  0.183747  0.627271  0.709672  1
  S  S6  1  0.683747  0.872730  0.709672  1
  S  S7  1  0.316252  0.127270  0.709672  1
  O  O8  1  0.678723  0.350292  0.845228  1
  O  O9  1  0.321277  0.649708  0.845228  1
  O  O10  1  0.821278  0.850291  0.845228  1
  O  O11  1  0.178724  0.149708  0.845228  1
  O  O12  1  0.919217  0.272303  0.826755  1
  O  O13  1  0.080783  0.727696  0.826755  1
  O  O14  1  0.580783  0.772303  0.826755  1
  O  O15  1  0.419217  0.227696  0.826755  1
  O  O16  1  0.848727  0.544123  0.740678  1
  O  O17  1  0.151274  0.455878  0.740678  1
  O  O18  1  0.651273  0.044122  0.740678  1
  O  O19  1  0.348727  0.955878  0.740678  1
  O  O20  1  0.795363  0.333706  0.484020  1
  O  O21  1  0.204637  0.666293  0.484020  1
  O  O22  1  0.704636  0.833706  0.484020  1
  O  O23  1  0.295364  0.166292  0.484020  1
  O  O24  1  0.500001  0.000000  0.109758  1
  O  O25  1  0.000000  0.500000  0.109758  1
  O  O26  1  0.749110  0.123548  0.150578  1
  O  O27  1  0.250890  0.876451  0.150578  1
  O  O28  1  0.750890  0.623548  0.150578  1
  O  O29  1  0.249110  0.376452  0.150578  1
  O  O30  1  0.533754  0.313185  0.227353  1
  O  O31  1  0.466246  0.686815  0.227353  1
  O  O32  1  0.966246  0.813185  0.227353  1
  O  O33  1  0.033754  0.186815  0.227353  1
