# generated using pymatgen
data_Re2C
_symmetry_space_group_name_H-M   'P 1'
_cell_length_a   2.86611381
_cell_length_b   2.86593658
_cell_length_c   9.91511325
_cell_angle_alpha   89.99928025
_cell_angle_beta   89.99965539
_cell_angle_gamma   119.99991328
_symmetry_Int_Tables_number   1
_chemical_formula_structural   Re2C
_chemical_formula_sum   'Re4 C2'
_cell_volume   70.53240586
_cell_formula_units_Z   2
loop_
 _symmetry_equiv_pos_site_id
 _symmetry_equiv_pos_as_xyz
  1  'x, y, z'
loop_
 _atom_site_type_symbol
 _atom_site_label
 _atom_site_symmetry_multiplicity
 _atom_site_fract_x
 _atom_site_fract_y
 _atom_site_fract_z
 _atom_site_occupancy
  Re  Re0  1  0.333269  0.666674  0.608386  1
  Re  Re1  1  0.666636  0.333368  0.108386  1
  Re  Re2  1  0.666677  0.333324  0.391624  1
  Re  Re3  1  0.333325  0.666635  0.891606  1
  C  C4  1  0.333312  0.666633  0.249996  1
  C  C5  1  0.666673  0.333367  0.750002  1
