# generated using pymatgen
data_CaTlCl3
_symmetry_space_group_name_H-M   'P 1'
_cell_length_a   5.39768024
_cell_length_b   5.39974416
_cell_length_c   5.40040399
_cell_angle_alpha   90.02387729
_cell_angle_beta   90.04203700
_cell_angle_gamma   89.98479677
_symmetry_Int_Tables_number   1
_chemical_formula_structural   CaTlCl3
_chemical_formula_sum   'Ca1 Tl1 Cl3'
_cell_volume   157.40061192
_cell_formula_units_Z   1
loop_
 _symmetry_equiv_pos_site_id
 _symmetry_equiv_pos_as_xyz
  1  'x, y, z'
loop_
 _atom_site_type_symbol
 _atom_site_label
 _atom_site_symmetry_multiplicity
 _atom_site_fract_x
 _atom_site_fract_y
 _atom_site_fract_z
 _atom_site_occupancy
  Ca  Ca0  1  0.484648  0.498651  0.494583  1
  Tl  Tl1  1  0.002696  0.996131  0.992310  1
  Cl  Cl2  1  0.481743  0.999308  0.496687  1
  Cl  Cl3  1  0.984635  0.507663  0.510446  1
  Cl  Cl4  1  0.486279  0.498243  0.995972  1
