# generated using pymatgen
data_RbSm(CO3)2
_symmetry_space_group_name_H-M   'P 1'
_cell_length_a   6.57443378
_cell_length_b   6.57443378
_cell_length_c   7.32466763
_cell_angle_alpha   104.31546296
_cell_angle_beta   104.31546300
_cell_angle_gamma   94.84905854
_symmetry_Int_Tables_number   1
_chemical_formula_structural   RbSm(CO3)2
_chemical_formula_sum   'Rb2 Sm2 C4 O12'
_cell_volume   293.63997612
_cell_formula_units_Z   2
loop_
 _symmetry_equiv_pos_site_id
 _symmetry_equiv_pos_as_xyz
  1  'x, y, z'
loop_
 _atom_site_type_symbol
 _atom_site_label
 _atom_site_symmetry_multiplicity
 _atom_site_fract_x
 _atom_site_fract_y
 _atom_site_fract_z
 _atom_site_occupancy
  C  C0  1  0.148840  0.396158  0.251958  1
  C  C1  1  0.603842  0.851160  0.248042  1
  C  C2  1  0.851160  0.603842  0.748042  1
  C  C3  1  0.396158  0.148840  0.751958  1
  O  O4  1  0.398628  0.951357  0.737476  1
  O  O5  1  0.048643  0.601372  0.762524  1
  O  O6  1  0.601372  0.048643  0.262524  1
  O  O7  1  0.951357  0.398628  0.237476  1
  O  O8  1  0.265380  0.215504  0.623685  1
  O  O9  1  0.784496  0.734620  0.876315  1
  O  O10  1  0.734620  0.784496  0.376315  1
  O  O11  1  0.215504  0.265380  0.123685  1
  O  O12  1  0.531302  0.297392  0.897020  1
  O  O13  1  0.702608  0.468698  0.602980  1
  O  O14  1  0.468698  0.702608  0.102980  1
  O  O15  1  0.297392  0.531302  0.397020  1
  Rb  Rb16  1  0.885830  0.114170  0.750000  1
  Rb  Rb17  1  0.114170  0.885830  0.250000  1
  Sm  Sm18  1  0.404111  0.595889  0.750000  1
  Sm  Sm19  1  0.595889  0.404111  0.250000  1
