# generated using pymatgen
data_Er2S3
_symmetry_space_group_name_H-M   'P 1'
_cell_length_a   3.90827548
_cell_length_b   10.94221470
_cell_length_c   11.20508464
_cell_angle_alpha   108.78652981
_cell_angle_beta   90.00000000
_cell_angle_gamma   90.00000000
_symmetry_Int_Tables_number   1
_chemical_formula_structural   Er2S3
_chemical_formula_sum   'Er8 S12'
_cell_volume   453.65884865
_cell_formula_units_Z   4
loop_
 _symmetry_equiv_pos_site_id
 _symmetry_equiv_pos_as_xyz
  1  'x, y, z'
loop_
 _atom_site_type_symbol
 _atom_site_label
 _atom_site_symmetry_multiplicity
 _atom_site_fract_x
 _atom_site_fract_y
 _atom_site_fract_z
 _atom_site_occupancy
  S  S0  1  0.250000  0.389707  0.537132  1
  S  S1  1  0.750000  0.610293  0.462868  1
  S  S2  1  0.250000  0.690756  0.249489  1
  S  S3  1  0.750000  0.309244  0.750511  1
  S  S4  1  0.250000  0.022779  0.387042  1
  S  S5  1  0.750000  0.977221  0.612958  1
  S  S6  1  0.250000  0.581845  0.901595  1
  S  S7  1  0.750000  0.418155  0.098405  1
  S  S8  1  0.750000  0.246091  0.276952  1
  S  S9  1  0.250000  0.753909  0.723048  1
  S  S10  1  0.750000  0.898135  0.063597  1
  S  S11  1  0.250000  0.101865  0.936403  1
  Er  Er12  1  0.250000  0.339410  0.916370  1
  Er  Er13  1  0.750000  0.660590  0.083630  1
  Er  Er14  1  0.250000  0.456279  0.309868  1
  Er  Er15  1  0.750000  0.543721  0.690132  1
  Er  Er16  1  0.250000  0.817328  0.496923  1
  Er  Er17  1  0.750000  0.182672  0.503077  1
  Er  Er18  1  0.250000  0.067676  0.168431  1
  Er  Er19  1  0.750000  0.932324  0.831569  1
