# generated using pymatgen
data_SrCu(SeO3)2
_symmetry_space_group_name_H-M   'P 1'
_cell_length_a   4.84677315
_cell_length_b   4.84677314
_cell_length_c   15.09780129
_cell_angle_alpha   90.84481438
_cell_angle_beta   90.84481439
_cell_angle_gamma   65.27074180
_symmetry_Int_Tables_number   1
_chemical_formula_structural   SrCu(SeO3)2
_chemical_formula_sum   'Sr2 Cu2 Se4 O12'
_cell_volume   322.09151367
_cell_formula_units_Z   2
loop_
 _symmetry_equiv_pos_site_id
 _symmetry_equiv_pos_as_xyz
  1  'x, y, z'
loop_
 _atom_site_type_symbol
 _atom_site_label
 _atom_site_symmetry_multiplicity
 _atom_site_fract_x
 _atom_site_fract_y
 _atom_site_fract_z
 _atom_site_occupancy
  O  O0  1  0.750950  0.160448  0.394253  1
  O  O1  1  0.839552  0.249050  0.105747  1
  O  O2  1  0.249050  0.839552  0.605747  1
  O  O3  1  0.160448  0.750950  0.894253  1
  O  O4  1  0.318356  0.734630  0.418214  1
  O  O5  1  0.265370  0.681644  0.081786  1
  O  O6  1  0.681644  0.265370  0.581786  1
  O  O7  1  0.734630  0.318356  0.918214  1
  O  O8  1  0.364195  0.241812  0.799487  1
  O  O9  1  0.758188  0.635805  0.700513  1
  O  O10  1  0.635805  0.758188  0.200513  1
  O  O11  1  0.241812  0.364195  0.299487  1
  Cu  Cu12  1  0.000000  0.000000  0.500000  1
  Cu  Cu13  1  0.000000  0.000000  0.000000  1
  Se  Se14  1  0.356820  0.357263  0.406372  1
  Se  Se15  1  0.357263  0.356820  0.906372  1
  Se  Se16  1  0.642737  0.643180  0.093628  1
  Se  Se17  1  0.643180  0.642737  0.593628  1
  Sr  Sr18  1  0.059668  0.940332  0.250000  1
  Sr  Sr19  1  0.940332  0.059668  0.750000  1
