# generated using pymatgen
data_Li2La2Ti3O10
_symmetry_space_group_name_H-M   'P 1'
_cell_length_a   3.87688956
_cell_length_b   3.87688955
_cell_length_c   13.65683549
_cell_angle_alpha   98.16009394
_cell_angle_beta   98.16009390
_cell_angle_gamma   90.00000007
_symmetry_Int_Tables_number   1
_chemical_formula_structural   Li2La2Ti3O10
_chemical_formula_sum   'Li2 La2 Ti3 O10'
_cell_volume   201.08798306
_cell_formula_units_Z   1
loop_
 _symmetry_equiv_pos_site_id
 _symmetry_equiv_pos_as_xyz
  1  'x, y, z'
loop_
 _atom_site_type_symbol
 _atom_site_label
 _atom_site_symmetry_multiplicity
 _atom_site_fract_x
 _atom_site_fract_y
 _atom_site_fract_z
 _atom_site_occupancy
  Li  Li0  1  0.750000  0.250000  0.500000  1
  Li  Li1  1  0.250000  0.750000  0.500000  1
  O  O2  1  0.857476  0.357476  0.714953  1
  O  O3  1  0.775454  0.775454  0.550908  1
  O  O4  1  0.224546  0.224546  0.449092  1
  O  O5  1  0.000000  0.500000  0.000000  1
  O  O6  1  0.357476  0.857476  0.714953  1
  O  O7  1  0.500000  0.000000  0.000000  1
  O  O8  1  0.927367  0.927367  0.854735  1
  O  O9  1  0.072633  0.072633  0.145265  1
  O  O10  1  0.642524  0.142524  0.285047  1
  O  O11  1  0.142524  0.642524  0.285047  1
  Ti  Ti12  1  0.157717  0.157717  0.315434  1
  Ti  Ti13  1  0.842283  0.842283  0.684566  1
  Ti  Ti14  1  0.000000  0.000000  0.000000  1
  La  La15  1  0.418837  0.418837  0.837675  1
  La  La16  1  0.581163  0.581163  0.162325  1
