# generated using pymatgen
data_RbSrCl3
_symmetry_space_group_name_H-M   'P 1'
_cell_length_a   7.73848664
_cell_length_b   7.73848727
_cell_length_c   8.48719515
_cell_angle_alpha   62.87766734
_cell_angle_beta   62.87767055
_cell_angle_gamma   60.00000126
_symmetry_Int_Tables_number   1
_chemical_formula_structural   RbSrCl3
_chemical_formula_sum   'Rb2 Sr2 Cl6'
_cell_volume   374.23214989
_cell_formula_units_Z   2
loop_
 _symmetry_equiv_pos_site_id
 _symmetry_equiv_pos_as_xyz
  1  'x, y, z'
loop_
 _atom_site_type_symbol
 _atom_site_label
 _atom_site_symmetry_multiplicity
 _atom_site_fract_x
 _atom_site_fract_y
 _atom_site_fract_z
 _atom_site_occupancy
  Rb  Rb0  1  0.859508  0.859508  0.421476  1
  Rb  Rb1  1  0.140493  0.140492  0.578523  1
  Sr  Sr2  1  0.656418  0.656418  0.030746  1
  Sr  Sr3  1  0.343582  0.343582  0.969254  1
  Cl  Cl4  1  0.467916  0.703704  0.773819  1
  Cl  Cl5  1  0.054561  0.467916  0.773820  1
  Cl  Cl6  1  0.703704  0.054560  0.773820  1
  Cl  Cl7  1  0.532084  0.296298  0.226179  1
  Cl  Cl8  1  0.296297  0.945438  0.226181  1
  Cl  Cl9  1  0.945439  0.532084  0.226181  1
