# generated using pymatgen
data_KBeH3
_symmetry_space_group_name_H-M   'P 1'
_cell_length_a   6.86125831
_cell_length_b   5.49743762
_cell_length_c   9.04422070
_cell_angle_alpha   90.00005918
_cell_angle_beta   105.89146896
_cell_angle_gamma   89.99994757
_symmetry_Int_Tables_number   1
_chemical_formula_structural   KBeH3
_chemical_formula_sum   'K4 Be4 H12'
_cell_volume   328.10429622
_cell_formula_units_Z   4
loop_
 _symmetry_equiv_pos_site_id
 _symmetry_equiv_pos_as_xyz
  1  'x, y, z'
loop_
 _atom_site_type_symbol
 _atom_site_label
 _atom_site_symmetry_multiplicity
 _atom_site_fract_x
 _atom_site_fract_y
 _atom_site_fract_z
 _atom_site_occupancy
  K  K0  1  0.230925  0.751408  0.198214  1
  K  K1  1  0.769077  0.251410  0.301784  1
  K  K2  1  0.230922  0.748589  0.698216  1
  K  K3  1  0.769078  0.248589  0.801785  1
  Be  Be4  1  0.754110  0.744059  0.002970  1
  Be  Be5  1  0.245889  0.244055  0.497029  1
  Be  Be6  1  0.754113  0.755942  0.502971  1
  Be  Be7  1  0.245887  0.255940  0.997028  1
  H  H8  1  0.817223  0.972838  0.066471  1
  H  H9  1  0.838857  0.532921  0.080525  1
  H  H10  1  0.375667  0.274059  0.146141  1
  H  H11  1  0.624331  0.774057  0.353858  1
  H  H12  1  0.161144  0.032923  0.419475  1
  H  H13  1  0.182777  0.472840  0.433528  1
  H  H14  1  0.817223  0.527162  0.566471  1
  H  H15  1  0.838857  0.967079  0.580525  1
  H  H16  1  0.375667  0.225943  0.646141  1
  H  H17  1  0.624333  0.725944  0.853859  1
  H  H18  1  0.161143  0.467080  0.919474  1
  H  H19  1  0.182777  0.027164  0.933529  1
