# generated using pymatgen
data_PrVGe3
_symmetry_space_group_name_H-M   'P 1'
_cell_length_a   6.28670068
_cell_length_b   6.28678480
_cell_length_c   5.64824273
_cell_angle_alpha   90.00000000
_cell_angle_beta   90.00000000
_cell_angle_gamma   119.99955210
_symmetry_Int_Tables_number   1
_chemical_formula_structural   PrVGe3
_chemical_formula_sum   'Pr2 V2 Ge6'
_cell_volume   193.32914124
_cell_formula_units_Z   2
loop_
 _symmetry_equiv_pos_site_id
 _symmetry_equiv_pos_as_xyz
  1  'x, y, z'
loop_
 _atom_site_type_symbol
 _atom_site_label
 _atom_site_symmetry_multiplicity
 _atom_site_fract_x
 _atom_site_fract_y
 _atom_site_fract_z
 _atom_site_occupancy
  Pr  Pr0  1  0.666735  0.333470  0.249999  1
  Pr  Pr1  1  0.333264  0.666529  0.750000  1
  V  V2  1  0.000000  0.000000  0.000000  1
  V  V3  1  0.000000  0.000000  0.500000  1
  Ge  Ge4  1  0.194015  0.388030  0.249999  1
  Ge  Ge5  1  0.194016  0.805888  0.249999  1
  Ge  Ge6  1  0.611871  0.805888  0.249999  1
  Ge  Ge7  1  0.388129  0.194112  0.750000  1
  Ge  Ge8  1  0.805983  0.194112  0.750000  1
  Ge  Ge9  1  0.805986  0.611970  0.750000  1
