# generated using pymatgen
data_Si(H3C)2
_symmetry_space_group_name_H-M   'P 1'
_cell_length_a   9.03357119
_cell_length_b   9.24677099
_cell_length_c   9.71668426
_cell_angle_alpha   76.69316557
_cell_angle_beta   82.15680226
_cell_angle_gamma   65.91625363
_symmetry_Int_Tables_number   1
_chemical_formula_structural   Si(H3C)2
_chemical_formula_sum   'Si8 H48 C16'
_cell_volume   720.27225990
_cell_formula_units_Z   8
loop_
 _symmetry_equiv_pos_site_id
 _symmetry_equiv_pos_as_xyz
  1  'x, y, z'
loop_
 _atom_site_type_symbol
 _atom_site_label
 _atom_site_symmetry_multiplicity
 _atom_site_fract_x
 _atom_site_fract_y
 _atom_site_fract_z
 _atom_site_occupancy
  Si  Si0  1  0.828186  0.338791  0.332505  1
  Si  Si1  1  0.171844  0.661180  0.667512  1
  Si  Si2  1  0.014951  0.642632  0.070758  1
  Si  Si3  1  0.985017  0.357391  0.929243  1
  Si  Si4  1  0.035352  0.370645  0.161779  1
  Si  Si5  1  0.964633  0.629374  0.838223  1
  Si  Si6  1  0.297558  0.183002  0.239531  1
  Si  Si7  1  0.702454  0.817003  0.760444  1
  H  H8  1  0.443048  0.187653  0.997438  1
  H  H9  1  0.556935  0.812371  0.002533  1
  H  H10  1  0.260963  0.201323  0.500200  1
  H  H11  1  0.739033  0.798695  0.499777  1
  H  H12  1  0.429956  0.879976  0.304697  1
  H  H13  1  0.570037  0.120005  0.695294  1
  H  H14  1  0.468107  0.134459  0.442666  1
  H  H15  1  0.531884  0.865566  0.557339  1
  H  H16  1  0.340340  0.341153  0.399229  1
  H  H17  1  0.659650  0.658850  0.600748  1
  H  H18  1  0.218331  0.945091  0.342893  1
  H  H19  1  0.781678  0.054910  0.657101  1
  H  H20  1  0.296182  0.938954  0.166424  1
  H  H21  1  0.703818  0.061042  0.833581  1
  H  H22  1  0.938734  0.035633  0.362406  1
  H  H23  1  0.061263  0.964308  0.637599  1
  H  H24  1  0.795259  0.128000  0.229995  1
  H  H25  1  0.204738  0.871997  0.770020  1
  H  H26  1  0.728446  0.112093  0.410492  1
  H  H27  1  0.271555  0.887908  0.589508  1
  H  H28  1  0.582002  0.518293  0.185499  1
  H  H29  1  0.418063  0.481672  0.814504  1
  H  H30  1  0.613526  0.621417  0.303493  1
  H  H31  1  0.386547  0.378554  0.696522  1
  H  H32  1  0.526374  0.477001  0.367498  1
  H  H33  1  0.473675  0.522963  0.632516  1
  H  H34  1  0.580785  0.115470  0.134062  1
  H  H35  1  0.419238  0.884556  0.865893  1
  H  H36  1  0.465211  0.324991  0.085080  1
  H  H37  1  0.534760  0.675045  0.914908  1
  H  H38  1  0.892837  0.451717  0.519663  1
  H  H39  1  0.107180  0.548269  0.480335  1
  H  H40  1  0.982765  0.238236  0.555910  1
  H  H41  1  0.017256  0.761761  0.444131  1
  H  H42  1  0.725161  0.801659  0.151051  1
  H  H43  1  0.274790  0.198374  0.848958  1
  H  H44  1  0.837264  0.925711  0.100151  1
  H  H45  1  0.162722  0.074292  0.899838  1
  H  H46  1  0.864826  0.793394  0.266909  1
  H  H47  1  0.135147  0.206625  0.733095  1
  H  H48  1  0.248058  0.648932  0.184577  1
  H  H49  1  0.751910  0.351086  0.815434  1
  H  H50  1  0.772780  0.338873  0.592883  1
  H  H51  1  0.227233  0.661120  0.407119  1
  H  H52  1  0.190934  0.802819  0.031839  1
  H  H53  1  0.809015  0.197196  0.968166  1
  H  H54  1  0.309713  0.601170  0.014133  1
  H  H55  1  0.690249  0.398842  0.985871  1
  C  C56  1  0.311175  0.967795  0.265875  1
  C  C57  1  0.688832  0.032190  0.734115  1
  C  C58  1  0.873866  0.342138  0.516639  1
  C  C59  1  0.126166  0.657850  0.483380  1
  C  C60  1  0.208753  0.675986  0.076316  1
  C  C61  1  0.791217  0.324032  0.923692  1
  C  C62  1  0.844288  0.804964  0.155434  1
  C  C63  1  0.155688  0.195044  0.844566  1
  C  C64  1  0.345221  0.217895  0.411255  1
  C  C65  1  0.654795  0.782122  0.588738  1
  C  C66  1  0.460579  0.204977  0.101019  1
  C  C67  1  0.539400  0.795037  0.898976  1
  C  C68  1  0.619185  0.503359  0.292174  1
  C  C69  1  0.380871  0.496587  0.707844  1
  C  C70  1  0.822007  0.135275  0.334430  1
  C  C71  1  0.177987  0.864706  0.665567  1
