# generated using pymatgen
data_SnAu3
_symmetry_space_group_name_H-M   'P 1'
_cell_length_a   6.03842166
_cell_length_b   6.03842045
_cell_length_c   4.99927967
_cell_angle_alpha   90.00000000
_cell_angle_beta   90.00000000
_cell_angle_gamma   119.99999566
_symmetry_Int_Tables_number   1
_chemical_formula_structural   SnAu3
_chemical_formula_sum   'Sn2 Au6'
_cell_volume   157.86464208
_cell_formula_units_Z   2
loop_
 _symmetry_equiv_pos_site_id
 _symmetry_equiv_pos_as_xyz
  1  'x, y, z'
loop_
 _atom_site_type_symbol
 _atom_site_label
 _atom_site_symmetry_multiplicity
 _atom_site_fract_x
 _atom_site_fract_y
 _atom_site_fract_z
 _atom_site_occupancy
  Sn  Sn0  1  0.333333  0.666667  0.750001  1
  Sn  Sn1  1  0.666666  0.333332  0.249999  1
  Au  Au2  1  0.164117  0.328234  0.249999  1
  Au  Au3  1  0.671765  0.835882  0.249999  1
  Au  Au4  1  0.164118  0.835882  0.249999  1
  Au  Au5  1  0.835881  0.671765  0.750001  1
  Au  Au6  1  0.328233  0.164116  0.750001  1
  Au  Au7  1  0.835882  0.164116  0.750001  1
