# generated using pymatgen
data_CaTlCl3
_symmetry_space_group_name_H-M   'P 1'
_cell_length_a   4.12697562
_cell_length_b   7.23621141
_cell_length_c   10.34836494
_cell_angle_alpha   90.00000000
_cell_angle_beta   90.00000000
_cell_angle_gamma   106.50644403
_symmetry_Int_Tables_number   1
_chemical_formula_structural   CaTlCl3
_chemical_formula_sum   'Ca2 Tl2 Cl6'
_cell_volume   296.30390751
_cell_formula_units_Z   2
loop_
 _symmetry_equiv_pos_site_id
 _symmetry_equiv_pos_as_xyz
  1  'x, y, z'
loop_
 _atom_site_type_symbol
 _atom_site_label
 _atom_site_symmetry_multiplicity
 _atom_site_fract_x
 _atom_site_fract_y
 _atom_site_fract_z
 _atom_site_occupancy
  Ca  Ca0  1  0.999999  0.000001  0.250002  1
  Ca  Ca1  1  0.000001  0.999999  0.750002  1
  Tl  Tl2  1  0.258666  0.517596  0.000000  1
  Tl  Tl3  1  0.741333  0.482404  0.500000  1
  Cl  Cl4  1  0.371953  0.742594  0.300242  1
  Cl  Cl5  1  0.628048  0.257405  0.800241  1
  Cl  Cl6  1  0.371951  0.742586  0.699770  1
  Cl  Cl7  1  0.628047  0.257413  0.199770  1
  Cl  Cl8  1  0.930329  0.862205  0.000003  1
  Cl  Cl9  1  0.069670  0.137794  0.500003  1
