# generated using pymatgen
data_Cs6GaSb3
_symmetry_space_group_name_H-M   'P 1'
_cell_length_a   6.58832382
_cell_length_b   11.22801767
_cell_length_c   13.00268474
_cell_angle_alpha   101.34309071
_cell_angle_beta   90.00000000
_cell_angle_gamma   90.00000000
_symmetry_Int_Tables_number   1
_chemical_formula_structural   Cs6GaSb3
_chemical_formula_sum   'Cs12 Ga2 Sb6'
_cell_volume   943.07024994
_cell_formula_units_Z   2
loop_
 _symmetry_equiv_pos_site_id
 _symmetry_equiv_pos_as_xyz
  1  'x, y, z'
loop_
 _atom_site_type_symbol
 _atom_site_label
 _atom_site_symmetry_multiplicity
 _atom_site_fract_x
 _atom_site_fract_y
 _atom_site_fract_z
 _atom_site_occupancy
  Ga  Ga0  1  0.750000  0.322483  0.720600  1
  Ga  Ga1  1  0.250000  0.677517  0.279400  1
  Sb  Sb2  1  0.250000  0.784629  0.482828  1
  Sb  Sb3  1  0.750000  0.215371  0.517172  1
  Sb  Sb4  1  0.250000  0.436259  0.230809  1
  Sb  Sb5  1  0.750000  0.563741  0.769191  1
  Sb  Sb6  1  0.750000  0.189279  0.874697  1
  Sb  Sb7  1  0.250000  0.810721  0.125303  1
  Cs  Cs8  1  0.750000  0.540972  0.078418  1
  Cs  Cs9  1  0.250000  0.459028  0.921582  1
  Cs  Cs10  1  0.750000  0.256854  0.226462  1
  Cs  Cs11  1  0.250000  0.743146  0.773538  1
  Cs  Cs12  1  0.250000  0.439274  0.544627  1
  Cs  Cs13  1  0.750000  0.560726  0.455373  1
  Cs  Cs14  1  0.250000  0.137231  0.022448  1
  Cs  Cs15  1  0.750000  0.862769  0.977552  1
  Cs  Cs16  1  0.250000  0.127480  0.679032  1
  Cs  Cs17  1  0.750000  0.872520  0.320968  1
  Cs  Cs18  1  0.250000  0.084109  0.368563  1
  Cs  Cs19  1  0.750000  0.915891  0.631437  1
