# generated using pymatgen
data_H6PbCI3N
_symmetry_space_group_name_H-M   'P 1'
_cell_length_a   9.01262725
_cell_length_b   12.74075518
_cell_length_c   8.91951897
_cell_angle_alpha   90.00000000
_cell_angle_beta   90.00000000
_cell_angle_gamma   90.00000000
_symmetry_Int_Tables_number   1
_chemical_formula_structural   H6PbCI3N
_chemical_formula_sum   'H24 Pb4 C4 I12 N4'
_cell_volume   1024.20764614
_cell_formula_units_Z   4
loop_
 _symmetry_equiv_pos_site_id
 _symmetry_equiv_pos_as_xyz
  1  'x, y, z'
loop_
 _atom_site_type_symbol
 _atom_site_label
 _atom_site_symmetry_multiplicity
 _atom_site_fract_x
 _atom_site_fract_y
 _atom_site_fract_z
 _atom_site_occupancy
  H  H0  1  0.410677  0.320741  0.388408  1
  H  H1  1  0.589323  0.679259  0.611592  1
  H  H2  1  0.089323  0.679259  0.888408  1
  H  H3  1  0.910677  0.320741  0.111592  1
  H  H4  1  0.589323  0.820741  0.611592  1
  H  H5  1  0.410677  0.179259  0.388408  1
  H  H6  1  0.910677  0.179259  0.111592  1
  H  H7  1  0.089323  0.820741  0.888408  1
  H  H8  1  0.577773  0.315093  0.602561  1
  H  H9  1  0.422227  0.684907  0.397439  1
  H  H10  1  0.922227  0.684907  0.102561  1
  H  H11  1  0.077773  0.315093  0.897439  1
  H  H12  1  0.422227  0.815093  0.397439  1
  H  H13  1  0.577773  0.184907  0.602561  1
  H  H14  1  0.077773  0.184907  0.897439  1
  H  H15  1  0.922227  0.815093  0.102561  1
  H  H16  1  0.331775  0.250000  0.543180  1
  H  H17  1  0.668225  0.750000  0.456820  1
  H  H18  1  0.168225  0.750000  0.043180  1
  H  H19  1  0.831775  0.250000  0.956820  1
  H  H20  1  0.653692  0.250000  0.460150  1
  H  H21  1  0.346308  0.750000  0.539850  1
  H  H22  1  0.846308  0.750000  0.960150  1
  H  H23  1  0.153692  0.250000  0.039850  1
  Pb  Pb24  1  0.500000  0.000000  0.000000  1
  Pb  Pb25  1  0.000000  0.000000  0.500000  1
  Pb  Pb26  1  0.500000  0.500000  0.000000  1
  Pb  Pb27  1  0.000000  0.500000  0.500000  1
  C  C28  1  0.918718  0.250000  0.042431  1
  C  C29  1  0.081282  0.750000  0.957569  1
  C  C30  1  0.581282  0.750000  0.542431  1
  C  C31  1  0.418718  0.250000  0.457569  1
  I  I32  1  0.198644  0.018389  0.197198  1
  I  I33  1  0.801356  0.981611  0.802802  1
  I  I34  1  0.301356  0.981611  0.697198  1
  I  I35  1  0.698644  0.018389  0.302802  1
  I  I36  1  0.801356  0.518389  0.802802  1
  I  I37  1  0.198644  0.481611  0.197198  1
  I  I38  1  0.698644  0.481611  0.302802  1
  I  I39  1  0.301356  0.518389  0.697198  1
  I  I40  1  0.478144  0.250000  0.942067  1
  I  I41  1  0.521856  0.750000  0.057933  1
  I  I42  1  0.021856  0.750000  0.442067  1
  I  I43  1  0.978144  0.250000  0.557933  1
  N  N44  1  0.934074  0.750000  0.034877  1
  N  N45  1  0.065926  0.250000  0.965123  1
  N  N46  1  0.565926  0.250000  0.534877  1
  N  N47  1  0.434074  0.750000  0.465123  1
