# generated using pymatgen
data_MgNi
_symmetry_space_group_name_H-M   'P 1'
_cell_length_a   4.95211426
_cell_length_b   4.95211541
_cell_length_c   4.96025358
_cell_angle_alpha   119.33390368
_cell_angle_beta   60.66608754
_cell_angle_gamma   119.46087106
_symmetry_Int_Tables_number   1
_chemical_formula_structural   MgNi
_chemical_formula_sum   'Mg3 Ni3'
_cell_volume   87.22551960
_cell_formula_units_Z   3
loop_
 _symmetry_equiv_pos_site_id
 _symmetry_equiv_pos_as_xyz
  1  'x, y, z'
loop_
 _atom_site_type_symbol
 _atom_site_label
 _atom_site_symmetry_multiplicity
 _atom_site_fract_x
 _atom_site_fract_y
 _atom_site_fract_z
 _atom_site_occupancy
  Mg  Mg0  1  0.500679  0.834015  0.000002  1
  Mg  Mg1  1  0.880331  0.453023  0.380492  1
  Mg  Mg2  1  0.119689  0.213664  0.619509  1
  Ni  Ni3  1  0.498851  0.333207  0.000542  1
  Ni  Ni4  1  0.500575  0.833908  0.500000  1
  Ni  Ni5  1  0.999871  0.832184  0.999459  1
