# generated using pymatgen
data_Sm(Mo3S4)2
_symmetry_space_group_name_H-M   'P 1'
_cell_length_a   6.51521652
_cell_length_b   6.51521668
_cell_length_c   6.51521652
_cell_angle_alpha   91.01615302
_cell_angle_beta   91.01615581
_cell_angle_gamma   88.98384696
_symmetry_Int_Tables_number   1
_chemical_formula_structural   Sm(Mo3S4)2
_chemical_formula_sum   'Sm1 Mo6 S8'
_cell_volume   276.42926339
_cell_formula_units_Z   1
loop_
 _symmetry_equiv_pos_site_id
 _symmetry_equiv_pos_as_xyz
  1  'x, y, z'
loop_
 _atom_site_type_symbol
 _atom_site_label
 _atom_site_symmetry_multiplicity
 _atom_site_fract_x
 _atom_site_fract_y
 _atom_site_fract_z
 _atom_site_occupancy
  Sm  Sm0  1  0.000000  0.000000  0.000000  1
  Mo  Mo1  1  0.438154  0.580055  0.224093  1
  Mo  Mo2  1  0.775907  0.438153  0.419944  1
  Mo  Mo3  1  0.419944  0.224093  0.438154  1
  Mo  Mo4  1  0.580055  0.775907  0.561846  1
  Mo  Mo5  1  0.224093  0.561846  0.580055  1
  Mo  Mo6  1  0.561847  0.419945  0.775908  1
  S  S7  1  0.627663  0.247742  0.127222  1
  S  S8  1  0.758813  0.758812  0.241187  1
  S  S9  1  0.127222  0.372337  0.247742  1
  S  S10  1  0.247742  0.872778  0.372337  1
  S  S11  1  0.752258  0.127222  0.627663  1
  S  S12  1  0.872777  0.627663  0.752258  1
  S  S13  1  0.241188  0.241187  0.758812  1
  S  S14  1  0.372337  0.752258  0.872778  1
