# generated using pymatgen
data_Li4Fe3(CoO4)3
_symmetry_space_group_name_H-M   'P 1'
_cell_length_a   6.60989380
_cell_length_b   5.90282104
_cell_length_c   5.72661678
_cell_angle_alpha   91.01779180
_cell_angle_beta   102.72223683
_cell_angle_gamma   74.38081110
_symmetry_Int_Tables_number   1
_chemical_formula_structural   Li4Fe3(CoO4)3
_chemical_formula_sum   'Li4 Fe3 Co3 O12'
_cell_volume   209.69641253
_cell_formula_units_Z   1
loop_
 _symmetry_equiv_pos_site_id
 _symmetry_equiv_pos_as_xyz
  1  'x, y, z'
loop_
 _atom_site_type_symbol
 _atom_site_label
 _atom_site_symmetry_multiplicity
 _atom_site_fract_x
 _atom_site_fract_y
 _atom_site_fract_z
 _atom_site_occupancy
  Li  Li0  1  0.985687  0.014215  0.011852  1
  Li  Li1  1  0.680979  0.319118  0.654815  1
  Li  Li2  1  0.333333  0.666667  0.333333  1
  Li  Li3  1  0.333333  0.666667  0.833333  1
  Fe  Fe4  1  0.333333  0.166667  0.833333  1
  Fe  Fe5  1  0.997828  0.498288  0.497581  1
  Fe  Fe6  1  0.668839  0.835045  0.169086  1
  Co  Co7  1  0.333333  0.166667  0.333333  1
  Co  Co8  1  0.995626  0.499750  0.000378  1
  Co  Co9  1  0.671041  0.833583  0.666289  1
  O  O10  1  0.022598  0.276054  0.250736  1
  O  O11  1  0.005370  0.278080  0.752729  1
  O  O12  1  0.644069  0.057279  0.415930  1
  O  O13  1  0.303969  0.406506  0.086992  1
  O  O14  1  0.661297  0.055254  0.913938  1
  O  O15  1  0.315188  0.407413  0.573089  1
  O  O16  1  0.686771  0.607026  0.422988  1
  O  O17  1  0.351479  0.925920  0.093578  1
  O  O18  1  0.680225  0.614062  0.915142  1
  O  O19  1  0.362697  0.926827  0.579674  1
  O  O20  1  0.979896  0.726308  0.243678  1
  O  O21  1  0.986442  0.719272  0.751525  1
