# generated using pymatgen
data_LaCo5P3
_symmetry_space_group_name_H-M   'P 1'
_cell_length_a   3.63140338
_cell_length_b   6.01450561
_cell_length_c   11.43758050
_cell_angle_alpha   90.00000000
_cell_angle_beta   90.00000000
_cell_angle_gamma   107.57098238
_symmetry_Int_Tables_number   1
_chemical_formula_structural   LaCo5P3
_chemical_formula_sum   'La2 Co10 P6'
_cell_volume   238.15411172
_cell_formula_units_Z   2
loop_
 _symmetry_equiv_pos_site_id
 _symmetry_equiv_pos_as_xyz
  1  'x, y, z'
loop_
 _atom_site_type_symbol
 _atom_site_label
 _atom_site_symmetry_multiplicity
 _atom_site_fract_x
 _atom_site_fract_y
 _atom_site_fract_z
 _atom_site_occupancy
  P  P0  1  0.391239  0.782479  0.250000  1
  P  P1  1  0.608761  0.217521  0.750000  1
  P  P2  1  0.882876  0.765751  0.537570  1
  P  P3  1  0.117124  0.234249  0.462430  1
  P  P4  1  0.117124  0.234249  0.037570  1
  P  P5  1  0.882876  0.765751  0.962430  1
  Co  Co6  1  0.945719  0.891438  0.142338  1
  Co  Co7  1  0.945719  0.891438  0.357662  1
  Co  Co8  1  0.301990  0.603981  0.431930  1
  Co  Co9  1  0.698009  0.396019  0.568070  1
  Co  Co10  1  0.698009  0.396019  0.931930  1
  Co  Co11  1  0.301990  0.603981  0.068070  1
  Co  Co12  1  0.500000  0.000000  0.500000  1
  Co  Co13  1  0.500000  0.000000  0.000000  1
  Co  Co14  1  0.054281  0.108562  0.642338  1
  Co  Co15  1  0.054281  0.108562  0.857662  1
  La  La16  1  0.662155  0.324310  0.250000  1
  La  La17  1  0.337845  0.675690  0.750000  1
