# generated using pymatgen
data_KDy(CO3)2
_symmetry_space_group_name_H-M   'P 1'
_cell_length_a   6.42229722
_cell_length_b   6.42229723
_cell_length_c   7.06981122
_cell_angle_alpha   103.36569008
_cell_angle_beta   103.36569005
_cell_angle_gamma   97.16809937
_symmetry_Int_Tables_number   1
_chemical_formula_structural   KDy(CO3)2
_chemical_formula_sum   'K2 Dy2 C4 O12'
_cell_volume   271.08189896
_cell_formula_units_Z   2
loop_
 _symmetry_equiv_pos_site_id
 _symmetry_equiv_pos_as_xyz
  1  'x, y, z'
loop_
 _atom_site_type_symbol
 _atom_site_label
 _atom_site_symmetry_multiplicity
 _atom_site_fract_x
 _atom_site_fract_y
 _atom_site_fract_z
 _atom_site_occupancy
  C  C0  1  0.143874  0.396656  0.251209  1
  C  C1  1  0.603344  0.856126  0.248791  1
  C  C2  1  0.856126  0.603344  0.748791  1
  C  C3  1  0.396656  0.143874  0.751209  1
  O  O4  1  0.407908  0.943725  0.734066  1
  O  O5  1  0.056275  0.592092  0.765934  1
  O  O6  1  0.592092  0.056275  0.265934  1
  O  O7  1  0.943725  0.407908  0.234066  1
  O  O8  1  0.257445  0.207727  0.623014  1
  O  O9  1  0.792273  0.742555  0.876986  1
  O  O10  1  0.742555  0.792273  0.376986  1
  O  O11  1  0.207727  0.257445  0.123014  1
  O  O12  1  0.534089  0.300172  0.898890  1
  O  O13  1  0.699828  0.465911  0.601110  1
  O  O14  1  0.465911  0.699828  0.101110  1
  O  O15  1  0.300172  0.534089  0.398890  1
  K  K16  1  0.880609  0.119391  0.750000  1
  K  K17  1  0.119391  0.880609  0.250000  1
  Dy  Dy18  1  0.407576  0.592424  0.750000  1
  Dy  Dy19  1  0.592424  0.407576  0.250000  1
