# generated using pymatgen
data_K2Fe2(SO4)3
_symmetry_space_group_name_H-M   'P 1'
_cell_length_a   10.14497025
_cell_length_b   10.14497025
_cell_length_c   10.14497025
_cell_angle_alpha   90.00000000
_cell_angle_beta   90.00000000
_cell_angle_gamma   90.00000000
_symmetry_Int_Tables_number   1
_chemical_formula_structural   K2Fe2(SO4)3
_chemical_formula_sum   'K8 Fe8 S12 O48'
_cell_volume   1044.12461295
_cell_formula_units_Z   4
loop_
 _symmetry_equiv_pos_site_id
 _symmetry_equiv_pos_as_xyz
  1  'x, y, z'
loop_
 _atom_site_type_symbol
 _atom_site_label
 _atom_site_symmetry_multiplicity
 _atom_site_fract_x
 _atom_site_fract_y
 _atom_site_fract_z
 _atom_site_occupancy
  K  K0  1  0.684697  0.184697  0.315303  1
  K  K1  1  0.315303  0.684697  0.184697  1
  K  K2  1  0.949195  0.550805  0.449194  1
  K  K3  1  0.184697  0.315303  0.684697  1
  K  K4  1  0.050805  0.050805  0.050805  1
  K  K5  1  0.449194  0.949195  0.550805  1
  K  K6  1  0.550805  0.449194  0.949195  1
  K  K7  1  0.815304  0.815304  0.815304  1
  Fe  Fe8  1  0.335194  0.335194  0.335194  1
  Fe  Fe9  1  0.164806  0.664805  0.835194  1
  Fe  Fe10  1  0.835194  0.164806  0.664805  1
  Fe  Fe11  1  0.664805  0.835194  0.164806  1
  Fe  Fe12  1  0.593858  0.593858  0.593858  1
  Fe  Fe13  1  0.093858  0.906142  0.406142  1
  Fe  Fe14  1  0.406142  0.093858  0.906142  1
  Fe  Fe15  1  0.906142  0.406142  0.093858  1
  S  S16  1  0.280897  0.623395  0.518958  1
  S  S17  1  0.780897  0.876605  0.481042  1
  S  S18  1  0.719103  0.123395  0.981042  1
  S  S19  1  0.876605  0.481042  0.780897  1
  S  S20  1  0.981042  0.719103  0.123395  1
  S  S21  1  0.481042  0.780897  0.876605  1
  S  S22  1  0.623395  0.518958  0.280897  1
  S  S23  1  0.518958  0.280897  0.623395  1
  S  S24  1  0.123395  0.981042  0.719103  1
  S  S25  1  0.219104  0.376605  0.018958  1
  S  S26  1  0.018958  0.219104  0.376605  1
  S  S27  1  0.376605  0.018958  0.219104  1
  O  O28  1  0.252067  0.594472  0.659204  1
  O  O29  1  0.752067  0.905529  0.340796  1
  O  O30  1  0.747933  0.094472  0.840796  1
  O  O31  1  0.905529  0.340796  0.752067  1
  O  O32  1  0.840796  0.747933  0.094472  1
  O  O33  1  0.340796  0.752067  0.905529  1
  O  O34  1  0.594472  0.659204  0.252067  1
  O  O35  1  0.659204  0.252067  0.594472  1
  O  O36  1  0.094472  0.840796  0.747933  1
  O  O37  1  0.405528  0.159204  0.247933  1
  O  O38  1  0.159204  0.247933  0.405528  1
  O  O39  1  0.247933  0.405528  0.159204  1
  O  O40  1  0.259012  0.499830  0.442274  1
  O  O41  1  0.759012  0.000171  0.557726  1
  O  O42  1  0.740987  0.999830  0.057726  1
  O  O43  1  0.000171  0.557726  0.759012  1
  O  O44  1  0.057726  0.740987  0.999830  1
  O  O45  1  0.557726  0.759012  0.000171  1
  O  O46  1  0.996381  0.580399  0.171067  1
  O  O47  1  0.442274  0.259012  0.499830  1
  O  O48  1  0.999830  0.057726  0.740987  1
  O  O49  1  0.500171  0.942275  0.240988  1
  O  O50  1  0.942275  0.240988  0.500171  1
  O  O51  1  0.240988  0.500171  0.942275  1
  O  O52  1  0.419601  0.671068  0.503618  1
  O  O53  1  0.919601  0.828933  0.496381  1
  O  O54  1  0.580399  0.171067  0.996381  1
  O  O55  1  0.828933  0.496381  0.919601  1
  O  O56  1  0.309672  0.275759  0.963845  1
  O  O57  1  0.963845  0.309672  0.275759  1
  O  O58  1  0.275759  0.963845  0.309672  1
  O  O59  1  0.224240  0.036156  0.809672  1
  O  O60  1  0.463844  0.190327  0.724241  1
  O  O61  1  0.724241  0.463844  0.190327  1
  O  O62  1  0.536156  0.690328  0.775759  1
  O  O63  1  0.036156  0.809672  0.224240  1
  O  O64  1  0.775759  0.536156  0.690328  1
  O  O65  1  0.809672  0.224240  0.036156  1
  O  O66  1  0.690328  0.775759  0.536156  1
  O  O67  1  0.190327  0.724241  0.463844  1
  O  O68  1  0.080399  0.328933  0.003618  1
  O  O69  1  0.003618  0.080399  0.328933  1
  O  O70  1  0.328933  0.003618  0.080399  1
  O  O71  1  0.171067  0.996381  0.580399  1
  O  O72  1  0.503618  0.419601  0.671068  1
  O  O73  1  0.671068  0.503618  0.419601  1
  O  O74  1  0.496381  0.919601  0.828933  1
  O  O75  1  0.499830  0.442274  0.259012  1
