# generated using pymatgen
data_Be3Ru
_symmetry_space_group_name_H-M   'P 1'
_cell_length_a   4.79991958
_cell_length_b   4.79988032
_cell_length_c   3.75191797
_cell_angle_alpha   90.01605909
_cell_angle_beta   89.98580493
_cell_angle_gamma   119.99526769
_symmetry_Int_Tables_number   1
_chemical_formula_structural   Be3Ru
_chemical_formula_sum   'Be6 Ru2'
_cell_volume   74.86330985
_cell_formula_units_Z   2
loop_
 _symmetry_equiv_pos_site_id
 _symmetry_equiv_pos_as_xyz
  1  'x, y, z'
loop_
 _atom_site_type_symbol
 _atom_site_label
 _atom_site_symmetry_multiplicity
 _atom_site_fract_x
 _atom_site_fract_y
 _atom_site_fract_z
 _atom_site_occupancy
  Be  Be0  1  0.160701  0.321384  0.249985  1
  Be  Be1  1  0.678615  0.839297  0.249987  1
  Be  Be2  1  0.160690  0.839306  0.250028  1
  Be  Be3  1  0.839295  0.678608  0.750017  1
  Be  Be4  1  0.321391  0.160707  0.750013  1
  Be  Be5  1  0.839307  0.160697  0.749973  1
  Ru  Ru6  1  0.333344  0.666676  0.749998  1
  Ru  Ru7  1  0.666660  0.333325  0.250004  1
