# generated using pymatgen
data_Sm5Sb3
_symmetry_space_group_name_H-M   'P 1'
_cell_length_a   9.19213239
_cell_length_b   9.19221997
_cell_length_c   6.44016860
_cell_angle_alpha   90.00000000
_cell_angle_beta   90.00000000
_cell_angle_gamma   119.99155605
_symmetry_Int_Tables_number   1
_chemical_formula_structural   Sm5Sb3
_chemical_formula_sum   'Sm10 Sb6'
_cell_volume   471.30440029
_cell_formula_units_Z   2
loop_
 _symmetry_equiv_pos_site_id
 _symmetry_equiv_pos_as_xyz
  1  'x, y, z'
loop_
 _atom_site_type_symbol
 _atom_site_label
 _atom_site_symmetry_multiplicity
 _atom_site_fract_x
 _atom_site_fract_y
 _atom_site_fract_z
 _atom_site_occupancy
  Sm  Sm0  1  0.248520  0.999972  0.250000  1
  Sm  Sm1  1  0.751479  0.000027  0.750000  1
  Sm  Sm2  1  0.999966  0.248521  0.250000  1
  Sm  Sm3  1  0.751472  0.751469  0.250000  1
  Sm  Sm4  1  0.248528  0.248532  0.750000  1
  Sm  Sm5  1  0.000034  0.751479  0.750000  1
  Sm  Sm6  1  0.333331  0.666666  -0.000001  1
  Sm  Sm7  1  0.666670  0.333336  0.499999  1
  Sm  Sm8  1  0.666670  0.333336  0.000001  1
  Sm  Sm9  1  0.333331  0.666666  0.500001  1
  Sb  Sb10  1  0.612831  0.000008  0.250000  1
  Sb  Sb11  1  0.387169  0.999993  0.750000  1
  Sb  Sb12  1  0.000005  0.612827  0.250000  1
  Sb  Sb13  1  0.387175  0.387175  0.250000  1
  Sb  Sb14  1  0.612824  0.612826  0.750000  1
  Sb  Sb15  1  0.999995  0.387172  0.750000  1
