# generated using pymatgen
data_SrBeF4
_symmetry_space_group_name_H-M   'P 1'
_cell_length_a   5.47847835
_cell_length_b   6.89698773
_cell_length_c   8.26889243
_cell_angle_alpha   90.00000000
_cell_angle_beta   90.00000000
_cell_angle_gamma   91.66011807
_symmetry_Int_Tables_number   1
_chemical_formula_structural   SrBeF4
_chemical_formula_sum   'Sr4 Be4 F16'
_cell_volume   312.30894243
_cell_formula_units_Z   4
loop_
 _symmetry_equiv_pos_site_id
 _symmetry_equiv_pos_as_xyz
  1  'x, y, z'
loop_
 _atom_site_type_symbol
 _atom_site_label
 _atom_site_symmetry_multiplicity
 _atom_site_fract_x
 _atom_site_fract_y
 _atom_site_fract_z
 _atom_site_occupancy
  Be  Be0  1  0.255420  0.681782  0.043324  1
  Be  Be1  1  0.244580  0.818218  0.543324  1
  Be  Be2  1  0.744580  0.318218  0.956676  1
  Be  Be3  1  0.755420  0.181782  0.456676  1
  F  F4  1  0.959212  0.178806  0.915360  1
  F  F5  1  0.540788  0.321194  0.415360  1
  F  F6  1  0.040788  0.821194  0.084640  1
  F  F7  1  0.459212  0.678806  0.584640  1
  F  F8  1  0.687011  0.093667  0.623808  1
  F  F9  1  0.812989  0.406333  0.123808  1
  F  F10  1  0.312989  0.906333  0.376192  1
  F  F11  1  0.187011  0.593667  0.876192  1
  F  F12  1  0.708635  0.469896  0.819711  1
  F  F13  1  0.791365  0.030104  0.319711  1
  F  F14  1  0.291365  0.530104  0.180289  1
  F  F15  1  0.208635  0.969896  0.680289  1
  F  F16  1  0.492969  0.202522  0.963480  1
  F  F17  1  0.007031  0.297478  0.463480  1
  F  F18  1  0.507031  0.797478  0.036520  1
  F  F19  1  0.992969  0.702522  0.536520  1
  Sr  Sr20  1  0.307417  0.327774  0.693768  1
  Sr  Sr21  1  0.192583  0.172226  0.193768  1
  Sr  Sr22  1  0.692583  0.672226  0.306232  1
  Sr  Sr23  1  0.807417  0.827774  0.806232  1
