# generated using pymatgen
data_SrLi2(SiN2)2
_symmetry_space_group_name_H-M   'P 1'
_cell_length_a   10.78845932
_cell_length_b   10.78845932
_cell_length_c   10.78845932
_cell_angle_alpha   90.00000000
_cell_angle_beta   90.00000000
_cell_angle_gamma   90.00000000
_symmetry_Int_Tables_number   1
_chemical_formula_structural   SrLi2(SiN2)2
_chemical_formula_sum   'Sr12 Li24 Si24 N48'
_cell_volume   1255.67799899
_cell_formula_units_Z   12
loop_
 _symmetry_equiv_pos_site_id
 _symmetry_equiv_pos_as_xyz
  1  'x, y, z'
loop_
 _atom_site_type_symbol
 _atom_site_label
 _atom_site_symmetry_multiplicity
 _atom_site_fract_x
 _atom_site_fract_y
 _atom_site_fract_z
 _atom_site_occupancy
  Sr  Sr0  1  0.500000  0.000000  0.000000  1
  Sr  Sr1  1  0.000000  0.000000  0.500000  1
  Sr  Sr2  1  0.000000  0.500000  0.000000  1
  Sr  Sr3  1  0.500000  0.500000  0.500000  1
  Sr  Sr4  1  0.218386  0.218386  0.218386  1
  Sr  Sr5  1  0.281613  0.781614  0.718387  1
  Sr  Sr6  1  0.718387  0.281613  0.781614  1
  Sr  Sr7  1  0.781614  0.718387  0.281613  1
  Sr  Sr8  1  0.781614  0.781614  0.781614  1
  Sr  Sr9  1  0.718387  0.218386  0.281613  1
  Sr  Sr10  1  0.281613  0.718387  0.218386  1
  Sr  Sr11  1  0.218386  0.281613  0.718387  1
  Li  Li12  1  0.232675  0.973433  0.110783  1
  Li  Li13  1  0.267324  0.026566  0.610783  1
  Li  Li14  1  0.732676  0.526567  0.889217  1
  Li  Li15  1  0.767325  0.473434  0.389218  1
  Li  Li16  1  0.110783  0.232675  0.973433  1
  Li  Li17  1  0.973433  0.110783  0.232675  1
  Li  Li18  1  0.389218  0.767325  0.473434  1
  Li  Li19  1  0.026566  0.610783  0.267324  1
  Li  Li20  1  0.610783  0.267324  0.026566  1
  Li  Li21  1  0.526567  0.889217  0.732676  1
  Li  Li22  1  0.889217  0.732676  0.526567  1
  Li  Li23  1  0.473434  0.389218  0.767325  1
  Li  Li24  1  0.767325  0.026566  0.889217  1
  Li  Li25  1  0.732676  0.973433  0.389218  1
  Li  Li26  1  0.267324  0.473434  0.110783  1
  Li  Li27  1  0.232675  0.526567  0.610783  1
  Li  Li28  1  0.889217  0.767325  0.026566  1
  Li  Li29  1  0.026566  0.889217  0.767325  1
  Li  Li30  1  0.610783  0.232675  0.526567  1
  Li  Li31  1  0.973433  0.389218  0.732676  1
  Li  Li32  1  0.389218  0.732676  0.973433  1
  Li  Li33  1  0.473434  0.110783  0.267324  1
  Li  Li34  1  0.110783  0.267324  0.473434  1
  Li  Li35  1  0.526567  0.610783  0.232675  1
  Si  Si36  1  0.480145  0.371250  0.243704  1
  Si  Si37  1  0.019856  0.628749  0.743703  1
  Si  Si38  1  0.980145  0.128750  0.756297  1
  Si  Si39  1  0.519855  0.871250  0.256297  1
  Si  Si40  1  0.243704  0.480145  0.371250  1
  Si  Si41  1  0.371250  0.243704  0.480145  1
  Si  Si42  1  0.256297  0.519855  0.871250  1
  Si  Si43  1  0.628749  0.743703  0.019856  1
  Si  Si44  1  0.743703  0.019856  0.628749  1
  Si  Si45  1  0.128750  0.756297  0.980145  1
  Si  Si46  1  0.756297  0.980145  0.128750  1
  Si  Si47  1  0.871250  0.256297  0.519855  1
  Si  Si48  1  0.519855  0.628749  0.756297  1
  Si  Si49  1  0.980145  0.371250  0.256297  1
  Si  Si50  1  0.019856  0.871250  0.243704  1
  Si  Si51  1  0.480145  0.128750  0.743703  1
  Si  Si52  1  0.756297  0.519855  0.628749  1
  Si  Si53  1  0.628749  0.756297  0.519855  1
  Si  Si54  1  0.743703  0.480145  0.128750  1
  Si  Si55  1  0.371250  0.256297  0.980145  1
  Si  Si56  1  0.256297  0.980145  0.371250  1
  Si  Si57  1  0.871250  0.243704  0.019856  1
  Si  Si58  1  0.243704  0.019856  0.871250  1
  Si  Si59  1  0.128750  0.743703  0.480145  1
  N  N60  1  0.273143  0.124478  0.991911  1
  N  N61  1  0.226858  0.875522  0.491911  1
  N  N62  1  0.773143  0.375521  0.008089  1
  N  N63  1  0.726856  0.624477  0.508089  1
  N  N64  1  0.991911  0.273143  0.124478  1
  N  N65  1  0.124478  0.991911  0.273143  1
  N  N66  1  0.508089  0.726856  0.624477  1
  N  N67  1  0.875522  0.491911  0.226858  1
  N  N68  1  0.491911  0.226858  0.875522  1
  N  N69  1  0.375521  0.008089  0.773143  1
  N  N70  1  0.008089  0.773143  0.375521  1
  N  N71  1  0.624477  0.508089  0.726856  1
  N  N72  1  0.726856  0.875522  0.008089  1
  N  N73  1  0.773143  0.124478  0.508089  1
  N  N74  1  0.226858  0.624477  0.991911  1
  N  N75  1  0.273143  0.375521  0.491911  1
  N  N76  1  0.008089  0.726856  0.875522  1
  N  N77  1  0.875522  0.008089  0.726856  1
  N  N78  1  0.491911  0.273143  0.375521  1
  N  N79  1  0.124478  0.508089  0.773143  1
  N  N80  1  0.508089  0.773143  0.124478  1
  N  N81  1  0.624477  0.991911  0.226858  1
  N  N82  1  0.991911  0.226858  0.624477  1
  N  N83  1  0.375521  0.491911  0.273143  1
  N  N84  1  0.268044  0.125443  0.443236  1
  N  N85  1  0.231956  0.874557  0.943235  1
  N  N86  1  0.768044  0.374558  0.556765  1
  N  N87  1  0.731956  0.625443  0.056765  1
  N  N88  1  0.443236  0.268044  0.125443  1
  N  N89  1  0.125443  0.443236  0.268044  1
  N  N90  1  0.056765  0.731956  0.625443  1
  N  N91  1  0.874557  0.943235  0.231956  1
  N  N92  1  0.943235  0.231956  0.874557  1
  N  N93  1  0.374558  0.556765  0.768044  1
  N  N94  1  0.556765  0.768044  0.374558  1
  N  N95  1  0.625443  0.056765  0.731956  1
  N  N96  1  0.731956  0.874557  0.556765  1
  N  N97  1  0.768044  0.125443  0.056765  1
  N  N98  1  0.231956  0.625443  0.443236  1
  N  N99  1  0.268044  0.374558  0.943235  1
  N  N100  1  0.556765  0.731956  0.874557  1
  N  N101  1  0.874557  0.556765  0.731956  1
  N  N102  1  0.943235  0.268044  0.374558  1
  N  N103  1  0.125443  0.056765  0.768044  1
  N  N104  1  0.056765  0.768044  0.125443  1
  N  N105  1  0.625443  0.443236  0.231956  1
  N  N106  1  0.443236  0.231956  0.625443  1
  N  N107  1  0.374558  0.943235  0.268044  1
