# generated using pymatgen
data_Mn3Co2Sn(PO4)6
_symmetry_space_group_name_H-M   'P 1'
_cell_length_a   8.55575652
_cell_length_b   8.64131814
_cell_length_c   8.64131840
_cell_angle_alpha   59.99999843
_cell_angle_beta   59.66862813
_cell_angle_gamma   59.66863139
_symmetry_Int_Tables_number   1
_chemical_formula_structural   Mn3Co2Sn(PO4)6
_chemical_formula_sum   'Mn3 Co2 Sn1 P6 O24'
_cell_volume   449.47953884
_cell_formula_units_Z   1
loop_
 _symmetry_equiv_pos_site_id
 _symmetry_equiv_pos_as_xyz
  1  'x, y, z'
loop_
 _atom_site_type_symbol
 _atom_site_label
 _atom_site_symmetry_multiplicity
 _atom_site_fract_x
 _atom_site_fract_y
 _atom_site_fract_z
 _atom_site_occupancy
  Mn  Mn0  1  0.068655  0.643781  0.643781  1
  Mn  Mn1  1  0.433087  0.855638  0.855638  1
  Mn  Mn2  1  0.929314  0.356895  0.356895  1
  Co  Co3  1  0.012081  0.995973  0.995973  1
  Co  Co4  1  0.500002  0.500000  0.500000  1
  Sn  Sn5  1  0.569505  0.143498  0.143498  1
  P  P6  1  0.244205  0.252047  0.550033  1
  P  P7  1  0.244205  0.953717  0.252047  1
  P  P8  1  0.244205  0.550033  0.953717  1
  P  P9  1  0.751868  0.459116  0.043623  1
  P  P10  1  0.751868  0.043623  0.745393  1
  P  P11  1  0.751868  0.745393  0.459116  1
  O  O12  1  0.064582  0.114519  0.310121  1
  O  O13  1  0.064582  0.510778  0.114519  1
  O  O14  1  0.064582  0.310121  0.510778  1
  O  O15  1  0.227168  0.089957  0.745367  1
  O  O16  1  0.433159  0.188209  0.394482  1
  O  O17  1  0.267881  0.413269  0.563205  1
  O  O18  1  0.227168  0.937508  0.089957  1
  O  O19  1  0.267881  0.755645  0.413269  1
  O  O20  1  0.566033  0.612296  0.009287  1
  O  O21  1  0.267881  0.563205  0.755645  1
  O  O22  1  0.776749  0.258629  0.057396  1
  O  O23  1  0.566033  0.009287  0.812384  1
  O  O24  1  0.433159  0.984151  0.188209  1
  O  O25  1  0.227168  0.745367  0.937508  1
  O  O26  1  0.728447  0.443247  0.241930  1
  O  O27  1  0.433159  0.394482  0.984151  1
  O  O28  1  0.728447  0.241930  0.586377  1
  O  O29  1  0.776749  0.057396  0.907226  1
  O  O30  1  0.728447  0.586377  0.443247  1
  O  O31  1  0.566033  0.812384  0.612296  1
  O  O32  1  0.776749  0.907226  0.258629  1
  O  O33  1  0.935695  0.681115  0.495833  1
  O  O34  1  0.935695  0.495833  0.887357  1
  O  O35  1  0.935695  0.887357  0.681115  1
