# generated using pymatgen
data_LiMnHSO5
_symmetry_space_group_name_H-M   'P 1'
_cell_length_a   5.59185958
_cell_length_b   9.97789111
_cell_length_c   7.67760399
_cell_angle_alpha   110.97356209
_cell_angle_beta   90.00000000
_cell_angle_gamma   90.00000000
_symmetry_Int_Tables_number   1
_chemical_formula_structural   LiMnHSO5
_chemical_formula_sum   'Li4 Mn4 H4 S4 O20'
_cell_volume   399.99018480
_cell_formula_units_Z   4
loop_
 _symmetry_equiv_pos_site_id
 _symmetry_equiv_pos_as_xyz
  1  'x, y, z'
loop_
 _atom_site_type_symbol
 _atom_site_label
 _atom_site_symmetry_multiplicity
 _atom_site_fract_x
 _atom_site_fract_y
 _atom_site_fract_z
 _atom_site_occupancy
  Li  Li0  1  0.438944  0.914280  0.688169  1
  Li  Li1  1  0.938944  0.085720  0.811831  1
  Li  Li2  1  0.561056  0.085720  0.311831  1
  Li  Li3  1  0.061056  0.914280  0.188169  1
  Mn  Mn4  1  0.765983  0.444051  0.875640  1
  Mn  Mn5  1  0.265983  0.555949  0.624360  1
  Mn  Mn6  1  0.234017  0.555949  0.124360  1
  Mn  Mn7  1  0.734017  0.444051  0.375640  1
  H  H8  1  0.499280  0.669289  0.402892  1
  H  H9  1  0.999280  0.330711  0.097108  1
  H  H10  1  0.500720  0.330711  0.597108  1
  H  H11  1  0.000720  0.669289  0.902892  1
  S  S12  1  0.061214  0.208645  0.507449  1
  S  S13  1  0.561214  0.791355  0.992551  1
  S  S14  1  0.938786  0.791355  0.492551  1
  S  S15  1  0.438786  0.208645  0.007449  1
  O  O16  1  0.929347  0.427048  0.127871  1
  O  O17  1  0.429347  0.572952  0.372129  1
  O  O18  1  0.070653  0.572952  0.872129  1
  O  O19  1  0.570653  0.427048  0.627871  1
  O  O20  1  0.445635  0.345423  0.966221  1
  O  O21  1  0.945635  0.654577  0.533779  1
  O  O22  1  0.554365  0.654577  0.033779  1
  O  O23  1  0.054365  0.345423  0.466221  1
  O  O24  1  0.548095  0.236951  0.195126  1
  O  O25  1  0.048095  0.763049  0.304874  1
  O  O26  1  0.451905  0.763049  0.804874  1
  O  O27  1  0.951905  0.236951  0.695126  1
  O  O28  1  0.686823  0.837971  0.492941  1
  O  O29  1  0.186823  0.162029  0.007059  1
  O  O30  1  0.313177  0.162029  0.507059  1
  O  O31  1  0.813177  0.837971  0.992941  1
  O  O32  1  0.419846  0.904226  0.136350  1
  O  O33  1  0.919846  0.095774  0.363650  1
  O  O34  1  0.580154  0.095774  0.863650  1
  O  O35  1  0.080154  0.904226  0.636350  1
