# generated using pymatgen
data_CsPb2Cl5
_symmetry_space_group_name_H-M   'P 1'
_cell_length_a   8.27314283
_cell_length_b   8.27314283
_cell_length_c   9.64344979
_cell_angle_alpha   115.40103261
_cell_angle_beta   115.40103261
_cell_angle_gamma   90.00000000
_symmetry_Int_Tables_number   1
_chemical_formula_structural   CsPb2Cl5
_chemical_formula_sum   'Cs2 Pb4 Cl10'
_cell_volume   524.72587157
_cell_formula_units_Z   2
loop_
 _symmetry_equiv_pos_site_id
 _symmetry_equiv_pos_as_xyz
  1  'x, y, z'
loop_
 _atom_site_type_symbol
 _atom_site_label
 _atom_site_symmetry_multiplicity
 _atom_site_fract_x
 _atom_site_fract_y
 _atom_site_fract_z
 _atom_site_occupancy
  Cs  Cs0  1  0.250000  0.250000  0.500000  1
  Cs  Cs1  1  0.750000  0.750000  0.500000  1
  Pb  Pb2  1  0.669727  0.169727  0.000000  1
  Pb  Pb3  1  0.169727  0.330274  0.000000  1
  Pb  Pb4  1  0.830274  0.669727  0.000000  1
  Pb  Pb5  1  0.330274  0.830274  0.000000  1
  Cl  Cl6  1  0.000000  0.000000  0.000000  1
  Cl  Cl7  1  0.500000  0.500000  0.000000  1
  Cl  Cl8  1  0.467526  0.276264  0.243790  1
  Cl  Cl9  1  0.967526  0.467526  0.243790  1
  Cl  Cl10  1  0.276264  0.776264  0.243790  1
  Cl  Cl11  1  0.776264  0.967526  0.243790  1
  Cl  Cl12  1  0.223736  0.032474  0.756210  1
  Cl  Cl13  1  0.723736  0.223736  0.756210  1
  Cl  Cl14  1  0.032474  0.532474  0.756210  1
  Cl  Cl15  1  0.532474  0.723736  0.756210  1
