# generated using pymatgen
data_Li6TiCr3(PO4)6
_symmetry_space_group_name_H-M   'P 1'
_cell_length_a   8.48846586
_cell_length_b   8.56970591
_cell_length_c   8.55075329
_cell_angle_alpha   61.47945555
_cell_angle_beta   61.62669246
_cell_angle_gamma   61.73587919
_symmetry_Int_Tables_number   1
_chemical_formula_structural   Li6TiCr3(PO4)6
_chemical_formula_sum   'Li6 Ti1 Cr3 P6 O24'
_cell_volume   455.74768162
_cell_formula_units_Z   1
loop_
 _symmetry_equiv_pos_site_id
 _symmetry_equiv_pos_as_xyz
  1  'x, y, z'
loop_
 _atom_site_type_symbol
 _atom_site_label
 _atom_site_symmetry_multiplicity
 _atom_site_fract_x
 _atom_site_fract_y
 _atom_site_fract_z
 _atom_site_occupancy
  Li  Li0  1  0.027090  0.005552  0.997314  1
  Li  Li1  1  0.749239  0.152553  0.349313  1
  Li  Li2  1  0.474344  0.503590  0.496398  1
  Li  Li3  1  0.265048  0.845550  0.657997  1
  Li  Li4  1  0.658380  0.264195  0.839912  1
  Li  Li5  1  0.842265  0.659367  0.261930  1
  Ti  Ti6  1  0.853629  0.852713  0.851607  1
  Cr  Cr7  1  0.142258  0.145313  0.139131  1
  Cr  Cr8  1  0.358327  0.361296  0.355411  1
  Cr  Cr9  1  0.644309  0.646992  0.646256  1
  P  P10  1  0.049590  0.749303  0.446993  1
  P  P11  1  0.445865  0.050973  0.748355  1
  P  P12  1  0.749814  0.450443  0.045984  1
  P  P13  1  0.250820  0.539050  0.960480  1
  P  P14  1  0.541193  0.964154  0.251115  1
  P  P15  1  0.958393  0.249547  0.534778  1
  O  O16  1  0.131808  0.286783  0.498287  1
  O  O17  1  0.295950  0.513201  0.124223  1
  O  O18  1  0.052376  0.921018  0.265298  1
  O  O19  1  0.531707  0.124301  0.293155  1
  O  O20  1  0.238884  0.590159  0.433110  1
  O  O21  1  0.010046  0.806724  0.613238  1
  O  O22  1  0.257629  0.076207  0.907532  1
  O  O23  1  0.455022  0.233202  0.576891  1
  O  O24  1  0.591963  0.433548  0.239630  1
  O  O25  1  0.199788  0.378655  0.989856  1
  O  O26  1  0.089253  0.734207  0.930465  1
  O  O27  1  0.370749  0.004935  0.207694  1
  O  O28  1  0.613221  0.006395  0.809127  1
  O  O29  1  0.906307  0.257398  0.072877  1
  O  O30  1  0.810615  0.612336  0.008126  1
  O  O31  1  0.413017  0.562900  0.768389  1
  O  O32  1  0.561290  0.772726  0.413047  1
  O  O33  1  0.733059  0.930412  0.087172  1
  O  O34  1  0.972327  0.200716  0.377363  1
  O  O35  1  0.768779  0.412655  0.562201  1
  O  O36  1  0.470472  0.892185  0.694390  1
  O  O37  1  0.932623  0.087271  0.729741  1
  O  O38  1  0.693633  0.477874  0.888306  1
  O  O39  1  0.888917  0.692604  0.477909  1
