# generated using pymatgen
data_HC3
_symmetry_space_group_name_H-M   'P 1'
_cell_length_a   2.46393337
_cell_length_b   3.66394696
_cell_length_c   8.10736736
_cell_angle_alpha   88.29338844
_cell_angle_beta   90.25138715
_cell_angle_gamma   89.94617080
_symmetry_Int_Tables_number   1
_chemical_formula_structural   HC3
_chemical_formula_sum   'H2 C6'
_cell_volume   73.15784059
_cell_formula_units_Z   2
loop_
 _symmetry_equiv_pos_site_id
 _symmetry_equiv_pos_as_xyz
  1  'x, y, z'
loop_
 _atom_site_type_symbol
 _atom_site_label
 _atom_site_symmetry_multiplicity
 _atom_site_fract_x
 _atom_site_fract_y
 _atom_site_fract_z
 _atom_site_occupancy
  H  H0  1  0.570729  0.239874  0.080503  1
  H  H1  1  0.088512  0.783544  0.919457  1
  C  C2  1  0.577307  0.322535  0.208830  1
  C  C3  1  0.085228  0.700761  0.791053  1
  C  C4  1  0.079121  0.374387  0.288825  1
  C  C5  1  0.084646  0.484766  0.458763  1
  C  C6  1  0.585821  0.538713  0.541160  1
  C  C7  1  0.584407  0.649009  0.711159  1
