# generated using pymatgen
data_Zn3Se
_symmetry_space_group_name_H-M   'P 1'
_cell_length_a   5.88064503
_cell_length_b   5.88059407
_cell_length_c   4.78509130
_cell_angle_alpha   89.91096735
_cell_angle_beta   90.08920540
_cell_angle_gamma   120.00937067
_symmetry_Int_Tables_number   1
_chemical_formula_structural   Zn3Se
_chemical_formula_sum   'Zn6 Se2'
_cell_volume   143.29311067
_cell_formula_units_Z   2
loop_
 _symmetry_equiv_pos_site_id
 _symmetry_equiv_pos_as_xyz
  1  'x, y, z'
loop_
 _atom_site_type_symbol
 _atom_site_label
 _atom_site_symmetry_multiplicity
 _atom_site_fract_x
 _atom_site_fract_y
 _atom_site_fract_z
 _atom_site_occupancy
  Zn  Zn0  1  0.159456  0.318913  0.250008  1
  Zn  Zn1  1  0.681086  0.840549  0.250008  1
  Zn  Zn2  1  0.159456  0.840551  0.249983  1
  Zn  Zn3  1  0.840541  0.681091  0.749990  1
  Zn  Zn4  1  0.318910  0.159458  0.749992  1
  Zn  Zn5  1  0.840542  0.159453  0.750016  1
  Se  Se6  1  0.333389  0.666630  0.749975  1
  Se  Se7  1  0.666623  0.333359  0.250024  1
