# generated using pymatgen
data_Sr(AsO3)2
_symmetry_space_group_name_H-M   'P 1'
_cell_length_a   4.94946126
_cell_length_b   4.94946132
_cell_length_c   10.96952792
_cell_angle_alpha   90.00000000
_cell_angle_beta   90.00000000
_cell_angle_gamma   120.00000831
_symmetry_Int_Tables_number   1
_chemical_formula_structural   Sr(AsO3)2
_chemical_formula_sum   'Sr2 As4 O12'
_cell_volume   232.72036891
_cell_formula_units_Z   2
loop_
 _symmetry_equiv_pos_site_id
 _symmetry_equiv_pos_as_xyz
  1  'x, y, z'
loop_
 _atom_site_type_symbol
 _atom_site_label
 _atom_site_symmetry_multiplicity
 _atom_site_fract_x
 _atom_site_fract_y
 _atom_site_fract_z
 _atom_site_occupancy
  Sr  Sr0  1  0.000000  0.000000  0.250000  1
  Sr  Sr1  1  1.000000  1.000000  0.750000  1
  As  As2  1  0.666673  0.333340  0.000000  1
  As  As3  1  0.333342  0.666675  0.000000  1
  As  As4  1  0.666660  0.333327  0.500000  1
  As  As5  1  0.333325  0.666660  0.500000  1
  O  O6  1  0.616008  0.616008  0.096745  1
  O  O7  1  0.384008  0.000008  0.096747  1
  O  O8  1  0.000008  0.384010  0.096747  1
  O  O9  1  0.615991  0.615990  0.403252  1
  O  O10  1  0.383990  0.999988  0.403254  1
  O  O11  1  0.999991  0.383993  0.403254  1
  O  O12  1  0.615990  0.999990  0.596747  1
  O  O13  1  0.383992  0.383992  0.596746  1
  O  O14  1  0.999992  0.615993  0.596747  1
  O  O15  1  0.384009  0.384010  0.903252  1
  O  O16  1  0.616009  0.000009  0.903253  1
  O  O17  1  0.000009  0.616009  0.903253  1
