# generated using pymatgen
data_CoSn3
_symmetry_space_group_name_H-M   'P 1'
_cell_length_a   17.62073015
_cell_length_b   17.62073015
_cell_length_c   17.62073015
_cell_angle_alpha   159.40038213
_cell_angle_beta   159.40038213
_cell_angle_gamma   29.29361955
_symmetry_Int_Tables_number   1
_chemical_formula_structural   CoSn3
_chemical_formula_sum   'Co8 Sn24'
_cell_volume   676.88333798
_cell_formula_units_Z   8
loop_
 _symmetry_equiv_pos_site_id
 _symmetry_equiv_pos_as_xyz
  1  'x, y, z'
loop_
 _atom_site_type_symbol
 _atom_site_label
 _atom_site_symmetry_multiplicity
 _atom_site_fract_x
 _atom_site_fract_y
 _atom_site_fract_z
 _atom_site_occupancy
  Co  Co0  1  0.585151  0.335151  0.250000  1
  Co  Co1  1  0.914848  0.164849  0.749999  1
  Co  Co2  1  0.164849  0.914850  0.250000  1
  Co  Co3  1  0.335151  0.585151  0.750001  1
  Co  Co4  1  0.414849  0.664849  0.750001  1
  Co  Co5  1  0.085151  0.835152  0.250000  1
  Co  Co6  1  0.835150  0.085151  0.749999  1
  Co  Co7  1  0.664849  0.414849  0.250000  1
  Sn  Sn8  1  0.539586  0.289586  0.579173  1
  Sn  Sn9  1  0.210414  0.960413  0.920826  1
  Sn  Sn10  1  0.960413  0.539586  0.749999  1
  Sn  Sn11  1  0.289586  0.210414  0.750001  1
  Sn  Sn12  1  0.460414  0.710414  0.420828  1
  Sn  Sn13  1  0.789586  0.039586  0.079173  1
  Sn  Sn14  1  0.039586  0.460415  0.250000  1
  Sn  Sn15  1  0.710414  0.789586  0.250000  1
  Sn  Sn16  1  0.110181  0.222563  0.248035  1
  Sn  Sn17  1  0.474528  0.862146  0.251965  1
  Sn  Sn18  1  0.389819  0.637855  0.112381  1
  Sn  Sn19  1  0.025473  0.277438  0.387619  1
  Sn  Sn20  1  0.277438  0.389821  0.251967  1
  Sn  Sn21  1  0.637855  0.025471  0.248034  1
  Sn  Sn22  1  0.862144  0.110180  0.387616  1
  Sn  Sn23  1  0.222563  0.474530  0.112383  1
  Sn  Sn24  1  0.889821  0.777438  0.751967  1
  Sn  Sn25  1  0.525473  0.137855  0.748036  1
  Sn  Sn26  1  0.610182  0.362146  0.887620  1
  Sn  Sn27  1  0.974530  0.722563  0.612383  1
  Sn  Sn28  1  0.722563  0.610182  0.748036  1
  Sn  Sn29  1  0.362146  0.974528  0.751966  1
  Sn  Sn30  1  0.137855  0.889819  0.612382  1
  Sn  Sn31  1  0.777437  0.525473  0.887618  1
