# generated using pymatgen
data_CaSn4(PO4)6
_symmetry_space_group_name_H-M   'P 1'
_cell_length_a   9.14585952
_cell_length_b   9.14615883
_cell_length_c   9.14614353
_cell_angle_alpha   54.81726227
_cell_angle_beta   54.81706080
_cell_angle_gamma   54.81666599
_symmetry_Int_Tables_number   1
_chemical_formula_structural   CaSn4(PO4)6
_chemical_formula_sum   'Ca1 Sn4 P6 O24'
_cell_volume   475.69878417
_cell_formula_units_Z   1
loop_
 _symmetry_equiv_pos_site_id
 _symmetry_equiv_pos_as_xyz
  1  'x, y, z'
loop_
 _atom_site_type_symbol
 _atom_site_label
 _atom_site_symmetry_multiplicity
 _atom_site_fract_x
 _atom_site_fract_y
 _atom_site_fract_z
 _atom_site_occupancy
  Ca  Ca0  1  0.000000  0.000000  0.000000  1
  Sn  Sn1  1  0.349173  0.349177  0.349180  1
  Sn  Sn2  1  0.650827  0.650823  0.650821  1
  Sn  Sn3  1  0.147830  0.147837  0.147836  1
  Sn  Sn4  1  0.852172  0.852162  0.852165  1
  P  P5  1  0.456880  0.037998  0.750729  1
  P  P6  1  0.750713  0.456885  0.037990  1
  P  P7  1  0.037984  0.750733  0.456879  1
  P  P8  1  0.543120  0.962001  0.249271  1
  P  P9  1  0.249288  0.543113  0.962010  1
  P  P10  1  0.962016  0.249269  0.543120  1
  O  O11  1  0.604383  0.015968  0.800444  1
  O  O12  1  0.800449  0.604383  0.015956  1
  O  O13  1  0.015965  0.800446  0.604381  1
  O  O14  1  0.395616  0.984033  0.199556  1
  O  O15  1  0.199551  0.395617  0.984045  1
  O  O16  1  0.984037  0.199552  0.395620  1
  O  O17  1  0.467095  0.841876  0.793824  1
  O  O18  1  0.793840  0.467095  0.841866  1
  O  O19  1  0.841864  0.793848  0.467090  1
  O  O20  1  0.532906  0.158125  0.206175  1
  O  O21  1  0.206161  0.532904  0.158134  1
  O  O22  1  0.158134  0.206151  0.532911  1
  O  O23  1  0.486435  0.172908  0.540154  1
  O  O24  1  0.540173  0.486421  0.172890  1
  O  O25  1  0.172889  0.540166  0.486429  1
  O  O26  1  0.513564  0.827091  0.459846  1
  O  O27  1  0.459827  0.513579  0.827109  1
  O  O28  1  0.827111  0.459834  0.513571  1
  O  O29  1  0.248791  0.123181  0.887090  1
  O  O30  1  0.887098  0.248788  0.123173  1
  O  O31  1  0.123181  0.887101  0.248785  1
  O  O32  1  0.751210  0.876818  0.112910  1
  O  O33  1  0.112902  0.751212  0.876827  1
  O  O34  1  0.876820  0.112898  0.751215  1
