# generated using pymatgen
data_LaWN3
_symmetry_space_group_name_H-M   'P 1'
_cell_length_a   3.97111159
_cell_length_b   5.82458618
_cell_length_c   5.82458634
_cell_angle_alpha   94.87558619
_cell_angle_beta   90.00000000
_cell_angle_gamma   90.00000000
_symmetry_Int_Tables_number   1
_chemical_formula_structural   LaWN3
_chemical_formula_sum   'La2 W2 N6'
_cell_volume   134.23567582
_cell_formula_units_Z   2
loop_
 _symmetry_equiv_pos_site_id
 _symmetry_equiv_pos_as_xyz
  1  'x, y, z'
loop_
 _atom_site_type_symbol
 _atom_site_label
 _atom_site_symmetry_multiplicity
 _atom_site_fract_x
 _atom_site_fract_y
 _atom_site_fract_z
 _atom_site_occupancy
  La  La0  1  0.500000  0.375393  0.624607  1
  La  La1  1  0.500000  0.895354  0.104646  1
  W  W2  1  0.000000  0.892433  0.593456  1
  W  W3  1  0.000000  0.406544  0.107567  1
  N  N4  1  0.000000  0.726887  0.273113  1
  N  N5  1  0.000000  0.156643  0.843357  1
  N  N6  1  0.000000  0.226969  0.348798  1
  N  N7  1  0.000000  0.651202  0.773031  1
  N  N8  1  0.500000  0.938116  0.552970  1
  N  N9  1  0.500000  0.447030  0.061884  1
