# generated using pymatgen
data_Li3Fe2(PO3)7
_symmetry_space_group_name_H-M   'P 1'
_cell_length_a   6.85411620
_cell_length_b   7.13161245
_cell_length_c   19.07468135
_cell_angle_alpha   87.93083967
_cell_angle_beta   100.28473420
_cell_angle_gamma   113.81173001
_symmetry_Int_Tables_number   1
_chemical_formula_structural   Li3Fe2(PO3)7
_chemical_formula_sum   'Li6 Fe4 P14 O42'
_cell_volume   838.64363952
_cell_formula_units_Z   2
loop_
 _symmetry_equiv_pos_site_id
 _symmetry_equiv_pos_as_xyz
  1  'x, y, z'
loop_
 _atom_site_type_symbol
 _atom_site_label
 _atom_site_symmetry_multiplicity
 _atom_site_fract_x
 _atom_site_fract_y
 _atom_site_fract_z
 _atom_site_occupancy
  Li  Li0  1  0.254563  0.795306  0.756383  1
  Li  Li1  1  0.443556  0.242605  0.573181  1
  Li  Li2  1  0.838280  0.857750  0.880078  1
  Li  Li3  1  0.161720  0.142250  0.119922  1
  Li  Li4  1  0.556444  0.757395  0.426819  1
  Li  Li5  1  0.745437  0.204694  0.243617  1
  Fe  Fe6  1  0.604712  0.813737  0.616827  1
  Fe  Fe7  1  0.376791  0.140497  0.873821  1
  Fe  Fe8  1  0.623209  0.859503  0.126179  1
  Fe  Fe9  1  0.395288  0.186264  0.383173  1
  P  P10  1  0.297130  0.727049  0.965005  1
  P  P11  1  0.191419  0.776490  0.497975  1
  P  P12  1  0.017750  0.694306  0.068626  1
  P  P13  1  0.091405  0.425992  0.400236  1
  P  P14  1  0.042457  0.111555  0.721726  1
  P  P15  1  0.354652  0.832403  0.268670  1
  P  P16  1  0.465109  0.463289  0.750143  1
  P  P17  1  0.534891  0.536711  0.249857  1
  P  P18  1  0.645348  0.167597  0.731330  1
  P  P19  1  0.957543  0.888445  0.278274  1
  P  P20  1  0.908595  0.574008  0.599764  1
  P  P21  1  0.982250  0.305694  0.931374  1
  P  P22  1  0.808581  0.223511  0.502025  1
  P  P23  1  0.702870  0.272951  0.034995  1
  O  O24  1  0.097861  0.756094  0.991127  1
  O  O25  1  0.977941  0.716450  0.532485  1
  O  O26  1  0.308644  0.819060  0.892792  1
  O  O27  1  0.071476  0.653054  0.665761  1
  O  O28  1  0.221517  0.483258  0.957170  1
  O  O29  1  0.023660  0.126957  0.908300  1
  O  O30  1  0.092693  0.646618  0.422757  1
  O  O31  1  0.277538  0.001616  0.485968  1
  O  O32  1  0.096680  0.774755  0.253427  1
  O  O33  1  0.500004  0.798762  0.020861  1
  O  O34  1  0.115857  0.005675  0.784684  1
  O  O35  1  0.249551  0.296685  0.699307  1
  O  O36  1  0.338260  0.686916  0.541454  1
  O  O37  1  0.163715  0.613591  0.113958  1
  O  O38  1  0.326433  0.458659  0.404428  1
  O  O39  1  0.432899  0.434801  0.826269  1
  O  O40  1  0.453629  0.916752  0.344791  1
  O  O41  1  0.459885  0.958883  0.210276  1
  O  O42  1  0.077659  0.017857  0.344396  1
  O  O43  1  0.515262  0.670657  0.719799  1
  O  O44  1  0.347602  0.605939  0.263845  1
  O  O45  1  0.652398  0.394061  0.736155  1
  O  O46  1  0.484738  0.329343  0.280201  1
  O  O47  1  0.922341  0.982143  0.655604  1
  O  O48  1  0.540115  0.041117  0.789724  1
  O  O49  1  0.546371  0.083248  0.655209  1
  O  O50  1  0.567101  0.565199  0.173731  1
  O  O51  1  0.673567  0.541341  0.595572  1
  O  O52  1  0.836285  0.386409  0.886042  1
  O  O53  1  0.661740  0.313084  0.458546  1
  O  O54  1  0.750449  0.703315  0.300693  1
  O  O55  1  0.884143  0.994325  0.215316  1
  O  O56  1  0.499996  0.201238  0.979139  1
  O  O57  1  0.903320  0.225245  0.746573  1
  O  O58  1  0.722462  0.998384  0.514032  1
  O  O59  1  0.907307  0.353382  0.577243  1
  O  O60  1  0.976340  0.873043  0.091700  1
  O  O61  1  0.778483  0.516742  0.042830  1
  O  O62  1  0.928524  0.346946  0.334239  1
  O  O63  1  0.691356  0.180940  0.107208  1
  O  O64  1  0.022059  0.283550  0.467515  1
  O  O65  1  0.902139  0.243906  0.008873  1
