# generated using pymatgen
data_LiSnCl3
_symmetry_space_group_name_H-M   'P 1'
_cell_length_a   7.00204055
_cell_length_b   7.00204056
_cell_length_c   7.33247215
_cell_angle_alpha   61.47984311
_cell_angle_beta   61.47984285
_cell_angle_gamma   60.00000169
_symmetry_Int_Tables_number   1
_chemical_formula_structural   LiSnCl3
_chemical_formula_sum   'Li2 Sn2 Cl6'
_cell_volume   259.74373008
_cell_formula_units_Z   2
loop_
 _symmetry_equiv_pos_site_id
 _symmetry_equiv_pos_as_xyz
  1  'x, y, z'
loop_
 _atom_site_type_symbol
 _atom_site_label
 _atom_site_symmetry_multiplicity
 _atom_site_fract_x
 _atom_site_fract_y
 _atom_site_fract_z
 _atom_site_occupancy
  Li  Li0  1  0.306002  0.306002  0.081995  1
  Li  Li1  1  0.806002  0.806002  0.581995  1
  Sn  Sn2  1  0.001720  0.001720  0.994840  1
  Sn  Sn3  1  0.501720  0.501720  0.494840  1
  Cl  Cl4  1  0.587343  0.972111  0.279222  1
  Cl  Cl5  1  0.161324  0.587343  0.279222  1
  Cl  Cl6  1  0.972111  0.161324  0.279222  1
  Cl  Cl7  1  0.661324  0.472111  0.779222  1
  Cl  Cl8  1  0.472111  0.087343  0.779222  1
  Cl  Cl9  1  0.087343  0.661324  0.779222  1
