# generated using pymatgen
data_Al2SiO5
_symmetry_space_group_name_H-M   'P 1'
_cell_length_a   3.56651770
_cell_length_b   4.97357043
_cell_length_c   9.17111336
_cell_angle_alpha   90.00000000
_cell_angle_beta   90.00000000
_cell_angle_gamma   111.01099026
_symmetry_Int_Tables_number   1
_chemical_formula_structural   Al2SiO5
_chemical_formula_sum   'Al4 Si2 O10'
_cell_volume   151.86387189
_cell_formula_units_Z   2
loop_
 _symmetry_equiv_pos_site_id
 _symmetry_equiv_pos_as_xyz
  1  'x, y, z'
loop_
 _atom_site_type_symbol
 _atom_site_label
 _atom_site_symmetry_multiplicity
 _atom_site_fract_x
 _atom_site_fract_y
 _atom_site_fract_z
 _atom_site_occupancy
  O  O0  1  0.312713  0.625426  0.590020  1
  O  O1  1  0.687287  0.374574  0.409980  1
  O  O2  1  0.687287  0.374574  0.090020  1
  O  O3  1  0.312713  0.625426  0.909980  1
  O  O4  1  0.055010  0.110021  0.617760  1
  O  O5  1  0.944990  0.889979  0.382240  1
  O  O6  1  0.739796  0.479592  0.750000  1
  O  O7  1  0.260204  0.520408  0.250000  1
  O  O8  1  0.055010  0.110021  0.882240  1
  O  O9  1  0.944990  0.889979  0.117760  1
  Al  Al10  1  0.135277  0.270553  0.432554  1
  Al  Al11  1  0.864723  0.729447  0.567446  1
  Al  Al12  1  0.135277  0.270553  0.067446  1
  Al  Al13  1  0.864723  0.729447  0.932554  1
  Si  Si14  1  0.183984  0.367969  0.750000  1
  Si  Si15  1  0.816016  0.632031  0.250000  1
