# generated using pymatgen
data_CsSrBr3
_symmetry_space_group_name_H-M   'P 1'
_cell_length_a   4.60727700
_cell_length_b   8.09955860
_cell_length_c   11.51672600
_cell_angle_alpha   90.00000000
_cell_angle_beta   90.00000000
_cell_angle_gamma   106.49498373
_symmetry_Int_Tables_number   1
_chemical_formula_structural   CsSrBr3
_chemical_formula_sum   'Cs2 Sr2 Br6'
_cell_volume   412.08132701
_cell_formula_units_Z   2
loop_
 _symmetry_equiv_pos_site_id
 _symmetry_equiv_pos_as_xyz
  1  'x, y, z'
loop_
 _atom_site_type_symbol
 _atom_site_label
 _atom_site_symmetry_multiplicity
 _atom_site_fract_x
 _atom_site_fract_y
 _atom_site_fract_z
 _atom_site_occupancy
  Cs  Cs0  1  0.254969  0.507660  0.007653  1
  Cs  Cs1  1  0.745032  0.492340  0.507652  1
  Sr  Sr2  1  0.999796  0.999565  0.760241  1
  Sr  Sr3  1  0.000205  0.000436  0.260241  1
  Br  Br4  1  0.371399  0.742156  0.709839  1
  Br  Br5  1  0.628600  0.257844  0.209838  1
  Br  Br6  1  0.371599  0.742659  0.309668  1
  Br  Br7  1  0.628401  0.257340  0.809668  1
  Br  Br8  1  0.935199  0.868967  0.010301  1
  Br  Br9  1  0.064801  0.131032  0.510301  1
