# generated using pymatgen
data_Tm3(GePd)4
_symmetry_space_group_name_H-M   'P 1'
_cell_length_a   4.14493628
_cell_length_b   7.09606541
_cell_length_c   8.07550373
_cell_angle_alpha   116.06289093
_cell_angle_beta   104.87057071
_cell_angle_gamma   90.00000001
_symmetry_Int_Tables_number   1
_chemical_formula_structural   Tm3(GePd)4
_chemical_formula_sum   'Tm3 Ge4 Pd4'
_cell_volume   204.47693024
_cell_formula_units_Z   1
loop_
 _symmetry_equiv_pos_site_id
 _symmetry_equiv_pos_as_xyz
  1  'x, y, z'
loop_
 _atom_site_type_symbol
 _atom_site_label
 _atom_site_symmetry_multiplicity
 _atom_site_fract_x
 _atom_site_fract_y
 _atom_site_fract_z
 _atom_site_occupancy
  Ge  Ge0  1  0.500000  0.688284  0.000000  1
  Ge  Ge1  1  0.500000  0.311716  0.000000  1
  Ge  Ge2  1  0.217935  0.217935  0.435869  1
  Ge  Ge3  1  0.782065  0.782065  0.564131  1
  Pd  Pd4  1  0.325099  0.623598  0.650198  1
  Pd  Pd5  1  0.674901  0.973400  0.349802  1
  Pd  Pd6  1  0.325099  0.026600  0.650198  1
  Pd  Pd7  1  0.674901  0.376402  0.349802  1
  Tm  Tm8  1  0.874368  0.374368  0.748736  1
  Tm  Tm9  1  0.125632  0.625632  0.251264  1
  Tm  Tm10  1  0.000000  0.000000  0.000000  1
