# generated using pymatgen
data_Tb2Co12P7
_symmetry_space_group_name_H-M   'P 1'
_cell_length_a   9.01139631
_cell_length_b   9.01106144
_cell_length_c   3.58858507
_cell_angle_alpha   90.00000000
_cell_angle_beta   90.00000000
_cell_angle_gamma   120.00178642
_symmetry_Int_Tables_number   1
_chemical_formula_structural   Tb2Co12P7
_chemical_formula_sum   'Tb2 Co12 P7'
_cell_volume   252.35627050
_cell_formula_units_Z   1
loop_
 _symmetry_equiv_pos_site_id
 _symmetry_equiv_pos_as_xyz
  1  'x, y, z'
loop_
 _atom_site_type_symbol
 _atom_site_label
 _atom_site_symmetry_multiplicity
 _atom_site_fract_x
 _atom_site_fract_y
 _atom_site_fract_z
 _atom_site_occupancy
  Tb  Tb0  1  0.333361  0.666722  0.000000  1
  Tb  Tb1  1  0.666632  0.333290  0.500000  1
  Co  Co2  1  0.434214  0.059524  0.000000  1
  Co  Co3  1  0.940478  0.374669  0.000000  1
  Co  Co4  1  0.625333  0.565799  0.000000  1
  Co  Co5  1  0.382675  0.435138  0.500000  1
  Co  Co6  1  0.564886  0.947518  0.500000  1
  Co  Co7  1  0.052416  0.617334  0.500000  1
  Co  Co8  1  0.152816  0.272014  0.000000  1
  Co  Co9  1  0.727974  0.880783  0.000000  1
  Co  Co10  1  0.119230  0.847183  0.000000  1
  Co  Co11  1  0.235196  0.103777  0.500000  1
  Co  Co12  1  0.896182  0.131457  0.500000  1
  Co  Co13  1  0.868612  0.764866  0.500000  1
  P  P14  1  0.110344  0.401419  0.500000  1
  P  P15  1  0.598582  0.708893  0.500000  1
  P  P16  1  0.291085  0.889691  0.500000  1
  P  P17  1  0.000009  0.999976  0.000000  1
  P  P18  1  0.405369  0.293600  0.000000  1
  P  P19  1  0.706447  0.111757  0.000000  1
  P  P20  1  0.888161  0.594592  0.000000  1
