# generated using pymatgen
data_H6CIN
_symmetry_space_group_name_H-M   'P 1'
_cell_length_a   5.17999096
_cell_length_b   5.18384322
_cell_length_c   9.17215321
_cell_angle_alpha   90.12086414
_cell_angle_beta   90.00000000
_cell_angle_gamma   90.00000000
_symmetry_Int_Tables_number   1
_chemical_formula_structural   H6CIN
_chemical_formula_sum   'H12 C2 I2 N2'
_cell_volume   246.29250417
_cell_formula_units_Z   2
loop_
 _symmetry_equiv_pos_site_id
 _symmetry_equiv_pos_as_xyz
  1  'x, y, z'
loop_
 _atom_site_type_symbol
 _atom_site_label
 _atom_site_symmetry_multiplicity
 _atom_site_fract_x
 _atom_site_fract_y
 _atom_site_fract_z
 _atom_site_occupancy
  H  H0  1  0.250000  0.063800  0.162152  1
  H  H1  1  0.411310  0.345205  0.163043  1
  H  H2  1  0.088690  0.345205  0.163043  1
  H  H3  1  0.423235  0.150141  0.403012  1
  H  H4  1  0.250000  0.450144  0.403169  1
  H  H5  1  0.076765  0.150141  0.403012  1
  H  H6  1  0.750000  0.936200  0.837848  1
  H  H7  1  0.588690  0.654795  0.836957  1
  H  H8  1  0.911310  0.654795  0.836957  1
  H  H9  1  0.576765  0.849859  0.596988  1
  H  H10  1  0.750000  0.549856  0.596831  1
  H  H11  1  0.923235  0.849859  0.596988  1
  C  C12  1  0.250000  0.250278  0.365323  1
  C  C13  1  0.750000  0.749722  0.634677  1
  I  I14  1  0.250000  0.253968  0.810560  1
  I  I15  1  0.750000  0.746031  0.189440  1
  N  N16  1  0.250000  0.249756  0.203038  1
  N  N17  1  0.750000  0.750244  0.796962  1
