# generated using pymatgen
data_Tl3Ge
_symmetry_space_group_name_H-M   'P 1'
_cell_length_a   7.04755500
_cell_length_b   7.04752367
_cell_length_c   5.34999116
_cell_angle_alpha   89.89990247
_cell_angle_beta   90.10025704
_cell_angle_gamma   119.99515450
_symmetry_Int_Tables_number   1
_chemical_formula_structural   Tl3Ge
_chemical_formula_sum   'Tl6 Ge2'
_cell_volume   230.13307010
_cell_formula_units_Z   2
loop_
 _symmetry_equiv_pos_site_id
 _symmetry_equiv_pos_as_xyz
  1  'x, y, z'
loop_
 _atom_site_type_symbol
 _atom_site_label
 _atom_site_symmetry_multiplicity
 _atom_site_fract_x
 _atom_site_fract_y
 _atom_site_fract_z
 _atom_site_occupancy
  Tl  Tl0  1  0.172907  0.345824  0.250006  1
  Tl  Tl1  1  0.654174  0.827093  0.250006  1
  Tl  Tl2  1  0.172915  0.827086  0.249982  1
  Tl  Tl3  1  0.827086  0.654167  0.749997  1
  Tl  Tl4  1  0.345834  0.172914  0.749997  1
  Tl  Tl5  1  0.827078  0.172919  0.750020  1
  Ge  Ge6  1  0.333326  0.666673  0.750011  1
  Ge  Ge7  1  0.666677  0.333322  0.249991  1
