# generated using pymatgen
data_PrAl4Co
_symmetry_space_group_name_H-M   'P 1'
_cell_length_a   7.67473648
_cell_length_b   4.03311320
_cell_length_c   6.90513530
_cell_angle_alpha   90.00000000
_cell_angle_beta   90.00000000
_cell_angle_gamma   90.00000000
_symmetry_Int_Tables_number   1
_chemical_formula_structural   PrAl4Co
_chemical_formula_sum   'Pr2 Al8 Co2'
_cell_volume   213.73521228
_cell_formula_units_Z   2
loop_
 _symmetry_equiv_pos_site_id
 _symmetry_equiv_pos_as_xyz
  1  'x, y, z'
loop_
 _atom_site_type_symbol
 _atom_site_label
 _atom_site_symmetry_multiplicity
 _atom_site_fract_x
 _atom_site_fract_y
 _atom_site_fract_z
 _atom_site_occupancy
  Pr  Pr0  1  0.250000  0.000000  0.384029  1
  Pr  Pr1  1  0.750000  0.000000  0.615970  1
  Al  Al2  1  0.000000  0.000000  0.000000  1
  Al  Al3  1  0.500000  0.000000  0.000000  1
  Al  Al4  1  0.250000  0.500001  0.041757  1
  Al  Al5  1  0.570782  0.500001  0.298809  1
  Al  Al6  1  0.929218  0.500001  0.298809  1
  Al  Al7  1  0.070781  0.500001  0.701191  1
  Al  Al8  1  0.429218  0.500001  0.701191  1
  Al  Al9  1  0.750000  0.500001  0.958242  1
  Co  Co10  1  0.750000  0.000000  0.183106  1
  Co  Co11  1  0.250000  0.000000  0.816894  1
