# generated using pymatgen
data_MoS2
_symmetry_space_group_name_H-M   'P 1'
_cell_length_a   3.16298099
_cell_length_b   13.02096455
_cell_length_c   43.47651661
_cell_angle_alpha   90.00000000
_cell_angle_beta   90.00371651
_cell_angle_gamma   90.00000000
_symmetry_Int_Tables_number   1
_chemical_formula_structural   MoS2
_chemical_formula_sum   'Mo18 S36'
_cell_volume   1790.58308781
_cell_formula_units_Z   18
loop_
 _symmetry_equiv_pos_site_id
 _symmetry_equiv_pos_as_xyz
  1  'x, y, z'
loop_
 _atom_site_type_symbol
 _atom_site_label
 _atom_site_symmetry_multiplicity
 _atom_site_fract_x
 _atom_site_fract_y
 _atom_site_fract_z
 _atom_site_occupancy
  Mo  Mo0  1  0.000037  0.129000  0.297743  1
  Mo  Mo1  1  0.000067  0.629000  0.127891  1
  Mo  Mo2  1  0.500063  0.629000  0.191677  1
  Mo  Mo3  1  0.000033  0.129000  0.170036  1
  Mo  Mo4  1  0.000076  0.629000  0.255493  1
  Mo  Mo5  1  0.500067  0.629000  0.064269  1
  Mo  Mo6  1  0.000059  0.629000  0.383355  1
  Mo  Mo7  1  0.000056  0.129000  0.041641  1
  Mo  Mo8  1  0.000033  0.129000  0.425151  1
  Mo  Mo9  1  0.500033  0.129000  0.361529  1
  Mo  Mo10  1  0.500044  0.629000  0.447779  1
  Mo  Mo11  1  0.500024  0.129000  0.233927  1
  Mo  Mo12  1  0.000046  0.629000  0.507499  1
  Mo  Mo13  1  0.500041  0.129000  0.106065  1
  Mo  Mo14  1  0.500067  0.629000  0.319384  1
  Mo  Mo15  1  0.000079  0.629000  0.000430  1
  Mo  Mo16  1  0.500054  0.129000  0.981921  1
  Mo  Mo17  1  0.500021  0.129000  0.488990  1
  S  S18  1  0.500072  0.513243  0.977880  1
  S  S19  1  0.500057  0.249459  0.319121  1
  S  S20  1  0.000050  0.748968  0.425951  1
  S  S21  1  0.000048  0.249255  0.127479  1
  S  S22  1  0.500050  0.248968  0.063469  1
  S  S23  1  0.500049  0.508435  0.106524  1
  S  S24  1  0.500057  0.008541  0.319121  1
  S  S25  1  0.000028  0.244757  0.511540  1
  S  S26  1  0.000048  0.008745  0.127479  1
  S  S27  1  0.000043  0.749459  0.170299  1
  S  S28  1  0.500041  0.249227  0.446660  1
  S  S29  1  0.500049  0.749565  0.106524  1
  S  S30  1  0.500072  0.744757  0.977880  1
  S  S31  1  0.500052  0.508745  0.361941  1
  S  S32  1  0.000050  0.509032  0.425951  1
  S  S33  1  0.500063  0.749466  0.234118  1
  S  S34  1  0.000028  0.013243  0.511540  1
  S  S35  1  0.500044  0.503566  0.490506  1
  S  S36  1  0.000037  0.249466  0.255302  1
  S  S37  1  0.500046  0.249438  0.191448  1
  S  S38  1  0.000051  0.249565  0.382896  1
  S  S39  1  0.000056  0.003566  0.998914  1
  S  S40  1  0.500044  0.754434  0.490506  1
  S  S41  1  0.500063  0.508534  0.234118  1
  S  S42  1  0.500052  0.749255  0.361941  1
  S  S43  1  0.000059  0.508773  0.042760  1
  S  S44  1  0.000043  0.508541  0.170299  1
  S  S45  1  0.000037  0.008534  0.255302  1
  S  S46  1  0.500050  0.009032  0.063469  1
  S  S47  1  0.000054  0.749438  0.297972  1
  S  S48  1  0.500046  0.008562  0.191448  1
  S  S49  1  0.000054  0.508562  0.297972  1
  S  S50  1  0.000051  0.008435  0.382896  1
  S  S51  1  0.500041  0.008773  0.446660  1
  S  S52  1  0.000056  0.254434  0.998914  1
  S  S53  1  0.000059  0.749227  0.042760  1
