# generated using pymatgen
data_Ba3Tb
_symmetry_space_group_name_H-M   'P 1'
_cell_length_a   8.41148477
_cell_length_b   8.41148475
_cell_length_c   6.76860434
_cell_angle_alpha   90.00000000
_cell_angle_beta   90.00000000
_cell_angle_gamma   120.00000005
_symmetry_Int_Tables_number   1
_chemical_formula_structural   Ba3Tb
_chemical_formula_sum   'Ba6 Tb2'
_cell_volume   414.73919861
_cell_formula_units_Z   2
loop_
 _symmetry_equiv_pos_site_id
 _symmetry_equiv_pos_as_xyz
  1  'x, y, z'
loop_
 _atom_site_type_symbol
 _atom_site_label
 _atom_site_symmetry_multiplicity
 _atom_site_fract_x
 _atom_site_fract_y
 _atom_site_fract_z
 _atom_site_occupancy
  Tb  Tb0  1  0.333334  0.666668  0.750000  1
  Tb  Tb1  1  0.666667  0.333333  0.250000  1
  Ba  Ba2  1  0.171887  0.343772  0.250000  1
  Ba  Ba3  1  0.656228  0.828114  0.250000  1
  Ba  Ba4  1  0.171887  0.828114  0.250000  1
  Ba  Ba5  1  0.828114  0.656228  0.750000  1
  Ba  Ba6  1  0.343772  0.171887  0.750000  1
  Ba  Ba7  1  0.828114  0.171887  0.750000  1
