# generated using pymatgen
data_H9C8NO2
_symmetry_space_group_name_H-M   'P 1'
_cell_length_a   7.12492493
_cell_length_b   9.85962088
_cell_length_c   11.75024362
_cell_angle_alpha   90.00000000
_cell_angle_beta   96.49232096
_cell_angle_gamma   90.00000000
_symmetry_Int_Tables_number   1
_chemical_formula_structural   H9C8NO2
_chemical_formula_sum   'H36 C32 N4 O8'
_cell_volume   820.14999813
_cell_formula_units_Z   4
loop_
 _symmetry_equiv_pos_site_id
 _symmetry_equiv_pos_as_xyz
  1  'x, y, z'
loop_
 _atom_site_type_symbol
 _atom_site_label
 _atom_site_symmetry_multiplicity
 _atom_site_fract_x
 _atom_site_fract_y
 _atom_site_fract_z
 _atom_site_occupancy
  H  H0  1  0.624580  0.419923  0.003273  1
  H  H1  1  0.875420  0.919923  0.496727  1
  H  H2  1  0.375420  0.580077  0.996727  1
  H  H3  1  0.124580  0.080077  0.503273  1
  H  H4  1  0.587081  0.269118  0.835494  1
  H  H5  1  0.912919  0.769118  0.664506  1
  H  H6  1  0.412919  0.730882  0.164506  1
  H  H7  1  0.087081  0.230882  0.335494  1
  H  H8  1  0.144626  0.106881  0.930630  1
  H  H9  1  0.355374  0.606881  0.569370  1
  H  H10  1  0.855374  0.893119  0.069370  1
  H  H11  1  0.644626  0.393119  0.430630  1
  H  H12  1  0.185271  0.261992  0.096600  1
  H  H13  1  0.314729  0.761992  0.403400  1
  H  H14  1  0.814729  0.738008  0.903400  1
  H  H15  1  0.685271  0.238008  0.596600  1
  H  H16  1  0.954600  0.051884  0.758605  1
  H  H17  1  0.545400  0.551884  0.741395  1
  H  H18  1  0.045400  0.948116  0.241395  1
  H  H19  1  0.454600  0.448116  0.258605  1
  H  H20  1  0.081529  0.445487  0.192059  1
  H  H21  1  0.418471  0.945487  0.307941  1
  H  H22  1  0.918471  0.554513  0.807941  1
  H  H23  1  0.581529  0.054513  0.692059  1
  H  H24  1  0.827519  0.570282  0.392844  1
  H  H25  1  0.672481  0.070282  0.107156  1
  H  H26  1  0.172481  0.429718  0.607156  1
  H  H27  1  0.327519  0.929718  0.892844  1
  H  H28  1  0.052247  0.575591  0.337464  1
  H  H29  1  0.447753  0.075591  0.162536  1
  H  H30  1  0.947753  0.424409  0.662536  1
  H  H31  1  0.552247  0.924409  0.837464  1
  H  H32  1  0.872974  0.696714  0.293974  1
  H  H33  1  0.627026  0.196714  0.206026  1
  H  H34  1  0.127026  0.303286  0.706026  1
  H  H35  1  0.372974  0.803286  0.793974  1
  C  C36  1  0.907435  0.351317  0.062807  1
  C  C37  1  0.592565  0.851317  0.437193  1
  C  C38  1  0.092565  0.648683  0.937193  1
  C  C39  1  0.407435  0.148683  0.562807  1
  C  C40  1  0.738988  0.351922  0.988270  1
  C  C41  1  0.761012  0.851922  0.511730  1
  C  C42  1  0.261012  0.648078  0.011730  1
  C  C43  1  0.238988  0.148078  0.488270  1
  C  C44  1  0.717402  0.265458  0.893791  1
  C  C45  1  0.782598  0.765458  0.606209  1
  C  C46  1  0.282598  0.734542  0.106209  1
  C  C47  1  0.217402  0.234542  0.393791  1
  C  C48  1  0.862264  0.176272  0.871866  1
  C  C49  1  0.637736  0.676272  0.628134  1
  C  C50  1  0.137736  0.823728  0.128134  1
  C  C51  1  0.362264  0.323728  0.371866  1
  C  C52  1  0.031042  0.176215  0.945912  1
  C  C53  1  0.468958  0.676215  0.554088  1
  C  C54  1  0.968958  0.823785  0.054088  1
  C  C55  1  0.531042  0.323785  0.445912  1
  C  C56  1  0.053119  0.263080  0.039809  1
  C  C57  1  0.446881  0.763080  0.460191  1
  C  C58  1  0.946881  0.736920  0.960191  1
  C  C59  1  0.553119  0.236920  0.539809  1
  C  C60  1  0.816196  0.501342  0.218851  1
  C  C61  1  0.683804  0.001342  0.281149  1
  C  C62  1  0.183804  0.498658  0.781149  1
  C  C63  1  0.316196  0.998658  0.718851  1
  C  C64  1  0.899602  0.589673  0.316659  1
  C  C65  1  0.600398  0.089673  0.183341  1
  C  C66  1  0.100398  0.410327  0.683341  1
  C  C67  1  0.399602  0.910327  0.816659  1
  N  N68  1  0.942427  0.437800  0.159029  1
  N  N69  1  0.557573  0.937800  0.340971  1
  N  N70  1  0.057573  0.562200  0.840971  1
  N  N71  1  0.442427  0.062200  0.659029  1
  O  O72  1  0.833098  0.091667  0.779146  1
  O  O73  1  0.666902  0.591667  0.720854  1
  O  O74  1  0.166902  0.908333  0.220854  1
  O  O75  1  0.333098  0.408333  0.279146  1
  O  O76  1  0.640784  0.490263  0.194403  1
  O  O77  1  0.859216  0.990263  0.305597  1
  O  O78  1  0.359216  0.509737  0.805597  1
  O  O79  1  0.140784  0.009737  0.694403  1
