# generated using pymatgen
data_CaNd3
_symmetry_space_group_name_H-M   'P 1'
_cell_length_a   7.48345391
_cell_length_b   7.48345319
_cell_length_c   6.01186104
_cell_angle_alpha   90.00000000
_cell_angle_beta   90.00000000
_cell_angle_gamma   120.00000312
_symmetry_Int_Tables_number   1
_chemical_formula_structural   CaNd3
_chemical_formula_sum   'Ca2 Nd6'
_cell_volume   291.57057044
_cell_formula_units_Z   2
loop_
 _symmetry_equiv_pos_site_id
 _symmetry_equiv_pos_as_xyz
  1  'x, y, z'
loop_
 _atom_site_type_symbol
 _atom_site_label
 _atom_site_symmetry_multiplicity
 _atom_site_fract_x
 _atom_site_fract_y
 _atom_site_fract_z
 _atom_site_occupancy
  Ca  Ca0  1  0.333334  0.666668  0.750000  1
  Ca  Ca1  1  0.666667  0.333333  0.250001  1
  Nd  Nd2  1  0.164066  0.328132  0.250001  1
  Nd  Nd3  1  0.671867  0.835934  0.250001  1
  Nd  Nd4  1  0.164066  0.835934  0.250001  1
  Nd  Nd5  1  0.835935  0.671869  0.750000  1
  Nd  Nd6  1  0.328133  0.164066  0.750000  1
  Nd  Nd7  1  0.835934  0.164066  0.750000  1
