# generated using pymatgen
data_LiBeH3
_symmetry_space_group_name_H-M   'P 1'
_cell_length_a   4.69228096
_cell_length_b   5.91169014
_cell_length_c   5.91169241
_cell_angle_alpha   94.73734298
_cell_angle_beta   103.98156783
_cell_angle_gamma   76.01843828
_symmetry_Int_Tables_number   1
_chemical_formula_structural   LiBeH3
_chemical_formula_sum   'Li4 Be4 H12'
_cell_volume   154.36247863
_cell_formula_units_Z   4
loop_
 _symmetry_equiv_pos_site_id
 _symmetry_equiv_pos_as_xyz
  1  'x, y, z'
loop_
 _atom_site_type_symbol
 _atom_site_label
 _atom_site_symmetry_multiplicity
 _atom_site_fract_x
 _atom_site_fract_y
 _atom_site_fract_z
 _atom_site_occupancy
  Li  Li0  1  0.250000  0.099335  0.099335  1
  Li  Li1  1  0.750000  0.290955  0.290954  1
  Li  Li2  1  0.250000  0.709045  0.709045  1
  Li  Li3  1  0.750000  0.900664  0.900664  1
  Be  Be4  1  0.260807  0.627132  0.198205  1
  Be  Be5  1  0.760807  0.801795  0.372869  1
  Be  Be6  1  0.239193  0.198206  0.627134  1
  Be  Be7  1  0.739193  0.372866  0.801793  1
  H  H8  1  0.160732  0.791852  0.020042  1
  H  H9  1  0.341597  0.394355  0.116330  1
  H  H10  1  0.660732  0.979958  0.208148  1
  H  H11  1  0.041321  0.631886  0.343916  1
  H  H12  1  0.541322  0.656084  0.368113  1
  H  H13  1  0.158403  0.116330  0.394353  1
  H  H14  1  0.841598  0.883669  0.605647  1
  H  H15  1  0.458678  0.343916  0.631886  1
  H  H16  1  0.958678  0.368113  0.656084  1
  H  H17  1  0.339268  0.020042  0.791852  1
  H  H18  1  0.658403  0.605646  0.883670  1
  H  H19  1  0.839268  0.208149  0.979957  1
