# generated using pymatgen
data_Tl3Cl
_symmetry_space_group_name_H-M   'P 1'
_cell_length_a   6.86177486
_cell_length_b   6.86179776
_cell_length_c   6.16369174
_cell_angle_alpha   89.99834918
_cell_angle_beta   90.00019016
_cell_angle_gamma   120.01111013
_symmetry_Int_Tables_number   1
_chemical_formula_structural   Tl3Cl
_chemical_formula_sum   'Tl6 Cl2'
_cell_volume   251.30277779
_cell_formula_units_Z   2
loop_
 _symmetry_equiv_pos_site_id
 _symmetry_equiv_pos_as_xyz
  1  'x, y, z'
loop_
 _atom_site_type_symbol
 _atom_site_label
 _atom_site_symmetry_multiplicity
 _atom_site_fract_x
 _atom_site_fract_y
 _atom_site_fract_z
 _atom_site_occupancy
  Tl  Tl0  1  0.168245  0.336497  0.249997  1
  Tl  Tl1  1  0.663509  0.831759  0.250002  1
  Tl  Tl2  1  0.168242  0.831758  0.250002  1
  Tl  Tl3  1  0.831760  0.663514  0.750005  1
  Tl  Tl4  1  0.336485  0.168243  0.750001  1
  Tl  Tl5  1  0.831759  0.168246  0.749998  1
  Cl  Cl6  1  0.333334  0.666667  0.750000  1
  Cl  Cl7  1  0.666669  0.333315  0.249999  1
