# generated using pymatgen
data_RbCaI3
_symmetry_space_group_name_H-M   'P 1'
_cell_length_a   6.20769319
_cell_length_b   6.20903342
_cell_length_c   6.21124124
_cell_angle_alpha   89.94564180
_cell_angle_beta   89.90323593
_cell_angle_gamma   90.01477523
_symmetry_Int_Tables_number   1
_chemical_formula_structural   RbCaI3
_chemical_formula_sum   'Rb1 Ca1 I3'
_cell_volume   239.40422418
_cell_formula_units_Z   1
loop_
 _symmetry_equiv_pos_site_id
 _symmetry_equiv_pos_as_xyz
  1  'x, y, z'
loop_
 _atom_site_type_symbol
 _atom_site_label
 _atom_site_symmetry_multiplicity
 _atom_site_fract_x
 _atom_site_fract_y
 _atom_site_fract_z
 _atom_site_occupancy
  Rb  Rb0  1  0.000001  0.998977  0.999689  1
  Ca  Ca1  1  0.481930  0.497030  0.490728  1
  I  I2  1  0.486455  0.998340  0.496416  1
  I  I3  1  0.983032  0.507653  0.509701  1
  I  I4  1  0.488580  0.498000  0.993464  1
