# generated using pymatgen
data_ZnIn3
_symmetry_space_group_name_H-M   'P 1'
_cell_length_a   6.53015853
_cell_length_b   6.31696381
_cell_length_c   5.48053378
_cell_angle_alpha   90.00000000
_cell_angle_beta   90.00000000
_cell_angle_gamma   119.51888647
_symmetry_Int_Tables_number   1
_chemical_formula_structural   ZnIn3
_chemical_formula_sum   'Zn2 In6'
_cell_volume   196.73005929
_cell_formula_units_Z   2
loop_
 _symmetry_equiv_pos_site_id
 _symmetry_equiv_pos_as_xyz
  1  'x, y, z'
loop_
 _atom_site_type_symbol
 _atom_site_label
 _atom_site_symmetry_multiplicity
 _atom_site_fract_x
 _atom_site_fract_y
 _atom_site_fract_z
 _atom_site_occupancy
  Zn  Zn0  1  0.333090  0.666504  0.750000  1
  Zn  Zn1  1  0.666891  0.333500  0.250000  1
  In  In2  1  0.169712  0.339063  0.250000  1
  In  In3  1  0.661539  0.830960  0.250000  1
  In  In4  1  0.169892  0.830683  0.250000  1
  In  In5  1  0.830273  0.660919  0.750000  1
  In  In6  1  0.338578  0.169015  0.750000  1
  In  In7  1  0.830020  0.169353  0.750000  1
