# generated using pymatgen
data_Sm3Er
_symmetry_space_group_name_H-M   'P 1'
_cell_length_a   5.08697954
_cell_length_b   5.08691499
_cell_length_c   5.08687011
_cell_angle_alpha   90.00002016
_cell_angle_beta   90.00153587
_cell_angle_gamma   89.99983950
_symmetry_Int_Tables_number   1
_chemical_formula_structural   Sm3Er
_chemical_formula_sum   'Sm3 Er1'
_cell_volume   131.63310301
_cell_formula_units_Z   1
loop_
 _symmetry_equiv_pos_site_id
 _symmetry_equiv_pos_as_xyz
  1  'x, y, z'
loop_
 _atom_site_type_symbol
 _atom_site_label
 _atom_site_symmetry_multiplicity
 _atom_site_fract_x
 _atom_site_fract_y
 _atom_site_fract_z
 _atom_site_occupancy
  Sm  Sm0  1  0.999999  0.499987  0.499988  1
  Sm  Sm1  1  0.500016  0.999992  0.499991  1
  Sm  Sm2  1  0.500007  0.499989  -0.000003  1
  Er  Er3  1  -0.000023  0.000032  0.000024  1
