# generated using pymatgen
data_TlNiO3
_symmetry_space_group_name_H-M   'P 1'
_cell_length_a   3.93473175
_cell_length_b   3.91312693
_cell_length_c   3.78272398
_cell_angle_alpha   89.42063380
_cell_angle_beta   90.60797531
_cell_angle_gamma   98.02261093
_symmetry_Int_Tables_number   1
_chemical_formula_structural   TlNiO3
_chemical_formula_sum   'Tl1 Ni1 O3'
_cell_volume   57.66753948
_cell_formula_units_Z   1
loop_
 _symmetry_equiv_pos_site_id
 _symmetry_equiv_pos_as_xyz
  1  'x, y, z'
loop_
 _atom_site_type_symbol
 _atom_site_label
 _atom_site_symmetry_multiplicity
 _atom_site_fract_x
 _atom_site_fract_y
 _atom_site_fract_z
 _atom_site_occupancy
  Tl  Tl0  1  0.988832  0.976267  0.008882  1
  Ni  Ni1  1  0.497988  0.500418  0.510210  1
  O  O2  1  0.423656  0.437783  0.010176  1
  O  O3  1  0.605207  0.018567  0.516513  1
  O  O4  1  0.014318  0.606962  0.504213  1
