# generated using pymatgen
data_Ni5As2
_symmetry_space_group_name_H-M   'P 1'
_cell_length_a   6.81273422
_cell_length_b   6.81273423
_cell_length_c   12.51725545
_cell_angle_alpha   90.00000000
_cell_angle_beta   90.00000000
_cell_angle_gamma   119.99999997
_symmetry_Int_Tables_number   1
_chemical_formula_structural   Ni5As2
_chemical_formula_sum   'Ni30 As12'
_cell_volume   503.13281142
_cell_formula_units_Z   6
loop_
 _symmetry_equiv_pos_site_id
 _symmetry_equiv_pos_as_xyz
  1  'x, y, z'
loop_
 _atom_site_type_symbol
 _atom_site_label
 _atom_site_symmetry_multiplicity
 _atom_site_fract_x
 _atom_site_fract_y
 _atom_site_fract_z
 _atom_site_occupancy
  Ni  Ni0  1  0.000000  0.000000  0.950026  1
  Ni  Ni1  1  0.000000  0.000000  0.450026  1
  Ni  Ni2  1  0.333333  0.666667  0.094474  1
  Ni  Ni3  1  0.666667  0.333333  0.594474  1
  Ni  Ni4  1  0.333333  0.666667  0.594474  1
  Ni  Ni5  1  0.666667  0.333333  0.094474  1
  Ni  Ni6  1  0.250480  0.000000  0.121467  1
  Ni  Ni7  1  0.250480  0.250480  0.621467  1
  Ni  Ni8  1  0.000000  0.749520  0.621467  1
  Ni  Ni9  1  0.000000  0.250480  0.121467  1
  Ni  Ni10  1  0.749520  0.749520  0.121467  1
  Ni  Ni11  1  0.749520  0.000000  0.621467  1
  Ni  Ni12  1  0.624196  0.000000  0.219585  1
  Ni  Ni13  1  0.624196  0.624196  0.719585  1
  Ni  Ni14  1  0.000000  0.375804  0.719585  1
  Ni  Ni15  1  0.000000  0.624196  0.219585  1
  Ni  Ni16  1  0.375804  0.375804  0.219585  1
  Ni  Ni17  1  0.375804  0.000000  0.719585  1
  Ni  Ni18  1  0.310139  0.000000  0.328540  1
  Ni  Ni19  1  0.310139  0.310139  0.828540  1
  Ni  Ni20  1  0.000000  0.689861  0.828540  1
  Ni  Ni21  1  0.000000  0.310139  0.328540  1
  Ni  Ni22  1  0.689861  0.689861  0.328540  1
  Ni  Ni23  1  0.689861  0.000000  0.828540  1
  Ni  Ni24  1  0.625161  0.000000  0.432234  1
  Ni  Ni25  1  0.625161  0.625161  0.932234  1
  Ni  Ni26  1  0.000000  0.374839  0.932234  1
  Ni  Ni27  1  0.000000  0.625161  0.432234  1
  Ni  Ni28  1  0.374839  0.374839  0.432234  1
  Ni  Ni29  1  0.374839  0.000000  0.932234  1
  As  As30  1  0.000000  0.000000  0.254558  1
  As  As31  1  0.000000  0.000000  0.754558  1
  As  As32  1  0.333333  0.666667  0.296096  1
  As  As33  1  0.666667  0.333333  0.796096  1
  As  As34  1  0.333333  0.666667  0.796096  1
  As  As35  1  0.666667  0.333333  0.296096  1
  As  As36  1  0.669404  0.000000  0.022934  1
  As  As37  1  0.669404  0.669404  0.522934  1
  As  As38  1  0.000000  0.330596  0.522934  1
  As  As39  1  0.000000  0.669404  0.022934  1
  As  As40  1  0.330596  0.330596  0.022934  1
  As  As41  1  0.330596  0.000000  0.522934  1
