# generated using pymatgen
data_TlHgF3
_symmetry_space_group_name_H-M   'P 1'
_cell_length_a   4.61822995
_cell_length_b   4.61202279
_cell_length_c   4.63378231
_cell_angle_alpha   89.46870094
_cell_angle_beta   88.50175645
_cell_angle_gamma   89.84843653
_symmetry_Int_Tables_number   1
_chemical_formula_structural   TlHgF3
_chemical_formula_sum   'Tl1 Hg1 F3'
_cell_volume   98.65842976
_cell_formula_units_Z   1
loop_
 _symmetry_equiv_pos_site_id
 _symmetry_equiv_pos_as_xyz
  1  'x, y, z'
loop_
 _atom_site_type_symbol
 _atom_site_label
 _atom_site_symmetry_multiplicity
 _atom_site_fract_x
 _atom_site_fract_y
 _atom_site_fract_z
 _atom_site_occupancy
  Tl  Tl0  1  0.036683  0.973233  0.932252  1
  Hg  Hg1  1  0.504252  0.496796  0.480051  1
  F  F2  1  0.469990  -0.000119  0.531123  1
  F  F3  1  0.992337  0.522107  0.552194  1
  F  F4  1  0.436741  0.507984  0.994378  1
