# generated using pymatgen
data_TbAu
_symmetry_space_group_name_H-M   'P 1'
_cell_length_a   3.77304019
_cell_length_b   4.69695792
_cell_length_c   5.82583478
_cell_angle_alpha   90.00000000
_cell_angle_beta   71.10591750
_cell_angle_gamma   90.00000000
_symmetry_Int_Tables_number   1
_chemical_formula_structural   TbAu
_chemical_formula_sum   'Tb2 Au2'
_cell_volume   97.68141468
_cell_formula_units_Z   2
loop_
 _symmetry_equiv_pos_site_id
 _symmetry_equiv_pos_as_xyz
  1  'x, y, z'
loop_
 _atom_site_type_symbol
 _atom_site_label
 _atom_site_symmetry_multiplicity
 _atom_site_fract_x
 _atom_site_fract_y
 _atom_site_fract_z
 _atom_site_occupancy
  Tb  Tb0  1  0.138613  0.750000  0.722774  1
  Tb  Tb1  1  0.861387  0.250000  0.277226  1
  Au  Au2  1  0.412004  0.750000  0.175992  1
  Au  Au3  1  0.587996  0.250000  0.824008  1
