# generated using pymatgen
data_Ba5Sb3
_symmetry_space_group_name_H-M   'P 1'
_cell_length_a   10.13541931
_cell_length_b   10.13541931
_cell_length_c   7.91081119
_cell_angle_alpha   90.00000000
_cell_angle_beta   90.00000000
_cell_angle_gamma   119.99999998
_symmetry_Int_Tables_number   1
_chemical_formula_structural   Ba5Sb3
_chemical_formula_sum   'Ba10 Sb6'
_cell_volume   703.77703599
_cell_formula_units_Z   2
loop_
 _symmetry_equiv_pos_site_id
 _symmetry_equiv_pos_as_xyz
  1  'x, y, z'
loop_
 _atom_site_type_symbol
 _atom_site_label
 _atom_site_symmetry_multiplicity
 _atom_site_fract_x
 _atom_site_fract_y
 _atom_site_fract_z
 _atom_site_occupancy
  Sb  Sb0  1  0.608882  0.000000  0.750000  1
  Sb  Sb1  1  0.608882  0.608882  0.250000  1
  Sb  Sb2  1  0.000000  0.391118  0.250000  1
  Sb  Sb3  1  0.000000  0.608882  0.750000  1
  Sb  Sb4  1  0.391118  0.391118  0.750000  1
  Sb  Sb5  1  0.391118  0.000000  0.250000  1
  Ba  Ba6  1  0.000000  0.255787  0.750000  1
  Ba  Ba7  1  0.000000  0.744213  0.250000  1
  Ba  Ba8  1  0.255787  0.255787  0.250000  1
  Ba  Ba9  1  0.255787  0.000000  0.750000  1
  Ba  Ba10  1  0.744213  0.744213  0.750000  1
  Ba  Ba11  1  0.744213  0.000000  0.250000  1
  Ba  Ba12  1  0.333333  0.666667  0.500000  1
  Ba  Ba13  1  0.666667  0.333333  0.000000  1
  Ba  Ba14  1  0.666667  0.333333  0.500000  1
  Ba  Ba15  1  0.333333  0.666667  0.000000  1
