# generated using pymatgen
data_TiAu
_symmetry_space_group_name_H-M   'P 1'
_cell_length_a   4.62867961
_cell_length_b   3.01769883
_cell_length_c   4.94112176
_cell_angle_alpha   90.00000000
_cell_angle_beta   90.00000000
_cell_angle_gamma   90.00000000
_symmetry_Int_Tables_number   1
_chemical_formula_structural   TiAu
_chemical_formula_sum   'Ti2 Au2'
_cell_volume   69.01739626
_cell_formula_units_Z   2
loop_
 _symmetry_equiv_pos_site_id
 _symmetry_equiv_pos_as_xyz
  1  'x, y, z'
loop_
 _atom_site_type_symbol
 _atom_site_label
 _atom_site_symmetry_multiplicity
 _atom_site_fract_x
 _atom_site_fract_y
 _atom_site_fract_z
 _atom_site_occupancy
  Ti  Ti0  1  0.250000  0.000000  0.311647  1
  Ti  Ti1  1  0.750000  0.000000  0.688353  1
  Au  Au2  1  0.250000  0.500000  0.817638  1
  Au  Au3  1  0.750000  0.500000  0.182362  1
