# generated using pymatgen
data_Li4UC3O11
_symmetry_space_group_name_H-M   'P 1'
_cell_length_a   8.91790411
_cell_length_b   8.91790459
_cell_length_c   12.53410923
_cell_angle_alpha   90.00000000
_cell_angle_beta   90.00000000
_cell_angle_gamma   120.00000131
_symmetry_Int_Tables_number   1
_chemical_formula_structural   Li4UC3O11
_chemical_formula_sum   'Li16 U4 C12 O44'
_cell_volume   863.27610724
_cell_formula_units_Z   4
loop_
 _symmetry_equiv_pos_site_id
 _symmetry_equiv_pos_as_xyz
  1  'x, y, z'
loop_
 _atom_site_type_symbol
 _atom_site_label
 _atom_site_symmetry_multiplicity
 _atom_site_fract_x
 _atom_site_fract_y
 _atom_site_fract_z
 _atom_site_occupancy
  Li  Li0  1  0.689204  0.122860  0.873318  1
  Li  Li1  1  0.877140  0.566345  0.873318  1
  Li  Li2  1  0.433655  0.310796  0.873318  1
  Li  Li3  1  0.566345  0.877140  0.626682  1
  Li  Li4  1  0.310796  0.433655  0.626682  1
  Li  Li5  1  0.122860  0.689204  0.626682  1
  Li  Li6  1  0.310796  0.877140  0.126682  1
  Li  Li7  1  0.122860  0.433655  0.126682  1
  Li  Li8  1  0.566345  0.689204  0.126682  1
  Li  Li9  1  0.433655  0.122860  0.373318  1
  Li  Li10  1  0.689204  0.566345  0.373318  1
  Li  Li11  1  0.877140  0.310796  0.373318  1
  Li  Li12  1  0.000000  0.000000  0.500000  1
  Li  Li13  1  0.000000  0.000000  0.000000  1
  Li  Li14  1  0.000000  0.000000  0.750000  1
  Li  Li15  1  0.000000  0.000000  0.250000  1
  U  U16  1  0.666667  0.333333  0.629839  1
  U  U17  1  0.333333  0.666667  0.870161  1
  U  U18  1  0.333333  0.666667  0.370161  1
  U  U19  1  0.666667  0.333333  0.129839  1
  C  C20  1  0.251432  0.935518  0.872711  1
  C  C21  1  0.064482  0.315914  0.872711  1
  C  C22  1  0.684086  0.748568  0.872711  1
  C  C23  1  0.315914  0.064482  0.627289  1
  C  C24  1  0.748568  0.684086  0.627289  1
  C  C25  1  0.935518  0.251432  0.627289  1
  C  C26  1  0.748568  0.064482  0.127289  1
  C  C27  1  0.935518  0.684086  0.127289  1
  C  C28  1  0.315914  0.251432  0.127289  1
  C  C29  1  0.684086  0.935518  0.372711  1
  C  C30  1  0.251432  0.315914  0.372711  1
  C  C31  1  0.064482  0.748568  0.372711  1
  O  O32  1  0.636329  0.864833  0.859694  1
  O  O33  1  0.135167  0.771496  0.859694  1
  O  O34  1  0.228504  0.363671  0.859694  1
  O  O35  1  0.771496  0.135167  0.640306  1
  O  O36  1  0.363671  0.228504  0.640306  1
  O  O37  1  0.864833  0.636329  0.640306  1
  O  O38  1  0.363671  0.135167  0.140306  1
  O  O39  1  0.864833  0.228504  0.140306  1
  O  O40  1  0.771496  0.636329  0.140306  1
  O  O41  1  0.228504  0.864833  0.359694  1
  O  O42  1  0.636329  0.771496  0.359694  1
  O  O43  1  0.135167  0.363671  0.359694  1
  O  O44  1  0.410713  0.965723  0.880026  1
  O  O45  1  0.034277  0.444989  0.880026  1
  O  O46  1  0.555011  0.589287  0.880026  1
  O  O47  1  0.444989  0.034277  0.619974  1
  O  O48  1  0.589287  0.555011  0.619974  1
  O  O49  1  0.965723  0.410713  0.619974  1
  O  O50  1  0.589287  0.034277  0.119974  1
  O  O51  1  0.965723  0.555011  0.119974  1
  O  O52  1  0.444989  0.410713  0.119974  1
  O  O53  1  0.555011  0.965723  0.380026  1
  O  O54  1  0.410713  0.444989  0.380026  1
  O  O55  1  0.034277  0.589287  0.380026  1
  O  O56  1  0.214459  0.055454  0.878016  1
  O  O57  1  0.944546  0.159006  0.878016  1
  O  O58  1  0.840994  0.785541  0.878016  1
  O  O59  1  0.159006  0.944546  0.621984  1
  O  O60  1  0.785541  0.840994  0.621984  1
  O  O61  1  0.055454  0.214459  0.621984  1
  O  O62  1  0.785541  0.944546  0.121984  1
  O  O63  1  0.055454  0.840994  0.121984  1
  O  O64  1  0.159006  0.214459  0.121984  1
  O  O65  1  0.840994  0.055454  0.378016  1
  O  O66  1  0.214459  0.159006  0.378016  1
  O  O67  1  0.944546  0.785541  0.378016  1
  O  O68  1  0.666667  0.333333  0.481648  1
  O  O69  1  0.333333  0.666667  0.018352  1
  O  O70  1  0.333333  0.666667  0.518352  1
  O  O71  1  0.666667  0.333333  0.981648  1
  O  O72  1  0.666667  0.333333  0.778989  1
  O  O73  1  0.333333  0.666667  0.721011  1
  O  O74  1  0.333333  0.666667  0.221011  1
  O  O75  1  0.666667  0.333333  0.278989  1
