# generated using pymatgen
data_Sm2Mg
_symmetry_space_group_name_H-M   'P 1'
_cell_length_a   3.77073612
_cell_length_b   8.90225152
_cell_length_c   5.59005761
_cell_angle_alpha   90.00000000
_cell_angle_beta   90.00000000
_cell_angle_gamma   77.77298391
_symmetry_Int_Tables_number   1
_chemical_formula_structural   Sm2Mg
_chemical_formula_sum   'Sm4 Mg2'
_cell_volume   183.39072065
_cell_formula_units_Z   2
loop_
 _symmetry_equiv_pos_site_id
 _symmetry_equiv_pos_as_xyz
  1  'x, y, z'
loop_
 _atom_site_type_symbol
 _atom_site_label
 _atom_site_symmetry_multiplicity
 _atom_site_fract_x
 _atom_site_fract_y
 _atom_site_fract_z
 _atom_site_occupancy
  Sm  Sm0  1  0.978869  0.042264  0.000000  1
  Sm  Sm1  1  0.661378  0.677245  0.000000  1
  Sm  Sm2  1  0.798910  0.402180  0.499999  1
  Sm  Sm3  1  0.116399  0.767199  0.499999  1
  Mg  Mg4  1  0.321459  0.357079  0.000000  1
  Mg  Mg5  1  0.456316  0.087366  0.499999  1
