# generated using pymatgen
data_Sr2SmSbO6
_symmetry_space_group_name_H-M   'P 1'
_cell_length_a   5.89046316
_cell_length_b   6.00564101
_cell_length_c   8.39901034
_cell_angle_alpha   90.00000000
_cell_angle_beta   90.31238240
_cell_angle_gamma   90.00000000
_symmetry_Int_Tables_number   1
_chemical_formula_structural   Sr2SmSbO6
_chemical_formula_sum   'Sr4 Sm2 Sb2 O12'
_cell_volume   297.11903343
_cell_formula_units_Z   2
loop_
 _symmetry_equiv_pos_site_id
 _symmetry_equiv_pos_as_xyz
  1  'x, y, z'
loop_
 _atom_site_type_symbol
 _atom_site_label
 _atom_site_symmetry_multiplicity
 _atom_site_fract_x
 _atom_site_fract_y
 _atom_site_fract_z
 _atom_site_occupancy
  Sr  Sr0  1  0.010832  0.042593  0.249468  1
  Sr  Sr1  1  0.489168  0.542596  0.250532  1
  Sr  Sr2  1  0.989168  0.957405  0.750531  1
  Sr  Sr3  1  0.510833  0.457406  0.749468  1
  Sm  Sm4  1  0.500000  0.000000  0.999999  1
  Sm  Sm5  1  0.000001  0.499999  0.500001  1
  Sb  Sb6  1  -0.000000  0.499999  -0.000000  1
  Sb  Sb7  1  0.500000  0.000000  0.500000  1
  O  O8  1  0.911697  0.471210  0.232033  1
  O  O9  1  0.588302  0.971213  0.267966  1
  O  O10  1  0.088302  0.528788  0.767966  1
  O  O11  1  0.411697  0.028789  0.732034  1
  O  O12  1  0.312394  0.275833  0.451241  1
  O  O13  1  0.187606  0.775832  0.048758  1
  O  O14  1  0.687606  0.724167  0.548758  1
  O  O15  1  0.812395  0.224168  0.951242  1
  O  O16  1  0.274839  0.307545  0.045213  1
  O  O17  1  0.225161  0.807546  0.454787  1
  O  O18  1  0.725161  0.692455  0.954786  1
  O  O19  1  0.774839  0.192456  0.545213  1
