# generated using pymatgen
data_CsDyS2
_symmetry_space_group_name_H-M   'P 1'
_cell_length_a   4.11015410
_cell_length_b   4.11016303
_cell_length_c   16.07888193
_cell_angle_alpha   89.99935407
_cell_angle_beta   90.00072298
_cell_angle_gamma   119.99415024
_symmetry_Int_Tables_number   1
_chemical_formula_structural   CsDyS2
_chemical_formula_sum   'Cs2 Dy2 S4'
_cell_volume   235.24978087
_cell_formula_units_Z   2
loop_
 _symmetry_equiv_pos_site_id
 _symmetry_equiv_pos_as_xyz
  1  'x, y, z'
loop_
 _atom_site_type_symbol
 _atom_site_label
 _atom_site_symmetry_multiplicity
 _atom_site_fract_x
 _atom_site_fract_y
 _atom_site_fract_z
 _atom_site_occupancy
  Cs  Cs0  1  0.666653  0.333336  0.750000  1
  Cs  Cs1  1  0.333319  0.666659  0.250000  1
  Dy  Dy2  1  0.999975  0.000002  0.499999  1
  Dy  Dy3  1  0.999998  0.999999  0.000001  1
  S  S4  1  0.333322  0.666671  0.909222  1
  S  S5  1  0.666647  0.333326  0.409221  1
  S  S6  1  0.666672  0.333326  0.090779  1
  S  S7  1  0.333307  0.666676  0.590779  1
