# generated using pymatgen
data_SmAs2Au
_symmetry_space_group_name_H-M   'P 1'
_cell_length_a   4.09064290
_cell_length_b   4.10786396
_cell_length_c   20.60196643
_cell_angle_alpha   89.99960585
_cell_angle_beta   90.00003143
_cell_angle_gamma   90.00002152
_symmetry_Int_Tables_number   1
_chemical_formula_structural   SmAs2Au
_chemical_formula_sum   'Sm4 As8 Au4'
_cell_volume   346.19141707
_cell_formula_units_Z   4
loop_
 _symmetry_equiv_pos_site_id
 _symmetry_equiv_pos_as_xyz
  1  'x, y, z'
loop_
 _atom_site_type_symbol
 _atom_site_label
 _atom_site_symmetry_multiplicity
 _atom_site_fract_x
 _atom_site_fract_y
 _atom_site_fract_z
 _atom_site_occupancy
  Sm  Sm0  1  0.249999  0.227735  0.117460  1
  Sm  Sm1  1  0.750000  0.727738  0.382540  1
  Sm  Sm2  1  0.249999  0.272260  0.617453  1
  Sm  Sm3  1  0.750001  0.772263  0.882547  1
  As  As4  1  0.249999  0.704572  0.001576  1
  As  As5  1  0.750001  0.727215  0.155990  1
  As  As6  1  0.249999  0.227212  0.344010  1
  As  As7  1  0.750001  0.204539  0.498422  1
  As  As8  1  0.249999  0.795464  0.501582  1
  As  As9  1  0.750001  0.772787  0.655985  1
  As  As10  1  0.250000  0.272783  0.844015  1
  As  As11  1  0.750001  0.295431  0.998419  1
  Au  Au12  1  0.249999  0.723416  0.249734  1
  Au  Au13  1  0.750001  0.223416  0.250266  1
  Au  Au14  1  0.250000  0.776584  0.749734  1
  Au  Au15  1  0.750000  0.276583  0.750266  1
