# generated using pymatgen
data_Ti3Be
_symmetry_space_group_name_H-M   'P 1'
_cell_length_a   5.55114556
_cell_length_b   5.55114465
_cell_length_c   4.48577246
_cell_angle_alpha   90.00000000
_cell_angle_beta   90.00000000
_cell_angle_gamma   119.99999948
_symmetry_Int_Tables_number   1
_chemical_formula_structural   Ti3Be
_chemical_formula_sum   'Ti6 Be2'
_cell_volume   119.71071746
_cell_formula_units_Z   2
loop_
 _symmetry_equiv_pos_site_id
 _symmetry_equiv_pos_as_xyz
  1  'x, y, z'
loop_
 _atom_site_type_symbol
 _atom_site_label
 _atom_site_symmetry_multiplicity
 _atom_site_fract_x
 _atom_site_fract_y
 _atom_site_fract_z
 _atom_site_occupancy
  Ti  Ti0  1  0.174216  0.348432  0.249998  1
  Ti  Ti1  1  0.651569  0.825783  0.249998  1
  Ti  Ti2  1  0.174214  0.825783  0.249998  1
  Ti  Ti3  1  0.825784  0.651567  0.750002  1
  Ti  Ti4  1  0.348431  0.174216  0.750002  1
  Ti  Ti5  1  0.825784  0.174216  0.750002  1
  Be  Be6  1  0.333333  0.666666  0.750002  1
  Be  Be7  1  0.666666  0.333331  0.249998  1
