# generated using pymatgen
data_NaTi5Se8
_symmetry_space_group_name_H-M   'P 1'
_cell_length_a   3.58743902
_cell_length_b   9.14997665
_cell_length_c   9.56069272
_cell_angle_alpha   104.93641346
_cell_angle_beta   100.81357081
_cell_angle_gamma   90.00000000
_symmetry_Int_Tables_number   1
_chemical_formula_structural   NaTi5Se8
_chemical_formula_sum   'Na1 Ti5 Se8'
_cell_volume   297.45474198
_cell_formula_units_Z   1
loop_
 _symmetry_equiv_pos_site_id
 _symmetry_equiv_pos_as_xyz
  1  'x, y, z'
loop_
 _atom_site_type_symbol
 _atom_site_label
 _atom_site_symmetry_multiplicity
 _atom_site_fract_x
 _atom_site_fract_y
 _atom_site_fract_z
 _atom_site_occupancy
  Na  Na0  1  0.500000  0.500000  -0.000000  1
  Ti  Ti1  1  -0.000000  0.000000  0.000000  1
  Ti  Ti2  1  0.650080  0.991829  0.300158  1
  Ti  Ti3  1  0.709649  0.349852  0.419296  1
  Ti  Ti4  1  0.290352  0.650148  0.580704  1
  Ti  Ti5  1  0.349921  0.008172  0.699841  1
  Se  Se6  1  0.573626  0.177457  0.147249  1
  Se  Se7  1  0.082854  0.809451  0.165707  1
  Se  Se8  1  0.159215  0.497974  0.318430  1
  Se  Se9  1  0.241860  0.159763  0.483719  1
  Se  Se10  1  0.758141  0.840237  0.516280  1
  Se  Se11  1  0.840786  0.502026  0.681570  1
  Se  Se12  1  0.917147  0.190549  0.834293  1
  Se  Se13  1  0.426375  0.822544  0.852751  1
