# generated using pymatgen
data_SmBS3
_symmetry_space_group_name_H-M   'P 1'
_cell_length_a   7.44541996
_cell_length_b   6.04858350
_cell_length_c   8.87977828
_cell_angle_alpha   90.00000000
_cell_angle_beta   90.00000000
_cell_angle_gamma   90.00000000
_symmetry_Int_Tables_number   1
_chemical_formula_structural   SmBS3
_chemical_formula_sum   'Sm4 B4 S12'
_cell_volume   399.89410457
_cell_formula_units_Z   4
loop_
 _symmetry_equiv_pos_site_id
 _symmetry_equiv_pos_as_xyz
  1  'x, y, z'
loop_
 _atom_site_type_symbol
 _atom_site_label
 _atom_site_symmetry_multiplicity
 _atom_site_fract_x
 _atom_site_fract_y
 _atom_site_fract_z
 _atom_site_occupancy
  Sm  Sm0  1  0.383236  0.936126  0.758166  1
  Sm  Sm1  1  0.883236  0.563875  0.758166  1
  Sm  Sm2  1  0.116765  0.436125  0.258167  1
  Sm  Sm3  1  0.616763  0.063875  0.258167  1
  B  B4  1  0.354938  0.400842  0.928004  1
  B  B5  1  0.645062  0.599159  0.428003  1
  B  B6  1  0.854938  0.099158  0.928004  1
  B  B7  1  0.145063  0.900841  0.428003  1
  S  S8  1  0.174588  0.666652  0.555060  1
  S  S9  1  0.204338  0.635151  0.957864  1
  S  S10  1  0.704338  0.864850  0.957864  1
  S  S11  1  0.295662  0.135150  0.457864  1
  S  S12  1  0.674588  0.833347  0.555060  1
  S  S13  1  0.997508  0.891454  0.267006  1
  S  S14  1  0.002492  0.108545  0.767006  1
  S  S15  1  0.502492  0.391455  0.767006  1
  S  S16  1  0.497508  0.608545  0.267006  1
  S  S17  1  0.825411  0.333347  0.055061  1
  S  S18  1  0.795663  0.364850  0.457864  1
  S  S19  1  0.325413  0.166652  0.055061  1
