# generated using pymatgen
data_Rb3Tc
_symmetry_space_group_name_H-M   'P 1'
_cell_length_a   6.68833656
_cell_length_b   6.68817570
_cell_length_c   6.68784961
_cell_angle_alpha   60.01625721
_cell_angle_beta   60.00228075
_cell_angle_gamma   59.99929135
_symmetry_Int_Tables_number   1
_chemical_formula_structural   Rb3Tc
_chemical_formula_sum   'Rb3 Tc1'
_cell_volume   211.57082727
_cell_formula_units_Z   1
loop_
 _symmetry_equiv_pos_site_id
 _symmetry_equiv_pos_as_xyz
  1  'x, y, z'
loop_
 _atom_site_type_symbol
 _atom_site_label
 _atom_site_symmetry_multiplicity
 _atom_site_fract_x
 _atom_site_fract_y
 _atom_site_fract_z
 _atom_site_occupancy
  Rb  Rb0  1  0.000001  0.999999  0.999998  1
  Rb  Rb1  1  0.499996  0.500002  0.500002  1
  Rb  Rb2  1  0.250001  0.249999  0.250000  1
  Tc  Tc3  1  0.750001  0.750000  0.749999  1
