# generated using pymatgen
data_ZrO2
_symmetry_space_group_name_H-M   'P 1'
_cell_length_a   3.38795353
_cell_length_b   5.63273575
_cell_length_c   6.58922144
_cell_angle_alpha   90.00000000
_cell_angle_beta   90.00000000
_cell_angle_gamma   90.00000000
_symmetry_Int_Tables_number   1
_chemical_formula_structural   ZrO2
_chemical_formula_sum   'Zr4 O8'
_cell_volume   125.74505791
_cell_formula_units_Z   4
loop_
 _symmetry_equiv_pos_site_id
 _symmetry_equiv_pos_as_xyz
  1  'x, y, z'
loop_
 _atom_site_type_symbol
 _atom_site_label
 _atom_site_symmetry_multiplicity
 _atom_site_fract_x
 _atom_site_fract_y
 _atom_site_fract_z
 _atom_site_occupancy
  O  O0  1  0.750000  0.478022  0.159237  1
  O  O1  1  0.250000  0.521978  0.840763  1
  O  O2  1  0.750000  0.978022  0.340763  1
  O  O3  1  0.250000  0.021978  0.659237  1
  O  O4  1  0.750000  0.360737  0.576502  1
  O  O5  1  0.250000  0.639263  0.423498  1
  O  O6  1  0.750000  0.860737  0.923498  1
  O  O7  1  0.250000  0.139263  0.076502  1
  Zr  Zr8  1  0.250000  0.251537  0.391584  1
  Zr  Zr9  1  0.750000  0.748463  0.608416  1
  Zr  Zr10  1  0.250000  0.751537  0.108416  1
  Zr  Zr11  1  0.750000  0.248463  0.891584  1
