# generated using pymatgen
data_SnH22C6(NCl2)2
_symmetry_space_group_name_H-M   'P 1'
_cell_length_a   6.60014737
_cell_length_b   7.42269856
_cell_length_c   8.48186002
_cell_angle_alpha   108.85605898
_cell_angle_beta   97.50118763
_cell_angle_gamma   94.20541248
_symmetry_Int_Tables_number   1
_chemical_formula_structural   SnH22C6(NCl2)2
_chemical_formula_sum   'Sn1 H22 C6 N2 Cl4'
_cell_volume   386.90186202
_cell_formula_units_Z   1
loop_
 _symmetry_equiv_pos_site_id
 _symmetry_equiv_pos_as_xyz
  1  'x, y, z'
loop_
 _atom_site_type_symbol
 _atom_site_label
 _atom_site_symmetry_multiplicity
 _atom_site_fract_x
 _atom_site_fract_y
 _atom_site_fract_z
 _atom_site_occupancy
  Sn  Sn0  1  0.500000  0.500000  0.500001  1
  H  H1  1  0.253407  0.707459  0.210455  1
  H  H2  1  0.746593  0.292540  0.789544  1
  H  H3  1  0.930547  0.822303  0.138322  1
  H  H4  1  0.069452  0.177695  0.861675  1
  H  H5  1  0.062536  0.062831  0.221317  1
  H  H6  1  0.937465  0.937169  0.778683  1
  H  H7  1  0.114366  0.374868  0.531183  1
  H  H8  1  0.885634  0.625132  0.468818  1
  H  H9  1  0.278898  0.457345  0.733242  1
  H  H10  1  0.721101  0.542654  0.266759  1
  H  H11  1  0.295061  0.225331  0.585176  1
  H  H12  1  0.704939  0.774669  0.414825  1
  H  H13  1  0.168929  0.728568  0.929105  1
  H  H14  1  0.831071  0.271431  0.070894  1
  H  H15  1  0.039411  0.925128  0.358769  1
  H  H16  1  0.960589  0.074871  0.641229  1
  H  H17  1  0.441294  0.761128  0.005113  1
  H  H18  1  0.558707  0.238872  0.994886  1
  H  H19  1  0.307980  0.965053  0.009977  1
  H  H20  1  0.692019  0.034947  0.990022  1
  H  H21  1  0.375598  0.933714  0.282654  1
  H  H22  1  0.624404  0.066286  0.717346  1
  C  C23  1  0.056882  0.918924  0.230568  1
  C  C24  1  0.943119  0.081075  0.769434  1
  C  C25  1  0.296077  0.822685  0.022203  1
  C  C26  1  0.703925  0.177314  0.977797  1
  C  C27  1  0.266121  0.372668  0.599557  1
  C  C28  1  0.733878  0.627332  0.400443  1
  N  N29  1  0.254627  0.841967  0.194997  1
  N  N30  1  0.745373  0.158034  0.805002  1
  Cl  Cl31  1  0.255119  0.410669  0.199936  1
  Cl  Cl32  1  0.744882  0.589331  0.800064  1
  Cl  Cl33  1  0.649436  0.165663  0.396051  1
  Cl  Cl34  1  0.350566  0.834340  0.603951  1
