# generated using pymatgen
data_Tm2Ni12As7
_symmetry_space_group_name_H-M   'P 1'
_cell_length_a   9.35215006
_cell_length_b   9.35254384
_cell_length_c   3.80467708
_cell_angle_alpha   90.00000000
_cell_angle_beta   90.00000000
_cell_angle_gamma   120.01211922
_symmetry_Int_Tables_number   1
_chemical_formula_structural   Tm2Ni12As7
_chemical_formula_sum   'Tm2 Ni12 As7'
_cell_volume   288.16192968
_cell_formula_units_Z   1
loop_
 _symmetry_equiv_pos_site_id
 _symmetry_equiv_pos_as_xyz
  1  'x, y, z'
loop_
 _atom_site_type_symbol
 _atom_site_label
 _atom_site_symmetry_multiplicity
 _atom_site_fract_x
 _atom_site_fract_y
 _atom_site_fract_z
 _atom_site_occupancy
  Tm  Tm0  1  0.333307  0.666711  0.000000  1
  Tm  Tm1  1  0.666731  0.333284  0.499998  1
  Ni  Ni2  1  0.151974  0.280624  0.000000  1
  Ni  Ni3  1  0.719497  0.871372  0.000000  1
  Ni  Ni4  1  0.128610  0.848102  0.000000  1
  Ni  Ni5  1  0.378005  0.425749  0.499998  1
  Ni  Ni6  1  0.574129  0.952133  0.499998  1
  Ni  Ni7  1  0.047793  0.621978  0.499998  1
  Ni  Ni8  1  0.440735  0.056493  0.000000  1
  Ni  Ni9  1  0.943456  0.384145  0.000000  1
  Ni  Ni10  1  0.615807  0.559321  0.000000  1
  Ni  Ni11  1  0.212762  0.095609  0.499998  1
  Ni  Ni12  1  0.904466  0.117267  0.499998  1
  Ni  Ni13  1  0.882707  0.787225  0.499998  1
  As  As14  1  0.000054  0.000064  0.000000  1
  As  As15  1  0.112175  0.410121  0.499998  1
  As  As16  1  0.589878  0.702019  0.499998  1
  As  As17  1  0.297822  0.887871  0.499998  1
  As  As18  1  0.404068  0.283805  0.000000  1
  As  As19  1  0.716216  0.120111  0.000000  1
  As  As20  1  0.879810  0.595998  0.000000  1
