# generated using pymatgen
data_Ca3Pt2
_symmetry_space_group_name_H-M   'P 1'
_cell_length_a   7.63719125
_cell_length_b   7.63719121
_cell_length_c   7.63719125
_cell_angle_alpha   70.83693677
_cell_angle_beta   109.16306263
_cell_angle_gamma   109.16306320
_symmetry_Int_Tables_number   1
_chemical_formula_structural   Ca3Pt2
_chemical_formula_sum   'Ca9 Pt6'
_cell_volume   385.12473037
_cell_formula_units_Z   3
loop_
 _symmetry_equiv_pos_site_id
 _symmetry_equiv_pos_as_xyz
  1  'x, y, z'
loop_
 _atom_site_type_symbol
 _atom_site_label
 _atom_site_symmetry_multiplicity
 _atom_site_fract_x
 _atom_site_fract_y
 _atom_site_fract_z
 _atom_site_occupancy
  Ca  Ca0  1  0.000000  0.000000  0.000000  1
  Ca  Ca1  1  0.601444  0.667377  0.152869  1
  Ca  Ca2  1  0.799812  0.200189  0.200188  1
  Ca  Ca3  1  0.152869  0.601445  0.332622  1
  Ca  Ca4  1  0.332622  0.152869  0.398556  1
  Ca  Ca5  1  0.667378  0.847131  0.601446  1
  Ca  Ca6  1  0.847131  0.398556  0.667377  1
  Ca  Ca7  1  0.200188  0.799812  0.799812  1
  Ca  Ca8  1  0.398555  0.332622  0.847131  1
  Pt  Pt9  1  0.161209  0.413638  0.045911  1
  Pt  Pt10  1  0.413637  0.954090  0.161208  1
  Pt  Pt11  1  0.954090  0.838792  0.413638  1
  Pt  Pt12  1  0.045911  0.161208  0.586363  1
  Pt  Pt13  1  0.586363  0.045911  0.838792  1
  Pt  Pt14  1  0.838793  0.586363  0.954090  1
