# generated using pymatgen
data_Au3S
_symmetry_space_group_name_H-M   'P 1'
_cell_length_a   5.88795805
_cell_length_b   5.88795877
_cell_length_c   4.82459271
_cell_angle_alpha   90.00000000
_cell_angle_beta   90.00000000
_cell_angle_gamma   119.99999028
_symmetry_Int_Tables_number   1
_chemical_formula_structural   Au3S
_chemical_formula_sum   'Au6 S2'
_cell_volume   144.85076654
_cell_formula_units_Z   2
loop_
 _symmetry_equiv_pos_site_id
 _symmetry_equiv_pos_as_xyz
  1  'x, y, z'
loop_
 _atom_site_type_symbol
 _atom_site_label
 _atom_site_symmetry_multiplicity
 _atom_site_fract_x
 _atom_site_fract_y
 _atom_site_fract_z
 _atom_site_occupancy
  Au  Au0  1  0.166262  0.332525  0.249999  1
  Au  Au1  1  0.667474  0.833737  0.249999  1
  Au  Au2  1  0.166261  0.833737  0.249999  1
  Au  Au3  1  0.833739  0.667475  0.750000  1
  Au  Au4  1  0.332525  0.166261  0.750000  1
  Au  Au5  1  0.833738  0.166261  0.750000  1
  S  S6  1  0.333334  0.666668  0.750000  1
  S  S7  1  0.666668  0.333334  0.249999  1
