# generated using pymatgen
data_KV5Se8
_symmetry_space_group_name_H-M   'P 1'
_cell_length_a   3.70184291
_cell_length_b   8.97674133
_cell_length_c   9.53638741
_cell_angle_alpha   103.92429024
_cell_angle_beta   101.19083906
_cell_angle_gamma   90.00924983
_symmetry_Int_Tables_number   1
_chemical_formula_structural   KV5Se8
_chemical_formula_sum   'K1 V5 Se8'
_cell_volume   301.37248671
_cell_formula_units_Z   1
loop_
 _symmetry_equiv_pos_site_id
 _symmetry_equiv_pos_as_xyz
  1  'x, y, z'
loop_
 _atom_site_type_symbol
 _atom_site_label
 _atom_site_symmetry_multiplicity
 _atom_site_fract_x
 _atom_site_fract_y
 _atom_site_fract_z
 _atom_site_occupancy
  K  K0  1  0.500018  0.500013  0.999999  1
  V  V1  1  0.999991  0.000003  0.999988  1
  V  V2  1  0.650817  0.989601  0.301712  1
  V  V3  1  0.712241  0.348831  0.424433  1
  V  V4  1  0.287750  0.651166  0.575562  1
  V  V5  1  0.349193  0.010390  0.698318  1
  Se  Se6  1  0.572176  0.172662  0.144170  1
  Se  Se7  1  0.086781  0.820583  0.174029  1
  Se  Se8  1  0.162090  0.488932  0.324106  1
  Se  Se9  1  0.239740  0.156577  0.479268  1
  Se  Se10  1  0.760237  0.843423  0.520696  1
  Se  Se11  1  0.837923  0.511055  0.675898  1
  Se  Se12  1  0.913244  0.179450  0.825987  1
  Se  Se13  1  0.427821  0.827312  0.855833  1
