# generated using pymatgen
data_K3SeO4F
_symmetry_space_group_name_H-M   'P 1'
_cell_length_a   7.47727617
_cell_length_b   7.47727617
_cell_length_c   7.86593799
_cell_angle_alpha   118.37853508
_cell_angle_beta   118.37853505
_cell_angle_gamma   89.99999997
_symmetry_Int_Tables_number   1
_chemical_formula_structural   K3SeO4F
_chemical_formula_sum   'K6 Se2 O8 F2'
_cell_volume   325.61389358
_cell_formula_units_Z   2
loop_
 _symmetry_equiv_pos_site_id
 _symmetry_equiv_pos_as_xyz
  1  'x, y, z'
loop_
 _atom_site_type_symbol
 _atom_site_label
 _atom_site_symmetry_multiplicity
 _atom_site_fract_x
 _atom_site_fract_y
 _atom_site_fract_z
 _atom_site_occupancy
  O  O0  1  0.537056  0.037056  0.329155  1
  O  O1  1  0.207901  0.707901  0.670845  1
  O  O2  1  0.462944  0.962944  0.670845  1
  O  O3  1  0.707901  0.462944  0.670845  1
  O  O4  1  0.962944  0.207901  0.670845  1
  O  O5  1  0.292099  0.537056  0.329155  1
  O  O6  1  0.037056  0.792099  0.329155  1
  O  O7  1  0.792099  0.292099  0.329155  1
  F  F8  1  0.000000  0.000000  0.000000  1
  F  F9  1  0.500000  0.500000  0.000000  1
  K  K10  1  0.250000  0.250000  0.500000  1
  K  K11  1  0.750000  0.750000  0.500000  1
  K  K12  1  0.809407  0.309407  0.000000  1
  K  K13  1  0.690593  0.809407  0.000000  1
  K  K14  1  0.309407  0.190593  0.000000  1
  K  K15  1  0.190593  0.690593  0.000000  1
  Se  Se16  1  0.250000  0.750000  0.500000  1
  Se  Se17  1  0.750000  0.250000  0.500000  1
