# generated using pymatgen
data_MnTl3
_symmetry_space_group_name_H-M   'P 1'
_cell_length_a   6.70303201
_cell_length_b   6.70303256
_cell_length_c   5.45847502
_cell_angle_alpha   90.00000000
_cell_angle_beta   90.00000000
_cell_angle_gamma   120.00000226
_symmetry_Int_Tables_number   1
_chemical_formula_structural   MnTl3
_chemical_formula_sum   'Mn2 Tl6'
_cell_volume   212.39513827
_cell_formula_units_Z   2
loop_
 _symmetry_equiv_pos_site_id
 _symmetry_equiv_pos_as_xyz
  1  'x, y, z'
loop_
 _atom_site_type_symbol
 _atom_site_label
 _atom_site_symmetry_multiplicity
 _atom_site_fract_x
 _atom_site_fract_y
 _atom_site_fract_z
 _atom_site_occupancy
  Mn  Mn0  1  0.333334  0.666667  0.750000  1
  Mn  Mn1  1  0.666667  0.333334  0.249999  1
  Tl  Tl2  1  0.170884  0.341770  0.249999  1
  Tl  Tl3  1  0.658235  0.829118  0.249999  1
  Tl  Tl4  1  0.170882  0.829118  0.249999  1
  Tl  Tl5  1  0.829117  0.658234  0.750000  1
  Tl  Tl6  1  0.341766  0.170883  0.750000  1
  Tl  Tl7  1  0.829117  0.170883  0.750000  1
