# generated using pymatgen
data_U2Si4Mo3
_symmetry_space_group_name_H-M   'P 1'
_cell_length_a   6.75451155
_cell_length_b   6.85811068
_cell_length_c   6.86480986
_cell_angle_alpha   90.00000000
_cell_angle_beta   90.00000000
_cell_angle_gamma   109.99597901
_symmetry_Int_Tables_number   1
_chemical_formula_structural   U2Si4Mo3
_chemical_formula_sum   'U4 Si8 Mo6'
_cell_volume   298.82976954
_cell_formula_units_Z   2
loop_
 _symmetry_equiv_pos_site_id
 _symmetry_equiv_pos_as_xyz
  1  'x, y, z'
loop_
 _atom_site_type_symbol
 _atom_site_label
 _atom_site_symmetry_multiplicity
 _atom_site_fract_x
 _atom_site_fract_y
 _atom_site_fract_z
 _atom_site_occupancy
  Si  Si0  1  0.865443  0.500460  0.133309  1
  Si  Si1  1  0.634557  0.499540  0.633309  1
  Si  Si2  1  0.134557  0.499540  0.866691  1
  Si  Si3  1  0.365443  0.500460  0.366691  1
  Si  Si4  1  0.129410  0.911314  0.455668  1
  Si  Si5  1  0.370590  0.088686  0.955668  1
  Si  Si6  1  0.629410  0.911314  0.044332  1
  Si  Si7  1  0.870590  0.088686  0.544332  1
  Mo  Mo8  1  0.745612  0.756382  0.336025  1
  Mo  Mo9  1  0.754388  0.243618  0.836025  1
  Mo  Mo10  1  0.000000  0.500000  0.500000  1
  Mo  Mo11  1  0.500000  0.500000  0.000000  1
  Mo  Mo12  1  0.254388  0.243618  0.663975  1
  Mo  Mo13  1  0.245612  0.756382  0.163975  1
  U  U14  1  0.556110  0.184302  0.337655  1
  U  U15  1  0.943890  0.815698  0.837655  1
  U  U16  1  0.443890  0.815698  0.662345  1
  U  U17  1  0.056110  0.184302  0.162345  1
