# generated using pymatgen
data_Fe5O7F3
_symmetry_space_group_name_H-M   'P 1'
_cell_length_a   4.65788150
_cell_length_b   4.65692907
_cell_length_c   15.21782341
_cell_angle_alpha   90.00000000
_cell_angle_beta   90.00000000
_cell_angle_gamma   90.04072740
_symmetry_Int_Tables_number   1
_chemical_formula_structural   Fe5O7F3
_chemical_formula_sum   'Fe10 O14 F6'
_cell_volume   330.09617284
_cell_formula_units_Z   2
loop_
 _symmetry_equiv_pos_site_id
 _symmetry_equiv_pos_as_xyz
  1  'x, y, z'
loop_
 _atom_site_type_symbol
 _atom_site_label
 _atom_site_symmetry_multiplicity
 _atom_site_fract_x
 _atom_site_fract_y
 _atom_site_fract_z
 _atom_site_occupancy
  Fe  Fe0  1  0.037489  0.014328  0.007353  1
  Fe  Fe1  1  0.980944  0.971447  0.200000  1
  Fe  Fe2  1  0.037489  0.014328  0.392647  1
  Fe  Fe3  1  0.010658  0.980228  0.599081  1
  Fe  Fe4  1  0.010658  0.980228  0.800919  1
  Fe  Fe5  1  0.507831  0.492804  0.100014  1
  Fe  Fe6  1  0.470614  0.510616  0.506082  1
  Fe  Fe7  1  0.507831  0.492804  0.299986  1
  Fe  Fe8  1  0.482178  0.513597  0.700000  1
  Fe  Fe9  1  0.470614  0.510616  0.893918  1
  O  O10  1  0.196672  0.791756  0.105184  1
  O  O11  1  0.196672  0.791756  0.294816  1
  O  O12  1  0.191061  0.820329  0.496236  1
  O  O13  1  0.182453  0.804493  0.700000  1
  O  O14  1  0.191061  0.820329  0.903764  1
  O  O15  1  0.320908  0.320064  0.000706  1
  O  O16  1  0.320908  0.320064  0.399294  1
  O  O17  1  0.296466  0.304103  0.604073  1
  O  O18  1  0.296466  0.304103  0.795927  1
  O  O19  1  0.684879  0.671483  0.200000  1
  O  O20  1  0.687547  0.696390  0.602380  1
  O  O21  1  0.687547  0.696390  0.797620  1
  O  O22  1  0.807165  0.184559  0.103663  1
  O  O23  1  0.807165  0.184559  0.296337  1
  F  F24  1  0.302686  0.287075  0.200000  1
  F  F25  1  0.704414  0.706658  0.998158  1
  F  F26  1  0.704414  0.706658  0.401842  1
  F  F27  1  0.803866  0.206499  0.498080  1
  F  F28  1  0.803866  0.206499  0.901920  1
  F  F29  1  0.797480  0.195240  0.700000  1
