# generated using pymatgen
data_Er2Ga8Co
_symmetry_space_group_name_H-M   'P 1'
_cell_length_a   4.23066813
_cell_length_b   4.23069260
_cell_length_c   11.08993268
_cell_angle_alpha   90.00013514
_cell_angle_beta   90.00007393
_cell_angle_gamma   90.00037175
_symmetry_Int_Tables_number   1
_chemical_formula_structural   Er2Ga8Co
_chemical_formula_sum   'Er2 Ga8 Co1'
_cell_volume   198.49489399
_cell_formula_units_Z   1
loop_
 _symmetry_equiv_pos_site_id
 _symmetry_equiv_pos_as_xyz
  1  'x, y, z'
loop_
 _atom_site_type_symbol
 _atom_site_label
 _atom_site_symmetry_multiplicity
 _atom_site_fract_x
 _atom_site_fract_y
 _atom_site_fract_z
 _atom_site_occupancy
  Er  Er0  1  0.000007  0.000010  0.306008  1
  Er  Er1  1  0.000000  -0.000011  0.693990  1
  Ga  Ga2  1  0.500001  0.000002  0.116504  1
  Ga  Ga3  1  0.000002  0.500002  0.116505  1
  Ga  Ga4  1  0.499998  0.499996  0.301457  1
  Ga  Ga5  1  0.499996  0.000000  0.500002  1
  Ga  Ga6  1  0.000001  0.499999  0.499999  1
  Ga  Ga7  1  0.499998  0.500002  0.698546  1
  Ga  Ga8  1  0.499999  0.000001  0.883496  1
  Ga  Ga9  1  -0.000003  0.499997  0.883493  1
  Co  Co10  1  0.000001  0.000003  0.000000  1
