# generated using pymatgen
data_NdB2HF10
_symmetry_space_group_name_H-M   'P 1'
_cell_length_a   7.07791171
_cell_length_b   5.88628133
_cell_length_c   8.81546700
_cell_angle_alpha   90.00000000
_cell_angle_beta   112.54300669
_cell_angle_gamma   90.00000000
_symmetry_Int_Tables_number   1
_chemical_formula_structural   NdB2HF10
_chemical_formula_sum   'Nd2 B4 H2 F20'
_cell_volume   339.21234997
_cell_formula_units_Z   2
loop_
 _symmetry_equiv_pos_site_id
 _symmetry_equiv_pos_as_xyz
  1  'x, y, z'
loop_
 _atom_site_type_symbol
 _atom_site_label
 _atom_site_symmetry_multiplicity
 _atom_site_fract_x
 _atom_site_fract_y
 _atom_site_fract_z
 _atom_site_occupancy
  Nd  Nd0  1  0.767372  0.250001  0.343516  1
  Nd  Nd1  1  0.232630  0.750000  0.656486  1
  B  B2  1  0.748255  0.750000  0.049440  1
  B  B3  1  0.413942  0.750000  0.305085  1
  B  B4  1  0.586058  0.250001  0.694917  1
  B  B5  1  0.251745  0.250001  0.950559  1
  H  H6  1  0.072024  0.250001  0.152738  1
  H  H7  1  0.927977  0.750000  0.847263  1
  F  F8  1  0.928115  0.750000  0.015076  1
  F  F9  1  0.423421  0.250001  0.100279  1
  F  F10  1  0.334189  0.750000  0.136411  1
  F  F11  1  0.747112  0.554507  0.142981  1
  F  F12  1  0.747112  0.945494  0.142981  1
  F  F13  1  0.072057  0.250001  0.263497  1
  F  F14  1  0.260284  0.750000  0.372478  1
  F  F15  1  0.540879  0.552823  0.366361  1
  F  F16  1  0.540879  0.947178  0.366361  1
  F  F17  1  0.000001  0.000000  0.500001  1
  F  F18  1  0.000001  0.500000  0.500001  1
  F  F19  1  0.459120  0.052824  0.633641  1
  F  F20  1  0.459120  0.447177  0.633641  1
  F  F21  1  0.739716  0.250001  0.627522  1
  F  F22  1  0.927944  0.750000  0.736505  1
  F  F23  1  0.252883  0.054510  0.857014  1
  F  F24  1  0.252883  0.445491  0.857014  1
  F  F25  1  0.665812  0.250001  0.863590  1
  F  F26  1  0.576578  0.750000  0.899721  1
  F  F27  1  0.071887  0.250001  0.984924  1
