# generated using pymatgen
data_LaMoN3
_symmetry_space_group_name_H-M   'P 1'
_cell_length_a   3.96074000
_cell_length_b   5.76397021
_cell_length_c   7.78591000
_cell_angle_alpha   111.72510844
_cell_angle_beta   90.00000000
_cell_angle_gamma   90.00000000
_symmetry_Int_Tables_number   1
_chemical_formula_structural   LaMoN3
_chemical_formula_sum   'La2 Mo2 N6'
_cell_volume   165.12367312
_cell_formula_units_Z   2
loop_
 _symmetry_equiv_pos_site_id
 _symmetry_equiv_pos_as_xyz
  1  'x, y, z'
loop_
 _atom_site_type_symbol
 _atom_site_label
 _atom_site_symmetry_multiplicity
 _atom_site_fract_x
 _atom_site_fract_y
 _atom_site_fract_z
 _atom_site_occupancy
  La  La0  1  0.250000  0.959330  0.347860  1
  La  La1  1  0.750000  0.611470  0.652140  1
  Mo  Mo2  1  0.250000  0.250510  0.824740  1
  Mo  Mo3  1  0.750000  0.425770  0.175260  1
  N  N4  1  0.750000  0.191080  0.277260  1
  N  N5  1  0.750000  0.351050  0.887680  1
  N  N6  1  0.750000  0.725520  0.375480  1
  N  N7  1  0.250000  0.463370  0.112320  1
  N  N8  1  0.250000  0.913820  0.722740  1
  N  N9  1  0.250000  0.350040  0.624520  1
