# generated using pymatgen
data_LaCrN3
_symmetry_space_group_name_H-M   'P 1'
_cell_length_a   6.01210957
_cell_length_b   7.22685990
_cell_length_c   7.22686019
_cell_angle_alpha   90.24200066
_cell_angle_beta   101.79466950
_cell_angle_gamma   78.20532680
_symmetry_Int_Tables_number   1
_chemical_formula_structural   LaCrN3
_chemical_formula_sum   'La4 Cr4 N12'
_cell_volume   300.64702671
_cell_formula_units_Z   4
loop_
 _symmetry_equiv_pos_site_id
 _symmetry_equiv_pos_as_xyz
  1  'x, y, z'
loop_
 _atom_site_type_symbol
 _atom_site_label
 _atom_site_symmetry_multiplicity
 _atom_site_fract_x
 _atom_site_fract_y
 _atom_site_fract_z
 _atom_site_occupancy
  La  La0  1  0.750000  0.334454  0.334454  1
  La  La1  1  0.250000  0.665546  0.665546  1
  La  La2  1  0.250000  0.096714  0.096714  1
  La  La3  1  0.750000  0.903286  0.903286  1
  Cr  Cr4  1  0.756835  0.373115  0.799932  1
  Cr  Cr5  1  0.243165  0.626885  0.200068  1
  Cr  Cr6  1  0.743165  0.799932  0.373115  1
  Cr  Cr7  1  0.256835  0.200068  0.626885  1
  N  N8  1  0.660693  0.998317  0.230065  1
  N  N9  1  0.843094  0.855779  0.592153  1
  N  N10  1  0.160693  0.769935  0.001683  1
  N  N11  1  0.156906  0.144221  0.407847  1
  N  N12  1  0.339307  0.001683  0.769935  1
  N  N13  1  0.839307  0.230065  0.998317  1
  N  N14  1  0.656906  0.592153  0.855779  1
  N  N15  1  0.991078  0.640063  0.317572  1
  N  N16  1  0.008922  0.359937  0.682428  1
  N  N17  1  0.343094  0.407847  0.144221  1
  N  N18  1  0.491078  0.682428  0.359937  1
  N  N19  1  0.508922  0.317572  0.640063  1
