# generated using pymatgen
data_YReN3
_symmetry_space_group_name_H-M   'P 1'
_cell_length_a   5.40331031
_cell_length_b   5.63008872
_cell_length_c   7.72468530
_cell_angle_alpha   90.00235815
_cell_angle_beta   89.99769957
_cell_angle_gamma   89.99778365
_symmetry_Int_Tables_number   1
_chemical_formula_structural   YReN3
_chemical_formula_sum   'Y4 Re4 N12'
_cell_volume   234.99355059
_cell_formula_units_Z   4
loop_
 _symmetry_equiv_pos_site_id
 _symmetry_equiv_pos_as_xyz
  1  'x, y, z'
loop_
 _atom_site_type_symbol
 _atom_site_label
 _atom_site_symmetry_multiplicity
 _atom_site_fract_x
 _atom_site_fract_y
 _atom_site_fract_z
 _atom_site_occupancy
  Y  Y0  1  0.488423  0.938926  0.249898  1
  Y  Y1  1  0.011577  0.438947  0.249905  1
  Y  Y2  1  0.511573  0.061083  0.750094  1
  Y  Y3  1  0.988419  0.561064  0.750111  1
  Re  Re4  1  0.499994  0.499985  0.500011  1
  Re  Re5  1  0.999991  -0.000007  -0.000037  1
  Re  Re6  1  0.000005  0.000013  0.500027  1
  Re  Re7  1  0.500019  0.500015  -0.000018  1
  N  N8  1  0.699620  0.796717  0.543381  1
  N  N9  1  0.300203  0.203114  0.043368  1
  N  N10  1  0.199610  0.703299  0.043367  1
  N  N11  1  0.418121  0.481964  0.750053  1
  N  N12  1  0.918113  0.018036  0.249817  1
  N  N13  1  0.300380  0.203293  0.456618  1
  N  N14  1  0.800386  0.296689  0.956633  1
  N  N15  1  0.699794  0.796876  0.956631  1
  N  N16  1  0.800219  0.296883  0.543388  1
  N  N17  1  0.081884  0.981959  0.750187  1
  N  N18  1  0.199781  0.703110  0.456618  1
  N  N19  1  0.581887  0.518035  0.249947  1
