# generated using pymatgen
data_H6CIN
_symmetry_space_group_name_H-M   'P 1'
_cell_length_a   7.23905534
_cell_length_b   7.15377779
_cell_length_c   8.89135320
_cell_angle_alpha   90.00000000
_cell_angle_beta   90.00000000
_cell_angle_gamma   90.00000000
_symmetry_Int_Tables_number   1
_chemical_formula_structural   H6CIN
_chemical_formula_sum   'H24 C4 I4 N4'
_cell_volume   460.45289216
_cell_formula_units_Z   4
loop_
 _symmetry_equiv_pos_site_id
 _symmetry_equiv_pos_as_xyz
  1  'x, y, z'
loop_
 _atom_site_type_symbol
 _atom_site_label
 _atom_site_symmetry_multiplicity
 _atom_site_fract_x
 _atom_site_fract_y
 _atom_site_fract_z
 _atom_site_occupancy
  H  H0  1  0.832791  0.750000  0.167664  1
  H  H1  1  0.167209  0.250000  0.832336  1
  H  H2  1  0.332791  0.750000  0.832336  1
  H  H3  1  0.667209  0.250000  0.167664  1
  H  H4  1  0.034033  0.631774  0.165913  1
  H  H5  1  0.965967  0.368226  0.834087  1
  H  H6  1  0.965967  0.131774  0.834087  1
  H  H7  1  0.034033  0.868226  0.165913  1
  H  H8  1  0.534033  0.868226  0.834087  1
  H  H9  1  0.465967  0.131774  0.165913  1
  H  H10  1  0.465967  0.368226  0.165913  1
  H  H11  1  0.534033  0.631774  0.834087  1
  H  H12  1  0.114332  0.750000  0.413281  1
  H  H13  1  0.885668  0.250000  0.586719  1
  H  H14  1  0.614332  0.750000  0.586719  1
  H  H15  1  0.385668  0.250000  0.413281  1
  H  H16  1  0.900239  0.875432  0.415627  1
  H  H17  1  0.099761  0.124568  0.584373  1
  H  H18  1  0.099761  0.375432  0.584373  1
  H  H19  1  0.900239  0.624568  0.415627  1
  H  H20  1  0.400239  0.624568  0.584373  1
  H  H21  1  0.599761  0.375432  0.415627  1
  H  H22  1  0.599761  0.124568  0.415627  1
  H  H23  1  0.400239  0.875432  0.584373  1
  C  C24  1  0.970744  0.750000  0.375320  1
  C  C25  1  0.029256  0.250000  0.624680  1
  C  C26  1  0.470744  0.750000  0.624680  1
  C  C27  1  0.529256  0.250000  0.375320  1
  I  I28  1  0.972765  0.750000  0.809831  1
  I  I29  1  0.027235  0.250000  0.190169  1
  I  I30  1  0.472765  0.750000  0.190169  1
  I  I31  1  0.527235  0.250000  0.809831  1
  N  N32  1  0.968206  0.750000  0.207785  1
  N  N33  1  0.031794  0.250000  0.792215  1
  N  N34  1  0.468206  0.750000  0.792215  1
  N  N35  1  0.531794  0.250000  0.207785  1
