# generated using pymatgen
data_BaWN3
_symmetry_space_group_name_H-M   'P 1'
_cell_length_a   5.78805000
_cell_length_b   18.12599993
_cell_length_c   7.83970000
_cell_angle_alpha   154.99161022
_cell_angle_beta   90.00000000
_cell_angle_gamma   90.00000000
_symmetry_Int_Tables_number   1
_chemical_formula_structural   BaWN3
_chemical_formula_sum   'Ba4 W4 N12'
_cell_volume   347.71089737
_cell_formula_units_Z   4
loop_
 _symmetry_equiv_pos_site_id
 _symmetry_equiv_pos_as_xyz
  1  'x, y, z'
loop_
 _atom_site_type_symbol
 _atom_site_label
 _atom_site_symmetry_multiplicity
 _atom_site_fract_x
 _atom_site_fract_y
 _atom_site_fract_z
 _atom_site_occupancy
  Ba  Ba0  1  0.259600  0.341020  0.308620  1
  Ba  Ba1  1  0.740400  0.658980  0.691380  1
  Ba  Ba2  1  0.759600  0.158980  0.191380  1
  Ba  Ba3  1  0.240400  0.841020  0.808620  1
  W  W4  1  0.238330  0.796600  0.231050  1
  W  W5  1  0.261670  0.296600  0.731050  1
  W  W6  1  0.738330  0.703400  0.268950  1
  W  W7  1  0.761670  0.203400  0.768950  1
  N  N8  1  0.441070  0.164980  0.619740  1
  N  N9  1  0.558930  0.835020  0.380260  1
  N  N10  1  0.935370  0.012480  0.455760  1
  N  N11  1  0.564630  0.512480  0.955760  1
  N  N12  1  0.941070  0.335020  0.880260  1
  N  N13  1  0.240530  0.153130  0.250000  1
  N  N14  1  0.435370  0.487520  0.044240  1
  N  N15  1  0.759470  0.846870  0.750000  1
  N  N16  1  0.259470  0.653130  0.750000  1
  N  N17  1  0.064630  0.987520  0.544240  1
  N  N18  1  0.740530  0.346870  0.250000  1
  N  N19  1  0.058930  0.664980  0.119740  1
