# generated using pymatgen
data_HgH6I3NO
_symmetry_space_group_name_H-M   'P 1'
_cell_length_a   7.38594620
_cell_length_b   7.38594620
_cell_length_c   9.04679005
_cell_angle_alpha   91.42491631
_cell_angle_beta   91.42491631
_cell_angle_gamma   81.43844323
_symmetry_Int_Tables_number   1
_chemical_formula_structural   HgH6I3NO
_chemical_formula_sum   'Hg2 H12 I6 N2 O2'
_cell_volume   487.75999854
_cell_formula_units_Z   2
loop_
 _symmetry_equiv_pos_site_id
 _symmetry_equiv_pos_as_xyz
  1  'x, y, z'
loop_
 _atom_site_type_symbol
 _atom_site_label
 _atom_site_symmetry_multiplicity
 _atom_site_fract_x
 _atom_site_fract_y
 _atom_site_fract_z
 _atom_site_occupancy
  Hg  Hg0  1  0.386399  0.449624  0.104498  1
  Hg  Hg1  1  0.449623  0.386398  0.604499  1
  H  H2  1  0.962348  0.227154  0.170881  1
  H  H3  1  0.780251  0.164560  0.249856  1
  H  H4  1  0.875332  0.339780  0.324527  1
  H  H5  1  0.988626  0.119674  0.338824  1
  H  H6  1  0.140257  0.840078  0.385625  1
  H  H7  1  0.978958  0.904752  0.491725  1
  H  H8  1  0.227154  0.962348  0.670882  1
  H  H9  1  0.164560  0.780251  0.749855  1
  H  H10  1  0.339780  0.875332  0.824527  1
  H  H11  1  0.119673  0.988625  0.838824  1
  H  H12  1  0.840078  0.140256  0.885624  1
  H  H13  1  0.904752  0.978959  0.991725  1
  I  I14  1  0.033910  0.652309  0.127747  1
  I  I15  1  0.460578  0.068914  0.136291  1
  I  I16  1  0.564908  0.606293  0.373608  1
  I  I17  1  0.652309  0.033910  0.627747  1
  I  I18  1  0.068915  0.460579  0.636291  1
  I  I19  1  0.606294  0.564909  0.873608  1
  N  N20  1  0.903713  0.213330  0.271437  1
  N  N21  1  0.213330  0.903713  0.771437  1
  O  O22  1  0.092117  0.940931  0.453280  1
  O  O23  1  0.940932  0.092118  0.953279  1
