# generated using pymatgen
data_Ce3(SiRh)2
_symmetry_space_group_name_H-M   'P 1'
_cell_length_a   5.54733063
_cell_length_b   7.95276427
_cell_length_c   13.17382137
_cell_angle_alpha   90.00355160
_cell_angle_beta   89.98990753
_cell_angle_gamma   90.01141628
_symmetry_Int_Tables_number   1
_chemical_formula_structural   Ce3(SiRh)2
_chemical_formula_sum   'Ce12 Si8 Rh8'
_cell_volume   581.18435521
_cell_formula_units_Z   4
loop_
 _symmetry_equiv_pos_site_id
 _symmetry_equiv_pos_as_xyz
  1  'x, y, z'
loop_
 _atom_site_type_symbol
 _atom_site_label
 _atom_site_symmetry_multiplicity
 _atom_site_fract_x
 _atom_site_fract_y
 _atom_site_fract_z
 _atom_site_occupancy
  Ce  Ce0  1  0.644203  0.241496  0.250109  1
  Ce  Ce1  1  0.355683  0.758704  0.749923  1
  Ce  Ce2  1  0.644139  0.258463  0.749881  1
  Ce  Ce3  1  0.355778  0.741332  0.250087  1
  Ce  Ce4  1  0.141818  0.388549  0.099406  1
  Ce  Ce5  1  0.858302  0.611400  0.599462  1
  Ce  Ce6  1  0.141920  0.111338  0.900383  1
  Ce  Ce7  1  0.858341  0.888699  0.400792  1
  Ce  Ce8  1  0.858190  0.611279  0.900398  1
  Ce  Ce9  1  0.141633  0.388507  0.400733  1
  Ce  Ce10  1  0.858217  0.888743  0.099315  1
  Ce  Ce11  1  0.141758  0.111366  0.599471  1
  Si  Si12  1  0.646520  0.250045  0.999968  1
  Si  Si13  1  0.353386  0.750002  0.500065  1
  Si  Si14  1  0.353440  0.749978  0.999933  1
  Si  Si15  1  0.646602  0.250025  0.500055  1
  Si  Si16  1  0.145535  0.096102  0.250036  1
  Si  Si17  1  0.854449  0.904029  0.749930  1
  Si  Si18  1  0.145605  0.403893  0.749944  1
  Si  Si19  1  0.854431  0.595933  0.250040  1
  Rh  Rh20  1  0.377423  0.034295  0.092566  1
  Rh  Rh21  1  0.622561  0.965770  0.592556  1
  Rh  Rh22  1  0.377479  0.465664  0.907380  1
  Rh  Rh23  1  0.622598  0.534351  0.407533  1
  Rh  Rh24  1  0.622699  0.965671  0.907416  1
  Rh  Rh25  1  0.377277  0.034372  0.407559  1
  Rh  Rh26  1  0.622645  0.534400  0.092531  1
  Rh  Rh27  1  0.377365  0.465587  0.592526  1
