# generated using pymatgen
data_Sr(AuO2)2
_symmetry_space_group_name_H-M   'P 1'
_cell_length_a   6.31082090
_cell_length_b   6.31082090
_cell_length_c   6.82409437
_cell_angle_alpha   117.54160297
_cell_angle_beta   117.54160294
_cell_angle_gamma   90.00000004
_symmetry_Int_Tables_number   1
_chemical_formula_structural   Sr(AuO2)2
_chemical_formula_sum   'Sr2 Au4 O8'
_cell_volume   205.61809371
_cell_formula_units_Z   2
loop_
 _symmetry_equiv_pos_site_id
 _symmetry_equiv_pos_as_xyz
  1  'x, y, z'
loop_
 _atom_site_type_symbol
 _atom_site_label
 _atom_site_symmetry_multiplicity
 _atom_site_fract_x
 _atom_site_fract_y
 _atom_site_fract_z
 _atom_site_occupancy
  O  O0  1  0.826405  0.204854  0.346144  1
  O  O1  1  0.141290  0.326405  0.846144  1
  O  O2  1  0.704854  0.019739  0.846144  1
  O  O3  1  0.519739  0.641290  0.346144  1
  O  O4  1  0.173595  0.795146  0.653856  1
  O  O5  1  0.858710  0.673595  0.153856  1
  O  O6  1  0.480261  0.358710  0.653856  1
  O  O7  1  0.295146  0.980261  0.153856  1
  Sr  Sr8  1  0.125000  0.375000  0.250000  1
  Sr  Sr9  1  0.875000  0.625000  0.750000  1
  Au  Au10  1  0.500000  0.000000  0.500000  1
  Au  Au11  1  0.500000  0.500000  0.000000  1
  Au  Au12  1  0.000000  0.000000  0.500000  1
  Au  Au13  1  0.500000  0.000000  0.000000  1
