# generated using pymatgen
data_MnNbAs
_symmetry_space_group_name_H-M   'P 1'
_cell_length_a   4.22092499
_cell_length_b   4.22092444
_cell_length_c   4.22092705
_cell_angle_alpha   59.99997549
_cell_angle_beta   59.99996436
_cell_angle_gamma   60.00000272
_symmetry_Int_Tables_number   1
_chemical_formula_structural   MnNbAs
_chemical_formula_sum   'Mn1 Nb1 As1'
_cell_volume   53.17504577
_cell_formula_units_Z   1
loop_
 _symmetry_equiv_pos_site_id
 _symmetry_equiv_pos_as_xyz
  1  'x, y, z'
loop_
 _atom_site_type_symbol
 _atom_site_label
 _atom_site_symmetry_multiplicity
 _atom_site_fract_x
 _atom_site_fract_y
 _atom_site_fract_z
 _atom_site_occupancy
  Mn  Mn0  1  0.500002  0.500003  0.500001  1
  Nb  Nb1  1  0.249999  0.249999  0.249999  1
  As  As2  1  -0.000001  -0.000001  0.999999  1
