# generated using pymatgen
data_Dy3Fe2Si3
_symmetry_space_group_name_H-M   'P 1'
_cell_length_a   4.07784230
_cell_length_b   5.65462143
_cell_length_c   13.59724938
_cell_angle_alpha   90.00000000
_cell_angle_beta   90.00000000
_cell_angle_gamma   111.13557841
_symmetry_Int_Tables_number   1
_chemical_formula_structural   Dy3Fe2Si3
_chemical_formula_sum   'Dy6 Fe4 Si6'
_cell_volume   292.44276522
_cell_formula_units_Z   2
loop_
 _symmetry_equiv_pos_site_id
 _symmetry_equiv_pos_as_xyz
  1  'x, y, z'
loop_
 _atom_site_type_symbol
 _atom_site_label
 _atom_site_symmetry_multiplicity
 _atom_site_fract_x
 _atom_site_fract_y
 _atom_site_fract_z
 _atom_site_occupancy
  Si  Si0  1  0.126155  0.252311  0.539774  1
  Si  Si1  1  0.873845  0.747689  0.460226  1
  Si  Si2  1  0.873845  0.747689  0.039774  1
  Si  Si3  1  0.126155  0.252311  0.960226  1
  Si  Si4  1  0.176186  0.352373  0.250000  1
  Si  Si5  1  0.823814  0.647627  0.750000  1
  Fe  Fe6  1  0.715479  0.430959  0.919563  1
  Fe  Fe7  1  0.284521  0.569041  0.080437  1
  Fe  Fe8  1  0.284521  0.569041  0.419563  1
  Fe  Fe9  1  0.715479  0.430959  0.580437  1
  Dy  Dy10  1  0.419691  0.839382  0.611982  1
  Dy  Dy11  1  0.580309  0.160618  0.388018  1
  Dy  Dy12  1  0.580309  0.160618  0.111982  1
  Dy  Dy13  1  0.419691  0.839382  0.888018  1
  Dy  Dy14  1  0.864587  0.729174  0.250000  1
  Dy  Dy15  1  0.135413  0.270826  0.750000  1
