# generated using pymatgen
data_LaVN3
_symmetry_space_group_name_H-M   'P 1'
_cell_length_a   3.62958317
_cell_length_b   6.02494133
_cell_length_c   6.32877570
_cell_angle_alpha   73.03747947
_cell_angle_beta   83.58803881
_cell_angle_gamma   90.83802874
_symmetry_Int_Tables_number   1
_chemical_formula_structural   LaVN3
_chemical_formula_sum   'La2 V2 N6'
_cell_volume   131.38653724
_cell_formula_units_Z   2
loop_
 _symmetry_equiv_pos_site_id
 _symmetry_equiv_pos_as_xyz
  1  'x, y, z'
loop_
 _atom_site_type_symbol
 _atom_site_label
 _atom_site_symmetry_multiplicity
 _atom_site_fract_x
 _atom_site_fract_y
 _atom_site_fract_z
 _atom_site_occupancy
  La  La0  1  0.448644  0.210799  0.270698  1
  La  La1  1  0.374453  0.667432  0.728008  1
  V  V2  1  0.852028  0.182300  0.752545  1
  V  V3  1  0.923363  0.711781  0.252209  1
  N  N4  1  0.030093  0.053062  0.050075  1
  N  N5  1  0.322567  0.165170  0.886875  1
  N  N6  1  0.934410  0.532077  0.080916  1
  N  N7  1  0.446698  0.778152  0.310897  1
  N  N8  1  0.893252  0.476154  0.564671  1
  N  N9  1  0.889482  0.998224  0.584567  1
