# generated using pymatgen
data_Ag2GeO3
_symmetry_space_group_name_H-M   'P 1'
_cell_length_a   4.75468184
_cell_length_b   7.14059722
_cell_length_c   10.55232949
_cell_angle_alpha   90.00000000
_cell_angle_beta   90.00000000
_cell_angle_gamma   90.00000000
_symmetry_Int_Tables_number   1
_chemical_formula_structural   Ag2GeO3
_chemical_formula_sum   'Ag8 Ge4 O12'
_cell_volume   358.26496579
_cell_formula_units_Z   4
loop_
 _symmetry_equiv_pos_site_id
 _symmetry_equiv_pos_as_xyz
  1  'x, y, z'
loop_
 _atom_site_type_symbol
 _atom_site_label
 _atom_site_symmetry_multiplicity
 _atom_site_fract_x
 _atom_site_fract_y
 _atom_site_fract_z
 _atom_site_occupancy
  Ag  Ag0  1  0.096351  0.622092  0.124046  1
  Ag  Ag1  1  0.403649  0.377909  0.624046  1
  Ag  Ag2  1  0.596349  0.877910  0.875953  1
  Ag  Ag3  1  0.903649  0.122092  0.375954  1
  Ag  Ag4  1  0.480304  0.393103  0.279214  1
  Ag  Ag5  1  0.019694  0.606896  0.779215  1
  Ag  Ag6  1  0.980306  0.106896  0.720785  1
  Ag  Ag7  1  0.519696  0.893103  0.220785  1
  Ge  Ge8  1  0.032590  0.131343  0.064048  1
  Ge  Ge9  1  0.467408  0.868658  0.564048  1
  Ge  Ge10  1  0.532592  0.368657  0.935951  1
  Ge  Ge11  1  0.967410  0.631343  0.435951  1
  O  O12  1  0.204627  0.140728  0.213131  1
  O  O13  1  0.295375  0.859273  0.713131  1
  O  O14  1  0.704625  0.359273  0.786869  1
  O  O15  1  0.795373  0.640728  0.286868  1
  O  O16  1  0.783367  0.323578  0.061288  1
  O  O17  1  0.716635  0.676422  0.561289  1
  O  O18  1  0.283365  0.176422  0.938711  1
  O  O19  1  0.216633  0.823578  0.438712  1
  O  O20  1  0.127067  0.413913  0.460862  1
  O  O21  1  0.372933  0.586086  0.960863  1
  O  O22  1  0.627067  0.086086  0.539137  1
  O  O23  1  0.872933  0.913913  0.039137  1
