# generated using pymatgen
data_Yb5Sn3
_symmetry_space_group_name_H-M   'P 1'
_cell_length_a   9.34304996
_cell_length_b   9.34287541
_cell_length_c   6.68429341
_cell_angle_alpha   90.00000000
_cell_angle_beta   90.00000000
_cell_angle_gamma   120.00393596
_symmetry_Int_Tables_number   1
_chemical_formula_structural   Yb5Sn3
_chemical_formula_sum   'Yb10 Sn6'
_cell_volume   505.28701687
_cell_formula_units_Z   2
loop_
 _symmetry_equiv_pos_site_id
 _symmetry_equiv_pos_as_xyz
  1  'x, y, z'
loop_
 _atom_site_type_symbol
 _atom_site_label
 _atom_site_symmetry_multiplicity
 _atom_site_fract_x
 _atom_site_fract_y
 _atom_site_fract_z
 _atom_site_occupancy
  Yb  Yb0  1  0.333321  0.666679  0.000000  1
  Yb  Yb1  1  0.666680  0.333319  0.499999  1
  Yb  Yb2  1  0.666680  0.333319  0.000001  1
  Yb  Yb3  1  0.333321  0.666679  0.500000  1
  Yb  Yb4  1  0.269056  0.000015  0.250000  1
  Yb  Yb5  1  0.730939  0.999984  0.750000  1
  Yb  Yb6  1  0.000015  0.269060  0.250000  1
  Yb  Yb7  1  0.731039  0.731041  0.250000  1
  Yb  Yb8  1  0.268955  0.268959  0.750000  1
  Yb  Yb9  1  0.999983  0.730942  0.750000  1
  Sn  Sn10  1  0.612594  0.000018  0.250000  1
  Sn  Sn11  1  0.387414  0.999983  0.750000  1
  Sn  Sn12  1  0.000025  0.612579  0.250000  1
  Sn  Sn13  1  0.387551  0.387550  0.250000  1
  Sn  Sn14  1  0.612451  0.612456  0.750000  1
  Sn  Sn15  1  0.999973  0.387414  0.750000  1
