# generated using pymatgen
data_Zn6HO6
_symmetry_space_group_name_H-M   'P 1'
_cell_length_a   6.65865850
_cell_length_b   5.77060523
_cell_length_c   41.60345415
_cell_angle_alpha   89.92720420
_cell_angle_beta   89.95884414
_cell_angle_gamma   89.99547632
_symmetry_Int_Tables_number   1
_chemical_formula_structural   Zn6HO6
_chemical_formula_sum   'Zn24 H4 O24'
_cell_volume   1598.58978201
_cell_formula_units_Z   4
loop_
 _symmetry_equiv_pos_site_id
 _symmetry_equiv_pos_as_xyz
  1  'x, y, z'
loop_
 _atom_site_type_symbol
 _atom_site_label
 _atom_site_symmetry_multiplicity
 _atom_site_fract_x
 _atom_site_fract_y
 _atom_site_fract_z
 _atom_site_occupancy
  Zn  Zn0  1  0.001482  0.333071  0.142634  1
  Zn  Zn1  1  0.501501  0.333026  0.142628  1
  Zn  Zn2  1  0.251480  0.833297  0.142432  1
  Zn  Zn3  1  0.751462  0.833308  0.142429  1
  Zn  Zn4  1  0.251358  0.166544  0.206566  1
  Zn  Zn5  1  0.751502  0.166531  0.206566  1
  Zn  Zn6  1  0.001473  0.666629  0.206534  1
  Zn  Zn7  1  0.501482  0.666764  0.206565  1
  Zn  Zn8  1  0.001386  0.333142  0.269879  1
  Zn  Zn9  1  0.501372  0.332523  0.269661  1
  Zn  Zn10  1  0.250858  0.833266  0.269608  1
  Zn  Zn11  1  0.751819  0.833273  0.269610  1
  Zn  Zn12  1  0.250848  0.163824  0.332689  1
  Zn  Zn13  1  0.750181  0.163808  0.332691  1
  Zn  Zn14  1  0.000524  0.665109  0.332779  1
  Zn  Zn15  1  0.500536  0.664934  0.331810  1
  Zn  Zn16  1  0.000143  0.330288  0.394229  1
  Zn  Zn17  1  0.500143  0.338134  0.394949  1
  Zn  Zn18  1  0.253805  0.828834  0.395427  1
  Zn  Zn19  1  0.746538  0.828796  0.395434  1
  Zn  Zn20  1  0.254298  0.163468  0.452465  1
  Zn  Zn21  1  0.745767  0.163471  0.452471  1
  Zn  Zn22  1  0.000065  0.663746  0.452905  1
  Zn  Zn23  1  0.500010  0.666612  0.462168  1
  H  H24  1  0.251428  0.169006  0.099626  1
  H  H25  1  0.751703  0.169004  0.099618  1
  H  H26  1  0.001572  0.664338  0.099614  1
  H  H27  1  0.501537  0.664369  0.099610  1
  O  O28  1  0.251549  0.167338  0.123371  1
  O  O29  1  0.751646  0.167333  0.123368  1
  O  O30  1  0.001564  0.665921  0.123357  1
  O  O31  1  0.501556  0.665924  0.123355  1
  O  O32  1  0.001524  0.333529  0.189570  1
  O  O33  1  0.501532  0.333536  0.189580  1
  O  O34  1  0.251553  0.833618  0.189436  1
  O  O35  1  0.751567  0.833620  0.189433  1
  O  O36  1  0.251152  0.166594  0.254432  1
  O  O37  1  0.751810  0.166589  0.254432  1
  O  O38  1  0.501447  0.666370  0.254471  1
  O  O39  1  0.001441  0.665868  0.254393  1
  O  O40  1  0.000590  0.331620  0.318667  1
  O  O41  1  0.500601  0.330352  0.318322  1
  O  O42  1  0.249603  0.831846  0.318231  1
  O  O43  1  0.751608  0.831847  0.318231  1
  O  O44  1  0.251556  0.163917  0.382301  1
  O  O45  1  0.748872  0.163898  0.382305  1
  O  O46  1  0.000238  0.665500  0.382397  1
  O  O47  1  0.500244  0.666299  0.380778  1
  O  O48  1  0.000050  0.328042  0.446073  1
  O  O49  1  0.500051  0.341144  0.446033  1
  O  O50  1  0.253409  0.828048  0.446588  1
  O  O51  1  0.746733  0.828045  0.446595  1
