# generated using pymatgen
data_Pa3H
_symmetry_space_group_name_H-M   'P 1'
_cell_length_a   6.91043631
_cell_length_b   6.91043644
_cell_length_c   3.84494373
_cell_angle_alpha   90.00000000
_cell_angle_beta   90.00000000
_cell_angle_gamma   119.99999438
_symmetry_Int_Tables_number   1
_chemical_formula_structural   Pa3H
_chemical_formula_sum   'Pa6 H2'
_cell_volume   159.01261876
_cell_formula_units_Z   2
loop_
 _symmetry_equiv_pos_site_id
 _symmetry_equiv_pos_as_xyz
  1  'x, y, z'
loop_
 _atom_site_type_symbol
 _atom_site_label
 _atom_site_symmetry_multiplicity
 _atom_site_fract_x
 _atom_site_fract_y
 _atom_site_fract_z
 _atom_site_occupancy
  Pa  Pa0  1  0.189248  0.378496  0.249999  1
  Pa  Pa1  1  0.621504  0.810751  0.249999  1
  Pa  Pa2  1  0.189247  0.810751  0.249999  1
  Pa  Pa3  1  0.810752  0.621505  0.750001  1
  Pa  Pa4  1  0.378495  0.189248  0.750001  1
  Pa  Pa5  1  0.810752  0.189248  0.750001  1
  H  H6  1  0.333334  0.666668  0.750001  1
  H  H7  1  0.666667  0.333333  0.249999  1
