# generated using pymatgen
data_Y(Mg4Al3)4
_symmetry_space_group_name_H-M   'P 1'
_cell_length_a   8.90745424
_cell_length_b   9.23914174
_cell_length_c   9.23914263
_cell_angle_alpha   110.18700685
_cell_angle_beta   108.74558559
_cell_angle_gamma   108.74558600
_symmetry_Int_Tables_number   1
_chemical_formula_structural   Y(Mg4Al3)4
_chemical_formula_sum   'Y1 Mg16 Al12'
_cell_volume   590.48124929
_cell_formula_units_Z   1
loop_
 _symmetry_equiv_pos_site_id
 _symmetry_equiv_pos_as_xyz
  1  'x, y, z'
loop_
 _atom_site_type_symbol
 _atom_site_label
 _atom_site_symmetry_multiplicity
 _atom_site_fract_x
 _atom_site_fract_y
 _atom_site_fract_z
 _atom_site_occupancy
  Y  Y0  1  0.370744  0.999999  0.999999  1
  Mg  Mg1  1  0.995661  0.341431  0.000000  1
  Mg  Mg2  1  0.315436  0.597780  0.000000  1
  Mg  Mg3  1  0.998114  0.000000  0.000000  1
  Mg  Mg4  1  0.610471  0.330374  0.000001  1
  Mg  Mg5  1  0.688751  0.687438  0.294492  1
  Mg  Mg6  1  0.001313  0.607055  0.312562  1
  Mg  Mg7  1  0.610472  0.000001  0.330374  1
  Mg  Mg8  1  0.995661  0.000000  0.341431  1
  Mg  Mg9  1  0.394259  0.705508  0.392945  1
  Mg  Mg10  1  0.717657  0.402221  0.402222  1
  Mg  Mg11  1  0.315436  1.000000  0.597780  1
  Mg  Mg12  1  0.001313  0.312561  0.607055  1
  Mg  Mg13  1  0.654229  0.658568  0.658568  1
  Mg  Mg14  1  0.280097  0.669625  0.669626  1
  Mg  Mg15  1  0.688752  0.294493  0.687439  1
  Mg  Mg16  1  0.394259  0.392946  0.705508  1
  Al  Al17  1  0.627824  0.816944  0.999999  1
  Al  Al18  1  0.810377  0.636323  0.000000  1
  Al  Al19  1  0.365210  0.363701  0.178905  1
  Al  Al20  1  0.810878  0.183056  0.183056  1
  Al  Al21  1  0.186303  0.821094  0.184794  1
  Al  Al22  1  0.174054  0.363677  0.363677  1
  Al  Al23  1  0.365210  0.178905  0.363700  1
  Al  Al24  1  0.001509  0.815205  0.636301  1
  Al  Al25  1  0.810377  0.000000  0.636323  1
  Al  Al26  1  0.001509  0.636300  0.815205  1
  Al  Al27  1  0.627823  0.999999  0.816945  1
  Al  Al28  1  0.186303  0.184794  0.821094  1
