# generated using pymatgen
data_Mg5As
_symmetry_space_group_name_H-M   'P 1'
_cell_length_a   3.14443773
_cell_length_b   6.04194955
_cell_length_c   7.42785250
_cell_angle_alpha   73.94925632
_cell_angle_beta   90.00000000
_cell_angle_gamma   105.08294231
_symmetry_Int_Tables_number   1
_chemical_formula_structural   Mg5As
_chemical_formula_sum   'Mg5 As1'
_cell_volume   130.55092242
_cell_formula_units_Z   1
loop_
 _symmetry_equiv_pos_site_id
 _symmetry_equiv_pos_as_xyz
  1  'x, y, z'
loop_
 _atom_site_type_symbol
 _atom_site_label
 _atom_site_symmetry_multiplicity
 _atom_site_fract_x
 _atom_site_fract_y
 _atom_site_fract_z
 _atom_site_occupancy
  Mg  Mg0  1  0.711803  0.423607  0.061534  1
  Mg  Mg1  1  0.332576  0.665152  0.324548  1
  Mg  Mg2  1  0.047968  0.095936  0.417847  1
  Mg  Mg3  1  0.685530  0.371058  0.669170  1
  Mg  Mg4  1  0.995668  0.991334  0.978879  1
  As  As5  1  0.393122  0.786244  0.714689  1
