# generated using pymatgen
data_BaReN3
_symmetry_space_group_name_H-M   'P 1'
_cell_length_a   6.24121195
_cell_length_b   8.02590004
_cell_length_c   8.02590000
_cell_angle_alpha   90.66587791
_cell_angle_beta   99.29108180
_cell_angle_gamma   99.29108319
_symmetry_Int_Tables_number   1
_chemical_formula_structural   BaReN3
_chemical_formula_sum   'Ba4 Re4 N12'
_cell_volume   391.25551288
_cell_formula_units_Z   4
loop_
 _symmetry_equiv_pos_site_id
 _symmetry_equiv_pos_as_xyz
  1  'x, y, z'
loop_
 _atom_site_type_symbol
 _atom_site_label
 _atom_site_symmetry_multiplicity
 _atom_site_fract_x
 _atom_site_fract_y
 _atom_site_fract_z
 _atom_site_occupancy
  Ba  Ba0  1  0.750000  0.327180  0.672820  1
  Ba  Ba1  1  0.250000  0.099710  0.900290  1
  Ba  Ba2  1  0.250000  0.672820  0.327180  1
  Ba  Ba3  1  0.750000  0.900290  0.099710  1
  Re  Re4  1  0.241410  0.205220  0.369220  1
  Re  Re5  1  0.258590  0.630780  0.794780  1
  Re  Re6  1  0.741410  0.369220  0.205220  1
  Re  Re7  1  0.758590  0.794780  0.630780  1
  N  N8  1  0.322170  0.764430  0.980350  1
  N  N9  1  0.509400  0.644590  0.680470  1
  N  N10  1  0.490600  0.355410  0.319530  1
  N  N11  1  0.822170  0.980350  0.764430  1
  N  N12  1  0.680730  0.851640  0.421800  1
  N  N13  1  0.677830  0.235570  0.019650  1
  N  N14  1  0.319270  0.148360  0.578200  1
  N  N15  1  0.180730  0.421800  0.851640  1
  N  N16  1  0.819270  0.578200  0.148360  1
  N  N17  1  0.009400  0.680470  0.644590  1
  N  N18  1  0.990600  0.319530  0.355410  1
  N  N19  1  0.177830  0.019650  0.235570  1
