# generated using pymatgen
data_SiTc3
_symmetry_space_group_name_H-M   'P 1'
_cell_length_a   5.42515386
_cell_length_b   5.42515449
_cell_length_c   4.41276002
_cell_angle_alpha   90.00000000
_cell_angle_beta   90.00000000
_cell_angle_gamma   119.99999616
_symmetry_Int_Tables_number   1
_chemical_formula_structural   SiTc3
_chemical_formula_sum   'Si2 Tc6'
_cell_volume   112.47736348
_cell_formula_units_Z   2
loop_
 _symmetry_equiv_pos_site_id
 _symmetry_equiv_pos_as_xyz
  1  'x, y, z'
loop_
 _atom_site_type_symbol
 _atom_site_label
 _atom_site_symmetry_multiplicity
 _atom_site_fract_x
 _atom_site_fract_y
 _atom_site_fract_z
 _atom_site_occupancy
  Si  Si0  1  0.666665  0.333332  0.250000  1
  Si  Si1  1  0.333333  0.666666  0.750000  1
  Tc  Tc2  1  0.170903  0.341805  0.250000  1
  Tc  Tc3  1  0.658196  0.829098  0.250000  1
  Tc  Tc4  1  0.170904  0.829098  0.250000  1
  Tc  Tc5  1  0.829096  0.658195  0.750000  1
  Tc  Tc6  1  0.341803  0.170902  0.750000  1
  Tc  Tc7  1  0.829098  0.170902  0.750000  1
