# generated using pymatgen
data_Rh2S3
_symmetry_space_group_name_H-M   'P 1'
_cell_length_a   6.02562672
_cell_length_b   6.02562560
_cell_length_c   6.34527582
_cell_angle_alpha   118.34710050
_cell_angle_beta   61.65290269
_cell_angle_gamma   119.99998966
_symmetry_Int_Tables_number   1
_chemical_formula_structural   Rh2S3
_chemical_formula_sum   'Rh4 S6'
_cell_volume   166.85910023
_cell_formula_units_Z   2
loop_
 _symmetry_equiv_pos_site_id
 _symmetry_equiv_pos_as_xyz
  1  'x, y, z'
loop_
 _atom_site_type_symbol
 _atom_site_label
 _atom_site_symmetry_multiplicity
 _atom_site_fract_x
 _atom_site_fract_y
 _atom_site_fract_z
 _atom_site_occupancy
  Rh  Rh0  1  0.649672  0.350328  0.050983  1
  Rh  Rh1  1  0.850328  0.149672  0.449017  1
  Rh  Rh2  1  0.149673  0.850327  0.550981  1
  Rh  Rh3  1  0.350327  0.649673  0.949018  1
  S  S4  1  0.950514  0.450513  0.249999  1
  S  S5  1  0.549487  0.749999  0.249999  1
  S  S6  1  0.250000  0.049486  0.249999  1
  S  S7  1  0.750001  0.950513  0.749999  1
  S  S8  1  0.450516  0.250000  0.749999  1
  S  S9  1  0.049487  0.549485  0.749999  1
