# generated using pymatgen
data_K2Dy4Cu4Se9
_symmetry_space_group_name_H-M   'P 1'
_cell_length_a   4.11488303
_cell_length_b   7.45518547
_cell_length_c   15.81014613
_cell_angle_alpha   93.81970752
_cell_angle_beta   97.47735021
_cell_angle_gamma   106.02009992
_symmetry_Int_Tables_number   1
_chemical_formula_structural   K2Dy4Cu4Se9
_chemical_formula_sum   'K2 Dy4 Cu4 Se9'
_cell_volume   459.52875046
_cell_formula_units_Z   1
loop_
 _symmetry_equiv_pos_site_id
 _symmetry_equiv_pos_as_xyz
  1  'x, y, z'
loop_
 _atom_site_type_symbol
 _atom_site_label
 _atom_site_symmetry_multiplicity
 _atom_site_fract_x
 _atom_site_fract_y
 _atom_site_fract_z
 _atom_site_occupancy
  K  K0  1  0.236694  0.203982  0.269407  1
  K  K1  1  0.763306  0.796019  0.730593  1
  Dy  Dy2  1  0.871340  0.639524  0.103154  1
  Dy  Dy3  1  0.098771  0.753807  0.443737  1
  Dy  Dy4  1  0.901229  0.246192  0.556263  1
  Dy  Dy5  1  0.128659  0.360475  0.896846  1
  Cu  Cu6  1  0.604293  0.179928  0.028657  1
  Cu  Cu7  1  0.511563  0.751769  0.271358  1
  Cu  Cu8  1  0.488437  0.248231  0.728642  1
  Cu  Cu9  1  0.395706  0.820072  0.971343  1
  Se  Se10  1  0.213151  0.348334  0.077969  1
  Se  Se11  1  0.522641  0.915576  0.129707  1
  Se  Se12  1  0.921469  0.565806  0.277130  1
  Se  Se13  1  0.697120  0.998544  0.395695  1
  Se  Se14  1  0.500000  0.500000  0.500000  1
  Se  Se15  1  0.302880  0.001456  0.604305  1
  Se  Se16  1  0.078531  0.434194  0.722871  1
  Se  Se17  1  0.477359  0.084423  0.870293  1
  Se  Se18  1  0.786848  0.651665  0.922031  1
