# generated using pymatgen
data_SiAs2
_symmetry_space_group_name_H-M   'P 1'
_cell_length_a   15.22215628
_cell_length_b   10.35096290
_cell_length_c   3.69351732
_cell_angle_alpha   90.00000000
_cell_angle_beta   90.00000000
_cell_angle_gamma   90.00000000
_symmetry_Int_Tables_number   1
_chemical_formula_structural   SiAs2
_chemical_formula_sum   'Si8 As16'
_cell_volume   581.96527035
_cell_formula_units_Z   8
loop_
 _symmetry_equiv_pos_site_id
 _symmetry_equiv_pos_as_xyz
  1  'x, y, z'
loop_
 _atom_site_type_symbol
 _atom_site_label
 _atom_site_symmetry_multiplicity
 _atom_site_fract_x
 _atom_site_fract_y
 _atom_site_fract_z
 _atom_site_occupancy
  Si  Si0  1  0.265100  0.200240  0.500001  1
  Si  Si1  1  0.734901  0.799759  0.500001  1
  Si  Si2  1  0.765099  0.299760  0.500001  1
  Si  Si3  1  0.234901  0.700240  0.500001  1
  Si  Si4  1  0.147382  0.417015  0.000000  1
  Si  Si5  1  0.852619  0.582984  0.000000  1
  Si  Si6  1  0.647381  0.082984  0.000000  1
  Si  Si7  1  0.352618  0.917015  0.000000  1
  As  As8  1  0.115854  0.108845  0.500001  1
  As  As9  1  0.884146  0.891156  0.500001  1
  As  As10  1  0.615854  0.391155  0.500001  1
  As  As11  1  0.384145  0.608845  0.500001  1
  As  As12  1  0.046153  0.237759  0.000000  1
  As  As13  1  0.953847  0.762241  0.000000  1
  As  As14  1  0.546152  0.262242  0.000000  1
  As  As15  1  0.453847  0.737759  0.000000  1
  As  As16  1  0.389810  0.055296  0.500001  1
  As  As17  1  0.610189  0.944703  0.500001  1
  As  As18  1  0.889810  0.444704  0.500001  1
  As  As19  1  0.110190  0.555295  0.500001  1
  As  As20  1  0.295704  0.342942  0.000000  1
  As  As21  1  0.704295  0.657059  0.000000  1
  As  As22  1  0.795704  0.157059  0.000000  1
  As  As23  1  0.204296  0.842941  0.000000  1
