# generated using pymatgen
data_NdZnPO
_symmetry_space_group_name_H-M   'P 1'
_cell_length_a   10.66105943
_cell_length_b   10.66105943
_cell_length_c   10.66105943
_cell_angle_alpha   21.63784306
_cell_angle_beta   21.63784310
_cell_angle_gamma   21.63784308
_symmetry_Int_Tables_number   1
_chemical_formula_structural   NdZnPO
_chemical_formula_sum   'Nd2 Zn2 P2 O2'
_cell_volume   144.37703330
_cell_formula_units_Z   2
loop_
 _symmetry_equiv_pos_site_id
 _symmetry_equiv_pos_as_xyz
  1  'x, y, z'
loop_
 _atom_site_type_symbol
 _atom_site_label
 _atom_site_symmetry_multiplicity
 _atom_site_fract_x
 _atom_site_fract_y
 _atom_site_fract_z
 _atom_site_occupancy
  O  O0  1  0.694933  0.694933  0.694933  1
  O  O1  1  0.305067  0.305067  0.305067  1
  P  P2  1  0.114180  0.114180  0.114180  1
  P  P3  1  0.885820  0.885820  0.885820  1
  Zn  Zn4  1  0.196123  0.196123  0.196123  1
  Zn  Zn5  1  0.803877  0.803877  0.803877  1
  Nd  Nd6  1  0.618695  0.618695  0.618695  1
  Nd  Nd7  1  0.381305  0.381305  0.381305  1
