# generated using pymatgen
data_Mn2Co2O5
_symmetry_space_group_name_H-M   'P 1'
_cell_length_a   7.27687719
_cell_length_b   3.64792667
_cell_length_c   3.64792399
_cell_angle_alpha   90.00018769
_cell_angle_beta   89.99530971
_cell_angle_gamma   90.00010696
_symmetry_Int_Tables_number   1
_chemical_formula_structural   Mn2Co2O5
_chemical_formula_sum   'Mn2 Co2 O5'
_cell_volume   96.83601842
_cell_formula_units_Z   1
loop_
 _symmetry_equiv_pos_site_id
 _symmetry_equiv_pos_as_xyz
  1  'x, y, z'
loop_
 _atom_site_type_symbol
 _atom_site_label
 _atom_site_symmetry_multiplicity
 _atom_site_fract_x
 _atom_site_fract_y
 _atom_site_fract_z
 _atom_site_occupancy
  Mn  Mn0  1  0.000064  0.000097  0.000022  1
  Mn  Mn1  1  0.499911  -0.000019  0.000008  1
  Co  Co2  1  0.238929  0.499999  0.499983  1
  Co  Co3  1  0.760509  0.499987  0.500015  1
  O  O4  1  0.186542  0.499991  0.000010  1
  O  O5  1  0.813679  0.499987  0.999994  1
  O  O6  1  0.500150  0.499967  0.499958  1
  O  O7  1  0.186541  -0.000010  0.499998  1
  O  O8  1  0.813680  -0.000010  0.500001  1
