# generated using pymatgen
data_Ti2Si2O5
_symmetry_space_group_name_H-M   'P 1'
_cell_length_a   5.80932998
_cell_length_b   3.78655685
_cell_length_c   3.78657714
_cell_angle_alpha   90.00002421
_cell_angle_beta   89.99940225
_cell_angle_gamma   90.00047079
_symmetry_Int_Tables_number   1
_chemical_formula_structural   Ti2Si2O5
_chemical_formula_sum   'Ti2 Si2 O5'
_cell_volume   83.29469381
_cell_formula_units_Z   1
loop_
 _symmetry_equiv_pos_site_id
 _symmetry_equiv_pos_as_xyz
  1  'x, y, z'
loop_
 _atom_site_type_symbol
 _atom_site_label
 _atom_site_symmetry_multiplicity
 _atom_site_fract_x
 _atom_site_fract_y
 _atom_site_fract_z
 _atom_site_occupancy
  Ti  Ti0  1  0.000000  1.000000  0.999999  1
  Ti  Ti1  1  0.499999  1.000000  1.000000  1
  Si  Si2  1  0.209177  0.500000  0.499998  1
  Si  Si3  1  0.790822  0.499998  0.500000  1
  O  O4  1  0.227929  0.500000  1.000000  1
  O  O5  1  0.772071  0.499998  0.999999  1
  O  O6  1  0.499999  0.500000  0.499999  1
  O  O7  1  0.227928  0.999999  0.499998  1
  O  O8  1  0.772072  1.000000  0.500001  1
