# generated using pymatgen
data_Ta2Be2O5
_symmetry_space_group_name_H-M   'P 1'
_cell_length_a   6.42903385
_cell_length_b   3.53264260
_cell_length_c   3.53258946
_cell_angle_alpha   90.00042754
_cell_angle_beta   90.00037949
_cell_angle_gamma   89.99993897
_symmetry_Int_Tables_number   1
_chemical_formula_structural   Ta2Be2O5
_chemical_formula_sum   'Ta2 Be2 O5'
_cell_volume   80.23033082
_cell_formula_units_Z   1
loop_
 _symmetry_equiv_pos_site_id
 _symmetry_equiv_pos_as_xyz
  1  'x, y, z'
loop_
 _atom_site_type_symbol
 _atom_site_label
 _atom_site_symmetry_multiplicity
 _atom_site_fract_x
 _atom_site_fract_y
 _atom_site_fract_z
 _atom_site_occupancy
  Ta  Ta0  1  0.999999  0.000000  -0.000004  1
  Ta  Ta1  1  0.499996  -0.000003  0.999999  1
  Be  Be2  1  0.254389  0.499996  0.499998  1
  Be  Be3  1  0.745618  0.500001  0.500014  1
  O  O4  1  0.201989  0.499996  -0.000003  1
  O  O5  1  0.798009  0.500004  0.000004  1
  O  O6  1  0.500001  0.500002  0.499996  1
  O  O7  1  0.201995  -0.000004  0.499999  1
  O  O8  1  0.798005  0.000007  0.499997  1
