# generated using pymatgen
data_Ce2HfS5
_symmetry_space_group_name_H-M   'P 1'
_cell_length_a   11.36455107
_cell_length_b   7.32349854
_cell_length_c   8.10896493
_cell_angle_alpha   90.05366956
_cell_angle_beta   89.96932080
_cell_angle_gamma   89.98909080
_symmetry_Int_Tables_number   1
_chemical_formula_structural   Ce2HfS5
_chemical_formula_sum   'Ce8 Hf4 S20'
_cell_volume   674.89474280
_cell_formula_units_Z   4
loop_
 _symmetry_equiv_pos_site_id
 _symmetry_equiv_pos_as_xyz
  1  'x, y, z'
loop_
 _atom_site_type_symbol
 _atom_site_label
 _atom_site_symmetry_multiplicity
 _atom_site_fract_x
 _atom_site_fract_y
 _atom_site_fract_z
 _atom_site_occupancy
  Ce  Ce0  1  0.328867  0.440349  0.000936  1
  Ce  Ce1  1  0.171378  0.940682  0.999132  1
  Ce  Ce2  1  0.828423  0.059338  0.499014  1
  Ce  Ce3  1  0.671343  0.559517  0.500946  1
  Ce  Ce4  1  0.671015  0.559222  0.999096  1
  Ce  Ce5  1  0.828753  0.059356  0.000834  1
  Ce  Ce6  1  0.171295  0.940726  0.500854  1
  Ce  Ce7  1  0.328948  0.440867  0.499101  1
  Hf  Hf8  1  0.490572  0.928226  0.249959  1
  Hf  Hf9  1  0.009480  0.428346  0.750054  1
  Hf  Hf10  1  0.990527  0.571630  0.249957  1
  Hf  Hf11  1  0.509440  0.071731  0.750194  1
  S  S12  1  0.306448  0.140741  0.249684  1
  S  S13  1  0.193690  0.640547  0.750327  1
  S  S14  1  0.806260  0.359368  0.250075  1
  S  S15  1  0.693599  0.859279  0.749927  1
  S  S16  1  0.573950  0.179168  0.464299  1
  S  S17  1  0.925986  0.679122  0.535706  1
  S  S18  1  0.073987  0.320803  0.035672  1
  S  S19  1  0.426093  0.820646  0.964327  1
  S  S20  1  0.426255  0.820994  0.535732  1
  S  S21  1  0.073805  0.320973  0.464244  1
  S  S22  1  0.926094  0.679153  0.964280  1
  S  S23  1  0.573838  0.179234  0.035636  1
  S  S24  1  0.709311  0.840045  0.250057  1
  S  S25  1  0.790627  0.340205  0.749983  1
  S  S26  1  0.209326  0.659751  0.249568  1
  S  S27  1  0.290769  0.159974  0.750381  1
  S  S28  1  0.495416  0.557038  0.249695  1
  S  S29  1  0.004571  0.057133  0.750258  1
  S  S30  1  0.995255  0.942889  0.249778  1
  S  S31  1  0.504675  0.442950  0.750309  1
