# generated using pymatgen
data_CsMg149
_symmetry_space_group_name_H-M   'P 1'
_cell_length_a   15.95032965
_cell_length_b   15.95033485
_cell_length_c   15.79410256
_cell_angle_alpha   90.00000000
_cell_angle_beta   90.00000000
_cell_angle_gamma   120.00001284
_symmetry_Int_Tables_number   1
_chemical_formula_structural   CsMg149
_chemical_formula_sum   'Cs1 Mg149'
_cell_volume   3479.88584349
_cell_formula_units_Z   1
loop_
 _symmetry_equiv_pos_site_id
 _symmetry_equiv_pos_as_xyz
  1  'x, y, z'
loop_
 _atom_site_type_symbol
 _atom_site_label
 _atom_site_symmetry_multiplicity
 _atom_site_fract_x
 _atom_site_fract_y
 _atom_site_fract_z
 _atom_site_occupancy
  Cs  Cs0  1  0.000000  0.000000  0.000000  1
  Mg  Mg1  1  0.600398  0.200796  0.000000  1
  Mg  Mg2  1  0.402296  0.201148  0.000000  1
  Mg  Mg3  1  0.798852  0.201149  0.000000  1
  Mg  Mg4  1  0.001996  0.213769  0.000000  1
  Mg  Mg5  1  0.211773  0.213769  0.000000  1
  Mg  Mg6  1  0.600398  0.399601  0.000000  1
  Mg  Mg7  1  0.799204  0.399601  0.000000  1
  Mg  Mg8  1  0.403063  0.403767  0.000000  1
  Mg  Mg9  1  0.000703  0.403767  0.000000  1
  Mg  Mg10  1  0.201962  0.403922  0.000000  1
  Mg  Mg11  1  0.596233  0.596937  0.000000  1
  Mg  Mg12  1  0.000703  0.596937  0.000000  1
  Mg  Mg13  1  0.798852  0.597703  0.000000  1
  Mg  Mg14  1  0.201121  0.600560  0.000000  1
  Mg  Mg15  1  0.399440  0.600560  0.000000  1
  Mg  Mg16  1  0.001996  0.788227  0.000000  1
  Mg  Mg17  1  0.786231  0.788227  0.000000  1
  Mg  Mg18  1  0.596078  0.798038  0.000000  1
  Mg  Mg19  1  0.201962  0.798039  0.000000  1
  Mg  Mg20  1  0.399440  0.798879  0.000000  1
  Mg  Mg21  1  0.211773  0.998004  0.000000  1
  Mg  Mg22  1  0.786231  0.998004  0.000000  1
  Mg  Mg23  1  0.403063  0.999297  0.000000  1
  Mg  Mg24  1  0.596233  0.999297  0.000000  1
  Mg  Mg25  1  0.262819  0.131410  0.165114  1
  Mg  Mg26  1  0.868590  0.131410  0.165114  1
  Mg  Mg27  1  0.868590  0.737181  0.165114  1
  Mg  Mg28  1  0.666666  0.333333  0.166190  1
  Mg  Mg29  1  0.465509  0.132801  0.166366  1
  Mg  Mg30  1  0.667291  0.132801  0.166366  1
  Mg  Mg31  1  0.465509  0.332709  0.166366  1
  Mg  Mg32  1  0.867199  0.332709  0.166366  1
  Mg  Mg33  1  0.867199  0.534490  0.166366  1
  Mg  Mg34  1  0.667291  0.534490  0.166366  1
  Mg  Mg35  1  0.267108  0.534215  0.167237  1
  Mg  Mg36  1  0.465784  0.732892  0.167237  1
  Mg  Mg37  1  0.267108  0.732892  0.167237  1
  Mg  Mg38  1  0.466548  0.533451  0.167962  1
  Mg  Mg39  1  0.066903  0.533451  0.167962  1
  Mg  Mg40  1  0.466548  0.933097  0.167962  1
  Mg  Mg41  1  0.268865  0.336566  0.168102  1
  Mg  Mg42  1  0.067701  0.336567  0.168102  1
  Mg  Mg43  1  0.663434  0.731134  0.168102  1
  Mg  Mg44  1  0.067701  0.731134  0.168102  1
  Mg  Mg45  1  0.268865  0.932299  0.168102  1
  Mg  Mg46  1  0.663434  0.932299  0.168102  1
  Mg  Mg47  1  0.071126  0.142251  0.177182  1
  Mg  Mg48  1  0.857749  0.928874  0.177182  1
  Mg  Mg49  1  0.071126  0.928874  0.177182  1
  Mg  Mg50  1  0.399909  0.199954  0.332523  1
  Mg  Mg51  1  0.800046  0.199955  0.332523  1
  Mg  Mg52  1  0.800046  0.600092  0.332523  1
  Mg  Mg53  1  0.600047  0.200094  0.333046  1
  Mg  Mg54  1  0.799905  0.399953  0.333046  1
  Mg  Mg55  1  0.600047  0.399953  0.333046  1
  Mg  Mg56  1  0.199801  0.599900  0.333766  1
  Mg  Mg57  1  0.400100  0.599900  0.333766  1
  Mg  Mg58  1  0.400100  0.800199  0.333766  1
  Mg  Mg59  1  0.199927  0.399854  0.333705  1
  Mg  Mg60  1  0.600146  0.800073  0.333705  1
  Mg  Mg61  1  0.199927  0.800073  0.333705  1
  Mg  Mg62  1  0.400832  0.000250  0.333901  1
  Mg  Mg63  1  0.599417  0.000250  0.333901  1
  Mg  Mg64  1  0.400832  0.400583  0.333901  1
  Mg  Mg65  1  0.999749  0.400583  0.333901  1
  Mg  Mg66  1  0.999749  0.599167  0.333901  1
  Mg  Mg67  1  0.599417  0.599167  0.333901  1
  Mg  Mg68  1  0.000000  0.000000  0.333932  1
  Mg  Mg69  1  0.202151  0.000792  0.335949  1
  Mg  Mg70  1  0.798642  0.000792  0.335949  1
  Mg  Mg71  1  0.202151  0.201358  0.335949  1
  Mg  Mg72  1  0.999208  0.201358  0.335949  1
  Mg  Mg73  1  0.798642  0.797849  0.335949  1
  Mg  Mg74  1  0.999208  0.797849  0.335949  1
  Mg  Mg75  1  0.066744  0.133488  0.500000  1
  Mg  Mg76  1  0.866214  0.133786  0.500000  1
  Mg  Mg77  1  0.267572  0.133786  0.500000  1
  Mg  Mg78  1  0.467054  0.134063  0.500000  1
  Mg  Mg79  1  0.667009  0.134064  0.500000  1
  Mg  Mg80  1  0.467054  0.332990  0.500000  1
  Mg  Mg81  1  0.865937  0.332991  0.500000  1
  Mg  Mg82  1  0.666666  0.333333  0.500000  1
  Mg  Mg83  1  0.067111  0.334219  0.500000  1
  Mg  Mg84  1  0.267108  0.334219  0.500000  1
  Mg  Mg85  1  0.865937  0.532946  0.500000  1
  Mg  Mg86  1  0.667009  0.532946  0.500000  1
  Mg  Mg87  1  0.066792  0.533396  0.500000  1
  Mg  Mg88  1  0.466604  0.533396  0.500000  1
  Mg  Mg89  1  0.266933  0.533867  0.500000  1
  Mg  Mg90  1  0.866214  0.732428  0.500000  1
  Mg  Mg91  1  0.067111  0.732892  0.500000  1
  Mg  Mg92  1  0.665781  0.732892  0.500000  1
  Mg  Mg93  1  0.466133  0.733067  0.500000  1
  Mg  Mg94  1  0.266933  0.733067  0.500000  1
  Mg  Mg95  1  0.267108  0.932889  0.500000  1
  Mg  Mg96  1  0.665781  0.932889  0.500000  1
  Mg  Mg97  1  0.466604  0.933207  0.500000  1
  Mg  Mg98  1  0.866512  0.933256  0.500000  1
  Mg  Mg99  1  0.066744  0.933257  0.500000  1
  Mg  Mg100  1  0.202151  0.000792  0.664051  1
  Mg  Mg101  1  0.798642  0.000792  0.664051  1
  Mg  Mg102  1  0.202151  0.201358  0.664051  1
  Mg  Mg103  1  0.999208  0.201358  0.664051  1
  Mg  Mg104  1  0.798642  0.797849  0.664051  1
  Mg  Mg105  1  0.999208  0.797849  0.664051  1
  Mg  Mg106  1  0.000000  0.000000  0.666068  1
  Mg  Mg107  1  0.400832  0.000250  0.666099  1
  Mg  Mg108  1  0.599417  0.000250  0.666099  1
  Mg  Mg109  1  0.400832  0.400583  0.666099  1
  Mg  Mg110  1  0.999749  0.400583  0.666099  1
  Mg  Mg111  1  0.999749  0.599167  0.666099  1
  Mg  Mg112  1  0.599417  0.599167  0.666099  1
  Mg  Mg113  1  0.199927  0.399854  0.666295  1
  Mg  Mg114  1  0.600146  0.800073  0.666295  1
  Mg  Mg115  1  0.199927  0.800073  0.666295  1
  Mg  Mg116  1  0.199801  0.599900  0.666233  1
  Mg  Mg117  1  0.400100  0.599900  0.666233  1
  Mg  Mg118  1  0.400100  0.800199  0.666233  1
  Mg  Mg119  1  0.600047  0.200094  0.666954  1
  Mg  Mg120  1  0.799905  0.399953  0.666954  1
  Mg  Mg121  1  0.600047  0.399953  0.666954  1
  Mg  Mg122  1  0.399909  0.199954  0.667477  1
  Mg  Mg123  1  0.800046  0.199955  0.667477  1
  Mg  Mg124  1  0.800046  0.600092  0.667477  1
  Mg  Mg125  1  0.071126  0.142251  0.822818  1
  Mg  Mg126  1  0.857749  0.928874  0.822818  1
  Mg  Mg127  1  0.071126  0.928874  0.822818  1
  Mg  Mg128  1  0.268865  0.336566  0.831898  1
  Mg  Mg129  1  0.067701  0.336567  0.831898  1
  Mg  Mg130  1  0.663434  0.731134  0.831898  1
  Mg  Mg131  1  0.067701  0.731134  0.831898  1
  Mg  Mg132  1  0.268865  0.932299  0.831898  1
  Mg  Mg133  1  0.663434  0.932299  0.831898  1
  Mg  Mg134  1  0.466548  0.533451  0.832038  1
  Mg  Mg135  1  0.066903  0.533451  0.832038  1
  Mg  Mg136  1  0.466548  0.933097  0.832038  1
  Mg  Mg137  1  0.267108  0.534215  0.832763  1
  Mg  Mg138  1  0.465784  0.732892  0.832763  1
  Mg  Mg139  1  0.267108  0.732892  0.832763  1
  Mg  Mg140  1  0.465509  0.132801  0.833634  1
  Mg  Mg141  1  0.667291  0.132801  0.833634  1
  Mg  Mg142  1  0.465509  0.332709  0.833634  1
  Mg  Mg143  1  0.867199  0.332709  0.833634  1
  Mg  Mg144  1  0.867199  0.534490  0.833634  1
  Mg  Mg145  1  0.667291  0.534490  0.833634  1
  Mg  Mg146  1  0.666666  0.333333  0.833811  1
  Mg  Mg147  1  0.262819  0.131410  0.834886  1
  Mg  Mg148  1  0.868590  0.131410  0.834886  1
  Mg  Mg149  1  0.868590  0.737181  0.834886  1
