# generated using pymatgen
data_Th2Ta6O19
_symmetry_space_group_name_H-M   'P 1'
_cell_length_a   6.43873015
_cell_length_b   6.43873015
_cell_length_c   20.19761664
_cell_angle_alpha   90.00000000
_cell_angle_beta   90.00000000
_cell_angle_gamma   120.00000003
_symmetry_Int_Tables_number   1
_chemical_formula_structural   Th2Ta6O19
_chemical_formula_sum   'Th4 Ta12 O38'
_cell_volume   725.15559923
_cell_formula_units_Z   2
loop_
 _symmetry_equiv_pos_site_id
 _symmetry_equiv_pos_as_xyz
  1  'x, y, z'
loop_
 _atom_site_type_symbol
 _atom_site_label
 _atom_site_symmetry_multiplicity
 _atom_site_fract_x
 _atom_site_fract_y
 _atom_site_fract_z
 _atom_site_occupancy
  O  O0  1  0.666667  0.333333  0.145951  1
  O  O1  1  0.333333  0.666667  0.645951  1
  O  O2  1  0.333333  0.666667  0.354049  1
  O  O3  1  0.666667  0.333333  0.854049  1
  O  O4  1  0.333333  0.666667  0.854049  1
  O  O5  1  0.666667  0.333333  0.354049  1
  O  O6  1  0.666667  0.333333  0.645951  1
  O  O7  1  0.333333  0.666667  0.145951  1
  O  O8  1  0.619216  0.619216  0.942823  1
  O  O9  1  0.380784  0.000000  0.942823  1
  O  O10  1  0.000000  0.380784  0.942823  1
  O  O11  1  0.000000  0.619216  0.442823  1
  O  O12  1  0.380784  0.000000  0.557177  1
  O  O13  1  0.380784  0.380784  0.442823  1
  O  O14  1  0.619216  0.000000  0.442823  1
  O  O15  1  0.380784  0.380784  0.057177  1
  O  O16  1  0.236408  0.000000  0.156466  1
  O  O17  1  0.236408  0.236408  0.656466  1
  O  O18  1  0.000000  0.763592  0.656466  1
  O  O19  1  0.000000  0.236408  0.156466  1
  O  O20  1  0.763592  0.763592  0.156466  1
  O  O21  1  0.236408  0.000000  0.343534  1
  O  O22  1  0.763592  0.763592  0.343534  1
  O  O23  1  0.763592  0.000000  0.656466  1
  O  O24  1  0.000000  0.236408  0.343534  1
  O  O25  1  0.000000  0.763592  0.843534  1
  O  O26  1  0.763592  0.000000  0.843534  1
  O  O27  1  0.236408  0.236408  0.843534  1
  O  O28  1  0.597010  0.000000  0.250000  1
  O  O29  1  0.597010  0.597010  0.750000  1
  O  O30  1  0.000000  0.402990  0.750000  1
  O  O31  1  0.000000  0.597010  0.250000  1
  O  O32  1  0.402990  0.402990  0.250000  1
  O  O33  1  0.402990  0.000000  0.750000  1
  O  O34  1  0.619216  0.000000  0.057177  1
  O  O35  1  0.619216  0.619216  0.557177  1
  O  O36  1  0.000000  0.380784  0.557177  1
  O  O37  1  0.000000  0.619216  0.057177  1
  Ta  Ta38  1  0.652950  0.652950  0.843677  1
  Ta  Ta39  1  0.347050  0.000000  0.843677  1
  Ta  Ta40  1  0.000000  0.347050  0.843677  1
  Ta  Ta41  1  0.000000  0.652950  0.343677  1
  Ta  Ta42  1  0.347050  0.000000  0.656323  1
  Ta  Ta43  1  0.347050  0.347050  0.343677  1
  Ta  Ta44  1  0.652950  0.000000  0.343677  1
  Ta  Ta45  1  0.347050  0.347050  0.156323  1
  Ta  Ta46  1  0.000000  0.652950  0.156323  1
  Ta  Ta47  1  0.000000  0.347050  0.656323  1
  Ta  Ta48  1  0.652950  0.652950  0.656323  1
  Ta  Ta49  1  0.652950  0.000000  0.156323  1
  Th  Th50  1  0.333333  0.666667  0.500000  1
  Th  Th51  1  0.666667  0.333333  0.000000  1
  Th  Th52  1  0.666667  0.333333  0.500000  1
  Th  Th53  1  0.333333  0.666667  0.000000  1
