# generated using pymatgen
data_CuO2F
_symmetry_space_group_name_H-M   'P 1'
_cell_length_a   3.10750340
_cell_length_b   4.94534512
_cell_length_c   6.51330684
_cell_angle_alpha   112.31109548
_cell_angle_beta   103.80098873
_cell_angle_gamma   90.00002568
_symmetry_Int_Tables_number   1
_chemical_formula_structural   CuO2F
_chemical_formula_sum   'Cu2 O4 F2'
_cell_volume   89.46953728
_cell_formula_units_Z   2
loop_
 _symmetry_equiv_pos_site_id
 _symmetry_equiv_pos_as_xyz
  1  'x, y, z'
loop_
 _atom_site_type_symbol
 _atom_site_label
 _atom_site_symmetry_multiplicity
 _atom_site_fract_x
 _atom_site_fract_y
 _atom_site_fract_z
 _atom_site_occupancy
  Cu  Cu0  1  0.851510  0.444812  0.703020  1
  Cu  Cu1  1  0.148490  0.741792  0.296980  1
  O  O2  1  0.055124  0.320148  0.110247  1
  O  O3  1  0.944876  0.209901  0.889753  1
  O  O4  1  0.442559  0.704445  0.885117  1
  O  O5  1  0.557441  0.819328  0.114883  1
  F  F6  1  0.746114  0.670841  0.492228  1
  F  F7  1  0.253886  0.178614  0.507772  1
