# generated using pymatgen
data_KSeO2F
_symmetry_space_group_name_H-M   'P 1'
_cell_length_a   4.56979350
_cell_length_b   6.17178042
_cell_length_c   7.41713112
_cell_angle_alpha   90.00000000
_cell_angle_beta   108.47062462
_cell_angle_gamma   90.00000000
_symmetry_Int_Tables_number   1
_chemical_formula_structural   KSeO2F
_chemical_formula_sum   'K2 Se2 O4 F2'
_cell_volume   198.41478037
_cell_formula_units_Z   2
loop_
 _symmetry_equiv_pos_site_id
 _symmetry_equiv_pos_as_xyz
  1  'x, y, z'
loop_
 _atom_site_type_symbol
 _atom_site_label
 _atom_site_symmetry_multiplicity
 _atom_site_fract_x
 _atom_site_fract_y
 _atom_site_fract_z
 _atom_site_occupancy
  O  O0  1  0.655039  0.532754  0.301187  1
  O  O1  1  0.344961  0.032754  0.698813  1
  O  O2  1  0.344961  0.467246  0.698813  1
  O  O3  1  0.655039  0.967246  0.301187  1
  F  F4  1  0.860170  0.250000  0.916063  1
  F  F5  1  0.139830  0.750000  0.083937  1
  K  K6  1  0.167248  0.250000  0.325393  1
  K  K7  1  0.832752  0.750000  0.674607  1
  Se  Se8  1  0.412379  0.250000  0.839987  1
  Se  Se9  1  0.587621  0.750000  0.160013  1
