# generated using pymatgen
data_Rb2GeSe3
_symmetry_space_group_name_H-M   'P 1'
_cell_length_a   7.26125839
_cell_length_b   8.03971682
_cell_length_c   9.31383366
_cell_angle_alpha   72.97303283
_cell_angle_beta   67.05729773
_cell_angle_gamma   63.15446931
_symmetry_Int_Tables_number   1
_chemical_formula_structural   Rb2GeSe3
_chemical_formula_sum   'Rb4 Ge2 Se6'
_cell_volume   442.21624466
_cell_formula_units_Z   2
loop_
 _symmetry_equiv_pos_site_id
 _symmetry_equiv_pos_as_xyz
  1  'x, y, z'
loop_
 _atom_site_type_symbol
 _atom_site_label
 _atom_site_symmetry_multiplicity
 _atom_site_fract_x
 _atom_site_fract_y
 _atom_site_fract_z
 _atom_site_occupancy
  Ge  Ge0  1  0.880952  0.055762  0.182335  1
  Ge  Ge1  1  0.119048  0.944238  0.817665  1
  Se  Se2  1  0.297223  0.629102  0.776452  1
  Se  Se3  1  0.702777  0.370898  0.223548  1
  Se  Se4  1  0.250079  0.000000  0.000000  1
  Se  Se5  1  0.749921  0.000000  0.000000  1
  Se  Se6  1  0.887279  0.823490  0.401952  1
  Se  Se7  1  0.112721  0.176510  0.598048  1
  Rb  Rb8  1  0.813020  0.552849  0.821112  1
  Rb  Rb9  1  0.186980  0.447151  0.178888  1
  Rb  Rb10  1  0.589083  0.197602  0.624233  1
  Rb  Rb11  1  0.410917  0.802398  0.375767  1
