# generated using pymatgen
data_LuAlPd
_symmetry_space_group_name_H-M   'P 1'
_cell_length_a   7.04026333
_cell_length_b   7.03992668
_cell_length_c   4.02255124
_cell_angle_alpha   90.00000000
_cell_angle_beta   90.00000000
_cell_angle_gamma   120.00158185
_symmetry_Int_Tables_number   1
_chemical_formula_structural   LuAlPd
_chemical_formula_sum   'Lu3 Al3 Pd3'
_cell_volume   172.65626162
_cell_formula_units_Z   3
loop_
 _symmetry_equiv_pos_site_id
 _symmetry_equiv_pos_as_xyz
  1  'x, y, z'
loop_
 _atom_site_type_symbol
 _atom_site_label
 _atom_site_symmetry_multiplicity
 _atom_site_fract_x
 _atom_site_fract_y
 _atom_site_fract_z
 _atom_site_occupancy
  Lu  Lu0  1  0.586687  0.000000  0.499999  1
  Lu  Lu1  1  0.999959  0.586650  0.499999  1
  Lu  Lu2  1  0.413309  0.413350  0.499999  1
  Al  Al3  1  0.240745  0.000000  0.000000  1
  Al  Al4  1  0.999988  0.240742  0.000000  1
  Al  Al5  1  0.759247  0.759259  0.000000  1
  Pd  Pd6  1  0.000122  0.000000  0.499999  1
  Pd  Pd7  1  0.333305  0.666764  0.000000  1
  Pd  Pd8  1  0.666542  0.333237  0.000000  1
