# generated using pymatgen
data_TbTa3O9
_symmetry_space_group_name_H-M   'P 1'
_cell_length_a   8.81614212
_cell_length_b   5.56465365
_cell_length_c   8.84856641
_cell_angle_alpha   71.70320162
_cell_angle_beta   66.53920126
_cell_angle_gamma   71.60778284
_symmetry_Int_Tables_number   1
_chemical_formula_structural   TbTa3O9
_chemical_formula_sum   'Tb2 Ta6 O18'
_cell_volume   368.92347010
_cell_formula_units_Z   2
loop_
 _symmetry_equiv_pos_site_id
 _symmetry_equiv_pos_as_xyz
  1  'x, y, z'
loop_
 _atom_site_type_symbol
 _atom_site_label
 _atom_site_symmetry_multiplicity
 _atom_site_fract_x
 _atom_site_fract_y
 _atom_site_fract_z
 _atom_site_occupancy
  Tb  Tb0  1  0.349194  0.328497  0.004803  1
  Tb  Tb1  1  0.647170  0.684439  0.994678  1
  Ta  Ta2  1  0.591181  0.077153  0.256793  1
  Ta  Ta3  1  0.080107  0.583864  0.753452  1
  Ta  Ta4  1  0.238282  0.750176  0.264093  1
  Ta  Ta5  1  0.761083  0.251607  0.735828  1
  Ta  Ta6  1  0.407942  0.925551  0.742629  1
  Ta  Ta7  1  0.918013  0.418663  0.247536  1
  O  O8  1  0.997352  0.499313  0.000163  1
  O  O9  1  0.103371  0.097901  0.225978  1
  O  O10  1  0.101874  0.575055  0.225912  1
  O  O11  1  0.425832  0.423687  0.219101  1
  O  O12  1  0.646660  0.170443  0.999538  1
  O  O13  1  0.354427  0.818208  -0.000184  1
  O  O14  1  0.496891  0.000546  0.499996  1
  O  O15  1  0.166206  0.664254  0.503851  1
  O  O16  1  0.250837  0.250172  0.773441  1
  O  O17  1  0.574579  0.066576  0.780122  1
  O  O18  1  0.429137  0.920722  0.218648  1
  O  O19  1  0.248631  0.729343  0.772787  1
  O  O20  1  0.748057  0.272497  0.229389  1
  O  O21  1  0.749793  0.750558  0.229555  1
  O  O22  1  0.833932  0.331919  0.496412  1
  O  O23  1  0.571427  0.569173  0.780630  1
  O  O24  1  0.899038  0.424635  0.770794  1
  O  O25  1  0.898335  0.902270  0.772717  1
