# generated using pymatgen
data_LiFeHSO5
_symmetry_space_group_name_H-M   'P 1'
_cell_length_a   5.56082787
_cell_length_b   9.86400114
_cell_length_c   7.54045369
_cell_angle_alpha   110.34504304
_cell_angle_beta   90.00000000
_cell_angle_gamma   90.00000000
_symmetry_Int_Tables_number   1
_chemical_formula_structural   LiFeHSO5
_chemical_formula_sum   'Li4 Fe4 H4 S4 O20'
_cell_volume   387.80643110
_cell_formula_units_Z   4
loop_
 _symmetry_equiv_pos_site_id
 _symmetry_equiv_pos_as_xyz
  1  'x, y, z'
loop_
 _atom_site_type_symbol
 _atom_site_label
 _atom_site_symmetry_multiplicity
 _atom_site_fract_x
 _atom_site_fract_y
 _atom_site_fract_z
 _atom_site_occupancy
  Li  Li0  1  0.438680  0.913847  0.686205  1
  Li  Li1  1  0.938680  0.086153  0.813795  1
  Li  Li2  1  0.561320  0.086153  0.313795  1
  Li  Li3  1  0.061320  0.913847  0.186205  1
  Fe  Fe4  1  0.762467  0.447718  0.878013  1
  Fe  Fe5  1  0.262467  0.552282  0.621987  1
  Fe  Fe6  1  0.237533  0.552282  0.121987  1
  Fe  Fe7  1  0.737533  0.447718  0.378013  1
  H  H8  1  0.493584  0.665673  0.400303  1
  H  H9  1  0.993584  0.334327  0.099697  1
  H  H10  1  0.506416  0.334327  0.599697  1
  H  H11  1  0.006416  0.665673  0.900303  1
  S  S12  1  0.060705  0.212534  0.509023  1
  S  S13  1  0.560705  0.787466  0.990977  1
  S  S14  1  0.939295  0.787466  0.490977  1
  S  S15  1  0.439295  0.212534  0.009023  1
  O  O16  1  0.925856  0.432546  0.131393  1
  O  O17  1  0.425856  0.567454  0.368607  1
  O  O18  1  0.074144  0.567454  0.868607  1
  O  O19  1  0.574144  0.432546  0.631393  1
  O  O20  1  0.443419  0.348914  0.960503  1
  O  O21  1  0.943419  0.651086  0.539497  1
  O  O22  1  0.556581  0.651086  0.039497  1
  O  O23  1  0.056581  0.348914  0.460503  1
  O  O24  1  0.553172  0.243573  0.199140  1
  O  O25  1  0.053172  0.756427  0.300860  1
  O  O26  1  0.446828  0.756427  0.800860  1
  O  O27  1  0.946828  0.243573  0.699140  1
  O  O28  1  0.686783  0.833597  0.486487  1
  O  O29  1  0.186783  0.166403  0.013513  1
  O  O30  1  0.313217  0.166403  0.513513  1
  O  O31  1  0.813217  0.833597  0.986487  1
  O  O32  1  0.420363  0.902120  0.134238  1
  O  O33  1  0.920363  0.097880  0.365762  1
  O  O34  1  0.579637  0.097880  0.865762  1
  O  O35  1  0.079637  0.902120  0.634238  1
