# generated using pymatgen
data_Na
_symmetry_space_group_name_H-M   'P 1'
_cell_length_a   3.75816524
_cell_length_b   3.75725907
_cell_length_c   9.29040389
_cell_angle_alpha   78.33367401
_cell_angle_beta   101.59165847
_cell_angle_gamma   119.99201366
_symmetry_Int_Tables_number   1
_chemical_formula_structural   Na
_chemical_formula_sum   Na3
_cell_volume   110.49713264
_cell_formula_units_Z   3
loop_
 _symmetry_equiv_pos_site_id
 _symmetry_equiv_pos_as_xyz
  1  'x, y, z'
loop_
 _atom_site_type_symbol
 _atom_site_label
 _atom_site_symmetry_multiplicity
 _atom_site_fract_x
 _atom_site_fract_y
 _atom_site_fract_z
 _atom_site_occupancy
  Na  Na0  1  0.000000  -0.000000  -0.000000  1
  Na  Na1  1  0.777783  0.222191  0.333402  1
  Na  Na2  1  0.222217  0.777809  0.666598  1
