# generated using pymatgen
data_PrBN2
_symmetry_space_group_name_H-M   'P 1'
_cell_length_a   7.44646598
_cell_length_b   7.44646598
_cell_length_c   7.44646598
_cell_angle_alpha   110.46840354
_cell_angle_beta   110.46840357
_cell_angle_gamma   110.46840359
_symmetry_Int_Tables_number   1
_chemical_formula_structural   PrBN2
_chemical_formula_sum   'Pr6 B6 N12'
_cell_volume   305.55733137
_cell_formula_units_Z   6
loop_
 _symmetry_equiv_pos_site_id
 _symmetry_equiv_pos_as_xyz
  1  'x, y, z'
loop_
 _atom_site_type_symbol
 _atom_site_label
 _atom_site_symmetry_multiplicity
 _atom_site_fract_x
 _atom_site_fract_y
 _atom_site_fract_z
 _atom_site_occupancy
  B  B0  1  0.633663  0.752606  0.871733  1
  B  B1  1  0.371733  0.252606  0.133663  1
  B  B2  1  0.252606  0.133663  0.371733  1
  B  B3  1  0.133663  0.371733  0.252606  1
  B  B4  1  0.752606  0.871733  0.633663  1
  B  B5  1  0.871733  0.633663  0.752606  1
  N  N6  1  0.752113  0.992614  0.511675  1
  N  N7  1  0.511675  0.752113  0.992614  1
  N  N8  1  0.252113  0.011675  0.492614  1
  N  N9  1  0.992614  0.511675  0.752113  1
  N  N10  1  0.492614  0.252113  0.011675  1
  N  N11  1  0.011675  0.492614  0.252113  1
  N  N12  1  0.753045  0.631261  0.874559  1
  N  N13  1  0.874559  0.753045  0.631261  1
  N  N14  1  0.631261  0.874559  0.753045  1
  N  N15  1  0.131261  0.253045  0.374559  1
  N  N16  1  0.374559  0.131261  0.253045  1
  N  N17  1  0.253045  0.374559  0.131261  1
  Pr  Pr18  1  0.205404  0.296651  0.751777  1
  Pr  Pr19  1  0.296651  0.751777  0.205404  1
  Pr  Pr20  1  0.751777  0.205404  0.296651  1
  Pr  Pr21  1  0.251777  0.796651  0.705404  1
  Pr  Pr22  1  0.796651  0.705404  0.251777  1
  Pr  Pr23  1  0.705404  0.251777  0.796651  1
