# generated using pymatgen
data_GaP
_symmetry_space_group_name_H-M   'P 1'
_cell_length_a   2.88458537
_cell_length_b   3.70848067
_cell_length_c   3.70938967
_cell_angle_alpha   78.43230186
_cell_angle_beta   66.93295347
_cell_angle_gamma   66.96282385
_symmetry_Int_Tables_number   1
_chemical_formula_structural   GaP
_chemical_formula_sum   'Ga1 P1'
_cell_volume   33.54457922
_cell_formula_units_Z   1
loop_
 _symmetry_equiv_pos_site_id
 _symmetry_equiv_pos_as_xyz
  1  'x, y, z'
loop_
 _atom_site_type_symbol
 _atom_site_label
 _atom_site_symmetry_multiplicity
 _atom_site_fract_x
 _atom_site_fract_y
 _atom_site_fract_z
 _atom_site_occupancy
  Ga  Ga0  1  0.389721  0.502988  0.490085  1
  P  P1  1  0.050605  0.002651  0.989445  1
