# generated using pymatgen
data_Si3Ag
_symmetry_space_group_name_H-M   'P 1'
_cell_length_a   5.63446339
_cell_length_b   5.63397475
_cell_length_c   4.77157973
_cell_angle_alpha   88.97227120
_cell_angle_beta   91.01873971
_cell_angle_gamma   119.85289502
_symmetry_Int_Tables_number   1
_chemical_formula_structural   Si3Ag
_chemical_formula_sum   'Si6 Ag2'
_cell_volume   131.34381902
_cell_formula_units_Z   2
loop_
 _symmetry_equiv_pos_site_id
 _symmetry_equiv_pos_as_xyz
  1  'x, y, z'
loop_
 _atom_site_type_symbol
 _atom_site_label
 _atom_site_symmetry_multiplicity
 _atom_site_fract_x
 _atom_site_fract_y
 _atom_site_fract_z
 _atom_site_occupancy
  Si  Si0  1  0.153930  0.307715  0.250087  1
  Si  Si1  1  0.692302  0.846065  0.250087  1
  Si  Si2  1  0.153770  0.846203  0.249821  1
  Si  Si3  1  0.845953  0.692188  0.749918  1
  Si  Si4  1  0.307803  0.154053  0.749913  1
  Si  Si5  1  0.846233  0.153789  0.750177  1
  Ag  Ag6  1  0.333237  0.666780  0.749952  1
  Ag  Ag7  1  0.666770  0.333209  0.250049  1
