# generated using pymatgen
data_SrGe4O9
_symmetry_space_group_name_H-M   'P 1'
_cell_length_a   11.50843475
_cell_length_b   11.50843475
_cell_length_c   4.83775542
_cell_angle_alpha   90.00000000
_cell_angle_beta   90.00000000
_cell_angle_gamma   119.99999998
_symmetry_Int_Tables_number   1
_chemical_formula_structural   SrGe4O9
_chemical_formula_sum   'Sr3 Ge12 O27'
_cell_volume   554.89020575
_cell_formula_units_Z   3
loop_
 _symmetry_equiv_pos_site_id
 _symmetry_equiv_pos_as_xyz
  1  'x, y, z'
loop_
 _atom_site_type_symbol
 _atom_site_label
 _atom_site_symmetry_multiplicity
 _atom_site_fract_x
 _atom_site_fract_y
 _atom_site_fract_z
 _atom_site_occupancy
  O  O0  1  0.249436  0.510134  0.327012  1
  O  O1  1  0.489866  0.739302  0.327012  1
  O  O2  1  0.260698  0.750564  0.327012  1
  O  O3  1  0.739302  0.489866  0.672988  1
  O  O4  1  0.750564  0.260698  0.672988  1
  O  O5  1  0.510134  0.249436  0.672988  1
  O  O6  1  0.214303  0.325354  0.704524  1
  O  O7  1  0.674646  0.888949  0.704524  1
  O  O8  1  0.111051  0.785697  0.704524  1
  O  O9  1  0.888949  0.674646  0.295476  1
  O  O10  1  0.785697  0.111051  0.295476  1
  O  O11  1  0.325354  0.214303  0.295476  1
  O  O12  1  0.060844  0.155186  0.237153  1
  O  O13  1  0.844814  0.905658  0.237153  1
  O  O14  1  0.094342  0.939156  0.237153  1
  O  O15  1  0.510636  0.000000  0.500000  1
  O  O16  1  0.000000  0.510636  0.500000  1
  O  O17  1  0.489364  0.489364  0.500000  1
  O  O18  1  0.602475  0.423181  0.123339  1
  O  O19  1  0.576819  0.179294  0.123339  1
  O  O20  1  0.820706  0.397525  0.123339  1
  O  O21  1  0.179294  0.576819  0.876661  1
  O  O22  1  0.397525  0.820706  0.876661  1
  O  O23  1  0.423181  0.602475  0.876661  1
  O  O24  1  0.155186  0.060844  0.762847  1
  O  O25  1  0.939156  0.094342  0.762847  1
  O  O26  1  0.905658  0.844814  0.762847  1
  Ge  Ge27  1  0.341038  0.491161  0.598780  1
  Ge  Ge28  1  0.508839  0.849877  0.598780  1
  Ge  Ge29  1  0.150123  0.658962  0.598780  1
  Ge  Ge30  1  0.849877  0.508839  0.401220  1
  Ge  Ge31  1  0.658962  0.150123  0.401220  1
  Ge  Ge32  1  0.491161  0.341038  0.401220  1
  Ge  Ge33  1  0.179676  0.179676  0.500000  1
  Ge  Ge34  1  0.000000  0.820324  0.500000  1
  Ge  Ge35  1  0.820324  0.000000  0.500000  1
  Ge  Ge36  1  0.666667  0.333333  0.894220  1
  Ge  Ge37  1  0.333333  0.666667  0.105780  1
  Ge  Ge38  1  0.000000  0.000000  0.000000  1
  Sr  Sr39  1  0.672885  0.672885  0.000000  1
  Sr  Sr40  1  0.000000  0.327115  0.000000  1
  Sr  Sr41  1  0.327115  0.000000  0.000000  1
