# generated using pymatgen
data_SmMgF4
_symmetry_space_group_name_H-M   'P 1'
_cell_length_a   3.82804878
_cell_length_b   5.79968418
_cell_length_c   8.05607421
_cell_angle_alpha   90.00000000
_cell_angle_beta   103.74420996
_cell_angle_gamma   90.00000000
_symmetry_Int_Tables_number   1
_chemical_formula_structural   SmMgF4
_chemical_formula_sum   'Sm2 Mg2 F8'
_cell_volume   173.73535353
_cell_formula_units_Z   2
loop_
 _symmetry_equiv_pos_site_id
 _symmetry_equiv_pos_as_xyz
  1  'x, y, z'
loop_
 _atom_site_type_symbol
 _atom_site_label
 _atom_site_symmetry_multiplicity
 _atom_site_fract_x
 _atom_site_fract_y
 _atom_site_fract_z
 _atom_site_occupancy
  F  F0  1  0.000000  0.000000  0.000000  1
  F  F1  1  0.000000  0.500000  0.000000  1
  F  F2  1  0.192657  0.489466  0.385314  1
  F  F3  1  0.807343  0.510534  0.614686  1
  F  F4  1  0.389524  0.750000  0.779048  1
  F  F5  1  0.610476  0.250000  0.220952  1
  F  F6  1  0.192657  0.010534  0.385314  1
  F  F7  1  0.807343  0.989466  0.614686  1
  Mg  Mg8  1  0.079670  0.250000  0.159341  1
  Mg  Mg9  1  0.920330  0.750000  0.840659  1
  Sm  Sm10  1  0.678550  0.750000  0.357100  1
  Sm  Sm11  1  0.321450  0.250000  0.642900  1
