# generated using pymatgen
data_U3(SiNi)4
_symmetry_space_group_name_H-M   'P 1'
_cell_length_a   3.84504294
_cell_length_b   3.93759795
_cell_length_c   12.07284050
_cell_angle_alpha   99.38931727
_cell_angle_beta   99.16298949
_cell_angle_gamma   90.00000000
_symmetry_Int_Tables_number   1
_chemical_formula_structural   U3(SiNi)4
_chemical_formula_sum   'U3 Si4 Ni4'
_cell_volume   177.97221021
_cell_formula_units_Z   1
loop_
 _symmetry_equiv_pos_site_id
 _symmetry_equiv_pos_as_xyz
  1  'x, y, z'
loop_
 _atom_site_type_symbol
 _atom_site_label
 _atom_site_symmetry_multiplicity
 _atom_site_fract_x
 _atom_site_fract_y
 _atom_site_fract_z
 _atom_site_occupancy
  Si  Si0  1  0.450092  0.450010  0.900184  1
  Si  Si1  1  0.549908  0.549990  0.099816  1
  Si  Si2  1  0.696596  0.196584  0.393193  1
  Si  Si3  1  0.303404  0.803416  0.606807  1
  Ni  Ni4  1  0.749752  0.749771  0.499504  1
  Ni  Ni5  1  0.401253  0.901129  0.802506  1
  Ni  Ni6  1  0.598747  0.098871  0.197494  1
  Ni  Ni7  1  0.250248  0.250229  0.500496  1
  U  U8  1  0.000000  0.000000  0.000000  1
  U  U9  1  0.853692  0.353718  0.707383  1
  U  U10  1  0.146308  0.646282  0.292617  1
