# generated using pymatgen
data_H4CN2O
_symmetry_space_group_name_H-M   'P 1'
_cell_length_a   6.20575885
_cell_length_b   6.20575885
_cell_length_c   4.59601861
_cell_angle_alpha   90.00000000
_cell_angle_beta   90.00000000
_cell_angle_gamma   90.00000000
_symmetry_Int_Tables_number   1
_chemical_formula_structural   H4CN2O
_chemical_formula_sum   'H8 C2 N4 O2'
_cell_volume   176.99930829
_cell_formula_units_Z   2
loop_
 _symmetry_equiv_pos_site_id
 _symmetry_equiv_pos_as_xyz
  1  'x, y, z'
loop_
 _atom_site_type_symbol
 _atom_site_label
 _atom_site_symmetry_multiplicity
 _atom_site_fract_x
 _atom_site_fract_y
 _atom_site_fract_z
 _atom_site_occupancy
  H  H0  1  0.769409  0.269408  0.531684  1
  H  H1  1  0.230591  0.730591  0.531684  1
  H  H2  1  0.868854  0.368855  0.196070  1
  H  H3  1  0.131146  0.631145  0.196070  1
  H  H4  1  0.269408  0.230591  0.468317  1
  H  H5  1  0.730591  0.769409  0.468317  1
  H  H6  1  0.368855  0.131146  0.803928  1
  H  H7  1  0.631145  0.868854  0.803928  1
  C  C8  1  0.500001  0.000000  0.425715  1
  C  C9  1  -0.000000  0.500001  0.574286  1
  N  N10  1  0.868048  0.368048  0.418137  1
  N  N11  1  0.131951  0.631952  0.418137  1
  N  N12  1  0.368048  0.131951  0.581864  1
  N  N13  1  0.631952  0.868048  0.581864  1
  O  O14  1  0.500001  0.000000  0.151281  1
  O  O15  1  0.000000  0.500001  0.848719  1
