# generated using pymatgen
data_La3TiSb5
_symmetry_space_group_name_H-M   'P 1'
_cell_length_a   9.58200820
_cell_length_b   9.58200820
_cell_length_c   6.32706650
_cell_angle_alpha   90.00000000
_cell_angle_beta   90.00000000
_cell_angle_gamma   120.00000000
_symmetry_Int_Tables_number   1
_chemical_formula_structural   La3TiSb5
_chemical_formula_sum   'La6 Ti2 Sb10'
_cell_volume   503.09048914
_cell_formula_units_Z   2
loop_
 _symmetry_equiv_pos_site_id
 _symmetry_equiv_pos_as_xyz
  1  'x, y, z'
loop_
 _atom_site_type_symbol
 _atom_site_label
 _atom_site_symmetry_multiplicity
 _atom_site_fract_x
 _atom_site_fract_y
 _atom_site_fract_z
 _atom_site_occupancy
  Ti  Ti0  1  0.000000  0.000000  0.000000  1
  Ti  Ti1  1  0.000000  0.000000  0.500000  1
  Sb  Sb2  1  0.666667  0.333333  0.500000  1
  Sb  Sb3  1  0.333333  0.666667  0.000000  1
  Sb  Sb4  1  0.750410  0.000000  0.750000  1
  Sb  Sb5  1  0.750410  0.750410  0.250000  1
  Sb  Sb6  1  0.333333  0.666667  0.500000  1
  Sb  Sb7  1  0.666667  0.333333  0.000000  1
  Sb  Sb8  1  0.249590  0.000000  0.250000  1
  Sb  Sb9  1  0.249590  0.249590  0.750000  1
  Sb  Sb10  1  0.000000  0.750410  0.750000  1
  Sb  Sb11  1  0.000000  0.249590  0.250000  1
  La  La12  1  0.381954  0.000000  0.750000  1
  La  La13  1  0.381954  0.381954  0.250000  1
  La  La14  1  0.000000  0.618046  0.250000  1
  La  La15  1  0.000000  0.381954  0.750000  1
  La  La16  1  0.618046  0.618046  0.750000  1
  La  La17  1  0.618046  0.000000  0.250000  1
