# generated using pymatgen
data_KAlSiO4
_symmetry_space_group_name_H-M   'P 1'
_cell_length_a   5.22974100
_cell_length_b   5.22974100
_cell_length_c   8.85771397
_cell_angle_alpha   90.00000000
_cell_angle_beta   90.00000000
_cell_angle_gamma   120.00000001
_symmetry_Int_Tables_number   1
_chemical_formula_structural   KAlSiO4
_chemical_formula_sum   'K2 Al2 Si2 O8'
_cell_volume   209.80345998
_cell_formula_units_Z   2
loop_
 _symmetry_equiv_pos_site_id
 _symmetry_equiv_pos_as_xyz
  1  'x, y, z'
loop_
 _atom_site_type_symbol
 _atom_site_label
 _atom_site_symmetry_multiplicity
 _atom_site_fract_x
 _atom_site_fract_y
 _atom_site_fract_z
 _atom_site_occupancy
  O  O0  1  0.666667  0.333333  0.757223  1
  O  O1  1  0.333333  0.666667  0.257223  1
  O  O2  1  0.382062  0.396537  0.499685  1
  O  O3  1  0.603463  0.985525  0.499685  1
  O  O4  1  0.014475  0.617938  0.499685  1
  O  O5  1  0.396537  0.382062  0.999685  1
  O  O6  1  0.617938  0.014475  0.999685  1
  O  O7  1  0.985525  0.603463  0.999685  1
  Al  Al8  1  0.333333  0.666667  0.059525  1
  Al  Al9  1  0.666667  0.333333  0.559525  1
  Si  Si10  1  0.666667  0.333333  0.941609  1
  Si  Si11  1  0.333333  0.666667  0.441609  1
  K  K12  1  0.000000  0.000000  0.753589  1
  K  K13  1  0.000000  0.000000  0.253589  1
