# generated using pymatgen
data_Cr3S4
_symmetry_space_group_name_H-M   'P 1'
_cell_length_a   3.46089113
_cell_length_b   6.07232066
_cell_length_c   6.54234447
_cell_angle_alpha   116.02023177
_cell_angle_beta   105.33720362
_cell_angle_gamma   89.99999994
_symmetry_Int_Tables_number   1
_chemical_formula_structural   Cr3S4
_chemical_formula_sum   'Cr3 S4'
_cell_volume   118.08216140
_cell_formula_units_Z   1
loop_
 _symmetry_equiv_pos_site_id
 _symmetry_equiv_pos_as_xyz
  1  'x, y, z'
loop_
 _atom_site_type_symbol
 _atom_site_label
 _atom_site_symmetry_multiplicity
 _atom_site_fract_x
 _atom_site_fract_y
 _atom_site_fract_z
 _atom_site_occupancy
  S  S0  1  0.124671  0.447551  0.249342  1
  S  S1  1  0.875329  0.552449  0.750658  1
  S  S2  1  0.633893  0.979999  0.267787  1
  S  S3  1  0.366107  0.020001  0.732213  1
  Cr  Cr4  1  0.735885  0.719218  0.471769  1
  Cr  Cr5  1  0.264115  0.280782  0.528231  1
  Cr  Cr6  1  0.000000  0.000000  0.000000  1
