# generated using pymatgen
data_Nd2Co12P7
_symmetry_space_group_name_H-M   'P 1'
_cell_length_a   9.08247355
_cell_length_b   9.08148446
_cell_length_c   3.63209126
_cell_angle_alpha   90.00000000
_cell_angle_beta   90.00000000
_cell_angle_gamma   119.99176512
_symmetry_Int_Tables_number   1
_chemical_formula_structural   Nd2Co12P7
_chemical_formula_sum   'Nd2 Co12 P7'
_cell_volume   259.46835685
_cell_formula_units_Z   1
loop_
 _symmetry_equiv_pos_site_id
 _symmetry_equiv_pos_as_xyz
  1  'x, y, z'
loop_
 _atom_site_type_symbol
 _atom_site_label
 _atom_site_symmetry_multiplicity
 _atom_site_fract_x
 _atom_site_fract_y
 _atom_site_fract_z
 _atom_site_occupancy
  Nd  Nd0  1  0.333485  0.666373  0.000000  1
  Nd  Nd1  1  0.666542  0.333570  0.500002  1
  Co  Co2  1  0.432167  0.058374  0.000000  1
  Co  Co3  1  0.941782  0.373868  0.000000  1
  Co  Co4  1  0.626164  0.567851  0.000000  1
  Co  Co5  1  0.380571  0.431251  0.500002  1
  Co  Co6  1  0.568657  0.949126  0.500002  1
  Co  Co7  1  0.050690  0.619437  0.500002  1
  Co  Co8  1  0.150194  0.270195  0.000000  1
  Co  Co9  1  0.729788  0.879879  0.000000  1
  Co  Co10  1  0.119995  0.849617  0.000000  1
  Co  Co11  1  0.230603  0.102308  0.500002  1
  Co  Co12  1  0.897412  0.128605  0.500002  1
  Co  Co13  1  0.871749  0.769559  0.500002  1
  P  P14  1  0.105271  0.397509  0.500002  1
  P  P15  1  0.602586  0.707609  0.500002  1
  P  P16  1  0.292318  0.894757  0.500002  1
  P  P17  1  0.000091  0.000004  0.000000  1
  P  P18  1  0.401624  0.294253  0.000000  1
  P  P19  1  0.705876  0.107500  0.000000  1
  P  P20  1  0.892431  0.598353  0.000000  1
