# generated using pymatgen
data_Tm6GaCo2
_symmetry_space_group_name_H-M   'P 1'
_cell_length_a   8.17724644
_cell_length_b   8.17724644
_cell_length_c   8.17724644
_cell_angle_alpha   110.22135817
_cell_angle_beta   106.67649560
_cell_angle_gamma   111.55439746
_symmetry_Int_Tables_number   1
_chemical_formula_structural   Tm6GaCo2
_chemical_formula_sum   'Tm12 Ga2 Co4'
_cell_volume   420.11341995
_cell_formula_units_Z   2
loop_
 _symmetry_equiv_pos_site_id
 _symmetry_equiv_pos_as_xyz
  1  'x, y, z'
loop_
 _atom_site_type_symbol
 _atom_site_label
 _atom_site_symmetry_multiplicity
 _atom_site_fract_x
 _atom_site_fract_y
 _atom_site_fract_z
 _atom_site_occupancy
  Tm  Tm0  1  0.735515  0.298819  0.034333  1
  Tm  Tm1  1  0.782053  0.965634  0.183580  1
  Tm  Tm2  1  0.217947  0.401528  0.183580  1
  Tm  Tm3  1  0.515248  0.195020  0.320228  1
  Tm  Tm4  1  0.125207  0.804980  0.320228  1
  Tm  Tm5  1  0.735515  0.701182  0.436696  1
  Tm  Tm6  1  0.264486  0.298818  0.563303  1
  Tm  Tm7  1  0.874793  0.195020  0.679773  1
  Tm  Tm8  1  0.484752  0.804980  0.679773  1
  Tm  Tm9  1  0.782052  0.598471  0.816419  1
  Tm  Tm10  1  0.217948  0.034366  0.816419  1
  Tm  Tm11  1  0.264486  0.701182  0.965668  1
  Ga  Ga12  1  0.500000  0.500000  -0.000000  1
  Ga  Ga13  1  -0.000000  0.500001  0.500001  1
  Co  Co14  1  0.114282  -0.000000  0.114282  1
  Co  Co15  1  0.500000  0.864491  0.364490  1
  Co  Co16  1  0.500000  0.135509  0.635509  1
  Co  Co17  1  0.885718  0.000000  0.885718  1
