# generated using pymatgen
data_Ti3Br
_symmetry_space_group_name_H-M   'P 1'
_cell_length_a   5.67405716
_cell_length_b   5.67405666
_cell_length_c   4.93683765
_cell_angle_alpha   90.00000000
_cell_angle_beta   90.00000000
_cell_angle_gamma   120.00000294
_symmetry_Int_Tables_number   1
_chemical_formula_structural   Ti3Br
_chemical_formula_sum   'Ti6 Br2'
_cell_volume   137.64702798
_cell_formula_units_Z   2
loop_
 _symmetry_equiv_pos_site_id
 _symmetry_equiv_pos_as_xyz
  1  'x, y, z'
loop_
 _atom_site_type_symbol
 _atom_site_label
 _atom_site_symmetry_multiplicity
 _atom_site_fract_x
 _atom_site_fract_y
 _atom_site_fract_z
 _atom_site_occupancy
  Ti  Ti0  1  0.160136  0.320273  0.249999  1
  Ti  Ti1  1  0.679726  0.839863  0.249999  1
  Ti  Ti2  1  0.160137  0.839863  0.249999  1
  Ti  Ti3  1  0.839864  0.679727  0.749999  1
  Ti  Ti4  1  0.320272  0.160136  0.749999  1
  Ti  Ti5  1  0.839864  0.160136  0.749999  1
  Br  Br6  1  0.333334  0.666667  0.749999  1
  Br  Br7  1  0.666668  0.333335  0.249999  1
