# generated using pymatgen
data_CaWN3
_symmetry_space_group_name_H-M   'P 1'
_cell_length_a   3.64648887
_cell_length_b   5.82986282
_cell_length_c   7.50147985
_cell_angle_alpha   105.66371404
_cell_angle_beta   104.06669840
_cell_angle_gamma   90.00000467
_symmetry_Int_Tables_number   1
_chemical_formula_structural   CaWN3
_chemical_formula_sum   'Ca2 W2 N6'
_cell_volume   148.57571054
_cell_formula_units_Z   2
loop_
 _symmetry_equiv_pos_site_id
 _symmetry_equiv_pos_as_xyz
  1  'x, y, z'
loop_
 _atom_site_type_symbol
 _atom_site_label
 _atom_site_symmetry_multiplicity
 _atom_site_fract_x
 _atom_site_fract_y
 _atom_site_fract_z
 _atom_site_occupancy
  Ca  Ca0  1  0.591620  0.294290  0.183240  1
  Ca  Ca1  1  0.408380  0.705710  0.816760  1
  W  W2  1  0.156810  0.875070  0.313620  1
  W  W3  1  0.843190  0.124930  0.686380  1
  N  N4  1  0.129900  0.555000  0.259800  1
  N  N5  1  0.870100  0.445000  0.740200  1
  N  N6  1  0.965770  0.055010  0.931540  1
  N  N7  1  0.308050  0.977970  0.616100  1
  N  N8  1  0.034230  0.944990  0.068460  1
  N  N9  1  0.691950  0.022030  0.383900  1
