# generated using pymatgen
data_SrPS3
_symmetry_space_group_name_H-M   'P 1'
_cell_length_a   6.78859550
_cell_length_b   7.67932055
_cell_length_c   9.49580299
_cell_angle_alpha   90.00000000
_cell_angle_beta   91.89713012
_cell_angle_gamma   90.00000000
_symmetry_Int_Tables_number   1
_chemical_formula_structural   SrPS3
_chemical_formula_sum   'Sr4 P4 S12'
_cell_volume   494.76197154
_cell_formula_units_Z   4
loop_
 _symmetry_equiv_pos_site_id
 _symmetry_equiv_pos_as_xyz
  1  'x, y, z'
loop_
 _atom_site_type_symbol
 _atom_site_label
 _atom_site_symmetry_multiplicity
 _atom_site_fract_x
 _atom_site_fract_y
 _atom_site_fract_z
 _atom_site_occupancy
  P  P0  1  0.562896  0.606909  0.934321  1
  P  P1  1  0.937104  0.106909  0.565679  1
  P  P2  1  0.437104  0.393091  0.065679  1
  P  P3  1  0.062896  0.893091  0.434321  1
  S  S4  1  0.853189  0.702837  0.440579  1
  S  S5  1  0.646811  0.202837  0.059421  1
  S  S6  1  0.146811  0.297163  0.559421  1
  S  S7  1  0.353189  0.797163  0.940579  1
  S  S8  1  0.102150  0.996143  0.241045  1
  S  S9  1  0.397850  0.496143  0.258955  1
  S  S10  1  0.897850  0.003857  0.758955  1
  S  S11  1  0.602150  0.503857  0.741045  1
  S  S12  1  0.314402  0.811957  0.537476  1
  S  S13  1  0.185598  0.311957  0.962524  1
  S  S14  1  0.685598  0.188043  0.462524  1
  S  S15  1  0.814402  0.688043  0.037476  1
  Sr  Sr16  1  0.038132  0.614084  0.749786  1
  Sr  Sr17  1  0.461868  0.114084  0.750214  1
  Sr  Sr18  1  0.961868  0.385916  0.250214  1
  Sr  Sr19  1  0.538132  0.885916  0.249786  1
