# generated using pymatgen
data_SrCe3
_symmetry_space_group_name_H-M   'P 1'
_cell_length_a   7.37317374
_cell_length_b   7.37317451
_cell_length_c   5.76857171
_cell_angle_alpha   90.00000000
_cell_angle_beta   90.00000000
_cell_angle_gamma   120.00000794
_symmetry_Int_Tables_number   1
_chemical_formula_structural   SrCe3
_chemical_formula_sum   'Sr2 Ce6'
_cell_volume   271.58630950
_cell_formula_units_Z   2
loop_
 _symmetry_equiv_pos_site_id
 _symmetry_equiv_pos_as_xyz
  1  'x, y, z'
loop_
 _atom_site_type_symbol
 _atom_site_label
 _atom_site_symmetry_multiplicity
 _atom_site_fract_x
 _atom_site_fract_y
 _atom_site_fract_z
 _atom_site_occupancy
  Sr  Sr0  1  0.333334  0.666668  0.749999  1
  Sr  Sr1  1  0.666668  0.333333  0.249999  1
  Ce  Ce2  1  0.152722  0.305444  0.249999  1
  Ce  Ce3  1  0.694556  0.847278  0.249999  1
  Ce  Ce4  1  0.152722  0.847278  0.249999  1
  Ce  Ce5  1  0.847278  0.694557  0.749999  1
  Ce  Ce6  1  0.305444  0.152723  0.749999  1
  Ce  Ce7  1  0.847278  0.152723  0.749999  1
