# generated using pymatgen
data_Ho(AlC)3
_symmetry_space_group_name_H-M   'P 1'
_cell_length_a   3.42881073
_cell_length_b   3.42884472
_cell_length_c   17.30045499
_cell_angle_alpha   90.00000000
_cell_angle_beta   90.00000000
_cell_angle_gamma   119.99966231
_symmetry_Int_Tables_number   1
_chemical_formula_structural   Ho(AlC)3
_chemical_formula_sum   'Ho2 Al6 C6'
_cell_volume   176.14931776
_cell_formula_units_Z   2
loop_
 _symmetry_equiv_pos_site_id
 _symmetry_equiv_pos_as_xyz
  1  'x, y, z'
loop_
 _atom_site_type_symbol
 _atom_site_label
 _atom_site_symmetry_multiplicity
 _atom_site_fract_x
 _atom_site_fract_y
 _atom_site_fract_z
 _atom_site_occupancy
  Ho  Ho0  1  0.000000  0.000000  0.000000  1
  Ho  Ho1  1  0.000000  0.000000  0.500000  1
  Al  Al2  1  0.333333  0.666666  0.133256  1
  Al  Al3  1  0.666663  0.333327  0.250000  1
  Al  Al4  1  0.333333  0.666666  0.366744  1
  Al  Al5  1  0.666666  0.333331  0.633256  1
  Al  Al6  1  0.333337  0.666674  0.750000  1
  Al  Al7  1  0.666666  0.333331  0.866744  1
  C  C8  1  0.666662  0.333324  0.092393  1
  C  C9  1  0.333330  0.666660  0.250000  1
  C  C10  1  0.666662  0.333324  0.407607  1
  C  C11  1  0.333338  0.666677  0.592394  1
  C  C12  1  0.666669  0.333338  0.750000  1
  C  C13  1  0.333338  0.666677  0.907607  1
