# generated using pymatgen
data_Hg3As
_symmetry_space_group_name_H-M   'P 1'
_cell_length_a   6.12245333
_cell_length_b   6.12245351
_cell_length_c   5.98354484
_cell_angle_alpha   90.00000000
_cell_angle_beta   90.00000000
_cell_angle_gamma   119.99999399
_symmetry_Int_Tables_number   1
_chemical_formula_structural   Hg3As
_chemical_formula_sum   'Hg6 As2'
_cell_volume   194.24067890
_cell_formula_units_Z   2
loop_
 _symmetry_equiv_pos_site_id
 _symmetry_equiv_pos_as_xyz
  1  'x, y, z'
loop_
 _atom_site_type_symbol
 _atom_site_label
 _atom_site_symmetry_multiplicity
 _atom_site_fract_x
 _atom_site_fract_y
 _atom_site_fract_z
 _atom_site_occupancy
  Hg  Hg0  1  0.166865  0.333729  0.249999  1
  Hg  Hg1  1  0.666269  0.833133  0.249999  1
  Hg  Hg2  1  0.166867  0.833133  0.249999  1
  Hg  Hg3  1  0.833134  0.666268  0.749999  1
  Hg  Hg4  1  0.333731  0.166866  0.749999  1
  Hg  Hg5  1  0.833134  0.166866  0.749999  1
  As  As6  1  0.333333  0.666666  0.749999  1
  As  As7  1  0.666667  0.333333  0.249999  1
