# generated using pymatgen
data_KCe(PO3)4
_symmetry_space_group_name_H-M   'P 1'
_cell_length_a   7.26018536
_cell_length_b   8.47540667
_cell_length_c   8.19760087
_cell_angle_alpha   90.01494566
_cell_angle_beta   92.27119946
_cell_angle_gamma   90.00351749
_symmetry_Int_Tables_number   1
_chemical_formula_structural   KCe(PO3)4
_chemical_formula_sum   'K2 Ce2 P8 O24'
_cell_volume   504.02689376
_cell_formula_units_Z   2
loop_
 _symmetry_equiv_pos_site_id
 _symmetry_equiv_pos_as_xyz
  1  'x, y, z'
loop_
 _atom_site_type_symbol
 _atom_site_label
 _atom_site_symmetry_multiplicity
 _atom_site_fract_x
 _atom_site_fract_y
 _atom_site_fract_z
 _atom_site_occupancy
  K  K0  1  0.204962  0.249434  0.275376  1
  K  K1  1  0.795068  0.749387  0.724591  1
  Ce  Ce2  1  0.730365  0.501677  0.247498  1
  Ce  Ce3  1  0.269574  0.001741  0.752524  1
  P  P4  1  0.948638  0.875353  0.102593  1
  P  P5  1  0.051403  0.375339  0.897401  1
  P  P6  1  0.865562  0.236701  0.604663  1
  P  P7  1  0.134412  0.736732  0.395298  1
  P  P8  1  0.495156  0.363912  0.624964  1
  P  P9  1  0.504873  0.863902  0.375004  1
  P  P10  1  0.610996  0.077641  0.098268  1
  P  P11  1  0.389042  0.577692  0.901757  1
  O  O12  1  0.877993  0.289669  0.430479  1
  O  O13  1  0.121963  0.789716  0.569549  1
  O  O14  1  0.498634  0.945470  0.197032  1
  O  O15  1  0.501399  0.445503  0.802960  1
  O  O16  1  0.943824  0.380000  0.721231  1
  O  O17  1  0.056226  0.879997  0.278764  1
  O  O18  1  0.315491  0.277690  0.598483  1
  O  O19  1  0.684506  0.777713  0.401497  1
  O  O20  1  0.914607  0.403875  0.027488  1
  O  O21  1  0.085368  0.903871  0.972509  1
  O  O22  1  0.825410  0.733792  0.079788  1
  O  O23  1  0.174540  0.233827  0.920224  1
  O  O24  1  0.558154  0.480425  0.500504  1
  O  O25  1  0.441859  0.980468  0.499532  1
  O  O26  1  0.653320  0.231666  0.654506  1
  O  O27  1  0.346663  0.731642  0.345511  1
  O  O28  1  0.450112  0.552508  0.076923  1
  O  O29  1  0.549886  0.052515  0.923068  1
  O  O30  1  0.047264  0.582965  0.343932  1
  O  O31  1  0.952647  0.082962  0.656039  1
  O  O32  1  0.827563  0.034129  0.125301  1
  O  O33  1  0.172460  0.534132  0.874697  1
  O  O34  1  0.583444  0.235768  0.176939  1
  O  O35  1  0.416620  0.735765  0.823112  1
