# generated using pymatgen
data_TlAgCl3
_symmetry_space_group_name_H-M   'P 1'
_cell_length_a   5.12965004
_cell_length_b   5.13239407
_cell_length_c   5.13411539
_cell_angle_alpha   90.05602809
_cell_angle_beta   90.06576352
_cell_angle_gamma   89.96773614
_symmetry_Int_Tables_number   1
_chemical_formula_structural   TlAgCl3
_chemical_formula_sum   'Tl1 Ag1 Cl3'
_cell_volume   135.16765982
_cell_formula_units_Z   1
loop_
 _symmetry_equiv_pos_site_id
 _symmetry_equiv_pos_as_xyz
  1  'x, y, z'
loop_
 _atom_site_type_symbol
 _atom_site_label
 _atom_site_symmetry_multiplicity
 _atom_site_fract_x
 _atom_site_fract_y
 _atom_site_fract_z
 _atom_site_occupancy
  Tl  Tl0  1  0.998406  0.997552  0.999403  1
  Ag  Ag1  1  0.499777  0.497074  0.485418  1
  Cl  Cl2  1  0.999875  0.494089  0.483339  1
  Cl  Cl3  1  0.503828  0.504048  0.985329  1
  Cl  Cl4  1  0.498113  0.997235  0.486511  1
