# generated using pymatgen
data_KGeBr3
_symmetry_space_group_name_H-M   'P 1'
_cell_length_a   5.59204649
_cell_length_b   5.60383964
_cell_length_c   5.60697899
_cell_angle_alpha   89.23976919
_cell_angle_beta   88.95858267
_cell_angle_gamma   89.10472073
_symmetry_Int_Tables_number   1
_chemical_formula_structural   KGeBr3
_chemical_formula_sum   'K1 Ge1 Br3'
_cell_volume   175.64023294
_cell_formula_units_Z   1
loop_
 _symmetry_equiv_pos_site_id
 _symmetry_equiv_pos_as_xyz
  1  'x, y, z'
loop_
 _atom_site_type_symbol
 _atom_site_label
 _atom_site_symmetry_multiplicity
 _atom_site_fract_x
 _atom_site_fract_y
 _atom_site_fract_z
 _atom_site_occupancy
  K  K0  1  0.999405  0.998153  0.997951  1
  Ge  Ge1  1  0.466577  0.479960  0.476593  1
  Br  Br2  1  0.486357  0.014560  0.497943  1
  Br  Br3  1  0.999213  0.505871  0.505355  1
  Br  Br4  1  0.488448  0.501456  0.012157  1
