# generated using pymatgen
data_Nd2MgGe2
_symmetry_space_group_name_H-M   'P 1'
_cell_length_a   7.47971732
_cell_length_b   7.47972122
_cell_length_c   4.40117715
_cell_angle_alpha   89.99998507
_cell_angle_beta   89.99990172
_cell_angle_gamma   89.99965529
_symmetry_Int_Tables_number   1
_chemical_formula_structural   Nd2MgGe2
_chemical_formula_sum   'Nd4 Mg2 Ge4'
_cell_volume   246.22913864
_cell_formula_units_Z   2
loop_
 _symmetry_equiv_pos_site_id
 _symmetry_equiv_pos_as_xyz
  1  'x, y, z'
loop_
 _atom_site_type_symbol
 _atom_site_label
 _atom_site_symmetry_multiplicity
 _atom_site_fract_x
 _atom_site_fract_y
 _atom_site_fract_z
 _atom_site_occupancy
  Nd  Nd0  1  0.321601  0.178400  0.499998  1
  Nd  Nd1  1  0.821600  0.321601  0.500001  1
  Nd  Nd2  1  0.178401  0.678400  0.500000  1
  Nd  Nd3  1  0.678400  0.821600  0.500000  1
  Mg  Mg4  1  0.000000  0.000000  0.999999  1
  Mg  Mg5  1  0.500000  0.499999  -0.000000  1
  Ge  Ge6  1  0.621119  0.121119  0.000001  1
  Ge  Ge7  1  0.121119  0.378881  0.999999  1
  Ge  Ge8  1  0.878879  0.621119  0.000003  1
  Ge  Ge9  1  0.378881  0.878880  0.999999  1
