# generated using pymatgen
data_LiFeSiO4
_symmetry_space_group_name_H-M   'P 1'
_cell_length_a   9.93553441
_cell_length_b   10.34728228
_cell_length_c   16.84146699
_cell_angle_alpha   105.24740742
_cell_angle_beta   107.15587796
_cell_angle_gamma   61.30783635
_symmetry_Int_Tables_number   1
_chemical_formula_structural   LiFeSiO4
_chemical_formula_sum   'Li16 Fe16 Si16 O64'
_cell_volume   1435.93169643
_cell_formula_units_Z   16
loop_
 _symmetry_equiv_pos_site_id
 _symmetry_equiv_pos_as_xyz
  1  'x, y, z'
loop_
 _atom_site_type_symbol
 _atom_site_label
 _atom_site_symmetry_multiplicity
 _atom_site_fract_x
 _atom_site_fract_y
 _atom_site_fract_z
 _atom_site_occupancy
  Li  Li0  1  0.628225  0.981328  0.184709  1
  Li  Li1  1  0.077157  0.968374  0.687990  1
  Li  Li2  1  0.813331  0.899338  0.433860  1
  Li  Li3  1  0.389530  0.823271  0.436885  1
  Li  Li4  1  0.722250  0.899083  0.934163  1
  Li  Li5  1  0.223568  0.823866  0.936891  1
  Li  Li6  1  0.118392  0.566152  0.186752  1
  Li  Li7  1  0.642459  0.468374  0.187990  1
  Li  Li8  1  0.000354  0.557921  0.688026  1
  Li  Li9  1  0.575156  0.481328  0.684709  1
  Li  Li10  1  0.312831  0.399083  0.434163  1
  Li  Li11  1  0.889457  0.323866  0.436891  1
  Li  Li12  1  0.721191  0.399338  0.933860  1
  Li  Li13  1  0.224084  0.323271  0.936885  1
  Li  Li14  1  0.129751  0.057921  0.188026  1
  Li  Li15  1  0.502208  0.066152  0.686752  1
  Fe  Fe16  1  0.946739  0.872822  0.121663  1
  Fe  Fe17  1  0.449881  0.796545  0.121303  1
  Fe  Fe18  1  0.801393  0.864089  0.618913  1
  Fe  Fe19  1  0.376206  0.808635  0.625844  1
  Fe  Fe20  1  0.119761  0.698553  0.376969  1
  Fe  Fe21  1  0.688034  0.627927  0.376429  1
  Fe  Fe22  1  0.558746  0.695613  0.875558  1
  Fe  Fe23  1  0.058793  0.630404  0.877879  1
  Fe  Fe24  1  0.953431  0.364089  0.118913  1
  Fe  Fe25  1  0.441003  0.308635  0.125844  1
  Fe  Fe26  1  0.302102  0.372822  0.621663  1
  Fe  Fe27  1  0.874877  0.296545  0.621303  1
  Fe  Fe28  1  0.621198  0.195613  0.375558  1
  Fe  Fe29  1  0.188681  0.130404  0.377879  1
  Fe  Fe30  1  0.558655  0.198553  0.876969  1
  Fe  Fe31  1  0.060468  0.127927  0.876429  1
  Si  Si32  1  0.499260  0.940580  0.313055  1
  Si  Si33  1  0.373443  0.010200  0.811082  1
  Si  Si34  1  0.870658  0.941917  0.812369  1
  Si  Si35  1  0.771667  0.680935  0.060384  1
  Si  Si36  1  0.266726  0.608024  0.063361  1
  Si  Si37  1  0.110712  0.683489  0.561667  1
  Si  Si38  1  0.686368  0.605822  0.562426  1
  Si  Si39  1  0.427439  0.510200  0.311082  1
  Si  Si40  1  0.999793  0.441917  0.312369  1
  Si  Si41  1  0.367558  0.514853  0.809822  1
  Si  Si42  1  0.873214  0.440580  0.813055  1
  Si  Si43  1  0.767466  0.183489  0.061667  1
  Si  Si44  1  0.270237  0.105822  0.062426  1
  Si  Si45  1  0.607781  0.180935  0.560384  1
  Si  Si46  1  0.188612  0.108024  0.563361  1
  Si  Si47  1  0.927410  0.014853  0.309822  1
  O  O48  1  0.399142  0.989491  0.387356  1
  O  O49  1  0.307414  0.927879  0.040884  1
  O  O50  1  0.851879  0.944839  0.217731  1
  O  O51  1  0.387593  0.908141  0.223343  1
  O  O52  1  0.811866  0.802214  0.036703  1
  O  O53  1  0.653007  0.771967  0.127956  1
  O  O54  1  0.975138  0.900395  0.377159  1
  O  O55  1  0.998206  0.988957  0.886304  1
  O  O56  1  0.308535  0.930192  0.540560  1
  O  O57  1  0.425093  0.941762  0.718548  1
  O  O58  1  0.928755  0.901924  0.722596  1
  O  O59  1  0.143990  0.703697  0.129011  1
  O  O60  1  0.925980  0.806378  0.537814  1
  O  O61  1  0.665725  0.798287  0.343040  1
  O  O62  1  0.208737  0.772610  0.629124  1
  O  O63  1  0.436142  0.615542  0.105485  1
  O  O64  1  0.507804  0.896950  0.878545  1
  O  O65  1  0.301132  0.675429  0.348027  1
  O  O66  1  0.784311  0.695069  0.628581  1
  O  O67  1  0.607117  0.680243  0.475124  1
  O  O68  1  0.876106  0.800009  0.843010  1
  O  O69  1  0.044788  0.567632  0.298036  1
  O  O70  1  0.574750  0.527954  0.297384  1
  O  O71  1  0.182009  0.611536  0.475599  1
  O  O72  1  0.934453  0.546917  0.102389  1
  O  O73  1  0.548906  0.622901  0.606272  1
  O  O74  1  0.368666  0.678701  0.849099  1
  O  O75  1  0.187494  0.681548  0.975654  1
  O  O76  1  0.899141  0.488957  0.386304  1
  O  O77  1  0.301833  0.430192  0.040560  1
  O  O78  1  0.351694  0.441762  0.218548  1
  O  O79  1  0.891917  0.401924  0.222596  1
  O  O80  1  0.186232  0.536810  0.795070  1
  O  O81  1  0.686664  0.561692  0.798001  1
  O  O82  1  0.117995  0.550752  0.602155  1
  O  O83  1  0.683759  0.610076  0.974753  1
  O  O84  1  0.805456  0.306378  0.037814  1
  O  O85  1  0.647777  0.272610  0.129124  1
  O  O86  1  0.998722  0.489491  0.887356  1
  O  O87  1  0.473790  0.396950  0.378545  1
  O  O88  1  0.805591  0.427879  0.540884  1
  O  O89  1  0.421012  0.444839  0.717731  1
  O  O90  1  0.927608  0.408141  0.723343  1
  O  O91  1  0.149201  0.195069  0.128581  1
  O  O92  1  0.166894  0.300009  0.343010  1
  O  O93  1  0.422623  0.302214  0.536703  1
  O  O94  1  0.434465  0.122901  0.106272  1
  O  O95  1  0.702984  0.271967  0.627956  1
  O  O96  1  0.501626  0.400395  0.877159  1
  O  O97  1  0.801732  0.178701  0.349099  1
  O  O98  1  0.281323  0.203697  0.629011  1
  O  O99  1  0.106611  0.181548  0.475654  1
  O  O100  1  0.879028  0.298287  0.843040  1
  O  O101  1  0.072028  0.036810  0.295070  1
  O  O102  1  0.549645  0.061692  0.298001  1
  O  O103  1  0.933407  0.050752  0.102155  1
  O  O104  1  0.680918  0.110076  0.474753  1
  O  O105  1  0.053802  0.115542  0.605485  1
  O  O106  1  0.371467  0.175429  0.848027  1
  O  O107  1  0.187764  0.180243  0.975124  1
  O  O108  1  0.685616  0.067632  0.798036  1
  O  O109  1  0.194681  0.027954  0.797384  1
  O  O110  1  0.682053  0.111536  0.975599  1
  O  O111  1  0.621019  0.046917  0.602389  1
