# generated using pymatgen
data_Sm3Np
_symmetry_space_group_name_H-M   'P 1'
_cell_length_a   7.19418769
_cell_length_b   7.19418726
_cell_length_c   5.73075085
_cell_angle_alpha   90.00000000
_cell_angle_beta   90.00000000
_cell_angle_gamma   119.99999735
_symmetry_Int_Tables_number   1
_chemical_formula_structural   Sm3Np
_chemical_formula_sum   'Sm6 Np2'
_cell_volume   256.86543799
_cell_formula_units_Z   2
loop_
 _symmetry_equiv_pos_site_id
 _symmetry_equiv_pos_as_xyz
  1  'x, y, z'
loop_
 _atom_site_type_symbol
 _atom_site_label
 _atom_site_symmetry_multiplicity
 _atom_site_fract_x
 _atom_site_fract_y
 _atom_site_fract_z
 _atom_site_occupancy
  Sm  Sm0  1  0.169314  0.338627  0.250000  1
  Sm  Sm1  1  0.661374  0.830687  0.250000  1
  Sm  Sm2  1  0.169314  0.830687  0.250000  1
  Sm  Sm3  1  0.830686  0.661372  0.749999  1
  Sm  Sm4  1  0.338628  0.169314  0.749999  1
  Sm  Sm5  1  0.830686  0.169314  0.749999  1
  Np  Np6  1  0.333334  0.666667  0.749999  1
  Np  Np7  1  0.666666  0.333333  0.250000  1
