# generated using pymatgen
data_Nb4Co4Si7
_symmetry_space_group_name_H-M   'P 1'
_cell_length_a   9.25821428
_cell_length_b   9.25821428
_cell_length_c   9.25821428
_cell_angle_alpha   94.19783030
_cell_angle_beta   94.19783030
_cell_angle_gamma   148.60531661
_symmetry_Int_Tables_number   1
_chemical_formula_structural   Nb4Co4Si7
_chemical_formula_sum   'Nb8 Co8 Si14'
_cell_volume   397.97365237
_cell_formula_units_Z   2
loop_
 _symmetry_equiv_pos_site_id
 _symmetry_equiv_pos_as_xyz
  1  'x, y, z'
loop_
 _atom_site_type_symbol
 _atom_site_label
 _atom_site_symmetry_multiplicity
 _atom_site_fract_x
 _atom_site_fract_y
 _atom_site_fract_z
 _atom_site_occupancy
  Nb  Nb0  1  0.500000  0.308758  0.808759  1
  Nb  Nb1  1  0.499999  0.691241  0.191242  1
  Nb  Nb2  1  0.691241  0.499999  0.191242  1
  Nb  Nb3  1  0.308758  0.500000  0.808759  1
  Nb  Nb4  1  0.134134  0.134134  0.268267  1
  Nb  Nb5  1  0.865865  0.865865  0.731733  1
  Nb  Nb6  1  0.865865  0.134133  0.000000  1
  Nb  Nb7  1  0.134133  0.865865  0.000000  1
  Co  Co8  1  0.898647  0.398647  0.797294  1
  Co  Co9  1  0.601352  0.101352  0.202706  1
  Co  Co10  1  0.101352  0.898647  0.500000  1
  Co  Co11  1  0.398647  0.601352  0.500000  1
  Co  Co12  1  0.101352  0.601352  0.202706  1
  Co  Co13  1  0.398647  0.898647  0.797294  1
  Co  Co14  1  0.898647  0.101352  0.500000  1
  Co  Co15  1  0.601352  0.398647  0.500000  1
  Si  Si16  1  0.291353  0.291353  0.582705  1
  Si  Si17  1  0.708646  0.708646  0.417294  1
  Si  Si18  1  0.708646  0.291352  0.000000  1
  Si  Si19  1  0.291352  0.708646  0.000000  1
  Si  Si20  1  0.500000  0.094291  0.594292  1
  Si  Si21  1  0.499999  0.905707  0.405708  1
  Si  Si22  1  0.905707  0.499999  0.405708  1
  Si  Si23  1  0.094291  0.500000  0.594292  1
  Si  Si24  1  0.249111  0.249111  0.000000  1
  Si  Si25  1  0.750889  0.750889  0.000000  1
  Si  Si26  1  0.000000  0.297378  0.297378  1
  Si  Si27  1  0.000000  0.702622  0.702622  1
  Si  Si28  1  0.702622  0.000000  0.702622  1
  Si  Si29  1  0.297378  0.000000  0.297378  1
