# generated using pymatgen
data_In3Cu
_symmetry_space_group_name_H-M   'P 1'
_cell_length_a   7.04660886
_cell_length_b   7.04862637
_cell_length_c   4.42876016
_cell_angle_alpha   91.44483527
_cell_angle_beta   88.54342496
_cell_angle_gamma   120.05416704
_symmetry_Int_Tables_number   1
_chemical_formula_structural   In3Cu
_chemical_formula_sum   'In6 Cu2'
_cell_volume   190.31568481
_cell_formula_units_Z   2
loop_
 _symmetry_equiv_pos_site_id
 _symmetry_equiv_pos_as_xyz
  1  'x, y, z'
loop_
 _atom_site_type_symbol
 _atom_site_label
 _atom_site_symmetry_multiplicity
 _atom_site_fract_x
 _atom_site_fract_y
 _atom_site_fract_z
 _atom_site_occupancy
  In  In0  1  0.180364  0.360783  0.250301  1
  In  In1  1  0.639230  0.819993  0.250342  1
  In  In2  1  0.180403  0.819516  0.249172  1
  In  In3  1  0.819607  0.639231  0.749693  1
  In  In4  1  0.360707  0.179952  0.749649  1
  In  In5  1  0.819790  0.180590  0.750920  1
  Cu  Cu6  1  0.333348  0.666584  0.750007  1
  Cu  Cu7  1  0.666552  0.333352  0.249929  1
