# generated using pymatgen
data_Ho2S3
_symmetry_space_group_name_H-M   'P 1'
_cell_length_a   6.87077046
_cell_length_b   6.87077105
_cell_length_c   7.31652442
_cell_angle_alpha   118.00431124
_cell_angle_beta   61.99569325
_cell_angle_gamma   120.00000199
_symmetry_Int_Tables_number   1
_chemical_formula_structural   Ho2S3
_chemical_formula_sum   'Ho4 S6'
_cell_volume   251.34063162
_cell_formula_units_Z   2
loop_
 _symmetry_equiv_pos_site_id
 _symmetry_equiv_pos_as_xyz
  1  'x, y, z'
loop_
 _atom_site_type_symbol
 _atom_site_label
 _atom_site_symmetry_multiplicity
 _atom_site_fract_x
 _atom_site_fract_y
 _atom_site_fract_z
 _atom_site_occupancy
  Ho  Ho0  1  0.649812  0.350187  0.050565  1
  Ho  Ho1  1  0.850189  0.149812  0.449435  1
  Ho  Ho2  1  0.149812  0.850188  0.550566  1
  Ho  Ho3  1  0.350188  0.649811  0.949436  1
  S  S4  1  0.551393  0.750000  0.250000  1
  S  S5  1  0.948606  0.448607  0.250000  1
  S  S6  1  0.249999  0.051392  0.250000  1
  S  S7  1  0.750001  0.948606  0.750001  1
  S  S8  1  0.051394  0.551394  0.750001  1
  S  S9  1  0.448606  0.250000  0.750001  1
