# generated using pymatgen
data_InN3
_symmetry_space_group_name_H-M   'P 1'
_cell_length_a   3.51250662
_cell_length_b   3.53698753
_cell_length_c   3.51149528
_cell_angle_alpha   89.36998296
_cell_angle_beta   90.15899675
_cell_angle_gamma   89.06547455
_symmetry_Int_Tables_number   1
_chemical_formula_structural   InN3
_chemical_formula_sum   'In1 N3'
_cell_volume   43.61710592
_cell_formula_units_Z   1
loop_
 _symmetry_equiv_pos_site_id
 _symmetry_equiv_pos_as_xyz
  1  'x, y, z'
loop_
 _atom_site_type_symbol
 _atom_site_label
 _atom_site_symmetry_multiplicity
 _atom_site_fract_x
 _atom_site_fract_y
 _atom_site_fract_z
 _atom_site_occupancy
  In  In0  1  -0.000071  0.000056  0.999346  1
  N  N1  1  0.500078  0.999451  0.501496  1
  N  N2  1  0.999514  0.500555  0.500545  1
  N  N3  1  0.500481  0.499940  0.998615  1
