# generated using pymatgen
data_H4C2O
_symmetry_space_group_name_H-M   'P 1'
_cell_length_a   4.85834055
_cell_length_b   10.76191668
_cell_length_c   10.76191668
_cell_angle_alpha   87.07956620
_cell_angle_beta   76.95483191
_cell_angle_gamma   76.95483191
_symmetry_Int_Tables_number   1
_chemical_formula_structural   H4C2O
_chemical_formula_sum   'H32 C16 O8'
_cell_volume   534.01899124
_cell_formula_units_Z   8
loop_
 _symmetry_equiv_pos_site_id
 _symmetry_equiv_pos_as_xyz
  1  'x, y, z'
loop_
 _atom_site_type_symbol
 _atom_site_label
 _atom_site_symmetry_multiplicity
 _atom_site_fract_x
 _atom_site_fract_y
 _atom_site_fract_z
 _atom_site_occupancy
  H  H0  1  0.856260  0.325305  0.550182  1
  H  H1  1  0.731747  0.674695  0.449818  1
  H  H2  1  0.656442  0.949818  0.825305  1
  H  H3  1  0.431565  0.050182  0.174695  1
  H  H4  1  0.393740  0.174695  0.949818  1
  H  H5  1  0.518253  0.825305  0.050182  1
  H  H6  1  0.593558  0.550182  0.674695  1
  H  H7  1  0.818435  0.449818  0.325305  1
  H  H8  1  0.101567  0.298187  0.654163  1
  H  H9  1  0.053916  0.701813  0.345837  1
  H  H10  1  0.005730  0.845837  0.798187  1
  H  H11  1  0.649754  0.154163  0.201813  1
  H  H12  1  0.148433  0.201813  0.845837  1
  H  H13  1  0.196084  0.798187  0.154163  1
  H  H14  1  0.244271  0.654163  0.701813  1
  H  H15  1  0.600246  0.345837  0.298187  1
  H  H16  1  0.305797  0.083910  0.587568  1
  H  H17  1  0.977276  0.916090  0.412432  1
  H  H18  1  0.143366  0.912432  0.583910  1
  H  H19  1  0.639708  0.087568  0.416090  1
  H  H20  1  0.944203  0.416090  0.912432  1
  H  H21  1  0.272724  0.583910  0.087568  1
  H  H22  1  0.106634  0.587568  0.916090  1
  H  H23  1  0.610292  0.412432  0.083910  1
  H  H24  1  0.234489  0.314046  0.487702  1
  H  H25  1  0.036237  0.685954  0.512298  1
  H  H26  1  0.972191  0.012298  0.814046  1
  H  H27  1  0.798534  0.987702  0.185954  1
  H  H28  1  0.015511  0.185954  0.012298  1
  H  H29  1  0.213763  0.814046  0.987702  1
  H  H30  1  0.277809  0.487702  0.685954  1
  H  H31  1  0.451466  0.512298  0.314046  1
  C  C32  1  0.128155  0.132931  0.543044  1
  C  C33  1  0.804130  0.867069  0.456956  1
  C  C34  1  0.921199  0.956956  0.632931  1
  C  C35  1  0.511086  0.043044  0.367069  1
  C  C36  1  0.121845  0.367069  0.956956  1
  C  C37  1  0.445870  0.632931  0.043044  1
  C  C38  1  0.328801  0.543044  0.867069  1
  C  C39  1  0.738914  0.456956  0.132931  1
  C  C40  1  0.074617  0.276553  0.559541  1
  C  C41  1  0.910712  0.723447  0.440459  1
  C  C42  1  0.884159  0.940459  0.776553  1
  C  C43  1  0.601170  0.059541  0.223447  1
  C  C44  1  0.175383  0.223447  0.940459  1
  C  C45  1  0.339288  0.776553  0.059541  1
  C  C46  1  0.365841  0.559541  0.723447  1
  C  C47  1  0.648830  0.440459  0.276553  1
  O  O48  1  0.871218  0.091594  0.599013  1
  O  O49  1  0.561825  0.908406  0.400987  1
  O  O50  1  0.720230  0.900987  0.591594  1
  O  O51  1  0.212812  0.099013  0.408406  1
  O  O52  1  0.378782  0.408406  0.900987  1
  O  O53  1  0.688175  0.591594  0.099013  1
  O  O54  1  0.529770  0.599013  0.908406  1
  O  O55  1  0.037188  0.400987  0.091594  1
