# generated using pymatgen
data_Tl3Fe
_symmetry_space_group_name_H-M   'P 1'
_cell_length_a   4.56165275
_cell_length_b   4.56123583
_cell_length_c   4.56144536
_cell_angle_alpha   89.99501007
_cell_angle_beta   89.98383925
_cell_angle_gamma   90.02136735
_symmetry_Int_Tables_number   1
_chemical_formula_structural   Tl3Fe
_chemical_formula_sum   'Tl3 Fe1'
_cell_volume   94.90895200
_cell_formula_units_Z   1
loop_
 _symmetry_equiv_pos_site_id
 _symmetry_equiv_pos_as_xyz
  1  'x, y, z'
loop_
 _atom_site_type_symbol
 _atom_site_label
 _atom_site_symmetry_multiplicity
 _atom_site_fract_x
 _atom_site_fract_y
 _atom_site_fract_z
 _atom_site_occupancy
  Tl  Tl0  1  0.000001  0.500003  0.500001  1
  Tl  Tl1  1  0.500002  0.500003  0.000000  1
  Tl  Tl2  1  0.500002  0.000002  0.500001  1
  Fe  Fe3  1  0.999999  0.999997  0.000002  1
