# generated using pymatgen
data_TaInSe2
_symmetry_space_group_name_H-M   'P 1'
_cell_length_a   3.45413371
_cell_length_b   3.45414642
_cell_length_c   9.45556354
_cell_angle_alpha   90.00000000
_cell_angle_beta   90.00000000
_cell_angle_gamma   119.99987833
_symmetry_Int_Tables_number   1
_chemical_formula_structural   TaInSe2
_chemical_formula_sum   'Ta1 In1 Se2'
_cell_volume   97.70087889
_cell_formula_units_Z   1
loop_
 _symmetry_equiv_pos_site_id
 _symmetry_equiv_pos_as_xyz
  1  'x, y, z'
loop_
 _atom_site_type_symbol
 _atom_site_label
 _atom_site_symmetry_multiplicity
 _atom_site_fract_x
 _atom_site_fract_y
 _atom_site_fract_z
 _atom_site_occupancy
  Ta  Ta0  1  0.333304  0.666609  0.500000  1
  In  In1  1  0.999999  0.999998  0.000000  1
  Se  Se2  1  0.999998  0.999997  0.677111  1
  Se  Se3  1  0.999998  0.999997  0.322889  1
