# generated using pymatgen
data_In2(SO4)3
_symmetry_space_group_name_H-M   'P 1'
_cell_length_a   8.67276761
_cell_length_b   8.96319768
_cell_length_c   12.22636153
_cell_angle_alpha   90.00000000
_cell_angle_beta   90.83075175
_cell_angle_gamma   90.00000000
_symmetry_Int_Tables_number   1
_chemical_formula_structural   In2(SO4)3
_chemical_formula_sum   'In8 S12 O48'
_cell_volume   950.32524160
_cell_formula_units_Z   4
loop_
 _symmetry_equiv_pos_site_id
 _symmetry_equiv_pos_as_xyz
  1  'x, y, z'
loop_
 _atom_site_type_symbol
 _atom_site_label
 _atom_site_symmetry_multiplicity
 _atom_site_fract_x
 _atom_site_fract_y
 _atom_site_fract_z
 _atom_site_occupancy
  O  O0  1  0.284094  0.926970  0.441309  1
  O  O1  1  0.215906  0.426970  0.058691  1
  O  O2  1  0.715906  0.073030  0.558691  1
  O  O3  1  0.784094  0.573030  0.941309  1
  O  O4  1  0.315757  0.818422  0.046573  1
  O  O5  1  0.184243  0.318422  0.453427  1
  O  O6  1  0.684243  0.181578  0.953427  1
  O  O7  1  0.815757  0.681578  0.546573  1
  O  O8  1  0.941998  0.082313  0.814858  1
  O  O9  1  0.558002  0.582313  0.685142  1
  O  O10  1  0.058002  0.917687  0.185142  1
  O  O11  1  0.441998  0.417687  0.314858  1
  O  O12  1  0.378663  0.991699  0.262356  1
  O  O13  1  0.121337  0.491699  0.237644  1
  O  O14  1  0.621337  0.008301  0.737644  1
  O  O15  1  0.878663  0.508301  0.762356  1
  O  O16  1  0.211877  0.021435  0.784976  1
  O  O17  1  0.557577  0.698943  0.095977  1
  O  O18  1  0.442423  0.301057  0.904023  1
  O  O19  1  0.057577  0.801057  0.595977  1
  O  O20  1  0.852034  0.768589  0.813937  1
  O  O21  1  0.647966  0.268589  0.686063  1
  O  O22  1  0.147966  0.231411  0.186063  1
  O  O23  1  0.352034  0.731411  0.313937  1
  O  O24  1  0.041205  0.632826  0.438286  1
  O  O25  1  0.458795  0.132826  0.061714  1
  O  O26  1  0.958795  0.367174  0.561714  1
  O  O27  1  0.541205  0.867174  0.938286  1
  O  O28  1  0.054494  0.614899  0.895158  1
  O  O29  1  0.445506  0.114899  0.604842  1
  O  O30  1  0.945506  0.385101  0.104842  1
  O  O31  1  0.554494  0.885101  0.395158  1
  O  O32  1  0.627190  0.221581  0.315818  1
  O  O33  1  0.872810  0.721581  0.184182  1
  O  O34  1  0.372810  0.778419  0.684182  1
  O  O35  1  0.127190  0.278419  0.815818  1
  O  O36  1  0.919343  0.871601  0.428077  1
  O  O37  1  0.580657  0.371601  0.071924  1
  O  O38  1  0.080657  0.128399  0.571924  1
  O  O39  1  0.419343  0.628399  0.928076  1
  O  O40  1  0.628464  0.402248  0.464466  1
  O  O41  1  0.871536  0.902248  0.035534  1
  O  O42  1  0.371536  0.597752  0.535534  1
  O  O43  1  0.128464  0.097752  0.964466  1
  O  O44  1  0.711877  0.478565  0.284976  1
  O  O45  1  0.788123  0.978565  0.215024  1
  O  O46  1  0.288123  0.521435  0.715024  1
  O  O47  1  0.942423  0.198943  0.404023  1
  S  S48  1  0.459927  0.752656  0.003069  1
  S  S49  1  0.040073  0.252656  0.496931  1
  S  S50  1  0.540073  0.247344  0.996931  1
  S  S51  1  0.959927  0.747344  0.503069  1
  S  S52  1  0.391887  0.883617  0.353625  1
  S  S53  1  0.108113  0.383617  0.146375  1
  S  S54  1  0.608113  0.116383  0.646375  1
  S  S55  1  0.891887  0.616383  0.853625  1
  S  S56  1  0.103758  0.119125  0.845564  1
  S  S57  1  0.396242  0.619125  0.654436  1
  S  S58  1  0.896242  0.880875  0.154436  1
  S  S59  1  0.603758  0.380875  0.345564  1
  In  In60  1  0.251418  0.463085  0.885602  1
  In  In61  1  0.248582  0.963085  0.614398  1
  In  In62  1  0.748582  0.536915  0.114398  1
  In  In63  1  0.751418  0.036915  0.385602  1
  In  In64  1  0.249018  0.032638  0.113872  1
  In  In65  1  0.250982  0.532638  0.386128  1
  In  In66  1  0.750982  0.967362  0.886128  1
  In  In67  1  0.749018  0.467362  0.613872  1
