# generated using pymatgen
data_Sm3Tm
_symmetry_space_group_name_H-M   'P 1'
_cell_length_a   5.08839802
_cell_length_b   5.08841229
_cell_length_c   5.08842574
_cell_angle_alpha   90.00032496
_cell_angle_beta   90.00019908
_cell_angle_gamma   89.99997872
_symmetry_Int_Tables_number   1
_chemical_formula_structural   Sm3Tm
_chemical_formula_sum   'Sm3 Tm1'
_cell_volume   131.74884261
_cell_formula_units_Z   1
loop_
 _symmetry_equiv_pos_site_id
 _symmetry_equiv_pos_as_xyz
  1  'x, y, z'
loop_
 _atom_site_type_symbol
 _atom_site_label
 _atom_site_symmetry_multiplicity
 _atom_site_fract_x
 _atom_site_fract_y
 _atom_site_fract_z
 _atom_site_occupancy
  Sm  Sm0  1  0.000000  0.500000  0.500000  1
  Sm  Sm1  1  0.500000  0.000000  0.499999  1
  Sm  Sm2  1  0.500001  0.500001  0.000000  1
  Tm  Tm3  1  0.999999  0.999999  0.000001  1
