# generated using pymatgen
data_AlTlS2
_symmetry_space_group_name_H-M   'P 1'
_cell_length_a   7.36310296
_cell_length_b   7.36310296
_cell_length_c   15.35629550
_cell_angle_alpha   83.08921236
_cell_angle_beta   96.91078764
_cell_angle_gamma   89.98360460
_symmetry_Int_Tables_number   1
_chemical_formula_structural   AlTlS2
_chemical_formula_sum   'Al8 Tl8 S16'
_cell_volume   820.40042687
_cell_formula_units_Z   8
loop_
 _symmetry_equiv_pos_site_id
 _symmetry_equiv_pos_as_xyz
  1  'x, y, z'
loop_
 _atom_site_type_symbol
 _atom_site_label
 _atom_site_symmetry_multiplicity
 _atom_site_fract_x
 _atom_site_fract_y
 _atom_site_fract_z
 _atom_site_occupancy
  Al  Al0  1  0.580414  0.292076  0.336813  1
  Al  Al1  1  0.292076  0.580414  0.163187  1
  Al  Al2  1  0.419585  0.707924  0.663187  1
  Al  Al3  1  0.707923  0.419586  0.836813  1
  Al  Al4  1  0.292135  0.089163  0.164490  1
  Al  Al5  1  0.089162  0.292136  0.335510  1
  Al  Al6  1  0.707864  0.910836  0.835510  1
  Al  Al7  1  0.910837  0.707863  0.664490  1
  Tl  Tl8  1  0.348686  0.782819  0.384805  1
  Tl  Tl9  1  0.782819  0.348686  0.115194  1
  Tl  Tl10  1  0.651313  0.217182  0.615195  1
  Tl  Tl11  1  0.217180  0.651315  0.884805  1
  Tl  Tl12  1  0.772779  0.851435  0.111464  1
  Tl  Tl13  1  0.851434  0.772780  0.388536  1
  Tl  Tl14  1  0.227218  0.148565  0.888535  1
  Tl  Tl15  1  0.148564  0.227219  0.611465  1
  S  S16  1  0.565686  0.060377  0.251340  1
  S  S17  1  0.060377  0.565685  0.248659  1
  S  S18  1  0.434315  0.939624  0.748660  1
  S  S19  1  0.939623  0.434316  0.751340  1
  S  S20  1  0.564866  0.564865  0.250000  1
  S  S21  1  0.435135  0.435136  0.750000  1
  S  S22  1  0.061063  0.061063  0.250000  1
  S  S23  1  0.938938  0.938939  0.750000  1
  S  S24  1  0.272538  0.856890  0.077470  1
  S  S25  1  0.856890  0.272538  0.422530  1
  S  S26  1  0.727462  0.143109  0.922530  1
  S  S27  1  0.143109  0.727462  0.577470  1
  S  S28  1  0.356735  0.269805  0.427153  1
  S  S29  1  0.269805  0.356735  0.072847  1
  S  S30  1  0.643265  0.730196  0.572847  1
  S  S31  1  0.730195  0.643266  0.927152  1
