# generated using pymatgen
data_Na5(SiO3)6
_symmetry_space_group_name_H-M   'P 1'
_cell_length_a   7.39830333
_cell_length_b   7.36404746
_cell_length_c   10.45061229
_cell_angle_alpha   69.16788652
_cell_angle_beta   69.95733417
_cell_angle_gamma   60.62699891
_symmetry_Int_Tables_number   1
_chemical_formula_structural   Na5(SiO3)6
_chemical_formula_sum   'Na5 Si6 O18'
_cell_volume   453.72699021
_cell_formula_units_Z   1
loop_
 _symmetry_equiv_pos_site_id
 _symmetry_equiv_pos_as_xyz
  1  'x, y, z'
loop_
 _atom_site_type_symbol
 _atom_site_label
 _atom_site_symmetry_multiplicity
 _atom_site_fract_x
 _atom_site_fract_y
 _atom_site_fract_z
 _atom_site_occupancy
  Na  Na0  1  0.000000  0.500000  0.500000  1
  Na  Na1  1  0.870950  0.316243  0.000943  1
  Na  Na2  1  0.688141  0.124785  0.497682  1
  Na  Na3  1  0.129050  0.683757  0.999057  1
  Na  Na4  1  0.311859  0.875215  0.502318  1
  Si  Si5  1  0.184939  0.822168  0.248356  1
  Si  Si6  1  0.815061  0.177832  0.751644  1
  Si  Si7  1  0.653687  0.585393  0.255653  1
  Si  Si8  1  0.419453  0.345069  0.244673  1
  Si  Si9  1  0.346313  0.414607  0.744347  1
  Si  Si10  1  0.580547  0.654931  0.755327  1
  O  O11  1  0.622921  0.378081  0.251635  1
  O  O12  1  0.377079  0.621919  0.748365  1
  O  O13  1  0.075872  0.000705  0.120973  1
  O  O14  1  0.003550  0.906059  0.380836  1
  O  O15  1  0.924128  0.999295  0.879027  1
  O  O16  1  0.996450  0.093941  0.619164  1
  O  O17  1  0.418412  0.790142  0.256030  1
  O  O18  1  0.213940  0.583606  0.247709  1
  O  O19  1  0.581588  0.209858  0.743970  1
  O  O20  1  0.786060  0.416394  0.752291  1
  O  O21  1  0.845690  0.612032  0.127661  1
  O  O22  1  0.373927  0.169379  0.379447  1
  O  O23  1  0.531728  0.713589  0.902517  1
  O  O24  1  0.260822  0.469674  0.605586  1
  O  O25  1  0.468272  0.286411  0.097483  1
  O  O26  1  0.739178  0.530326  0.394414  1
  O  O27  1  0.626073  0.830621  0.620553  1
  O  O28  1  0.154310  0.387968  0.872339  1
