# generated using pymatgen
data_BaCe
_symmetry_space_group_name_H-M   'P 1'
_cell_length_a   3.92327670
_cell_length_b   3.91251092
_cell_length_c   6.61963090
_cell_angle_alpha   90.00007942
_cell_angle_beta   90.00005331
_cell_angle_gamma   119.81624279
_symmetry_Int_Tables_number   1
_chemical_formula_structural   BaCe
_chemical_formula_sum   'Ba1 Ce1'
_cell_volume   88.15969909
_cell_formula_units_Z   1
loop_
 _symmetry_equiv_pos_site_id
 _symmetry_equiv_pos_as_xyz
  1  'x, y, z'
loop_
 _atom_site_type_symbol
 _atom_site_label
 _atom_site_symmetry_multiplicity
 _atom_site_fract_x
 _atom_site_fract_y
 _atom_site_fract_z
 _atom_site_occupancy
  Ba  Ba0  1  0.666656  0.333338  0.750000  1
  Ce  Ce1  1  0.333344  0.666663  0.250000  1
