# generated using pymatgen
data_ZnAgF3
_symmetry_space_group_name_H-M   'P 1'
_cell_length_a   5.53816902
_cell_length_b   5.53816955
_cell_length_c   6.37856832
_cell_angle_alpha   64.27048252
_cell_angle_beta   64.27048004
_cell_angle_gamma   59.99999712
_symmetry_Int_Tables_number   1
_chemical_formula_structural   ZnAgF3
_chemical_formula_sum   'Zn2 Ag2 F6'
_cell_volume   146.60366937
_cell_formula_units_Z   2
loop_
 _symmetry_equiv_pos_site_id
 _symmetry_equiv_pos_as_xyz
  1  'x, y, z'
loop_
 _atom_site_type_symbol
 _atom_site_label
 _atom_site_symmetry_multiplicity
 _atom_site_fract_x
 _atom_site_fract_y
 _atom_site_fract_z
 _atom_site_occupancy
  Zn  Zn0  1  0.658815  0.658813  0.023557  1
  Zn  Zn1  1  0.341187  0.341186  0.976441  1
  Ag  Ag2  1  0.858426  0.858425  0.424724  1
  Ag  Ag3  1  0.141576  0.141574  0.575274  1
  F  F4  1  0.459022  0.691290  0.790957  1
  F  F5  1  0.058730  0.459023  0.790957  1
  F  F6  1  0.691290  0.058730  0.790957  1
  F  F7  1  0.540977  0.308710  0.209044  1
  F  F8  1  0.308709  0.941270  0.209044  1
  F  F9  1  0.941269  0.540977  0.209044  1
