# generated using pymatgen
data_CdNi
_symmetry_space_group_name_H-M   'P 1'
_cell_length_a   8.13580134
_cell_length_b   8.13580134
_cell_length_c   8.13580134
_cell_angle_alpha   60.00000000
_cell_angle_beta   60.00000000
_cell_angle_gamma   60.00000000
_symmetry_Int_Tables_number   1
_chemical_formula_structural   CdNi
_chemical_formula_sum   'Cd12 Ni12'
_cell_volume   380.79041578
_cell_formula_units_Z   12
loop_
 _symmetry_equiv_pos_site_id
 _symmetry_equiv_pos_as_xyz
  1  'x, y, z'
loop_
 _atom_site_type_symbol
 _atom_site_label
 _atom_site_symmetry_multiplicity
 _atom_site_fract_x
 _atom_site_fract_y
 _atom_site_fract_z
 _atom_site_occupancy
  Cd  Cd0  1  0.825043  0.424958  0.424958  1
  Cd  Cd1  1  0.424958  0.825042  0.825042  1
  Cd  Cd2  1  0.424958  0.825043  0.424958  1
  Cd  Cd3  1  0.424958  0.424958  0.825043  1
  Cd  Cd4  1  0.825042  0.424958  0.825042  1
  Cd  Cd5  1  0.825042  0.825042  0.424958  1
  Cd  Cd6  1  0.575043  0.174957  0.575043  1
  Cd  Cd7  1  0.174958  0.575042  0.174958  1
  Cd  Cd8  1  0.174957  0.575043  0.575043  1
  Cd  Cd9  1  0.575043  0.575043  0.174957  1
  Cd  Cd10  1  0.575042  0.174958  0.174958  1
  Cd  Cd11  1  0.174958  0.174958  0.575042  1
  Ni  Ni12  1  0.203108  0.203108  0.203108  1
  Ni  Ni13  1  0.203108  0.203108  0.890676  1
  Ni  Ni14  1  0.890676  0.203108  0.203108  1
  Ni  Ni15  1  0.203108  0.890676  0.203108  1
  Ni  Ni16  1  0.796893  0.796893  0.796893  1
  Ni  Ni17  1  0.796893  0.796893  0.109324  1
  Ni  Ni18  1  0.796893  0.109324  0.796893  1
  Ni  Ni19  1  0.109324  0.796893  0.796893  1
  Ni  Ni20  1  0.000000  0.000000  0.000000  1
  Ni  Ni21  1  0.000000  0.000000  0.500001  1
  Ni  Ni22  1  0.500001  0.000000  0.000000  1
  Ni  Ni23  1  0.000000  0.500001  0.000000  1
