# generated using pymatgen
data_RbCaCl3
_symmetry_space_group_name_H-M   'P 1'
_cell_length_a   7.62021941
_cell_length_b   7.62021918
_cell_length_c   7.62021900
_cell_angle_alpha   60.22584782
_cell_angle_beta   60.22584884
_cell_angle_gamma   60.22584391
_symmetry_Int_Tables_number   1
_chemical_formula_structural   RbCaCl3
_chemical_formula_sum   'Rb2 Ca2 Cl6'
_cell_volume   314.48675472
_cell_formula_units_Z   2
loop_
 _symmetry_equiv_pos_site_id
 _symmetry_equiv_pos_as_xyz
  1  'x, y, z'
loop_
 _atom_site_type_symbol
 _atom_site_label
 _atom_site_symmetry_multiplicity
 _atom_site_fract_x
 _atom_site_fract_y
 _atom_site_fract_z
 _atom_site_occupancy
  Rb  Rb0  1  0.268989  0.268989  0.268989  1
  Rb  Rb1  1  0.768989  0.768989  0.768989  1
  Ca  Ca2  1  0.005002  0.005002  0.005002  1
  Ca  Ca3  1  0.505002  0.505002  0.505002  1
  Cl  Cl4  1  0.246400  0.820609  0.687500  1
  Cl  Cl5  1  0.820609  0.687500  0.246400  1
  Cl  Cl6  1  0.687500  0.246400  0.820609  1
  Cl  Cl7  1  0.187500  0.320609  0.746400  1
  Cl  Cl8  1  0.746400  0.187500  0.320609  1
  Cl  Cl9  1  0.320609  0.746400  0.187500  1
