# generated using pymatgen
data_Hf(VH2)2
_symmetry_space_group_name_H-M   'P 1'
_cell_length_a   5.49184035
_cell_length_b   5.39937851
_cell_length_c   5.39937851
_cell_angle_alpha   90.00000000
_cell_angle_beta   119.44460164
_cell_angle_gamma   119.44460152
_symmetry_Int_Tables_number   1
_chemical_formula_structural   Hf(VH2)2
_chemical_formula_sum   'Hf2 V4 H8'
_cell_volume   115.08598616
_cell_formula_units_Z   2
loop_
 _symmetry_equiv_pos_site_id
 _symmetry_equiv_pos_as_xyz
  1  'x, y, z'
loop_
 _atom_site_type_symbol
 _atom_site_label
 _atom_site_symmetry_multiplicity
 _atom_site_fract_x
 _atom_site_fract_y
 _atom_site_fract_z
 _atom_site_occupancy
  Hf  Hf0  1  0.750000  0.874999  0.124999  1
  Hf  Hf1  1  0.250001  0.125000  0.875000  1
  V  V2  1  0.000000  0.499999  0.000001  1
  V  V3  1  -0.000000  0.499999  0.499999  1
  V  V4  1  0.499999  0.500000  0.500000  1
  V  V5  1  0.499999  0.999999  0.500000  1
  H  H6  1  0.372272  0.504863  0.118481  1
  H  H7  1  0.127730  0.881520  0.132592  1
  H  H8  1  0.627729  0.132591  0.246209  1
  H  H9  1  0.127730  0.246208  0.495138  1
  H  H10  1  0.872271  0.753792  0.504862  1
  H  H11  1  0.372272  0.867409  0.753793  1
  H  H12  1  0.872271  0.118480  0.867408  1
  H  H13  1  0.627729  0.495138  0.881520  1
