# generated using pymatgen
data_K4Hf5O12
_symmetry_space_group_name_H-M   'P 1'
_cell_length_a   5.82457440
_cell_length_b   5.82459485
_cell_length_c   10.42041699
_cell_angle_alpha   89.99674363
_cell_angle_beta   90.00270965
_cell_angle_gamma   120.00196982
_symmetry_Int_Tables_number   1
_chemical_formula_structural   K4Hf5O12
_chemical_formula_sum   'K4 Hf5 O12'
_cell_volume   306.15194872
_cell_formula_units_Z   1
loop_
 _symmetry_equiv_pos_site_id
 _symmetry_equiv_pos_as_xyz
  1  'x, y, z'
loop_
 _atom_site_type_symbol
 _atom_site_label
 _atom_site_symmetry_multiplicity
 _atom_site_fract_x
 _atom_site_fract_y
 _atom_site_fract_z
 _atom_site_occupancy
  K  K0  1  0.999985  0.000017  0.324385  1
  K  K1  1  0.000003  0.000006  0.675625  1
  K  K2  1  0.333337  0.666686  0.114109  1
  K  K3  1  0.666654  0.333323  0.885889  1
  Hf  Hf4  1  0.333305  0.666654  0.476464  1
  Hf  Hf5  1  0.666635  0.333331  0.523535  1
  Hf  Hf6  1  0.000003  0.000001  0.000001  1
  Hf  Hf7  1  0.333318  0.666680  0.783473  1
  Hf  Hf8  1  0.666680  0.333324  0.216525  1
  O  O9  1  0.835375  0.164624  0.121730  1
  O  O10  1  0.835435  0.670806  0.121780  1
  O  O11  1  0.329215  0.164589  0.121762  1
  O  O12  1  0.670780  0.835431  0.878238  1
  O  O13  1  0.164556  0.329199  0.878222  1
  O  O14  1  0.164602  0.835364  0.878265  1
  O  O15  1  0.509299  0.490652  0.377387  1
  O  O16  1  0.509351  0.018679  0.377397  1
  O  O17  1  0.981274  0.490583  0.377398  1
  O  O18  1  0.018663  0.509393  0.622601  1
  O  O19  1  0.490575  0.981306  0.622604  1
  O  O20  1  0.490653  0.509347  0.622608  1
