# generated using pymatgen
data_SrAlGeH
_symmetry_space_group_name_H-M   'P 1'
_cell_length_a   4.26579171
_cell_length_b   4.26578986
_cell_length_c   4.96726780
_cell_angle_alpha   90.00165705
_cell_angle_beta   89.99836067
_cell_angle_gamma   119.99912089
_symmetry_Int_Tables_number   1
_chemical_formula_structural   SrAlGeH
_chemical_formula_sum   'Sr1 Al1 Ge1 H1'
_cell_volume   78.28006134
_cell_formula_units_Z   1
loop_
 _symmetry_equiv_pos_site_id
 _symmetry_equiv_pos_as_xyz
  1  'x, y, z'
loop_
 _atom_site_type_symbol
 _atom_site_label
 _atom_site_symmetry_multiplicity
 _atom_site_fract_x
 _atom_site_fract_y
 _atom_site_fract_z
 _atom_site_occupancy
  Sr  Sr0  1  0.000021  0.999980  0.995399  1
  Al  Al1  1  0.666674  0.333327  0.541951  1
  Ge  Ge2  1  0.333336  0.666665  0.438704  1
  H  H3  1  0.666671  0.333330  0.894748  1
