# generated using pymatgen
data_K2Pd3S4
_symmetry_space_group_name_H-M   'P 1'
_cell_length_a   6.19309090
_cell_length_b   6.25856977
_cell_length_c   13.44943159
_cell_angle_alpha   83.45902810
_cell_angle_beta   76.68902430
_cell_angle_gamma   60.34548995
_symmetry_Int_Tables_number   1
_chemical_formula_structural   K2Pd3S4
_chemical_formula_sum   'K4 Pd6 S8'
_cell_volume   440.85072085
_cell_formula_units_Z   2
loop_
 _symmetry_equiv_pos_site_id
 _symmetry_equiv_pos_as_xyz
  1  'x, y, z'
loop_
 _atom_site_type_symbol
 _atom_site_label
 _atom_site_symmetry_multiplicity
 _atom_site_fract_x
 _atom_site_fract_y
 _atom_site_fract_z
 _atom_site_occupancy
  S  S0  1  0.894510  0.081866  0.867907  1
  S  S1  1  0.762417  0.581866  0.132093  1
  S  S2  1  0.976376  0.918134  0.367907  1
  S  S3  1  0.655717  0.581866  0.367907  1
  S  S4  1  0.344283  0.418134  0.632093  1
  S  S5  1  0.023624  0.081866  0.632093  1
  S  S6  1  0.237583  0.418134  0.867907  1
  S  S7  1  0.105490  0.918134  0.132093  1
  K  K8  1  0.547358  0.750000  0.905284  1
  K  K9  1  0.297358  0.250000  0.405284  1
  K  K10  1  0.452642  0.250000  0.094716  1
  K  K11  1  0.702642  0.750000  0.594716  1
  Pd  Pd12  1  0.374120  0.750000  0.251760  1
  Pd  Pd13  1  0.124120  0.250000  0.751760  1
  Pd  Pd14  1  0.625880  0.250000  0.748240  1
  Pd  Pd15  1  0.125000  0.750000  0.750000  1
  Pd  Pd16  1  0.875000  0.250000  0.250000  1
  Pd  Pd17  1  0.875880  0.750000  0.248240  1
