# generated using pymatgen
data_CaTlF3
_symmetry_space_group_name_H-M   'P 1'
_cell_length_a   6.38215874
_cell_length_b   6.38215908
_cell_length_c   6.38215966
_cell_angle_alpha   60.09700487
_cell_angle_beta   60.09700317
_cell_angle_gamma   60.09700384
_symmetry_Int_Tables_number   1
_chemical_formula_structural   CaTlF3
_chemical_formula_sum   'Ca2 Tl2 F6'
_cell_volume   184.22196615
_cell_formula_units_Z   2
loop_
 _symmetry_equiv_pos_site_id
 _symmetry_equiv_pos_as_xyz
  1  'x, y, z'
loop_
 _atom_site_type_symbol
 _atom_site_label
 _atom_site_symmetry_multiplicity
 _atom_site_fract_x
 _atom_site_fract_y
 _atom_site_fract_z
 _atom_site_occupancy
  Ca  Ca0  1  0.006642  0.006642  0.006642  1
  Ca  Ca1  1  0.506642  0.506642  0.506642  1
  Tl  Tl2  1  0.269344  0.269344  0.269344  1
  Tl  Tl3  1  0.769344  0.769344  0.769344  1
  F  F4  1  0.241160  0.813742  0.697611  1
  F  F5  1  0.813742  0.697611  0.241160  1
  F  F6  1  0.697611  0.241160  0.813742  1
  F  F7  1  0.197611  0.313742  0.741160  1
  F  F8  1  0.741160  0.197611  0.313742  1
  F  F9  1  0.313742  0.741160  0.197611  1
