# generated using pymatgen
data_RbInCl3
_symmetry_space_group_name_H-M   'P 1'
_cell_length_a   7.69696157
_cell_length_b   7.69696191
_cell_length_c   7.69696122
_cell_angle_alpha   60.01451382
_cell_angle_beta   60.01451239
_cell_angle_gamma   60.01451091
_symmetry_Int_Tables_number   1
_chemical_formula_structural   RbInCl3
_chemical_formula_sum   'Rb2 In2 Cl6'
_cell_volume   322.54165938
_cell_formula_units_Z   2
loop_
 _symmetry_equiv_pos_site_id
 _symmetry_equiv_pos_as_xyz
  1  'x, y, z'
loop_
 _atom_site_type_symbol
 _atom_site_label
 _atom_site_symmetry_multiplicity
 _atom_site_fract_x
 _atom_site_fract_y
 _atom_site_fract_z
 _atom_site_occupancy
  Rb  Rb0  1  0.267607  0.267607  0.267607  1
  Rb  Rb1  1  0.767607  0.767607  0.767607  1
  In  In2  1  0.004567  0.004567  0.004567  1
  In  In3  1  0.504567  0.504567  0.504567  1
  Cl  Cl4  1  0.249845  0.807246  0.699236  1
  Cl  Cl5  1  0.807246  0.699236  0.249845  1
  Cl  Cl6  1  0.699236  0.249845  0.807246  1
  Cl  Cl7  1  0.199236  0.307246  0.749845  1
  Cl  Cl8  1  0.749845  0.199236  0.307246  1
  Cl  Cl9  1  0.307246  0.749845  0.199236  1
