# generated using pymatgen
data_Ba4Sm4Zn3PtO15
_symmetry_space_group_name_H-M   'P 1'
_cell_length_a   11.82070426
_cell_length_b   11.82070426
_cell_length_c   6.79950197
_cell_angle_alpha   90.00000000
_cell_angle_beta   90.00000000
_cell_angle_gamma   120.00000000
_symmetry_Int_Tables_number   1
_chemical_formula_structural   Ba4Sm4Zn3PtO15
_chemical_formula_sum   'Ba8 Sm8 Zn6 Pt2 O30'
_cell_volume   822.80029649
_cell_formula_units_Z   2
loop_
 _symmetry_equiv_pos_site_id
 _symmetry_equiv_pos_as_xyz
  1  'x, y, z'
loop_
 _atom_site_type_symbol
 _atom_site_label
 _atom_site_symmetry_multiplicity
 _atom_site_fract_x
 _atom_site_fract_y
 _atom_site_fract_z
 _atom_site_occupancy
  O  O0  1  0.834617  0.917309  0.070543  1
  O  O1  1  0.917309  0.834617  0.570543  1
  O  O2  1  0.917309  0.082691  0.570543  1
  O  O3  1  0.082691  0.917309  0.070543  1
  O  O4  1  0.082691  0.165383  0.070543  1
  O  O5  1  0.165383  0.082691  0.570543  1
  O  O6  1  0.604184  0.660509  0.299181  1
  O  O7  1  0.339491  0.943674  0.299181  1
  O  O8  1  0.056326  0.395816  0.299181  1
  O  O9  1  0.943674  0.604184  0.799181  1
  O  O10  1  0.395816  0.339491  0.799181  1
  O  O11  1  0.660509  0.056326  0.799181  1
  O  O12  1  0.604184  0.943674  0.299181  1
  O  O13  1  0.660509  0.604184  0.799181  1
  O  O14  1  0.943674  0.339491  0.799181  1
  O  O15  1  0.056326  0.660509  0.299181  1
  O  O16  1  0.339491  0.395816  0.299181  1
  O  O17  1  0.395816  0.056326  0.799181  1
  O  O18  1  0.497971  0.748985  0.988030  1
  O  O19  1  0.748985  0.497971  0.488030  1
  O  O20  1  0.748985  0.251015  0.488030  1
  O  O21  1  0.251015  0.748985  0.988030  1
  O  O22  1  0.251015  0.502029  0.988030  1
  O  O23  1  0.502029  0.251015  0.488030  1
  O  O24  1  0.835305  0.417653  0.155405  1
  O  O25  1  0.417653  0.835305  0.655405  1
  O  O26  1  0.417653  0.582347  0.655405  1
  O  O27  1  0.582347  0.417653  0.155405  1
  O  O28  1  0.582347  0.164695  0.155405  1
  O  O29  1  0.164695  0.582347  0.655405  1
  Zn  Zn30  1  0.657443  0.828721  0.174398  1
  Zn  Zn31  1  0.828721  0.657443  0.674398  1
  Zn  Zn32  1  0.828721  0.171279  0.674398  1
  Zn  Zn33  1  0.171279  0.828721  0.174398  1
  Zn  Zn34  1  0.171279  0.342558  0.174398  1
  Zn  Zn35  1  0.342558  0.171279  0.674398  1
  Ba  Ba36  1  0.345378  0.172689  0.157187  1
  Ba  Ba37  1  0.172689  0.345378  0.657187  1
  Ba  Ba38  1  0.172689  0.827311  0.657187  1
  Ba  Ba39  1  0.827311  0.172689  0.157187  1
  Ba  Ba40  1  0.654622  0.827311  0.657187  1
  Ba  Ba41  1  0.827311  0.654622  0.157187  1
  Ba  Ba42  1  0.333333  0.666667  0.336494  1
  Ba  Ba43  1  0.666667  0.333333  0.836494  1
  Sm  Sm44  1  0.000000  0.000000  0.341583  1
  Sm  Sm45  1  0.522603  0.477397  0.497770  1
  Sm  Sm46  1  0.477397  0.954794  0.997770  1
  Sm  Sm47  1  0.522603  0.045206  0.497770  1
  Sm  Sm48  1  0.954794  0.477397  0.497770  1
  Sm  Sm49  1  0.000000  0.000000  0.841583  1
  Sm  Sm50  1  0.045206  0.522603  0.997770  1
  Sm  Sm51  1  0.477397  0.522603  0.997770  1
  Pt  Pt52  1  0.333333  0.666667  0.814473  1
  Pt  Pt53  1  0.666667  0.333333  0.314473  1
