# generated using pymatgen
data_Tm2Co12P7
_symmetry_space_group_name_H-M   'P 1'
_cell_length_a   8.99084912
_cell_length_b   8.99017441
_cell_length_c   3.56460242
_cell_angle_alpha   90.00000000
_cell_angle_beta   90.00000000
_cell_angle_gamma   120.00322342
_symmetry_Int_Tables_number   1
_chemical_formula_structural   Tm2Co12P7
_chemical_formula_sum   'Tm2 Co12 P7'
_cell_volume   249.51487910
_cell_formula_units_Z   1
loop_
 _symmetry_equiv_pos_site_id
 _symmetry_equiv_pos_as_xyz
  1  'x, y, z'
loop_
 _atom_site_type_symbol
 _atom_site_label
 _atom_site_symmetry_multiplicity
 _atom_site_fract_x
 _atom_site_fract_y
 _atom_site_fract_z
 _atom_site_occupancy
  Tm  Tm0  1  0.333249  0.666587  0.000000  1
  Tm  Tm1  1  0.666651  0.333396  0.499999  1
  Co  Co2  1  0.435517  0.060659  0.000000  1
  Co  Co3  1  0.939325  0.374866  0.000000  1
  Co  Co4  1  0.625126  0.564469  0.000000  1
  Co  Co5  1  0.383229  0.437278  0.499999  1
  Co  Co6  1  0.562748  0.945938  0.499999  1
  Co  Co7  1  0.054002  0.616776  0.499999  1
  Co  Co8  1  0.154264  0.273419  0.000000  1
  Co  Co9  1  0.726646  0.880838  0.000000  1
  Co  Co10  1  0.119176  0.845760  0.000000  1
  Co  Co11  1  0.236868  0.104260  0.499999  1
  Co  Co12  1  0.895833  0.132555  0.499999  1
  Co  Co13  1  0.867406  0.763207  0.499999  1
  P  P14  1  0.000039  0.000028  0.000000  1
  P  P15  1  0.112745  0.403441  0.499999  1
  P  P16  1  0.596502  0.709297  0.499999  1
  P  P17  1  0.290680  0.887192  0.499999  1
  P  P18  1  0.407351  0.293218  0.000000  1
  P  P19  1  0.706788  0.114127  0.000000  1
  P  P20  1  0.885857  0.592684  0.000000  1
