# generated using pymatgen
data_Ac3Hg
_symmetry_space_group_name_H-M   'P 1'
_cell_length_a   7.70464480
_cell_length_b   7.70526910
_cell_length_c   5.91254879
_cell_angle_alpha   90.00000000
_cell_angle_beta   90.00000000
_cell_angle_gamma   120.02208213
_symmetry_Int_Tables_number   1
_chemical_formula_structural   Ac3Hg
_chemical_formula_sum   'Ac6 Hg2'
_cell_volume   303.91289113
_cell_formula_units_Z   2
loop_
 _symmetry_equiv_pos_site_id
 _symmetry_equiv_pos_as_xyz
  1  'x, y, z'
loop_
 _atom_site_type_symbol
 _atom_site_label
 _atom_site_symmetry_multiplicity
 _atom_site_fract_x
 _atom_site_fract_y
 _atom_site_fract_z
 _atom_site_occupancy
  Ac  Ac0  1  0.175991  0.351976  0.250000  1
  Ac  Ac1  1  0.648076  0.824066  0.250000  1
  Ac  Ac2  1  0.176066  0.823969  0.250000  1
  Ac  Ac3  1  0.824107  0.648244  0.749999  1
  Ac  Ac4  1  0.351706  0.175842  0.749999  1
  Ac  Ac5  1  0.824059  0.175903  0.749999  1
  Hg  Hg6  1  0.333325  0.666691  0.749999  1
  Hg  Hg7  1  0.666671  0.333311  0.250000  1
