# generated using pymatgen
data_YReN3
_symmetry_space_group_name_H-M   'P 1'
_cell_length_a   6.33476537
_cell_length_b   7.43632261
_cell_length_c   7.43632233
_cell_angle_alpha   98.08704807
_cell_angle_beta   107.45814824
_cell_angle_gamma   72.54184590
_symmetry_Int_Tables_number   1
_chemical_formula_structural   YReN3
_chemical_formula_sum   'Y4 Re4 N12'
_cell_volume   318.28149632
_cell_formula_units_Z   4
loop_
 _symmetry_equiv_pos_site_id
 _symmetry_equiv_pos_as_xyz
  1  'x, y, z'
loop_
 _atom_site_type_symbol
 _atom_site_label
 _atom_site_symmetry_multiplicity
 _atom_site_fract_x
 _atom_site_fract_y
 _atom_site_fract_z
 _atom_site_occupancy
  Y  Y0  1  0.750000  0.905614  0.905614  1
  Y  Y1  1  0.250000  0.094386  0.094386  1
  Y  Y2  1  0.250000  0.711316  0.711316  1
  Y  Y3  1  0.750000  0.288684  0.288684  1
  Re  Re4  1  0.284621  0.623307  0.205648  1
  Re  Re5  1  0.215379  0.205648  0.623307  1
  Re  Re6  1  0.715379  0.376693  0.794352  1
  Re  Re7  1  0.784621  0.794352  0.376693  1
  N  N8  1  0.087327  0.669342  0.363524  1
  N  N9  1  0.340982  0.374321  0.132528  1
  N  N10  1  0.412673  0.363524  0.669342  1
  N  N11  1  0.159018  0.132528  0.374321  1
  N  N12  1  0.336631  0.007121  0.780566  1
  N  N13  1  0.163368  0.780566  0.007121  1
  N  N14  1  0.836631  0.219434  0.992879  1
  N  N15  1  0.659018  0.625679  0.867472  1
  N  N16  1  0.912673  0.330658  0.636476  1
  N  N17  1  0.840982  0.867472  0.625679  1
  N  N18  1  0.587327  0.636476  0.330658  1
  N  N19  1  0.663369  0.992879  0.219434  1
