# generated using pymatgen
data_CsInI3
_symmetry_space_group_name_H-M   'P 1'
_cell_length_a   6.17685183
_cell_length_b   6.18011755
_cell_length_c   6.18701842
_cell_angle_alpha   89.96640499
_cell_angle_beta   90.00426175
_cell_angle_gamma   89.98312265
_symmetry_Int_Tables_number   1
_chemical_formula_structural   CsInI3
_chemical_formula_sum   'Cs1 In1 I3'
_cell_volume   236.18115051
_cell_formula_units_Z   1
loop_
 _symmetry_equiv_pos_site_id
 _symmetry_equiv_pos_as_xyz
  1  'x, y, z'
loop_
 _atom_site_type_symbol
 _atom_site_label
 _atom_site_symmetry_multiplicity
 _atom_site_fract_x
 _atom_site_fract_y
 _atom_site_fract_z
 _atom_site_occupancy
  Cs  Cs0  1  0.999711  0.002874  0.999881  1
  In  In1  1  0.502745  0.520999  0.510349  1
  I  I2  1  0.000766  0.511062  0.503141  1
  I  I3  1  0.495247  0.015946  0.492268  1
  I  I4  1  0.501530  0.509122  0.004358  1
