# generated using pymatgen
data_Ge3P
_symmetry_space_group_name_H-M   'P 1'
_cell_length_a   5.90530196
_cell_length_b   5.90530154
_cell_length_c   4.85463841
_cell_angle_alpha   90.00000000
_cell_angle_beta   90.00000000
_cell_angle_gamma   120.00000235
_symmetry_Int_Tables_number   1
_chemical_formula_structural   Ge3P
_chemical_formula_sum   'Ge6 P2'
_cell_volume   146.61273570
_cell_formula_units_Z   2
loop_
 _symmetry_equiv_pos_site_id
 _symmetry_equiv_pos_as_xyz
  1  'x, y, z'
loop_
 _atom_site_type_symbol
 _atom_site_label
 _atom_site_symmetry_multiplicity
 _atom_site_fract_x
 _atom_site_fract_y
 _atom_site_fract_z
 _atom_site_occupancy
  Ge  Ge0  1  0.830104  0.169896  0.750001  1
  Ge  Ge1  1  0.339790  0.169896  0.750001  1
  Ge  Ge2  1  0.830105  0.660208  0.750001  1
  Ge  Ge3  1  0.169897  0.830104  0.250000  1
  Ge  Ge4  1  0.660207  0.830104  0.250000  1
  Ge  Ge5  1  0.169896  0.339791  0.250000  1
  P  P6  1  0.666667  0.333333  0.250000  1
  P  P7  1  0.333334  0.666668  0.750001  1
