# generated using pymatgen
data_Ba3TiS5
_symmetry_space_group_name_H-M   'P 1'
_cell_length_a   8.55994829
_cell_length_b   8.55994829
_cell_length_c   9.23675166
_cell_angle_alpha   117.60436586
_cell_angle_beta   117.60436585
_cell_angle_gamma   89.99999997
_symmetry_Int_Tables_number   1
_chemical_formula_structural   Ba3TiS5
_chemical_formula_sum   'Ba6 Ti2 S10'
_cell_volume   511.23788124
_cell_formula_units_Z   2
loop_
 _symmetry_equiv_pos_site_id
 _symmetry_equiv_pos_as_xyz
  1  'x, y, z'
loop_
 _atom_site_type_symbol
 _atom_site_label
 _atom_site_symmetry_multiplicity
 _atom_site_fract_x
 _atom_site_fract_y
 _atom_site_fract_z
 _atom_site_occupancy
  S  S0  1  0.004482  0.504482  0.304590  1
  S  S1  1  0.699892  0.199892  0.695411  1
  S  S2  1  0.995518  0.495518  0.695411  1
  S  S3  1  0.199892  0.995518  0.695411  1
  S  S4  1  0.495518  0.699892  0.695411  1
  S  S5  1  0.800108  0.004482  0.304590  1
  S  S6  1  0.504482  0.300108  0.304590  1
  S  S7  1  0.300108  0.800108  0.304590  1
  S  S8  1  0.000000  0.000000  0.000000  1
  S  S9  1  0.500000  0.500000  0.000000  1
  Ti  Ti10  1  0.750000  0.250000  0.500000  1
  Ti  Ti11  1  0.250000  0.750000  0.500000  1
  Ba  Ba12  1  0.663390  0.163390  0.000000  1
  Ba  Ba13  1  0.836610  0.663390  0.000000  1
  Ba  Ba14  1  0.163390  0.336610  0.000000  1
  Ba  Ba15  1  0.336610  0.836610  0.000000  1
  Ba  Ba16  1  0.750000  0.750000  0.500000  1
  Ba  Ba17  1  0.250000  0.250000  0.500000  1
