# generated using pymatgen
data_Ni9S8
_symmetry_space_group_name_H-M   'P 1'
_cell_length_a   7.23504807
_cell_length_b   7.23504807
_cell_length_c   9.35497437
_cell_angle_alpha   90.00000000
_cell_angle_beta   90.00000000
_cell_angle_gamma   79.23625101
_symmetry_Int_Tables_number   1
_chemical_formula_structural   Ni9S8
_chemical_formula_sum   'Ni18 S16'
_cell_volume   481.07886487
_cell_formula_units_Z   2
loop_
 _symmetry_equiv_pos_site_id
 _symmetry_equiv_pos_as_xyz
  1  'x, y, z'
loop_
 _atom_site_type_symbol
 _atom_site_label
 _atom_site_symmetry_multiplicity
 _atom_site_fract_x
 _atom_site_fract_y
 _atom_site_fract_z
 _atom_site_occupancy
  Ni  Ni0  1  0.709053  0.459277  0.374987  1
  Ni  Ni1  1  0.290947  0.540723  0.374987  1
  Ni  Ni2  1  0.540723  0.290947  0.625013  1
  Ni  Ni3  1  0.459277  0.709053  0.625013  1
  Ni  Ni4  1  0.500001  0.500001  0.000000  1
  Ni  Ni5  1  0.000000  0.000000  0.215163  1
  Ni  Ni6  1  0.000000  0.000000  0.784837  1
  Ni  Ni7  1  0.221876  0.778126  0.000000  1
  Ni  Ni8  1  0.778126  0.221876  0.000000  1
  Ni  Ni9  1  0.000000  0.000000  0.500001  1
  Ni  Ni10  1  0.057366  0.313674  0.123081  1
  Ni  Ni11  1  0.942633  0.686326  0.123081  1
  Ni  Ni12  1  0.686326  0.942633  0.876919  1
  Ni  Ni13  1  0.313674  0.057366  0.876919  1
  Ni  Ni14  1  0.500000  0.000001  0.268717  1
  Ni  Ni15  1  0.000001  0.500000  0.731284  1
  Ni  Ni16  1  0.236096  0.236096  0.500001  1
  Ni  Ni17  1  0.763904  0.763904  0.500001  1
  S  S18  1  0.730424  0.964988  0.118210  1
  S  S19  1  0.269575  0.035012  0.118210  1
  S  S20  1  0.035012  0.269575  0.881791  1
  S  S21  1  0.964988  0.730424  0.881791  1
  S  S22  1  0.981475  0.250010  0.360923  1
  S  S23  1  0.018526  0.749990  0.360923  1
  S  S24  1  0.749990  0.018526  0.639076  1
  S  S25  1  0.250010  0.981475  0.639076  1
  S  S26  1  0.746833  0.484200  0.136374  1
  S  S27  1  0.253167  0.515799  0.136374  1
  S  S28  1  0.515799  0.253167  0.863626  1
  S  S29  1  0.484200  0.746833  0.863626  1
  S  S30  1  0.498889  0.257799  0.385057  1
  S  S31  1  0.501110  0.742200  0.385057  1
  S  S32  1  0.742200  0.501110  0.614943  1
  S  S33  1  0.257799  0.498889  0.614943  1
