# generated using pymatgen
data_K3V(SO5)2
_symmetry_space_group_name_H-M   'P 1'
_cell_length_a   10.08596868
_cell_length_b   7.18313727
_cell_length_c   7.38144439
_cell_angle_alpha   90.00000000
_cell_angle_beta   104.11245261
_cell_angle_gamma   90.00000000
_symmetry_Int_Tables_number   1
_chemical_formula_structural   K3V(SO5)2
_chemical_formula_sum   'K6 V2 S4 O20'
_cell_volume   518.63741266
_cell_formula_units_Z   2
loop_
 _symmetry_equiv_pos_site_id
 _symmetry_equiv_pos_as_xyz
  1  'x, y, z'
loop_
 _atom_site_type_symbol
 _atom_site_label
 _atom_site_symmetry_multiplicity
 _atom_site_fract_x
 _atom_site_fract_y
 _atom_site_fract_z
 _atom_site_occupancy
  K  K0  1  0.052230  0.411178  0.720544  1
  K  K1  1  0.947771  0.911177  0.279458  1
  K  K2  1  0.225226  0.871769  0.993115  1
  K  K3  1  0.774774  0.371769  0.006886  1
  K  K4  1  0.442310  0.127752  0.626522  1
  K  K5  1  0.557690  0.627752  0.373477  1
  V  V6  1  0.825108  0.822987  0.727548  1
  V  V7  1  0.174892  0.322987  0.272452  1
  S  S8  1  0.758608  0.161464  0.519262  1
  S  S9  1  0.241392  0.661465  0.480738  1
  S  S10  1  0.633575  0.818958  0.941871  1
  S  S11  1  0.366425  0.318957  0.058129  1
  O  O12  1  0.845448  0.691422  0.552640  1
  O  O13  1  0.154552  0.191421  0.447360  1
  O  O14  1  0.699068  0.721944  0.114890  1
  O  O15  1  0.300933  0.221944  0.885110  1
  O  O16  1  0.815835  0.225590  0.366774  1
  O  O17  1  0.184166  0.725590  0.633226  1
  O  O18  1  0.702368  0.313399  0.611310  1
  O  O19  1  0.297632  0.813399  0.388691  1
  O  O20  1  0.052448  0.255224  0.089320  1
  O  O21  1  0.947552  0.755223  0.910680  1
  O  O22  1  0.486773  0.844738  0.914789  1
  O  O23  1  0.513227  0.344738  0.085211  1
  O  O24  1  0.660657  0.700874  0.774394  1
  O  O25  1  0.339344  0.200875  0.225608  1
  O  O26  1  0.707727  0.995628  0.917957  1
  O  O27  1  0.292273  0.495628  0.082045  1
  O  O28  1  0.661025  0.002904  0.470539  1
  O  O29  1  0.338975  0.502904  0.529461  1
  O  O30  1  0.881717  0.072672  0.669703  1
  O  O31  1  0.118284  0.572671  0.330296  1
