# generated using pymatgen
data_Nb3CrSe6
_symmetry_space_group_name_H-M   'P 1'
_cell_length_a   6.05364588
_cell_length_b   6.05365160
_cell_length_c   12.72122674
_cell_angle_alpha   90.00115686
_cell_angle_beta   90.00002880
_cell_angle_gamma   120.00066248
_symmetry_Int_Tables_number   1
_chemical_formula_structural   Nb3CrSe6
_chemical_formula_sum   'Nb6 Cr2 Se12'
_cell_volume   403.73012966
_cell_formula_units_Z   2
loop_
 _symmetry_equiv_pos_site_id
 _symmetry_equiv_pos_as_xyz
  1  'x, y, z'
loop_
 _atom_site_type_symbol
 _atom_site_label
 _atom_site_symmetry_multiplicity
 _atom_site_fract_x
 _atom_site_fract_y
 _atom_site_fract_z
 _atom_site_occupancy
  Nb  Nb0  1  0.333336  0.666667  0.000610  1
  Nb  Nb1  1  0.000004  0.000007  0.999978  1
  Nb  Nb2  1  0.999989  0.999995  0.500020  1
  Nb  Nb3  1  0.333322  0.666666  0.499389  1
  Nb  Nb4  1  0.666663  0.333328  0.999339  1
  Nb  Nb5  1  0.666652  0.333331  0.500662  1
  Cr  Cr6  1  0.333327  0.666664  0.250002  1
  Cr  Cr7  1  0.666662  0.333330  0.750001  1
  Se  Se8  1  0.333760  0.005781  0.132192  1
  Se  Se9  1  0.666228  0.994223  0.632240  1
  Se  Se10  1  0.994216  0.327982  0.132192  1
  Se  Se11  1  0.672016  0.005789  0.367807  1
  Se  Se12  1  0.333755  0.327980  0.367808  1
  Se  Se13  1  0.994211  0.666242  0.367807  1
  Se  Se14  1  0.672017  0.666236  0.132194  1
  Se  Se15  1  0.327970  0.333758  0.632240  1
  Se  Se16  1  0.005771  0.672020  0.632239  1
  Se  Se17  1  0.327981  0.994219  0.867761  1
  Se  Se18  1  0.666239  0.672019  0.867762  1
  Se  Se19  1  0.005777  0.333759  0.867760  1
