# generated using pymatgen
data_YTcN3
_symmetry_space_group_name_H-M   'P 1'
_cell_length_a   6.26996324
_cell_length_b   7.38838204
_cell_length_c   7.38838180
_cell_angle_alpha   97.72762214
_cell_angle_beta   107.20028008
_cell_angle_gamma   72.79971628
_symmetry_Int_Tables_number   1
_chemical_formula_structural   YTcN3
_chemical_formula_sum   'Y4 Tc4 N12'
_cell_volume   311.92128281
_cell_formula_units_Z   4
loop_
 _symmetry_equiv_pos_site_id
 _symmetry_equiv_pos_as_xyz
  1  'x, y, z'
loop_
 _atom_site_type_symbol
 _atom_site_label
 _atom_site_symmetry_multiplicity
 _atom_site_fract_x
 _atom_site_fract_y
 _atom_site_fract_z
 _atom_site_occupancy
  Y  Y0  1  0.250000  0.091460  0.091460  1
  Y  Y1  1  0.250000  0.708092  0.708092  1
  Y  Y2  1  0.750000  0.908540  0.908540  1
  Y  Y3  1  0.750000  0.291908  0.291908  1
  Tc  Tc4  1  0.281119  0.622680  0.203904  1
  Tc  Tc5  1  0.218881  0.203904  0.622680  1
  Tc  Tc6  1  0.718881  0.377320  0.796096  1
  Tc  Tc7  1  0.781119  0.796096  0.377320  1
  N  N8  1  0.661898  0.995209  0.219238  1
  N  N9  1  0.839603  0.868752  0.624548  1
  N  N10  1  0.583343  0.635879  0.333296  1
  N  N11  1  0.660397  0.624548  0.868752  1
  N  N12  1  0.161898  0.780762  0.004791  1
  N  N13  1  0.339603  0.375452  0.131248  1
  N  N14  1  0.916657  0.333296  0.635879  1
  N  N15  1  0.083343  0.666704  0.364121  1
  N  N16  1  0.416657  0.364121  0.666704  1
  N  N17  1  0.338102  0.004791  0.780762  1
  N  N18  1  0.838102  0.219238  0.995209  1
  N  N19  1  0.160397  0.131248  0.375452  1
