# generated using pymatgen
data_NdB4
_symmetry_space_group_name_H-M   'P 1'
_cell_length_a   3.61282130
_cell_length_b   4.71028871
_cell_length_c   4.71028780
_cell_angle_alpha   89.29117177
_cell_angle_beta   67.40290449
_cell_angle_gamma   67.40292204
_symmetry_Int_Tables_number   1
_chemical_formula_structural   NdB4
_chemical_formula_sum   'Nd1 B4'
_cell_volume   67.45612382
_cell_formula_units_Z   1
loop_
 _symmetry_equiv_pos_site_id
 _symmetry_equiv_pos_as_xyz
  1  'x, y, z'
loop_
 _atom_site_type_symbol
 _atom_site_label
 _atom_site_symmetry_multiplicity
 _atom_site_fract_x
 _atom_site_fract_y
 _atom_site_fract_z
 _atom_site_occupancy
  Nd  Nd0  1  -0.000000  0.000000  0.000000  1
  B  B1  1  0.843534  0.519720  0.776226  1
  B  B2  1  0.156466  0.223774  0.480280  1
  B  B3  1  0.156466  0.480280  0.223774  1
  B  B4  1  0.843534  0.776226  0.519720  1
