# generated using pymatgen
data_Te3As2
_symmetry_space_group_name_H-M   'P 1'
_cell_length_a   10.37127639
_cell_length_b   10.37127639
_cell_length_c   10.37127638
_cell_angle_alpha   22.74028190
_cell_angle_beta   22.74028190
_cell_angle_gamma   22.74028191
_symmetry_Int_Tables_number   1
_chemical_formula_structural   Te3As2
_chemical_formula_sum   'Te3 As2'
_cell_volume   146.25477889
_cell_formula_units_Z   1
loop_
 _symmetry_equiv_pos_site_id
 _symmetry_equiv_pos_as_xyz
  1  'x, y, z'
loop_
 _atom_site_type_symbol
 _atom_site_label
 _atom_site_symmetry_multiplicity
 _atom_site_fract_x
 _atom_site_fract_y
 _atom_site_fract_z
 _atom_site_occupancy
  As  As0  1  0.605508  0.605508  0.605508  1
  As  As1  1  0.394492  0.394492  0.394492  1
  Te  Te2  1  0.780863  0.780863  0.780863  1
  Te  Te3  1  0.219137  0.219137  0.219137  1
  Te  Te4  1  0.000000  0.000000  0.000000  1
