# generated using pymatgen
data_Mn2S3
_symmetry_space_group_name_H-M   'P 1'
_cell_length_a   5.73628742
_cell_length_b   5.73513602
_cell_length_c   6.26266730
_cell_angle_alpha   117.24554379
_cell_angle_beta   62.74836001
_cell_angle_gamma   120.00467483
_symmetry_Int_Tables_number   1
_chemical_formula_structural   Mn2S3
_chemical_formula_sum   'Mn4 S6'
_cell_volume   151.44804953
_cell_formula_units_Z   2
loop_
 _symmetry_equiv_pos_site_id
 _symmetry_equiv_pos_as_xyz
  1  'x, y, z'
loop_
 _atom_site_type_symbol
 _atom_site_label
 _atom_site_symmetry_multiplicity
 _atom_site_fract_x
 _atom_site_fract_y
 _atom_site_fract_z
 _atom_site_occupancy
  Mn  Mn0  1  0.657959  0.342054  0.026115  1
  Mn  Mn1  1  0.841981  0.157984  0.474002  1
  Mn  Mn2  1  0.158037  0.841991  0.525944  1
  Mn  Mn3  1  0.341980  0.657992  0.974038  1
  S  S4  1  0.929943  0.429921  0.250002  1
  S  S5  1  0.570148  0.749982  0.249968  1
  S  S6  1  0.250069  0.070068  0.249938  1
  S  S7  1  0.749930  0.929882  0.750031  1
  S  S8  1  0.429838  0.250021  0.750001  1
  S  S9  1  0.070111  0.570100  0.749964  1
