# generated using pymatgen
data_Er3P4Pd7
_symmetry_space_group_name_H-M   'P 1'
_cell_length_a   3.99115791
_cell_length_b   7.92298224
_cell_length_c   8.20708916
_cell_angle_alpha   71.04605000
_cell_angle_beta   75.92728769
_cell_angle_gamma   75.41167304
_symmetry_Int_Tables_number   1
_chemical_formula_structural   Er3P4Pd7
_chemical_formula_sum   'Er3 P4 Pd7'
_cell_volume   233.81924503
_cell_formula_units_Z   1
loop_
 _symmetry_equiv_pos_site_id
 _symmetry_equiv_pos_as_xyz
  1  'x, y, z'
loop_
 _atom_site_type_symbol
 _atom_site_label
 _atom_site_symmetry_multiplicity
 _atom_site_fract_x
 _atom_site_fract_y
 _atom_site_fract_z
 _atom_site_occupancy
  P  P0  1  0.606301  0.107580  0.679817  1
  P  P1  1  0.393699  0.892420  0.320183  1
  P  P2  1  0.159310  0.433968  0.247411  1
  P  P3  1  0.840690  0.566032  0.752589  1
  Pd  Pd4  1  0.332149  0.414944  0.920759  1
  Pd  Pd5  1  0.990195  0.235967  0.783644  1
  Pd  Pd6  1  0.009805  0.764033  0.216356  1
  Pd  Pd7  1  0.500000  0.000000  0.000000  1
  Pd  Pd8  1  0.805152  0.859512  0.530185  1
  Pd  Pd9  1  0.194848  0.140488  0.469815  1
  Pd  Pd10  1  0.667851  0.585056  0.079241  1
  Er  Er11  1  0.500000  0.500000  0.500000  1
  Er  Er12  1  0.180050  0.816656  0.823244  1
  Er  Er13  1  0.819950  0.183344  0.176756  1
