# generated using pymatgen
data_PrHo3
_symmetry_space_group_name_H-M   'P 1'
_cell_length_a   5.05847333
_cell_length_b   5.05851630
_cell_length_c   5.05854909
_cell_angle_alpha   89.99965036
_cell_angle_beta   90.00328030
_cell_angle_gamma   89.99917248
_symmetry_Int_Tables_number   1
_chemical_formula_structural   PrHo3
_chemical_formula_sum   'Pr1 Ho3'
_cell_volume   129.44002462
_cell_formula_units_Z   1
loop_
 _symmetry_equiv_pos_site_id
 _symmetry_equiv_pos_as_xyz
  1  'x, y, z'
loop_
 _atom_site_type_symbol
 _atom_site_label
 _atom_site_symmetry_multiplicity
 _atom_site_fract_x
 _atom_site_fract_y
 _atom_site_fract_z
 _atom_site_occupancy
  Pr  Pr0  1  0.000000  0.999999  0.999996  1
  Ho  Ho1  1  0.999999  0.499995  0.499998  1
  Ho  Ho2  1  0.499998  0.000003  0.500006  1
  Ho  Ho3  1  0.500000  0.500001  0.999998  1
