# generated using pymatgen
data_Li2V2(PO4)3
_symmetry_space_group_name_H-M   'P 1'
_cell_length_a   8.65231492
_cell_length_b   12.18821316
_cell_length_c   8.72342746
_cell_angle_alpha   90.10199922
_cell_angle_beta   90.58628099
_cell_angle_gamma   90.02658638
_symmetry_Int_Tables_number   1
_chemical_formula_structural   Li2V2(PO4)3
_chemical_formula_sum   'Li8 V8 P12 O48'
_cell_volume   919.89029621
_cell_formula_units_Z   4
loop_
 _symmetry_equiv_pos_site_id
 _symmetry_equiv_pos_as_xyz
  1  'x, y, z'
loop_
 _atom_site_type_symbol
 _atom_site_label
 _atom_site_symmetry_multiplicity
 _atom_site_fract_x
 _atom_site_fract_y
 _atom_site_fract_z
 _atom_site_occupancy
  Li  Li0  1  0.224909  0.180876  0.773395  1
  Li  Li1  1  0.285695  0.682184  0.225773  1
  Li  Li2  1  0.288205  0.316707  0.271334  1
  Li  Li3  1  0.693775  0.687682  0.734203  1
  Li  Li4  1  0.781989  0.179457  0.276610  1
  Li  Li5  1  0.782340  0.818851  0.225586  1
  Li  Li6  1  0.920021  0.297969  0.910811  1
  Li  Li7  1  0.962207  0.720441  0.586686  1
  V  V8  1  0.254480  0.386255  0.959573  1
  V  V9  1  0.258046  0.617439  0.541494  1
  V  V10  1  0.252844  0.111600  0.459164  1
  V  V11  1  0.250861  0.884376  0.029517  1
  V  V12  1  0.742219  0.114558  0.958128  1
  V  V13  1  0.744120  0.889463  0.538302  1
  V  V14  1  0.748805  0.382971  0.467967  1
  V  V15  1  0.754213  0.612615  0.042684  1
  P  P16  1  0.038769  0.497414  0.252064  1
  P  P17  1  0.104916  0.143770  0.102694  1
  P  P18  1  0.107292  0.854365  0.391443  1
  P  P19  1  0.394719  0.352607  0.600523  1
  P  P20  1  0.395941  0.647372  0.897506  1
  P  P21  1  0.458473  0.997868  0.749260  1
  P  P22  1  0.534621  0.998963  0.249064  1
  P  P23  1  0.611707  0.353792  0.106725  1
  P  P24  1  0.611805  0.643583  0.395643  1
  P  P25  1  0.894249  0.852189  0.899459  1
  P  P26  1  0.899079  0.147927  0.605806  1
  P  P27  1  0.956052  0.502941  0.748541  1
  O  O28  1  0.052082  0.581005  0.649422  1
  O  O29  1  0.049118  0.427650  0.856994  1
  O  O30  1  0.079407  0.155763  0.590625  1
  O  O31  1  0.072908  0.843718  0.917306  1
  O  O32  1  0.157252  0.028412  0.060042  1
  O  O33  1  0.157293  0.972112  0.432895  1
  O  O34  1  0.166255  0.176852  0.264866  1
  O  O35  1  0.163410  0.823442  0.228665  1
  O  O36  1  0.141451  0.417400  0.160597  1
  O  O37  1  0.145273  0.578504  0.338580  1
  O  O38  1  0.163290  0.226398  0.979337  1
  O  O39  1  0.168544  0.771746  0.511430  1
  O  O40  1  0.324145  0.269439  0.482008  1
  O  O41  1  0.324772  0.729521  0.014529  1
  O  O42  1  0.349120  0.075455  0.655621  1
  O  O43  1  0.354522  0.922934  0.846939  1
  O  O44  1  0.361533  0.675807  0.730279  1
  O  O45  1  0.345897  0.319238  0.763993  1
  O  O46  1  0.342177  0.468152  0.560256  1
  O  O47  1  0.343799  0.532752  0.943496  1
  O  O48  1  0.435842  0.660687  0.394409  1
  O  O49  1  0.434575  0.340533  0.100112  1
  O  O50  1  0.435438  0.069559  0.358789  1
  O  O51  1  0.429196  0.928640  0.143712  1
  O  O52  1  0.554047  0.923481  0.647230  1
  O  O53  1  0.552876  0.075891  0.851481  1
  O  O54  1  0.573370  0.344533  0.584545  1
  O  O55  1  0.576098  0.656358  0.918193  1
  O  O56  1  0.660475  0.472660  0.070406  1
  O  O57  1  0.657252  0.525876  0.433891  1
  O  O58  1  0.664979  0.321609  0.271754  1
  O  O59  1  0.671012  0.676598  0.233019  1
  O  O60  1  0.638794  0.079227  0.163761  1
  O  O61  1  0.637765  0.916797  0.337251  1
  O  O62  1  0.694928  0.277930  0.991172  1
  O  O63  1  0.693887  0.719675  0.516089  1
  O  O64  1  0.827231  0.228735  0.486841  1
  O  O65  1  0.824036  0.770658  0.017139  1
  O  O66  1  0.856694  0.423239  0.652401  1
  O  O67  1  0.844350  0.579520  0.839323  1
  O  O68  1  0.861028  0.179753  0.771903  1
  O  O69  1  0.850863  0.814935  0.733524  1
  O  O70  1  0.844423  0.032800  0.562801  1
  O  O71  1  0.838953  0.967248  0.933570  1
  O  O72  1  0.928229  0.843660  0.396661  1
  O  O73  1  0.926475  0.155009  0.104541  1
  O  O74  1  0.933740  0.429259  0.355884  1
  O  O75  1  0.937962  0.569823  0.141757  1
