# generated using pymatgen
data_Rb(TeMo)3
_symmetry_space_group_name_H-M   'P 1'
_cell_length_a   10.01925082
_cell_length_b   10.01744356
_cell_length_c   4.62852077
_cell_angle_alpha   90.00000000
_cell_angle_beta   90.00000000
_cell_angle_gamma   120.01098727
_symmetry_Int_Tables_number   1
_chemical_formula_structural   Rb(TeMo)3
_chemical_formula_sum   'Rb2 Te6 Mo6'
_cell_volume   402.26931708
_cell_formula_units_Z   2
loop_
 _symmetry_equiv_pos_site_id
 _symmetry_equiv_pos_as_xyz
  1  'x, y, z'
loop_
 _atom_site_type_symbol
 _atom_site_label
 _atom_site_symmetry_multiplicity
 _atom_site_fract_x
 _atom_site_fract_y
 _atom_site_fract_z
 _atom_site_occupancy
  Rb  Rb0  1  0.333294  0.666598  0.250000  1
  Rb  Rb1  1  0.666708  0.333404  0.750000  1
  Te  Te2  1  0.348575  0.049609  0.250000  1
  Te  Te3  1  0.950434  0.299045  0.250000  1
  Te  Te4  1  0.700935  0.651322  0.250000  1
  Te  Te5  1  0.650958  0.950316  0.750000  1
  Te  Te6  1  0.299461  0.349144  0.750000  1
  Te  Te7  1  0.049636  0.700561  0.750000  1
  Mo  Mo8  1  0.835902  0.976354  0.250000  1
  Mo  Mo9  1  0.140495  0.164150  0.250000  1
  Mo  Mo10  1  0.023611  0.859503  0.250000  1
  Mo  Mo11  1  0.163912  0.023593  0.750000  1
  Mo  Mo12  1  0.976441  0.140366  0.750000  1
  Mo  Mo13  1  0.859635  0.836032  0.750000  1
