# generated using pymatgen
data_Ba4Nd4Zn3PtO15
_symmetry_space_group_name_H-M   'P 1'
_cell_length_a   11.88159943
_cell_length_b   11.88159942
_cell_length_c   6.87062407
_cell_angle_alpha   90.00000000
_cell_angle_beta   90.00000000
_cell_angle_gamma   119.99999999
_symmetry_Int_Tables_number   1
_chemical_formula_structural   Ba4Nd4Zn3PtO15
_chemical_formula_sum   'Ba8 Nd8 Zn6 Pt2 O30'
_cell_volume   839.99486560
_cell_formula_units_Z   2
loop_
 _symmetry_equiv_pos_site_id
 _symmetry_equiv_pos_as_xyz
  1  'x, y, z'
loop_
 _atom_site_type_symbol
 _atom_site_label
 _atom_site_symmetry_multiplicity
 _atom_site_fract_x
 _atom_site_fract_y
 _atom_site_fract_z
 _atom_site_occupancy
  O  O0  1  0.832984  0.916492  0.070773  1
  O  O1  1  0.916492  0.832984  0.570773  1
  O  O2  1  0.916492  0.083508  0.570773  1
  O  O3  1  0.083508  0.916492  0.070773  1
  O  O4  1  0.083508  0.167016  0.070773  1
  O  O5  1  0.167016  0.083508  0.570773  1
  O  O6  1  0.605049  0.661828  0.299960  1
  O  O7  1  0.338172  0.943221  0.299960  1
  O  O8  1  0.056779  0.394951  0.299960  1
  O  O9  1  0.943221  0.605049  0.799960  1
  O  O10  1  0.394951  0.338172  0.799960  1
  O  O11  1  0.661828  0.056779  0.799960  1
  O  O12  1  0.605049  0.943221  0.299960  1
  O  O13  1  0.661828  0.605049  0.799960  1
  O  O14  1  0.943221  0.338172  0.799960  1
  O  O15  1  0.056779  0.661828  0.299960  1
  O  O16  1  0.338172  0.394951  0.299960  1
  O  O17  1  0.394951  0.056779  0.799960  1
  O  O18  1  0.497782  0.748891  0.988352  1
  O  O19  1  0.748891  0.497782  0.488352  1
  O  O20  1  0.748891  0.251109  0.488352  1
  O  O21  1  0.251109  0.748891  0.988352  1
  O  O22  1  0.251109  0.502218  0.988352  1
  O  O23  1  0.502218  0.251109  0.488352  1
  O  O24  1  0.833239  0.416619  0.155519  1
  O  O25  1  0.416619  0.833239  0.655519  1
  O  O26  1  0.416619  0.583381  0.655519  1
  O  O27  1  0.583381  0.416619  0.155519  1
  O  O28  1  0.583381  0.166761  0.155519  1
  O  O29  1  0.166761  0.583381  0.655519  1
  Zn  Zn30  1  0.657295  0.828647  0.175587  1
  Zn  Zn31  1  0.828647  0.657295  0.675587  1
  Zn  Zn32  1  0.828647  0.171353  0.675587  1
  Zn  Zn33  1  0.171353  0.828647  0.175587  1
  Zn  Zn34  1  0.171353  0.342705  0.175587  1
  Zn  Zn35  1  0.342705  0.171353  0.675587  1
  Ba  Ba36  1  0.346157  0.173079  0.158533  1
  Ba  Ba37  1  0.173079  0.346157  0.658533  1
  Ba  Ba38  1  0.173079  0.826921  0.658533  1
  Ba  Ba39  1  0.826921  0.173079  0.158533  1
  Ba  Ba40  1  0.653843  0.826921  0.658533  1
  Ba  Ba41  1  0.826921  0.653843  0.158533  1
  Ba  Ba42  1  0.333333  0.666667  0.338940  1
  Ba  Ba43  1  0.666667  0.333333  0.838940  1
  Nd  Nd44  1  0.000000  0.000000  0.341419  1
  Nd  Nd45  1  0.523021  0.476979  0.500292  1
  Nd  Nd46  1  0.476979  0.953958  0.000292  1
  Nd  Nd47  1  0.523021  0.046042  0.500292  1
  Nd  Nd48  1  0.953958  0.476979  0.500292  1
  Nd  Nd49  1  0.000000  0.000000  0.841419  1
  Nd  Nd50  1  0.046042  0.523021  0.000292  1
  Nd  Nd51  1  0.476979  0.523021  0.000292  1
  Pt  Pt52  1  0.333333  0.666667  0.815738  1
  Pt  Pt53  1  0.666667  0.333333  0.315738  1
