# generated using pymatgen
data_H2C3
_symmetry_space_group_name_H-M   'P 1'
_cell_length_a   3.97218413
_cell_length_b   7.37220268
_cell_length_c   7.37220268
_cell_angle_alpha   107.17345728
_cell_angle_beta   98.26430989
_cell_angle_gamma   98.26430989
_symmetry_Int_Tables_number   1
_chemical_formula_structural   H2C3
_chemical_formula_sum   'H8 C12'
_cell_volume   200.12209901
_cell_formula_units_Z   4
loop_
 _symmetry_equiv_pos_site_id
 _symmetry_equiv_pos_as_xyz
  1  'x, y, z'
loop_
 _atom_site_type_symbol
 _atom_site_label
 _atom_site_symmetry_multiplicity
 _atom_site_fract_x
 _atom_site_fract_y
 _atom_site_fract_z
 _atom_site_occupancy
  H  H0  1  0.236428  0.546984  0.695681  1
  H  H1  1  0.263572  0.304319  0.453016  1
  H  H2  1  0.763572  0.453016  0.304319  1
  H  H3  1  0.736428  0.695681  0.546984  1
  H  H4  1  0.520199  0.829263  0.976276  1
  H  H5  1  0.979801  0.023724  0.170737  1
  H  H6  1  0.479801  0.170737  0.023724  1
  H  H7  1  0.020199  0.976276  0.829263  1
  C  C8  1  0.334792  0.334636  0.835507  1
  C  C9  1  0.165208  0.164493  0.665364  1
  C  C10  1  0.665208  0.665364  0.164493  1
  C  C11  1  0.834792  0.835507  0.334636  1
  C  C12  1  0.354627  0.524327  0.828208  1
  C  C13  1  0.145373  0.171792  0.475673  1
  C  C14  1  0.645373  0.475673  0.171792  1
  C  C15  1  0.854627  0.828208  0.524327  1
  C  C16  1  0.515262  0.684899  0.988012  1
  C  C17  1  0.984738  0.011988  0.315101  1
  C  C18  1  0.484738  0.315101  0.011988  1
  C  C19  1  0.015262  0.988012  0.684899  1
