# generated using pymatgen
data_CsBaSiHO4
_symmetry_space_group_name_H-M   'P 1'
_cell_length_a   6.12414463
_cell_length_b   8.34261651
_cell_length_c   6.28383873
_cell_angle_alpha   90.00000000
_cell_angle_beta   120.90284863
_cell_angle_gamma   90.00000000
_symmetry_Int_Tables_number   1
_chemical_formula_structural   CsBaSiHO4
_chemical_formula_sum   'Cs2 Ba2 Si2 H2 O8'
_cell_volume   275.47358850
_cell_formula_units_Z   2
loop_
 _symmetry_equiv_pos_site_id
 _symmetry_equiv_pos_as_xyz
  1  'x, y, z'
loop_
 _atom_site_type_symbol
 _atom_site_label
 _atom_site_symmetry_multiplicity
 _atom_site_fract_x
 _atom_site_fract_y
 _atom_site_fract_z
 _atom_site_occupancy
  Cs  Cs0  1  0.358956  0.770107  0.635675  1
  Cs  Cs1  1  0.641044  0.270107  0.364325  1
  Ba  Ba2  1  0.993853  0.517120  0.983437  1
  Ba  Ba3  1  0.006147  0.017120  0.016563  1
  Si  Si4  1  0.691063  0.754292  0.307546  1
  Si  Si5  1  0.308937  0.254292  0.692454  1
  H  H6  1  0.943608  0.986912  0.482796  1
  H  H7  1  0.056392  0.486912  0.517204  1
  O  O8  1  0.379752  0.763266  0.153808  1
  O  O9  1  0.620248  0.263266  0.846192  1
  O  O10  1  0.810947  0.759395  0.126168  1
  O  O11  1  0.189053  0.259395  0.873832  1
  O  O12  1  0.811987  0.606205  0.509174  1
  O  O13  1  0.188013  0.106205  0.490826  1
  O  O14  1  0.806742  0.925703  0.491279  1
  O  O15  1  0.193258  0.425703  0.508721  1
