# generated using pymatgen
data_EuLu2O4
_symmetry_space_group_name_H-M   'P 1'
_cell_length_a   9.86387710
_cell_length_b   3.34884516
_cell_length_c   11.75743017
_cell_angle_alpha   90.00000000
_cell_angle_beta   90.00000000
_cell_angle_gamma   90.00000000
_symmetry_Int_Tables_number   1
_chemical_formula_structural   EuLu2O4
_chemical_formula_sum   'Eu4 Lu8 O16'
_cell_volume   388.37845356
_cell_formula_units_Z   4
loop_
 _symmetry_equiv_pos_site_id
 _symmetry_equiv_pos_as_xyz
  1  'x, y, z'
loop_
 _atom_site_type_symbol
 _atom_site_label
 _atom_site_symmetry_multiplicity
 _atom_site_fract_x
 _atom_site_fract_y
 _atom_site_fract_z
 _atom_site_occupancy
  Eu  Eu0  1  0.747749  0.250000  0.649829  1
  Eu  Eu1  1  0.752251  0.749999  0.149828  1
  Eu  Eu2  1  0.247748  0.250000  0.850172  1
  Eu  Eu3  1  0.252251  0.749999  0.350171  1
  Lu  Lu4  1  0.427592  0.250000  0.111276  1
  Lu  Lu5  1  0.072409  0.749999  0.611276  1
  Lu  Lu6  1  0.927592  0.250000  0.388724  1
  Lu  Lu7  1  0.572408  0.749999  0.888724  1
  Lu  Lu8  1  0.417805  0.250000  0.610848  1
  Lu  Lu9  1  0.082194  0.749999  0.110850  1
  Lu  Lu10  1  0.917806  0.250000  0.889151  1
  Lu  Lu11  1  0.582195  0.749999  0.389151  1
  O  O12  1  0.430486  0.250000  0.421893  1
  O  O13  1  0.069514  0.749999  0.921894  1
  O  O14  1  0.930487  0.250000  0.078106  1
  O  O15  1  0.569514  0.749999  0.578106  1
  O  O16  1  0.507266  0.250000  0.783567  1
  O  O17  1  0.992734  0.749999  0.283567  1
  O  O18  1  0.007266  0.250000  0.716434  1
  O  O19  1  0.492735  0.749999  0.216433  1
  O  O20  1  0.127354  0.250000  0.484646  1
  O  O21  1  0.372647  0.749999  0.984647  1
  O  O22  1  0.627353  0.250000  0.015354  1
  O  O23  1  0.872646  0.749999  0.515354  1
  O  O24  1  0.216739  0.250000  0.174589  1
  O  O25  1  0.283261  0.749999  0.674589  1
  O  O26  1  0.716738  0.250000  0.325412  1
  O  O27  1  0.783262  0.749999  0.825411  1
