# generated using pymatgen
data_NaOsO3
_symmetry_space_group_name_H-M   'P 1'
_cell_length_a   5.39863045
_cell_length_b   5.39863041
_cell_length_c   5.39863042
_cell_angle_alpha   60.36734786
_cell_angle_beta   60.36734808
_cell_angle_gamma   60.36734459
_symmetry_Int_Tables_number   1
_chemical_formula_structural   NaOsO3
_chemical_formula_sum   'Na2 Os2 O6'
_cell_volume   112.18363524
_cell_formula_units_Z   2
loop_
 _symmetry_equiv_pos_site_id
 _symmetry_equiv_pos_as_xyz
  1  'x, y, z'
loop_
 _atom_site_type_symbol
 _atom_site_label
 _atom_site_symmetry_multiplicity
 _atom_site_fract_x
 _atom_site_fract_y
 _atom_site_fract_z
 _atom_site_occupancy
  Na  Na0  1  0.258355  0.258355  0.258355  1
  Na  Na1  1  0.758355  0.758355  0.758355  1
  Os  Os2  1  0.005480  0.005480  0.005480  1
  Os  Os3  1  0.505480  0.505480  0.505480  1
  O  O4  1  0.254281  0.830326  0.680058  1
  O  O5  1  0.830327  0.680057  0.254283  1
  O  O6  1  0.680058  0.254281  0.830327  1
  O  O7  1  0.180057  0.330325  0.754282  1
  O  O8  1  0.754282  0.180058  0.330326  1
  O  O9  1  0.330324  0.754283  0.180057  1
