# generated using pymatgen
data_RbGaH2
_symmetry_space_group_name_H-M   'P 1'
_cell_length_a   7.48167334
_cell_length_b   4.54261952
_cell_length_c   9.52956178
_cell_angle_alpha   90.00000000
_cell_angle_beta   90.00000000
_cell_angle_gamma   90.00000000
_symmetry_Int_Tables_number   1
_chemical_formula_structural   RbGaH2
_chemical_formula_sum   'Rb4 Ga4 H8'
_cell_volume   323.87545423
_cell_formula_units_Z   4
loop_
 _symmetry_equiv_pos_site_id
 _symmetry_equiv_pos_as_xyz
  1  'x, y, z'
loop_
 _atom_site_type_symbol
 _atom_site_label
 _atom_site_symmetry_multiplicity
 _atom_site_fract_x
 _atom_site_fract_y
 _atom_site_fract_z
 _atom_site_occupancy
  Rb  Rb0  1  0.381192  0.249999  0.173412  1
  Rb  Rb1  1  0.881192  0.249999  0.326587  1
  Rb  Rb2  1  0.118808  0.749999  0.673413  1
  Rb  Rb3  1  0.618808  0.749999  0.826587  1
  Ga  Ga4  1  0.064357  0.749999  0.034456  1
  Ga  Ga5  1  0.564357  0.749999  0.465543  1
  Ga  Ga6  1  0.435643  0.249999  0.534457  1
  Ga  Ga7  1  0.935643  0.249999  0.965543  1
  H  H8  1  0.720435  0.249999  0.018466  1
  H  H9  1  0.103742  0.749999  0.206852  1
  H  H10  1  0.603742  0.749999  0.293148  1
  H  H11  1  0.220435  0.249999  0.481534  1
  H  H12  1  0.779566  0.749999  0.518466  1
  H  H13  1  0.396258  0.249999  0.706852  1
  H  H14  1  0.896259  0.249999  0.793148  1
  H  H15  1  0.279566  0.749999  0.981535  1
