# generated using pymatgen
data_Li(Mg4Al3)4
_symmetry_space_group_name_H-M   'P 1'
_cell_length_a   9.11609897
_cell_length_b   9.14619799
_cell_length_c   9.07814555
_cell_angle_alpha   109.57155692
_cell_angle_beta   109.43693577
_cell_angle_gamma   109.64083935
_symmetry_Int_Tables_number   1
_chemical_formula_structural   Li(Mg4Al3)4
_chemical_formula_sum   'Li1 Mg16 Al12'
_cell_volume   580.97068171
_cell_formula_units_Z   1
loop_
 _symmetry_equiv_pos_site_id
 _symmetry_equiv_pos_as_xyz
  1  'x, y, z'
loop_
 _atom_site_type_symbol
 _atom_site_label
 _atom_site_symmetry_multiplicity
 _atom_site_fract_x
 _atom_site_fract_y
 _atom_site_fract_z
 _atom_site_occupancy
  Li  Li0  1  0.606855  0.315959  0.999999  1
  Mg  Mg1  1  0.314895  0.603101  0.000000  1
  Mg  Mg2  1  0.352203  0.008861  -0.000000  1
  Mg  Mg3  1  0.000587  0.999260  -0.000000  1
  Mg  Mg4  1  0.000230  0.343150  -0.000000  1
  Mg  Mg5  1  0.682207  0.679400  0.280129  1
  Mg  Mg6  1  0.996931  0.598875  0.313346  1
  Mg  Mg7  1  0.601462  0.999253  0.315025  1
  Mg  Mg8  1  0.998884  0.999815  0.344770  1
  Mg  Mg9  1  0.711572  0.396976  0.396014  1
  Mg  Mg10  1  0.397484  0.713929  0.397943  1
  Mg  Mg11  1  0.999540  0.315986  0.602058  1
  Mg  Mg12  1  0.315558  0.000962  0.603986  1
  Mg  Mg13  1  0.654112  0.655043  0.655228  1
  Mg  Mg14  1  0.286438  0.684228  0.684975  1
  Mg  Mg15  1  0.683584  0.285527  0.686653  1
  Mg  Mg16  1  0.402078  0.399272  0.719871  1
  Al  Al17  1  0.635013  0.815016  0.999999  1
  Al  Al18  1  0.813510  0.631226  0.000000  1
  Al  Al19  1  0.365807  0.367087  0.181646  1
  Al  Al20  1  0.817903  0.186558  0.184782  1
  Al  Al21  1  0.185265  0.819887  0.185526  1
  Al  Al22  1  0.366060  0.181234  0.367129  1
  Al  Al23  1  0.181619  0.365541  0.367368  1
  Al  Al24  1  0.814250  0.998171  0.632632  1
  Al  Al25  1  0.998932  0.814107  0.632872  1
  Al  Al26  1  0.999739  0.634363  0.814474  1
  Al  Al27  1  0.633122  0.001775  0.815218  1
  Al  Al28  1  0.184161  0.185439  0.818353  1
