# generated using pymatgen
data_Dy(CuO2)2
_symmetry_space_group_name_H-M   'P 1'
_cell_length_a   5.69114165
_cell_length_b   5.69084397
_cell_length_c   6.27975910
_cell_angle_alpha   116.92136234
_cell_angle_beta   116.92288649
_cell_angle_gamma   90.04335443
_symmetry_Int_Tables_number   1
_chemical_formula_structural   Dy(CuO2)2
_chemical_formula_sum   'Dy2 Cu4 O8'
_cell_volume   156.17953032
_cell_formula_units_Z   2
loop_
 _symmetry_equiv_pos_site_id
 _symmetry_equiv_pos_as_xyz
  1  'x, y, z'
loop_
 _atom_site_type_symbol
 _atom_site_label
 _atom_site_symmetry_multiplicity
 _atom_site_fract_x
 _atom_site_fract_y
 _atom_site_fract_z
 _atom_site_occupancy
  O  O0  1  0.718668  0.528575  0.854454  1
  O  O1  1  0.135787  0.825880  0.854454  1
  O  O2  1  0.281332  0.471425  0.145546  1
  O  O3  1  0.864213  0.174120  0.145546  1
  O  O4  1  0.528760  0.135940  0.354415  1
  O  O5  1  0.825654  0.718474  0.354415  1
  O  O6  1  0.174346  0.281526  0.645586  1
  O  O7  1  0.471240  0.864060  0.645586  1
  Cu  Cu8  1  0.500000  0.000000  0.000000  1
  Cu  Cu9  1  0.500000  0.500000  0.000000  1
  Cu  Cu10  1  0.000000  0.500000  0.500000  1
  Cu  Cu11  1  0.500000  0.500000  0.500000  1
  Dy  Dy12  1  0.874983  0.124983  0.749967  1
  Dy  Dy13  1  0.125017  0.875017  0.250033  1
