# generated using pymatgen
data_Rb2H2C2O5
_symmetry_space_group_name_H-M   'P 1'
_cell_length_a   5.83449421
_cell_length_b   5.83449421
_cell_length_c   11.09928061
_cell_angle_alpha   93.67766746
_cell_angle_beta   105.15755264
_cell_angle_gamma   112.36836296
_symmetry_Int_Tables_number   1
_chemical_formula_structural   Rb2H2C2O5
_chemical_formula_sum   'Rb4 H4 C4 O10'
_cell_volume   331.53217312
_cell_formula_units_Z   2
loop_
 _symmetry_equiv_pos_site_id
 _symmetry_equiv_pos_as_xyz
  1  'x, y, z'
loop_
 _atom_site_type_symbol
 _atom_site_label
 _atom_site_symmetry_multiplicity
 _atom_site_fract_x
 _atom_site_fract_y
 _atom_site_fract_z
 _atom_site_occupancy
  Rb  Rb0  1  0.180404  0.309933  0.130186  1
  Rb  Rb1  1  0.679748  0.050217  0.369814  1
  Rb  Rb2  1  0.320253  0.949783  0.630186  1
  Rb  Rb3  1  0.819596  0.690067  0.869814  1
  H  H4  1  0.768456  0.653643  0.198492  1
  H  H5  1  0.955152  0.569964  0.301509  1
  H  H6  1  0.044847  0.430034  0.698491  1
  H  H7  1  0.231543  0.346356  0.801509  1
  C  C8  1  0.494981  0.915828  0.053453  1
  C  C9  1  0.362376  0.441527  0.446548  1
  C  C10  1  0.637623  0.558471  0.553452  1
  C  C11  1  0.505021  0.084172  0.946548  1
  O  O12  1  0.689868  0.860493  0.093346  1
  O  O13  1  0.298254  0.849816  0.092661  1
  O  O14  1  0.772064  0.522063  0.250000  1
  O  O15  1  0.257156  0.205593  0.407340  1
  O  O16  1  0.267147  0.596521  0.406654  1
  O  O17  1  0.732852  0.403478  0.593346  1
  O  O18  1  0.742846  0.794408  0.592661  1
  O  O19  1  0.227937  0.477937  0.750000  1
  O  O20  1  0.701746  0.150184  0.907339  1
  O  O21  1  0.310132  0.139507  0.906654  1
