# generated using pymatgen
data_KCaSiHO4
_symmetry_space_group_name_H-M   'P 1'
_cell_length_a   5.75710381
_cell_length_b   7.54402239
_cell_length_c   5.65804418
_cell_angle_alpha   90.00000000
_cell_angle_beta   121.21085425
_cell_angle_gamma   90.00000000
_symmetry_Int_Tables_number   1
_chemical_formula_structural   KCaSiHO4
_chemical_formula_sum   'K2 Ca2 Si2 H2 O8'
_cell_volume   210.17188829
_cell_formula_units_Z   2
loop_
 _symmetry_equiv_pos_site_id
 _symmetry_equiv_pos_as_xyz
  1  'x, y, z'
loop_
 _atom_site_type_symbol
 _atom_site_label
 _atom_site_symmetry_multiplicity
 _atom_site_fract_x
 _atom_site_fract_y
 _atom_site_fract_z
 _atom_site_occupancy
  K  K0  1  0.353193  0.766836  0.632142  1
  K  K1  1  0.646807  0.266836  0.367858  1
  Ca  Ca2  1  0.994854  0.515202  0.988073  1
  Ca  Ca3  1  0.005146  0.015202  0.011927  1
  Si  Si4  1  0.680685  0.754632  0.305005  1
  Si  Si5  1  0.319315  0.254632  0.694995  1
  H  H6  1  0.959408  0.997291  0.494343  1
  H  H7  1  0.040592  0.497291  0.505657  1
  O  O8  1  0.348414  0.761810  0.131868  1
  O  O9  1  0.651586  0.261810  0.868132  1
  O  O10  1  0.812297  0.759598  0.106511  1
  O  O11  1  0.187703  0.259598  0.893489  1
  O  O12  1  0.808263  0.589768  0.526272  1
  O  O13  1  0.191737  0.089768  0.473728  1
  O  O14  1  0.808070  0.937863  0.514360  1
  O  O15  1  0.191930  0.437863  0.485640  1
