# generated using pymatgen
data_Fe2S3
_symmetry_space_group_name_H-M   'P 1'
_cell_length_a   5.94879076
_cell_length_b   5.94879017
_cell_length_c   5.94878987
_cell_angle_alpha   57.63953019
_cell_angle_beta   57.63954036
_cell_angle_gamma   57.63953408
_symmetry_Int_Tables_number   1
_chemical_formula_structural   Fe2S3
_chemical_formula_sum   'Fe4 S6'
_cell_volume   140.78205036
_cell_formula_units_Z   2
loop_
 _symmetry_equiv_pos_site_id
 _symmetry_equiv_pos_as_xyz
  1  'x, y, z'
loop_
 _atom_site_type_symbol
 _atom_site_label
 _atom_site_symmetry_multiplicity
 _atom_site_fract_x
 _atom_site_fract_y
 _atom_site_fract_z
 _atom_site_occupancy
  Fe  Fe0  1  0.845828  0.845825  0.845826  1
  Fe  Fe1  1  0.654174  0.654174  0.654174  1
  Fe  Fe2  1  0.154174  0.154173  0.154174  1
  Fe  Fe3  1  0.345827  0.345827  0.345826  1
  S  S4  1  0.067411  0.750001  0.432588  1
  S  S5  1  0.750000  0.432590  0.067411  1
  S  S6  1  0.432588  0.067412  0.750000  1
  S  S7  1  0.932589  0.250000  0.567411  1
  S  S8  1  0.567412  0.932589  0.249999  1
  S  S9  1  0.250000  0.567411  0.932589  1
