# generated using pymatgen
data_Rb2NbAgSe4
_symmetry_space_group_name_H-M   'P 1'
_cell_length_a   6.15552901
_cell_length_b   7.81512111
_cell_length_c   12.84197512
_cell_angle_alpha   84.58407293
_cell_angle_beta   76.13326505
_cell_angle_gamma   66.80749144
_symmetry_Int_Tables_number   1
_chemical_formula_structural   Rb2NbAgSe4
_chemical_formula_sum   'Rb4 Nb2 Ag2 Se8'
_cell_volume   551.30437929
_cell_formula_units_Z   2
loop_
 _symmetry_equiv_pos_site_id
 _symmetry_equiv_pos_as_xyz
  1  'x, y, z'
loop_
 _atom_site_type_symbol
 _atom_site_label
 _atom_site_symmetry_multiplicity
 _atom_site_fract_x
 _atom_site_fract_y
 _atom_site_fract_z
 _atom_site_occupancy
  Se  Se0  1  0.752683  0.047702  0.135524  1
  Se  Se1  1  0.564091  0.547702  0.635524  1
  Se  Se2  1  0.888207  0.547702  0.864476  1
  Se  Se3  1  0.800385  0.952298  0.635524  1
  Se  Se4  1  0.435909  0.452298  0.364476  1
  Se  Se5  1  0.199615  0.047702  0.364476  1
  Se  Se6  1  0.111793  0.452298  0.135524  1
  Se  Se7  1  0.247317  0.952298  0.864476  1
  Rb  Rb8  1  0.805453  0.750000  0.389094  1
  Rb  Rb9  1  0.194547  0.250000  0.610906  1
  Rb  Rb10  1  0.444547  0.750000  0.110906  1
  Rb  Rb11  1  0.555453  0.250000  0.889094  1
  Nb  Nb12  1  0.375000  0.250000  0.250000  1
  Nb  Nb13  1  0.625000  0.750000  0.750000  1
  Ag  Ag14  1  0.875000  0.250000  0.250000  1
  Ag  Ag15  1  0.125000  0.750000  0.750000  1
