# generated using pymatgen
data_Yb2Co2O5
_symmetry_space_group_name_H-M   'P 1'
_cell_length_a   7.29407653
_cell_length_b   3.72892390
_cell_length_c   3.72904856
_cell_angle_alpha   90.00195304
_cell_angle_beta   89.99974539
_cell_angle_gamma   90.00012566
_symmetry_Int_Tables_number   1
_chemical_formula_structural   Yb2Co2O5
_chemical_formula_sum   'Yb2 Co2 O5'
_cell_volume   101.42660170
_cell_formula_units_Z   1
loop_
 _symmetry_equiv_pos_site_id
 _symmetry_equiv_pos_as_xyz
  1  'x, y, z'
loop_
 _atom_site_type_symbol
 _atom_site_label
 _atom_site_symmetry_multiplicity
 _atom_site_fract_x
 _atom_site_fract_y
 _atom_site_fract_z
 _atom_site_occupancy
  Yb  Yb0  1  0.999956  0.999998  0.999998  1
  Yb  Yb1  1  0.499436  0.999999  0.000000  1
  Co  Co2  1  0.241168  0.499997  0.499998  1
  Co  Co3  1  0.758834  0.499997  0.500003  1
  O  O4  1  0.207549  0.500001  0.000004  1
  O  O5  1  0.792763  0.500001  0.000004  1
  O  O6  1  0.207560  0.999987  0.499998  1
  O  O7  1  0.792756  0.999996  0.500002  1
  O  O8  1  0.499975  0.500019  0.499987  1
