# generated using pymatgen
data_RbCaBr3
_symmetry_space_group_name_H-M   'P 1'
_cell_length_a   4.41952100
_cell_length_b   9.84674800
_cell_length_c   16.38402500
_cell_angle_alpha   90.00000000
_cell_angle_beta   90.00000000
_cell_angle_gamma   90.00000000
_symmetry_Int_Tables_number   1
_chemical_formula_structural   RbCaBr3
_chemical_formula_sum   'Rb4 Ca4 Br12'
_cell_volume   712.99851831
_cell_formula_units_Z   4
loop_
 _symmetry_equiv_pos_site_id
 _symmetry_equiv_pos_as_xyz
  1  'x, y, z'
loop_
 _atom_site_type_symbol
 _atom_site_label
 _atom_site_symmetry_multiplicity
 _atom_site_fract_x
 _atom_site_fract_y
 _atom_site_fract_z
 _atom_site_occupancy
  Rb  Rb0  1  0.749998  0.069750  0.678723  1
  Rb  Rb1  1  0.249999  0.930250  0.321278  1
  Rb  Rb2  1  0.749998  0.569750  0.821278  1
  Rb  Rb3  1  0.249999  0.430251  0.178723  1
  Ca  Ca4  1  0.249999  0.169125  0.944669  1
  Ca  Ca5  1  0.749998  0.830875  0.055331  1
  Ca  Ca6  1  0.249999  0.669125  0.555331  1
  Ca  Ca7  1  0.749998  0.330876  0.444669  1
  Br  Br8  1  0.749998  0.332500  0.008793  1
  Br  Br9  1  0.249999  0.667501  0.991206  1
  Br  Br10  1  0.749998  0.832500  0.491206  1
  Br  Br11  1  0.249999  0.167500  0.508794  1
  Br  Br12  1  0.249999  0.018182  0.101143  1
  Br  Br13  1  0.749998  0.981818  0.898857  1
  Br  Br14  1  0.249999  0.518182  0.398857  1
  Br  Br15  1  0.749998  0.481818  0.601143  1
  Br  Br16  1  0.249999  0.290408  0.788501  1
  Br  Br17  1  0.749998  0.709592  0.211499  1
  Br  Br18  1  0.249999  0.790407  0.711499  1
  Br  Br19  1  0.749998  0.209592  0.288501  1
