# generated using pymatgen
data_LiSm(CuP)2
_symmetry_space_group_name_H-M   'P 1'
_cell_length_a   4.01218985
_cell_length_b   4.01215775
_cell_length_c   6.66571285
_cell_angle_alpha   90.00055809
_cell_angle_beta   90.00000000
_cell_angle_gamma   120.00026471
_symmetry_Int_Tables_number   1
_chemical_formula_structural   LiSm(CuP)2
_chemical_formula_sum   'Li1 Sm1 Cu2 P2'
_cell_volume   92.92563761
_cell_formula_units_Z   1
loop_
 _symmetry_equiv_pos_site_id
 _symmetry_equiv_pos_as_xyz
  1  'x, y, z'
loop_
 _atom_site_type_symbol
 _atom_site_label
 _atom_site_symmetry_multiplicity
 _atom_site_fract_x
 _atom_site_fract_y
 _atom_site_fract_z
 _atom_site_occupancy
  Li  Li0  1  0.999973  0.000001  0.500000  1
  Sm  Sm1  1  0.999965  0.000000  -0.000000  1
  Cu  Cu2  1  0.333300  0.666663  0.659291  1
  Cu  Cu3  1  0.666638  0.333338  0.340710  1
  P  P4  1  0.333279  0.666635  0.267351  1
  P  P5  1  0.666644  0.333364  0.732648  1
