# generated using pymatgen
data_MgIn5
_symmetry_space_group_name_H-M   'P 1'
_cell_length_a   3.29568996
_cell_length_b   9.10757252
_cell_length_c   5.51027944
_cell_angle_alpha   90.00000000
_cell_angle_beta   90.00000000
_cell_angle_gamma   78.81437802
_symmetry_Int_Tables_number   1
_chemical_formula_structural   MgIn5
_chemical_formula_sum   'Mg1 In5'
_cell_volume   162.25322193
_cell_formula_units_Z   1
loop_
 _symmetry_equiv_pos_site_id
 _symmetry_equiv_pos_as_xyz
  1  'x, y, z'
loop_
 _atom_site_type_symbol
 _atom_site_label
 _atom_site_symmetry_multiplicity
 _atom_site_fract_x
 _atom_site_fract_y
 _atom_site_fract_z
 _atom_site_occupancy
  Mg  Mg0  1  0.777999  0.443608  0.500000  1
  In  In1  1  0.999772  0.998852  0.000000  1
  In  In2  1  0.328696  0.338500  0.000000  1
  In  In3  1  0.668773  0.663303  0.000000  1
  In  In4  1  0.442208  0.117986  0.500000  1
  In  In5  1  0.115883  0.771084  0.500000  1
