# generated using pymatgen
data_NiAgF3
_symmetry_space_group_name_H-M   'P 1'
_cell_length_a   3.04885883
_cell_length_b   5.67145733
_cell_length_c   7.63391055
_cell_angle_alpha   90.00000000
_cell_angle_beta   90.00000000
_cell_angle_gamma   105.52649370
_symmetry_Int_Tables_number   1
_chemical_formula_structural   NiAgF3
_chemical_formula_sum   'Ni2 Ag2 F6'
_cell_volume   127.18439426
_cell_formula_units_Z   2
loop_
 _symmetry_equiv_pos_site_id
 _symmetry_equiv_pos_as_xyz
  1  'x, y, z'
loop_
 _atom_site_type_symbol
 _atom_site_label
 _atom_site_symmetry_multiplicity
 _atom_site_fract_x
 _atom_site_fract_y
 _atom_site_fract_z
 _atom_site_occupancy
  Ni  Ni0  1  0.999999  0.000049  0.749952  1
  Ni  Ni1  1  0.000001  0.999951  0.249952  1
  Ag  Ag2  1  0.254650  0.509051  0.000008  1
  Ag  Ag3  1  0.745350  0.490949  0.500008  1
  F  F4  1  0.380275  0.759480  0.701969  1
  F  F5  1  0.619725  0.240520  0.201969  1
  F  F6  1  0.380296  0.759496  0.298016  1
  F  F7  1  0.619704  0.240504  0.798016  1
  F  F8  1  0.939578  0.878633  0.999995  1
  F  F9  1  0.060422  0.121367  0.499995  1
