# generated using pymatgen
data_Co3(OF2)2
_symmetry_space_group_name_H-M   'P 1'
_cell_length_a   4.71468803
_cell_length_b   14.05406709
_cell_length_c   3.12312419
_cell_angle_alpha   90.00000161
_cell_angle_beta   90.00001464
_cell_angle_gamma   89.95967371
_symmetry_Int_Tables_number   1
_chemical_formula_structural   Co3(OF2)2
_chemical_formula_sum   'Co6 O4 F8'
_cell_volume   206.93985003
_cell_formula_units_Z   2
loop_
 _symmetry_equiv_pos_site_id
 _symmetry_equiv_pos_as_xyz
  1  'x, y, z'
loop_
 _atom_site_type_symbol
 _atom_site_label
 _atom_site_symmetry_multiplicity
 _atom_site_fract_x
 _atom_site_fract_y
 _atom_site_fract_z
 _atom_site_occupancy
  Co  Co0  1  0.927854  0.007381  1.000000  1
  Co  Co1  1  0.072212  0.325930  1.000000  1
  Co  Co2  1  0.999969  0.666665  1.000000  1
  Co  Co3  1  0.500038  0.166679  0.500000  1
  Co  Co4  1  0.572161  0.507412  0.500001  1
  Co  Co5  1  0.427808  0.825891  0.500000  1
  O  O6  1  0.237579  0.264917  0.500000  1
  O  O7  1  0.262433  0.764864  0.000000  1
  O  O8  1  0.737522  0.568448  -0.000000  1
  O  O9  1  0.762402  0.068438  0.500000  1
  F  F10  1  0.129623  0.935585  0.499999  1
  F  F11  1  0.217685  0.600526  0.500000  1
  F  F12  1  0.282264  0.100472  0.000001  1
  F  F13  1  0.370329  0.435668  0.000000  1
  F  F14  1  0.717666  0.232916  0.000000  1
  F  F15  1  0.629662  0.897663  1.000000  1
  F  F16  1  0.870491  0.397714  0.500000  1
  F  F17  1  0.782302  0.732835  0.499999  1
