# generated using pymatgen
data_YTcN3
_symmetry_space_group_name_H-M   'P 1'
_cell_length_a   3.99564844
_cell_length_b   4.06644128
_cell_length_c   4.19809559
_cell_angle_alpha   90.00000000
_cell_angle_beta   61.58280350
_cell_angle_gamma   90.00000000
_symmetry_Int_Tables_number   1
_chemical_formula_structural   YTcN3
_chemical_formula_sum   'Y1 Tc1 N3'
_cell_volume   59.99192486
_cell_formula_units_Z   1
loop_
 _symmetry_equiv_pos_site_id
 _symmetry_equiv_pos_as_xyz
  1  'x, y, z'
loop_
 _atom_site_type_symbol
 _atom_site_label
 _atom_site_symmetry_multiplicity
 _atom_site_fract_x
 _atom_site_fract_y
 _atom_site_fract_z
 _atom_site_occupancy
  Y  Y0  1  0.830817  0.500000  0.338365  1
  Tc  Tc1  1  0.525313  0.000000  0.949374  1
  N  N2  1  0.411149  0.000000  0.511713  1
  N  N3  1  0.077138  0.000000  0.511713  1
  N  N4  1  0.510162  0.500000  0.979675  1
