# generated using pymatgen
data_Dy(Al2Cu)4
_symmetry_space_group_name_H-M   'P 1'
_cell_length_a   5.14083152
_cell_length_b   6.73820412
_cell_length_c   6.73820412
_cell_angle_alpha   98.36730971
_cell_angle_beta   67.57529646
_cell_angle_gamma   112.42470354
_symmetry_Int_Tables_number   1
_chemical_formula_structural   Dy(Al2Cu)4
_chemical_formula_sum   'Dy1 Al8 Cu4'
_cell_volume   199.44553772
_cell_formula_units_Z   1
loop_
 _symmetry_equiv_pos_site_id
 _symmetry_equiv_pos_as_xyz
  1  'x, y, z'
loop_
 _atom_site_type_symbol
 _atom_site_label
 _atom_site_symmetry_multiplicity
 _atom_site_fract_x
 _atom_site_fract_y
 _atom_site_fract_z
 _atom_site_occupancy
  Dy  Dy0  1  0.000000  0.000000  0.000000  1
  Al  Al1  1  0.281220  0.781220  0.218780  1
  Al  Al2  1  0.500000  0.218781  0.218781  1
  Al  Al3  1  0.000000  0.348019  0.348019  1
  Al  Al4  1  0.651981  0.651980  0.348019  1
  Al  Al5  1  0.348019  0.348019  0.651980  1
  Al  Al6  1  0.000000  0.651980  0.651980  1
  Al  Al7  1  0.500000  0.781220  0.781220  1
  Al  Al8  1  0.718780  0.218780  0.781220  1
  Cu  Cu9  1  0.000001  0.500000  0.000000  1
  Cu  Cu10  1  0.499999  0.500000  0.000000  1
  Cu  Cu11  1  0.000000  0.000000  0.500000  1
  Cu  Cu12  1  0.499999  0.000000  0.500000  1
