# generated using pymatgen
data_Ba(AuO2)2
_symmetry_space_group_name_H-M   'P 1'
_cell_length_a   6.58248310
_cell_length_b   6.58248310
_cell_length_c   6.98138825
_cell_angle_alpha   118.12721392
_cell_angle_beta   118.12721389
_cell_angle_gamma   90.00000005
_symmetry_Int_Tables_number   1
_chemical_formula_structural   Ba(AuO2)2
_chemical_formula_sum   'Ba2 Au4 O8'
_cell_volume   225.45800731
_cell_formula_units_Z   2
loop_
 _symmetry_equiv_pos_site_id
 _symmetry_equiv_pos_as_xyz
  1  'x, y, z'
loop_
 _atom_site_type_symbol
 _atom_site_label
 _atom_site_symmetry_multiplicity
 _atom_site_fract_x
 _atom_site_fract_y
 _atom_site_fract_z
 _atom_site_occupancy
  O  O0  1  0.821878  0.187164  0.342068  1
  O  O1  1  0.154904  0.321878  0.842068  1
  O  O2  1  0.687164  0.020191  0.842068  1
  O  O3  1  0.520191  0.654904  0.342068  1
  O  O4  1  0.178122  0.812836  0.657932  1
  O  O5  1  0.845096  0.678122  0.157932  1
  O  O6  1  0.479809  0.345096  0.657932  1
  O  O7  1  0.312836  0.979809  0.157932  1
  Ba  Ba8  1  0.125000  0.375000  0.250000  1
  Ba  Ba9  1  0.875000  0.625000  0.750000  1
  Au  Au10  1  0.500000  0.000000  0.500000  1
  Au  Au11  1  0.500000  0.500000  0.000000  1
  Au  Au12  1  0.000000  0.000000  0.500000  1
  Au  Au13  1  0.500000  0.000000  0.000000  1
