# generated using pymatgen
data_K2NbCuS4
_symmetry_space_group_name_H-M   'P 1'
_cell_length_a   5.58222631
_cell_length_b   7.24178145
_cell_length_c   12.06708864
_cell_angle_alpha   84.88546068
_cell_angle_beta   76.62640151
_cell_angle_gamma   67.33030540
_symmetry_Int_Tables_number   1
_chemical_formula_structural   K2NbCuS4
_chemical_formula_sum   'K4 Nb2 Cu2 S8'
_cell_volume   437.92133181
_cell_formula_units_Z   2
loop_
 _symmetry_equiv_pos_site_id
 _symmetry_equiv_pos_as_xyz
  1  'x, y, z'
loop_
 _atom_site_type_symbol
 _atom_site_label
 _atom_site_symmetry_multiplicity
 _atom_site_fract_x
 _atom_site_fract_y
 _atom_site_fract_z
 _atom_site_occupancy
  S  S0  1  0.726277  0.949115  0.860608  1
  S  S1  1  0.035999  0.550885  0.639392  1
  S  S2  1  0.675392  0.050885  0.360608  1
  S  S3  1  0.586885  0.449115  0.139392  1
  S  S4  1  0.273723  0.050885  0.139392  1
  S  S5  1  0.964001  0.449115  0.360608  1
  S  S6  1  0.324608  0.949115  0.639392  1
  S  S7  1  0.413115  0.550885  0.860608  1
  K  K8  1  0.946478  0.750000  0.107045  1
  K  K9  1  0.303522  0.750000  0.392955  1
  K  K10  1  0.053522  0.250000  0.892955  1
  K  K11  1  0.696478  0.250000  0.607045  1
  Cu  Cu12  1  0.625000  0.750000  0.750000  1
  Cu  Cu13  1  0.375000  0.250000  0.250000  1
  Nb  Nb14  1  0.125000  0.750000  0.750000  1
  Nb  Nb15  1  0.875000  0.250000  0.250000  1
