# generated using pymatgen
data_NbInNi
_symmetry_space_group_name_H-M   'P 1'
_cell_length_a   4.39724728
_cell_length_b   4.40074299
_cell_length_c   4.38944435
_cell_angle_alpha   59.98159227
_cell_angle_beta   59.95774466
_cell_angle_gamma   59.91958011
_symmetry_Int_Tables_number   1
_chemical_formula_structural   NbInNi
_chemical_formula_sum   'Nb1 In1 Ni1'
_cell_volume   59.99813383
_cell_formula_units_Z   1
loop_
 _symmetry_equiv_pos_site_id
 _symmetry_equiv_pos_as_xyz
  1  'x, y, z'
loop_
 _atom_site_type_symbol
 _atom_site_label
 _atom_site_symmetry_multiplicity
 _atom_site_fract_x
 _atom_site_fract_y
 _atom_site_fract_z
 _atom_site_occupancy
  Nb  Nb0  1  0.250141  0.250065  0.249900  1
  In  In1  1  0.500063  0.499920  0.499951  1
  Ni  Ni2  1  0.999795  0.000015  0.000149  1
