# generated using pymatgen
data_Nb3SnS6
_symmetry_space_group_name_H-M   'P 1'
_cell_length_a   5.84613911
_cell_length_b   5.84613912
_cell_length_c   14.62262890
_cell_angle_alpha   90.00000000
_cell_angle_beta   90.00000000
_cell_angle_gamma   120.00000001
_symmetry_Int_Tables_number   1
_chemical_formula_structural   Nb3SnS6
_chemical_formula_sum   'Nb6 Sn2 S12'
_cell_volume   432.80710463
_cell_formula_units_Z   2
loop_
 _symmetry_equiv_pos_site_id
 _symmetry_equiv_pos_as_xyz
  1  'x, y, z'
loop_
 _atom_site_type_symbol
 _atom_site_label
 _atom_site_symmetry_multiplicity
 _atom_site_fract_x
 _atom_site_fract_y
 _atom_site_fract_z
 _atom_site_occupancy
  S  S0  1  0.334926  0.000004  0.393058  1
  S  S1  1  0.999996  0.334922  0.393058  1
  S  S2  1  0.665078  0.665074  0.393058  1
  S  S3  1  0.334922  0.334926  0.893058  1
  S  S4  1  0.665074  0.665078  0.606942  1
  S  S5  1  0.665074  0.999996  0.893058  1
  S  S6  1  0.000004  0.665078  0.893058  1
  S  S7  1  0.999996  0.665074  0.106942  1
  S  S8  1  0.334926  0.334922  0.106942  1
  S  S9  1  0.000004  0.334926  0.606942  1
  S  S10  1  0.334922  0.999996  0.606942  1
  S  S11  1  0.665078  0.000004  0.106942  1
  Nb  Nb12  1  0.000000  0.000000  0.500000  1
  Nb  Nb13  1  0.000000  0.000000  0.000000  1
  Nb  Nb14  1  0.333333  0.666667  0.499998  1
  Nb  Nb15  1  0.666667  0.333333  -0.000002  1
  Nb  Nb16  1  0.666667  0.333333  0.500002  1
  Nb  Nb17  1  0.333333  0.666667  1.000002  1
  Sn  Sn18  1  0.000000  0.000000  0.750000  1
  Sn  Sn19  1  0.000000  0.000000  0.250000  1
