# generated using pymatgen
data_Er2C3
_symmetry_space_group_name_H-M   'P 1'
_cell_length_a   7.05209165
_cell_length_b   7.05209165
_cell_length_c   7.05209165
_cell_angle_alpha   109.47122065
_cell_angle_beta   109.47122066
_cell_angle_gamma   109.47122065
_symmetry_Int_Tables_number   1
_chemical_formula_structural   Er2C3
_chemical_formula_sum   'Er8 C12'
_cell_volume   269.98022359
_cell_formula_units_Z   4
loop_
 _symmetry_equiv_pos_site_id
 _symmetry_equiv_pos_as_xyz
  1  'x, y, z'
loop_
 _atom_site_type_symbol
 _atom_site_label
 _atom_site_symmetry_multiplicity
 _atom_site_fract_x
 _atom_site_fract_y
 _atom_site_fract_z
 _atom_site_occupancy
  C  C0  1  0.750000  0.792604  0.042604  1
  C  C1  1  0.750000  0.957396  0.207396  1
  C  C2  1  0.292604  0.250000  0.542604  1
  C  C3  1  0.542604  0.292604  0.250000  1
  C  C4  1  0.207396  0.750000  0.957396  1
  C  C5  1  0.957396  0.207396  0.750000  1
  C  C6  1  0.250000  0.707396  0.457396  1
  C  C7  1  0.707396  0.457396  0.250000  1
  C  C8  1  0.250000  0.542604  0.292604  1
  C  C9  1  0.457396  0.250000  0.707396  1
  C  C10  1  0.042604  0.750000  0.792604  1
  C  C11  1  0.792604  0.042604  0.750000  1
  Er  Er12  1  0.600787  0.600787  0.600787  1
  Er  Er13  1  0.399213  0.500000  0.000000  1
  Er  Er14  1  0.500000  0.000000  0.399213  1
  Er  Er15  1  0.000000  0.399213  0.500000  1
  Er  Er16  1  0.500000  0.000000  0.899213  1
  Er  Er17  1  0.000000  0.899213  0.500000  1
  Er  Er18  1  0.899213  0.500000  0.000000  1
  Er  Er19  1  0.100787  0.100787  0.100787  1
