# generated using pymatgen
data_Ba2Si3Ag
_symmetry_space_group_name_H-M   'P 1'
_cell_length_a   8.66331088
_cell_length_b   8.67036560
_cell_length_c   10.87550061
_cell_angle_alpha   78.52236771
_cell_angle_beta   66.52837806
_cell_angle_gamma   60.02691195
_symmetry_Int_Tables_number   1
_chemical_formula_structural   Ba2Si3Ag
_chemical_formula_sum   'Ba8 Si12 Ag4'
_cell_volume   649.09783388
_cell_formula_units_Z   4
loop_
 _symmetry_equiv_pos_site_id
 _symmetry_equiv_pos_as_xyz
  1  'x, y, z'
loop_
 _atom_site_type_symbol
 _atom_site_label
 _atom_site_symmetry_multiplicity
 _atom_site_fract_x
 _atom_site_fract_y
 _atom_site_fract_z
 _atom_site_occupancy
  Si  Si0  1  0.287268  0.909343  0.744071  1
  Si  Si1  1  0.440682  0.590657  0.755929  1
  Si  Si2  1  0.803389  0.909343  0.755929  1
  Si  Si3  1  0.968662  0.590657  0.744071  1
  Si  Si4  1  0.712732  0.090657  0.255929  1
  Si  Si5  1  0.559318  0.409343  0.244071  1
  Si  Si6  1  0.196611  0.090657  0.244071  1
  Si  Si7  1  0.715378  0.569245  0.250000  1
  Si  Si8  1  0.965378  0.069245  0.750000  1
  Si  Si9  1  0.284622  0.430755  0.750000  1
  Si  Si10  1  0.034622  0.930755  0.250000  1
  Si  Si11  1  0.031338  0.409343  0.255929  1
  Ag  Ag12  1  0.541967  0.916066  0.250000  1
  Ag  Ag13  1  0.458033  0.083934  0.750000  1
  Ag  Ag14  1  0.208033  0.583934  0.250000  1
  Ag  Ag15  1  0.791967  0.416066  0.750000  1
  Ba  Ba16  1  0.499412  0.250000  0.001176  1
  Ba  Ba17  1  0.749412  0.750000  0.501176  1
  Ba  Ba18  1  0.500588  0.750000  0.998824  1
  Ba  Ba19  1  0.250588  0.250000  0.498824  1
  Ba  Ba20  1  0.000797  0.750000  0.998406  1
  Ba  Ba21  1  0.249203  0.750000  0.501594  1
  Ba  Ba22  1  0.999203  0.250000  0.001594  1
  Ba  Ba23  1  0.750797  0.250000  0.498406  1
