# generated using pymatgen
data_Fe5B2P
_symmetry_space_group_name_H-M   'P 1'
_cell_length_a   5.45152276
_cell_length_b   5.45152276
_cell_length_c   6.43753060
_cell_angle_alpha   115.05052025
_cell_angle_beta   115.05052025
_cell_angle_gamma   90.00000003
_symmetry_Int_Tables_number   1
_chemical_formula_structural   Fe5B2P
_chemical_formula_sum   'Fe10 B4 P2'
_cell_volume   153.22567017
_cell_formula_units_Z   2
loop_
 _symmetry_equiv_pos_site_id
 _symmetry_equiv_pos_as_xyz
  1  'x, y, z'
loop_
 _atom_site_type_symbol
 _atom_site_label
 _atom_site_symmetry_multiplicity
 _atom_site_fract_x
 _atom_site_fract_y
 _atom_site_fract_z
 _atom_site_occupancy
  B  B0  1  0.381462  0.881462  0.000000  1
  B  B1  1  0.118538  0.381462  0.000000  1
  B  B2  1  0.618538  0.118538  0.000000  1
  B  B3  1  0.881462  0.618538  0.000000  1
  P  P4  1  0.250000  0.250000  0.500000  1
  P  P5  1  0.750000  0.750000  0.500000  1
  Fe  Fe6  1  0.500000  0.500000  0.000000  1
  Fe  Fe7  1  0.467289  0.309942  0.277230  1
  Fe  Fe8  1  0.309942  0.809942  0.277230  1
  Fe  Fe9  1  0.532711  0.690058  0.722770  1
  Fe  Fe10  1  0.190058  0.032711  0.722770  1
  Fe  Fe11  1  0.032711  0.532711  0.722770  1
  Fe  Fe12  1  0.690058  0.190058  0.722770  1
  Fe  Fe13  1  0.967289  0.467289  0.277230  1
  Fe  Fe14  1  0.000000  0.000000  0.000000  1
  Fe  Fe15  1  0.809942  0.967289  0.277230  1
