# generated using pymatgen
data_CaReN3
_symmetry_space_group_name_H-M   'P 1'
_cell_length_a   6.28517895
_cell_length_b   7.45025000
_cell_length_c   7.45024991
_cell_angle_alpha   96.05908828
_cell_angle_beta   105.59777643
_cell_angle_gamma   74.40222603
_symmetry_Int_Tables_number   1
_chemical_formula_structural   CaReN3
_chemical_formula_sum   'Ca4 Re4 N12'
_cell_volume   323.43626250
_cell_formula_units_Z   4
loop_
 _symmetry_equiv_pos_site_id
 _symmetry_equiv_pos_as_xyz
  1  'x, y, z'
loop_
 _atom_site_type_symbol
 _atom_site_label
 _atom_site_symmetry_multiplicity
 _atom_site_fract_x
 _atom_site_fract_y
 _atom_site_fract_z
 _atom_site_occupancy
  Ca  Ca0  1  0.750000  0.911970  0.911970  1
  Ca  Ca1  1  0.750000  0.294640  0.294640  1
  Ca  Ca2  1  0.250000  0.088030  0.088030  1
  Ca  Ca3  1  0.250000  0.705360  0.705360  1
  Re  Re4  1  0.273290  0.622070  0.203250  1
  Re  Re5  1  0.226710  0.203250  0.622070  1
  Re  Re6  1  0.726710  0.377930  0.796750  1
  Re  Re7  1  0.773290  0.796750  0.377930  1
  N  N8  1  0.936950  0.342490  0.644870  1
  N  N9  1  0.337570  0.010970  0.773630  1
  N  N10  1  0.162430  0.773630  0.010970  1
  N  N11  1  0.837570  0.226370  0.989030  1
  N  N12  1  0.063050  0.657510  0.355130  1
  N  N13  1  0.829350  0.878000  0.611340  1
  N  N14  1  0.170650  0.122000  0.388660  1
  N  N15  1  0.662430  0.989030  0.226370  1
  N  N16  1  0.329350  0.388660  0.122000  1
  N  N17  1  0.563050  0.644870  0.342490  1
  N  N18  1  0.670650  0.611340  0.878000  1
  N  N19  1  0.436950  0.355130  0.657510  1
