# generated using pymatgen
data_Al(HO)3
_symmetry_space_group_name_H-M   'P 1'
_cell_length_a   5.13568567
_cell_length_b   7.25055225
_cell_length_c   5.07803054
_cell_angle_alpha   90.00000000
_cell_angle_beta   90.00000000
_cell_angle_gamma   90.00000000
_symmetry_Int_Tables_number   1
_chemical_formula_structural   Al(HO)3
_chemical_formula_sum   'Al4 H12 O12'
_cell_volume   189.08837512
_cell_formula_units_Z   4
loop_
 _symmetry_equiv_pos_site_id
 _symmetry_equiv_pos_as_xyz
  1  'x, y, z'
loop_
 _atom_site_type_symbol
 _atom_site_label
 _atom_site_symmetry_multiplicity
 _atom_site_fract_x
 _atom_site_fract_y
 _atom_site_fract_z
 _atom_site_occupancy
  Al  Al0  1  0.000032  0.499660  0.247839  1
  Al  Al1  1  0.999969  0.999660  0.252162  1
  Al  Al2  1  0.499967  0.500340  0.747837  1
  Al  Al3  1  0.500033  0.000340  0.752163  1
  H  H4  1  0.204932  0.752978  0.029635  1
  H  H5  1  0.332843  0.295135  0.081891  1
  H  H6  1  0.460992  0.020693  0.216126  1
  H  H7  1  0.539006  0.520692  0.283873  1
  H  H8  1  0.667158  0.795136  0.418110  1
  H  H9  1  0.795069  0.252979  0.470364  1
  H  H10  1  0.295067  0.247022  0.529635  1
  H  H11  1  0.167158  0.704864  0.581891  1
  H  H12  1  0.039007  0.979308  0.716126  1
  H  H13  1  0.960994  0.479307  0.783874  1
  H  H14  1  0.832842  0.204864  0.918109  1
  H  H15  1  0.704931  0.747022  0.970365  1
  O  O16  1  0.319956  0.433018  0.073917  1
  O  O17  1  0.323664  0.060409  0.087611  1
  O  O18  1  0.037968  0.750140  0.129265  1
  O  O19  1  0.962032  0.250140  0.370735  1
  O  O20  1  0.676335  0.560409  0.412388  1
  O  O21  1  0.680044  0.933017  0.426083  1
  O  O22  1  0.180045  0.566983  0.573918  1
  O  O23  1  0.176335  0.939591  0.587612  1
  O  O24  1  0.462033  0.249861  0.629266  1
  O  O25  1  0.537968  0.749860  0.870734  1
  O  O26  1  0.823666  0.439592  0.912389  1
  O  O27  1  0.819956  0.066983  0.926082  1
