# generated using pymatgen
data_Sn5O6
_symmetry_space_group_name_H-M   'P 1'
_cell_length_a   4.95304383
_cell_length_b   13.75520914
_cell_length_c   5.90577961
_cell_angle_alpha   92.41675457
_cell_angle_beta   90.00000000
_cell_angle_gamma   90.00000000
_symmetry_Int_Tables_number   1
_chemical_formula_structural   Sn5O6
_chemical_formula_sum   'Sn10 O12'
_cell_volume   402.00378883
_cell_formula_units_Z   2
loop_
 _symmetry_equiv_pos_site_id
 _symmetry_equiv_pos_as_xyz
  1  'x, y, z'
loop_
 _atom_site_type_symbol
 _atom_site_label
 _atom_site_symmetry_multiplicity
 _atom_site_fract_x
 _atom_site_fract_y
 _atom_site_fract_z
 _atom_site_occupancy
  Sn  Sn0  1  0.000333  0.901938  0.820115  1
  Sn  Sn1  1  -0.000368  0.694249  0.348226  1
  Sn  Sn2  1  0.499667  0.901938  0.320115  1
  Sn  Sn3  1  0.500333  0.098062  0.679885  1
  Sn  Sn4  1  0.499632  0.305751  0.151774  1
  Sn  Sn5  1  -0.000333  0.098062  0.179885  1
  Sn  Sn6  1  0.000368  0.305751  0.651774  1
  Sn  Sn7  1  0.500000  0.500000  0.500000  1
  Sn  Sn8  1  0.500368  0.694249  0.848227  1
  Sn  Sn9  1  0.000000  0.500000  -0.000000  1
  O  O10  1  0.824912  0.639433  0.036227  1
  O  O11  1  0.175088  0.360567  0.963773  1
  O  O12  1  0.324912  0.360567  0.463773  1
  O  O13  1  0.802501  0.442574  0.709267  1
  O  O14  1  0.197499  0.557426  0.290733  1
  O  O15  1  0.677204  0.044701  0.369448  1
  O  O16  1  0.822796  0.044701  0.869448  1
  O  O17  1  0.675088  0.639433  0.536227  1
  O  O18  1  0.322796  0.955299  0.630552  1
  O  O19  1  0.177204  0.955299  0.130552  1
  O  O20  1  0.302501  0.557426  0.790733  1
  O  O21  1  0.697499  0.442574  0.209267  1
