# generated using pymatgen
data_LuO3
_symmetry_space_group_name_H-M   'P 1'
_cell_length_a   4.54771914
_cell_length_b   4.54771812
_cell_length_c   4.58548211
_cell_angle_alpha   90.00000000
_cell_angle_beta   90.00000000
_cell_angle_gamma   120.00000001
_symmetry_Int_Tables_number   1
_chemical_formula_structural   LuO3
_chemical_formula_sum   'Lu2 O6'
_cell_volume   82.13018641
_cell_formula_units_Z   2
loop_
 _symmetry_equiv_pos_site_id
 _symmetry_equiv_pos_as_xyz
  1  'x, y, z'
loop_
 _atom_site_type_symbol
 _atom_site_label
 _atom_site_symmetry_multiplicity
 _atom_site_fract_x
 _atom_site_fract_y
 _atom_site_fract_z
 _atom_site_occupancy
  Lu  Lu0  1  0.333333  0.666666  0.750002  1
  Lu  Lu1  1  0.666667  0.333333  0.250001  1
  O  O2  1  0.177628  0.355257  0.250001  1
  O  O3  1  0.644742  0.822370  0.250001  1
  O  O4  1  0.177627  0.822370  0.250001  1
  O  O5  1  0.822372  0.644743  0.750002  1
  O  O6  1  0.355258  0.177630  0.750002  1
  O  O7  1  0.822371  0.177630  0.750002  1
