# generated using pymatgen
data_Rb4NO
_symmetry_space_group_name_H-M   'P 1'
_cell_length_a   4.97142490
_cell_length_b   4.97150625
_cell_length_c   7.00969222
_cell_angle_alpha   90.00171400
_cell_angle_beta   90.00197095
_cell_angle_gamma   90.00122720
_symmetry_Int_Tables_number   1
_chemical_formula_structural   Rb4NO
_chemical_formula_sum   'Rb4 N1 O1'
_cell_volume   173.24783759
_cell_formula_units_Z   1
loop_
 _symmetry_equiv_pos_site_id
 _symmetry_equiv_pos_as_xyz
  1  'x, y, z'
loop_
 _atom_site_type_symbol
 _atom_site_label
 _atom_site_symmetry_multiplicity
 _atom_site_fract_x
 _atom_site_fract_y
 _atom_site_fract_z
 _atom_site_occupancy
  Rb  Rb0  1  0.000005  0.500030  0.744908  1
  Rb  Rb1  1  0.499977  0.999992  0.255091  1
  Rb  Rb2  1  0.999995  0.499970  0.255092  1
  Rb  Rb3  1  0.500023  0.000008  0.744911  1
  N  N4  1  0.000000  0.000000  0.000000  1
  O  O5  1  0.499999  0.500000  0.500001  1
