# generated using pymatgen
data_AuF3
_symmetry_space_group_name_H-M   'P 1'
_cell_length_a   5.32364251
_cell_length_b   5.32364252
_cell_length_c   16.61694623
_cell_angle_alpha   90.00000000
_cell_angle_beta   90.00000000
_cell_angle_gamma   120.00000002
_symmetry_Int_Tables_number   1
_chemical_formula_structural   AuF3
_chemical_formula_sum   'Au6 F18'
_cell_volume   407.84920058
_cell_formula_units_Z   6
loop_
 _symmetry_equiv_pos_site_id
 _symmetry_equiv_pos_as_xyz
  1  'x, y, z'
loop_
 _atom_site_type_symbol
 _atom_site_label
 _atom_site_symmetry_multiplicity
 _atom_site_fract_x
 _atom_site_fract_y
 _atom_site_fract_z
 _atom_site_occupancy
  F  F0  1  0.776047  0.463937  0.162368  1
  F  F1  1  0.536063  0.312110  0.495702  1
  F  F2  1  0.687890  0.223953  0.829035  1
  F  F3  1  0.312110  0.776047  0.329035  1
  F  F4  1  0.223953  0.687890  0.504298  1
  F  F5  1  0.223953  0.536063  0.662368  1
  F  F6  1  0.167330  0.000000  0.000000  1
  F  F7  1  0.167330  0.167330  0.166667  1
  F  F8  1  0.000000  0.832670  0.833333  1
  F  F9  1  0.000000  0.167330  0.333333  1
  F  F10  1  0.832670  0.832670  0.666667  1
  F  F11  1  0.832670  0.000000  0.500000  1
  F  F12  1  0.776047  0.312110  0.004298  1
  F  F13  1  0.463937  0.776047  0.170965  1
  F  F14  1  0.312110  0.536063  0.837632  1
  F  F15  1  0.687890  0.463937  0.337632  1
  F  F16  1  0.536063  0.223953  0.670965  1
  F  F17  1  0.463937  0.687890  0.995702  1
  Au  Au18  1  0.759401  0.518801  0.750000  1
  Au  Au19  1  0.240599  0.759401  0.916667  1
  Au  Au20  1  0.518801  0.759401  0.583333  1
  Au  Au21  1  0.481199  0.240599  0.083333  1
  Au  Au22  1  0.759401  0.240599  0.416667  1
  Au  Au23  1  0.240599  0.481199  0.250000  1
