# generated using pymatgen
data_Ac3Sc
_symmetry_space_group_name_H-M   'P 1'
_cell_length_a   7.72534996
_cell_length_b   7.72534918
_cell_length_c   6.15429058
_cell_angle_alpha   90.00000000
_cell_angle_beta   90.00000000
_cell_angle_gamma   120.00000333
_symmetry_Int_Tables_number   1
_chemical_formula_structural   Ac3Sc
_chemical_formula_sum   'Ac6 Sc2'
_cell_volume   318.08624967
_cell_formula_units_Z   2
loop_
 _symmetry_equiv_pos_site_id
 _symmetry_equiv_pos_as_xyz
  1  'x, y, z'
loop_
 _atom_site_type_symbol
 _atom_site_label
 _atom_site_symmetry_multiplicity
 _atom_site_fract_x
 _atom_site_fract_y
 _atom_site_fract_z
 _atom_site_occupancy
  Ac  Ac0  1  0.656716  0.828358  0.249999  1
  Ac  Ac1  1  0.171642  0.343284  0.249999  1
  Ac  Ac2  1  0.343284  0.171643  0.750000  1
  Ac  Ac3  1  0.828358  0.656715  0.750000  1
  Ac  Ac4  1  0.171642  0.828358  0.249999  1
  Ac  Ac5  1  0.828358  0.171643  0.750000  1
  Sc  Sc6  1  0.666668  0.333334  0.249999  1
  Sc  Sc7  1  0.333333  0.666666  0.750000  1
