# generated using pymatgen
data_Cs2ZrSe3
_symmetry_space_group_name_H-M   'P 1'
_cell_length_a   7.22051035
_cell_length_b   8.27598891
_cell_length_c   8.27598891
_cell_angle_alpha   108.81450836
_cell_angle_beta   90.00000000
_cell_angle_gamma   90.00000000
_symmetry_Int_Tables_number   1
_chemical_formula_structural   Cs2ZrSe3
_chemical_formula_sum   'Cs4 Zr2 Se6'
_cell_volume   468.12231251
_cell_formula_units_Z   2
loop_
 _symmetry_equiv_pos_site_id
 _symmetry_equiv_pos_as_xyz
  1  'x, y, z'
loop_
 _atom_site_type_symbol
 _atom_site_label
 _atom_site_symmetry_multiplicity
 _atom_site_fract_x
 _atom_site_fract_y
 _atom_site_fract_z
 _atom_site_occupancy
  Se  Se0  1  0.750000  0.658489  0.658489  1
  Se  Se1  1  0.250000  0.341511  0.341511  1
  Se  Se2  1  0.500000  0.135320  0.864680  1
  Se  Se3  1  0.000000  0.135320  0.864680  1
  Se  Se4  1  0.500000  0.864680  0.135320  1
  Se  Se5  1  0.000000  0.864680  0.135320  1
  Zr  Zr6  1  0.250000  0.081828  0.081828  1
  Zr  Zr7  1  0.750000  0.918172  0.918172  1
  Cs  Cs8  1  0.250000  0.818757  0.506534  1
  Cs  Cs9  1  0.750000  0.181243  0.493466  1
  Cs  Cs10  1  0.750000  0.493466  0.181243  1
  Cs  Cs11  1  0.250000  0.506534  0.818757  1
