# generated using pymatgen
data_ZnPb3
_symmetry_space_group_name_H-M   'P 1'
_cell_length_a   6.86768546
_cell_length_b   6.86768526
_cell_length_c   5.59983526
_cell_angle_alpha   90.00000000
_cell_angle_beta   90.00000000
_cell_angle_gamma   120.00000097
_symmetry_Int_Tables_number   1
_chemical_formula_structural   ZnPb3
_chemical_formula_sum   'Zn2 Pb6'
_cell_volume   228.73185809
_cell_formula_units_Z   2
loop_
 _symmetry_equiv_pos_site_id
 _symmetry_equiv_pos_as_xyz
  1  'x, y, z'
loop_
 _atom_site_type_symbol
 _atom_site_label
 _atom_site_symmetry_multiplicity
 _atom_site_fract_x
 _atom_site_fract_y
 _atom_site_fract_z
 _atom_site_occupancy
  Zn  Zn0  1  0.333333  0.666667  0.750000  1
  Zn  Zn1  1  0.666666  0.333332  0.250002  1
  Pb  Pb2  1  0.170684  0.341367  0.250002  1
  Pb  Pb3  1  0.658635  0.829319  0.250002  1
  Pb  Pb4  1  0.170684  0.829319  0.250002  1
  Pb  Pb5  1  0.829317  0.658633  0.750000  1
  Pb  Pb6  1  0.341368  0.170684  0.750000  1
  Pb  Pb7  1  0.829316  0.170684  0.750000  1
