# generated using pymatgen
data_Ni3Pb
_symmetry_space_group_name_H-M   'P 1'
_cell_length_a   3.80858805
_cell_length_b   3.80804070
_cell_length_c   3.80888916
_cell_angle_alpha   90.00024041
_cell_angle_beta   89.99966559
_cell_angle_gamma   89.99973325
_symmetry_Int_Tables_number   1
_chemical_formula_structural   Ni3Pb
_chemical_formula_sum   'Ni3 Pb1'
_cell_volume   55.24130334
_cell_formula_units_Z   1
loop_
 _symmetry_equiv_pos_site_id
 _symmetry_equiv_pos_as_xyz
  1  'x, y, z'
loop_
 _atom_site_type_symbol
 _atom_site_label
 _atom_site_symmetry_multiplicity
 _atom_site_fract_x
 _atom_site_fract_y
 _atom_site_fract_z
 _atom_site_occupancy
  Ni  Ni0  1  -0.000001  0.500003  0.500004  1
  Ni  Ni1  1  0.500001  0.999992  0.499998  1
  Ni  Ni2  1  0.499995  0.499999  0.999999  1
  Pb  Pb3  1  0.000003  0.000003  0.999997  1
