# generated using pymatgen
data_Rb3Er
_symmetry_space_group_name_H-M   'P 1'
_cell_length_a   9.09526984
_cell_length_b   9.09526869
_cell_length_c   7.39932935
_cell_angle_alpha   90.00000000
_cell_angle_beta   90.00000000
_cell_angle_gamma   119.99999678
_symmetry_Int_Tables_number   1
_chemical_formula_structural   Rb3Er
_chemical_formula_sum   'Rb6 Er2'
_cell_volume   530.09551040
_cell_formula_units_Z   2
loop_
 _symmetry_equiv_pos_site_id
 _symmetry_equiv_pos_as_xyz
  1  'x, y, z'
loop_
 _atom_site_type_symbol
 _atom_site_label
 _atom_site_symmetry_multiplicity
 _atom_site_fract_x
 _atom_site_fract_y
 _atom_site_fract_z
 _atom_site_occupancy
  Rb  Rb0  1  0.173693  0.347386  0.249999  1
  Rb  Rb1  1  0.652615  0.826307  0.249999  1
  Rb  Rb2  1  0.173693  0.826307  0.249999  1
  Rb  Rb3  1  0.826308  0.652615  0.750000  1
  Rb  Rb4  1  0.347385  0.173692  0.750000  1
  Rb  Rb5  1  0.826307  0.173692  0.750000  1
  Er  Er6  1  0.333334  0.666667  0.750000  1
  Er  Er7  1  0.666666  0.333332  0.249999  1
