# generated using pymatgen
data_V2Se2O11
_symmetry_space_group_name_H-M   'P 1'
_cell_length_a   8.35097671
_cell_length_b   8.35097671
_cell_length_c   9.75653555
_cell_angle_alpha   68.73235406
_cell_angle_beta   111.26764594
_cell_angle_gamma   140.16015794
_symmetry_Int_Tables_number   1
_chemical_formula_structural   V2Se2O11
_chemical_formula_sum   'V4 Se4 O22'
_cell_volume   402.15214931
_cell_formula_units_Z   2
loop_
 _symmetry_equiv_pos_site_id
 _symmetry_equiv_pos_as_xyz
  1  'x, y, z'
loop_
 _atom_site_type_symbol
 _atom_site_label
 _atom_site_symmetry_multiplicity
 _atom_site_fract_x
 _atom_site_fract_y
 _atom_site_fract_z
 _atom_site_occupancy
  V  V0  1  0.801904  0.045219  0.710480  1
  V  V1  1  0.045220  0.801904  0.789520  1
  V  V2  1  0.198096  0.954780  0.289520  1
  V  V3  1  0.954780  0.198096  0.210480  1
  Se  Se4  1  0.235883  0.528615  0.906285  1
  Se  Se5  1  0.528615  0.235883  0.593715  1
  Se  Se6  1  0.764119  0.471386  0.093714  1
  Se  Se7  1  0.471386  0.764119  0.406285  1
  O  O8  1  0.096424  0.096425  0.250000  1
  O  O9  1  0.903574  0.903574  0.750000  1
  O  O10  1  0.953977  0.270109  0.578644  1
  O  O11  1  0.270109  0.953976  0.921356  1
  O  O12  1  0.046023  0.729890  0.421356  1
  O  O13  1  0.729890  0.046024  0.078644  1
  O  O14  1  0.221230  0.514225  0.079599  1
  O  O15  1  0.514225  0.221231  0.420400  1
  O  O16  1  0.778770  0.485774  0.920400  1
  O  O17  1  0.485774  0.778770  0.579600  1
  O  O18  1  0.043501  0.228000  0.883870  1
  O  O19  1  0.228000  0.043501  0.616132  1
  O  O20  1  0.956499  0.771999  0.116130  1
  O  O21  1  0.772000  0.956499  0.383869  1
  O  O22  1  0.110541  0.620823  0.776413  1
  O  O23  1  0.620823  0.110540  0.723588  1
  O  O24  1  0.889461  0.379179  0.223587  1
  O  O25  1  0.379179  0.889461  0.276412  1
  O  O26  1  0.527116  0.708879  0.889561  1
  O  O27  1  0.708878  0.527116  0.610438  1
  O  O28  1  0.472886  0.291122  0.110438  1
  O  O29  1  0.291123  0.472886  0.389562  1
