# generated using pymatgen
data_Rb2Sr2(CO3)3
_symmetry_space_group_name_H-M   'P 1'
_cell_length_a   8.61223806
_cell_length_b   8.61223806
_cell_length_c   8.61223806
_cell_angle_alpha   109.47122063
_cell_angle_beta   109.47122063
_cell_angle_gamma   109.47122063
_symmetry_Int_Tables_number   1
_chemical_formula_structural   Rb2Sr2(CO3)3
_chemical_formula_sum   'Rb4 Sr4 C6 O18'
_cell_volume   491.72941347
_cell_formula_units_Z   2
loop_
 _symmetry_equiv_pos_site_id
 _symmetry_equiv_pos_as_xyz
  1  'x, y, z'
loop_
 _atom_site_type_symbol
 _atom_site_label
 _atom_site_symmetry_multiplicity
 _atom_site_fract_x
 _atom_site_fract_y
 _atom_site_fract_z
 _atom_site_occupancy
  Rb  Rb0  1  0.869568  0.869568  0.869568  1
  Rb  Rb1  1  0.500001  0.000000  0.630432  1
  Rb  Rb2  1  0.630432  0.500001  0.000000  1
  Rb  Rb3  1  0.000000  0.630432  0.500001  1
  Sr  Sr4  1  0.423771  0.423771  0.423771  1
  Sr  Sr5  1  0.500000  0.000000  0.076229  1
  Sr  Sr6  1  0.076229  0.500000  0.000000  1
  Sr  Sr7  1  0.000000  0.076229  0.500000  1
  C  C8  1  0.583513  0.750000  0.333511  1
  C  C9  1  0.916489  0.250001  0.166488  1
  C  C10  1  0.333511  0.583513  0.750000  1
  C  C11  1  0.750000  0.333511  0.583513  1
  C  C12  1  0.250001  0.166488  0.916489  1
  C  C13  1  0.166488  0.916489  0.250001  1
  O  O14  1  0.715832  0.750000  0.465830  1
  O  O15  1  0.784168  0.250001  0.034168  1
  O  O16  1  0.465830  0.715832  0.750000  1
  O  O17  1  0.750000  0.465830  0.715832  1
  O  O18  1  0.250001  0.034168  0.784168  1
  O  O19  1  0.034168  0.784168  0.250001  1
  O  O20  1  0.410558  0.670751  0.301048  1
  O  O21  1  0.869702  0.109510  0.198951  1
  O  O22  1  0.089443  0.390491  0.260192  1
  O  O23  1  0.630297  0.829249  0.239807  1
  O  O24  1  0.301048  0.410558  0.670751  1
  O  O25  1  0.670751  0.301048  0.410558  1
  O  O26  1  0.239807  0.630297  0.829249  1
  O  O27  1  0.109510  0.198951  0.869702  1
  O  O28  1  0.198951  0.869702  0.109510  1
  O  O29  1  0.390491  0.260192  0.089443  1
  O  O30  1  0.260192  0.089443  0.390491  1
  O  O31  1  0.829249  0.239807  0.630297  1
