# generated using pymatgen
data_KGd(CO3)2
_symmetry_space_group_name_H-M   'P 1'
_cell_length_a   6.49848306
_cell_length_b   6.49848306
_cell_length_c   7.12025625
_cell_angle_alpha   103.50301627
_cell_angle_beta   103.50301624
_cell_angle_gamma   97.43116130
_symmetry_Int_Tables_number   1
_chemical_formula_structural   KGd(CO3)2
_chemical_formula_sum   'K2 Gd2 C4 O12'
_cell_volume   278.86964143
_cell_formula_units_Z   2
loop_
 _symmetry_equiv_pos_site_id
 _symmetry_equiv_pos_as_xyz
  1  'x, y, z'
loop_
 _atom_site_type_symbol
 _atom_site_label
 _atom_site_symmetry_multiplicity
 _atom_site_fract_x
 _atom_site_fract_y
 _atom_site_fract_z
 _atom_site_occupancy
  C  C0  1  0.144088  0.392713  0.246490  1
  C  C1  1  0.607287  0.855912  0.253510  1
  C  C2  1  0.855912  0.607287  0.753510  1
  C  C3  1  0.392713  0.144088  0.746490  1
  O  O4  1  0.404433  0.945616  0.725661  1
  O  O5  1  0.054384  0.595567  0.774339  1
  O  O6  1  0.595567  0.054384  0.274339  1
  O  O7  1  0.945616  0.404433  0.225661  1
  O  O8  1  0.252567  0.207270  0.621726  1
  O  O9  1  0.792730  0.747433  0.878274  1
  O  O10  1  0.747433  0.792730  0.378274  1
  O  O11  1  0.207270  0.252567  0.121726  1
  O  O12  1  0.530510  0.297349  0.894505  1
  O  O13  1  0.702651  0.469490  0.605495  1
  O  O14  1  0.469490  0.702651  0.105495  1
  O  O15  1  0.297349  0.530510  0.394505  1
  K  K16  1  0.878036  0.121964  0.750000  1
  K  K17  1  0.121964  0.878036  0.250000  1
  Gd  Gd18  1  0.404793  0.595207  0.750000  1
  Gd  Gd19  1  0.595207  0.404793  0.250000  1
