# generated using pymatgen
data_LaReN3
_symmetry_space_group_name_H-M   'P 1'
_cell_length_a   5.37465401
_cell_length_b   19.88743503
_cell_length_c   9.77173782
_cell_angle_alpha   159.38610051
_cell_angle_beta   90.00000000
_cell_angle_gamma   90.00000000
_symmetry_Int_Tables_number   1
_chemical_formula_structural   LaReN3
_chemical_formula_sum   'La4 Re4 N12'
_cell_volume   367.72955109
_cell_formula_units_Z   4
loop_
 _symmetry_equiv_pos_site_id
 _symmetry_equiv_pos_as_xyz
  1  'x, y, z'
loop_
 _atom_site_type_symbol
 _atom_site_label
 _atom_site_symmetry_multiplicity
 _atom_site_fract_x
 _atom_site_fract_y
 _atom_site_fract_z
 _atom_site_occupancy
  La  La0  1  0.208405  0.111821  0.890352  1
  La  La1  1  0.791595  0.888179  0.109648  1
  La  La2  1  0.291595  0.611821  0.390352  1
  La  La3  1  0.708405  0.388179  0.609648  1
  Re  Re4  1  0.220219  0.587144  0.682383  1
  Re  Re5  1  0.279781  0.087144  0.182383  1
  Re  Re6  1  0.720219  0.912856  0.817617  1
  Re  Re7  1  0.779781  0.412856  0.317617  1
  N  N8  1  0.806233  0.172015  0.809333  1
  N  N9  1  0.020486  0.914009  0.946242  1
  N  N10  1  0.306233  0.327985  0.690667  1
  N  N11  1  0.002004  0.436539  0.524528  1
  N  N12  1  0.693767  0.672015  0.309333  1
  N  N13  1  0.997996  0.563461  0.475472  1
  N  N14  1  0.502004  0.063461  0.975472  1
  N  N15  1  0.979514  0.085991  0.053758  1
  N  N16  1  0.497996  0.936539  0.024528  1
  N  N17  1  0.193767  0.827985  0.190667  1
  N  N18  1  0.479514  0.414009  0.446242  1
  N  N19  1  0.520486  0.585991  0.553758  1
