# generated using pymatgen
data_Si3As
_symmetry_space_group_name_H-M   'P 1'
_cell_length_a   5.65857487
_cell_length_b   5.65857480
_cell_length_c   4.63294361
_cell_angle_alpha   90.00000000
_cell_angle_beta   90.00000000
_cell_angle_gamma   119.99998864
_symmetry_Int_Tables_number   1
_chemical_formula_structural   Si3As
_chemical_formula_sum   'Si6 As2'
_cell_volume   128.47002941
_cell_formula_units_Z   2
loop_
 _symmetry_equiv_pos_site_id
 _symmetry_equiv_pos_as_xyz
  1  'x, y, z'
loop_
 _atom_site_type_symbol
 _atom_site_label
 _atom_site_symmetry_multiplicity
 _atom_site_fract_x
 _atom_site_fract_y
 _atom_site_fract_z
 _atom_site_occupancy
  Si  Si0  1  0.157663  0.315326  0.249999  1
  Si  Si1  1  0.684674  0.842337  0.249999  1
  Si  Si2  1  0.157663  0.842337  0.249999  1
  Si  Si3  1  0.842335  0.684673  0.750000  1
  Si  Si4  1  0.315324  0.157662  0.750000  1
  Si  Si5  1  0.842336  0.157662  0.750000  1
  As  As6  1  0.333333  0.666666  0.750000  1
  As  As7  1  0.666667  0.333333  0.249999  1
