# generated using pymatgen
data_AgAsO2
_symmetry_space_group_name_H-M   'P 1'
_cell_length_a   4.59789044
_cell_length_b   5.27788000
_cell_length_c   6.91504926
_cell_angle_alpha   109.01904481
_cell_angle_beta   89.99999479
_cell_angle_gamma   115.82228733
_symmetry_Int_Tables_number   1
_chemical_formula_structural   AgAsO2
_chemical_formula_sum   'Ag2 As2 O4'
_cell_volume   140.80601656
_cell_formula_units_Z   2
loop_
 _symmetry_equiv_pos_site_id
 _symmetry_equiv_pos_as_xyz
  1  'x, y, z'
loop_
 _atom_site_type_symbol
 _atom_site_label
 _atom_site_symmetry_multiplicity
 _atom_site_fract_x
 _atom_site_fract_y
 _atom_site_fract_z
 _atom_site_occupancy
  Ag  Ag0  1  0.364150  0.766600  0.171800  1
  Ag  Ag1  1  0.597550  0.233400  0.828200  1
  As  As2  1  0.258930  0.669220  0.667770  1
  As  As3  1  0.589710  0.330780  0.332230  1
  O  O4  1  0.203080  0.451900  0.819750  1
  O  O5  1  0.751180  0.548100  0.180250  1
  O  O6  1  0.828280  0.574420  0.596940  1
  O  O7  1  0.253860  0.425580  0.403060  1
