# generated using pymatgen
data_RbYbS2
_symmetry_space_group_name_H-M   'P 1'
_cell_length_a   7.86836132
_cell_length_b   7.86836132
_cell_length_c   7.86836132
_cell_angle_alpha   31.21742146
_cell_angle_beta   31.21742140
_cell_angle_gamma   31.21742149
_symmetry_Int_Tables_number   1
_chemical_formula_structural   RbYbS2
_chemical_formula_sum   'Rb1 Yb1 S2'
_cell_volume   116.12322647
_cell_formula_units_Z   1
loop_
 _symmetry_equiv_pos_site_id
 _symmetry_equiv_pos_as_xyz
  1  'x, y, z'
loop_
 _atom_site_type_symbol
 _atom_site_label
 _atom_site_symmetry_multiplicity
 _atom_site_fract_x
 _atom_site_fract_y
 _atom_site_fract_z
 _atom_site_occupancy
  S  S0  1  0.770092  0.770092  0.770092  1
  S  S1  1  0.229908  0.229908  0.229908  1
  Rb  Rb2  1  0.000000  0.000000  0.000000  1
  Yb  Yb3  1  0.500000  0.500000  0.500000  1
