# generated using pymatgen
data_Na(Mg4Al3)4
_symmetry_space_group_name_H-M   'P 1'
_cell_length_a   9.19587905
_cell_length_b   9.17227139
_cell_length_c   9.13720041
_cell_angle_alpha   109.51188108
_cell_angle_beta   109.61662031
_cell_angle_gamma   109.50262088
_symmetry_Int_Tables_number   1
_chemical_formula_structural   Na(Mg4Al3)4
_chemical_formula_sum   'Na1 Mg16 Al12'
_cell_volume   591.68419986
_cell_formula_units_Z   1
loop_
 _symmetry_equiv_pos_site_id
 _symmetry_equiv_pos_as_xyz
  1  'x, y, z'
loop_
 _atom_site_type_symbol
 _atom_site_label
 _atom_site_symmetry_multiplicity
 _atom_site_fract_x
 _atom_site_fract_y
 _atom_site_fract_z
 _atom_site_occupancy
  Na  Na0  1  0.595705  0.315982  0.000007  1
  Mg  Mg1  1  0.315683  0.601705  0.000001  1
  Mg  Mg2  1  0.998630  0.999247  0.999993  1
  Mg  Mg3  1  0.338741  0.997169  0.000002  1
  Mg  Mg4  1  0.999233  0.342694  0.999995  1
  Mg  Mg5  1  0.684100  0.686382  0.288739  1
  Mg  Mg6  1  0.601977  0.000036  0.314571  1
  Mg  Mg7  1  0.000471  0.602642  0.315240  1
  Mg  Mg8  1  0.000128  0.000389  0.344579  1
  Mg  Mg9  1  0.397753  0.713864  0.398023  1
  Mg  Mg10  1  0.715752  0.398741  0.401042  1
  Mg  Mg11  1  0.314704  0.997683  0.598948  1
  Mg  Mg12  1  0.999733  0.315843  0.601987  1
  Mg  Mg13  1  0.655538  0.655808  0.655414  1
  Mg  Mg14  1  0.685240  0.287398  0.684754  1
  Mg  Mg15  1  0.287410  0.685481  0.685440  1
  Mg  Mg16  1  0.395375  0.397664  0.711268  1
  Al  Al17  1  0.633924  0.812100  0.000004  1
  Al  Al18  1  0.821372  0.640600  0.000000  1
  Al  Al19  1  0.363562  0.367936  0.183069  1
  Al  Al20  1  0.187955  0.820990  0.186581  1
  Al  Al21  1  0.822888  0.182752  0.187553  1
  Al  Al22  1  0.367761  0.181824  0.366764  1
  Al  Al23  1  0.182475  0.366167  0.366820  1
  Al  Al24  1  0.815672  0.999364  0.633183  1
  Al  Al25  1  0.000998  0.815058  0.633223  1
  Al  Al26  1  0.635351  0.995205  0.812425  1
  Al  Al27  1  0.001387  0.634411  0.813424  1
  Al  Al28  1  0.180485  0.184870  0.816954  1
