# generated using pymatgen
data_H4C6O
_symmetry_space_group_name_H-M   'P 1'
_cell_length_a   5.59623805
_cell_length_b   8.13218927
_cell_length_c   9.72498033
_cell_angle_alpha   90.00000000
_cell_angle_beta   90.00000000
_cell_angle_gamma   90.00000000
_symmetry_Int_Tables_number   1
_chemical_formula_structural   H4C6O
_chemical_formula_sum   'H16 C24 O4'
_cell_volume   442.58061662
_cell_formula_units_Z   4
loop_
 _symmetry_equiv_pos_site_id
 _symmetry_equiv_pos_as_xyz
  1  'x, y, z'
loop_
 _atom_site_type_symbol
 _atom_site_label
 _atom_site_symmetry_multiplicity
 _atom_site_fract_x
 _atom_site_fract_y
 _atom_site_fract_z
 _atom_site_occupancy
  H  H0  1  0.634497  0.170244  0.534277  1
  H  H1  1  0.865503  0.329756  0.034277  1
  H  H2  1  0.634497  0.829756  0.965723  1
  H  H3  1  0.865503  0.670244  0.465723  1
  H  H4  1  0.365503  0.829756  0.465723  1
  H  H5  1  0.134497  0.670244  0.965723  1
  H  H6  1  0.365503  0.170244  0.034277  1
  H  H7  1  0.134497  0.329756  0.534277  1
  H  H8  1  0.842572  0.170727  0.308065  1
  H  H9  1  0.657428  0.329273  0.808065  1
  H  H10  1  0.842572  0.829273  0.191935  1
  H  H11  1  0.657428  0.670727  0.691935  1
  H  H12  1  0.157428  0.829273  0.691935  1
  H  H13  1  0.342572  0.670727  0.191935  1
  H  H14  1  0.157428  0.170727  0.808065  1
  H  H15  1  0.342572  0.329273  0.308065  1
  C  C16  1  0.909597  0.094706  0.391656  1
  C  C17  1  0.590403  0.405294  0.891656  1
  C  C18  1  0.909597  0.905294  0.108344  1
  C  C19  1  0.590403  0.594706  0.608344  1
  C  C20  1  0.090403  0.905294  0.608344  1
  C  C21  1  0.409597  0.594706  0.108344  1
  C  C22  1  0.090403  0.094706  0.891656  1
  C  C23  1  0.409597  0.405294  0.391656  1
  C  C24  1  0.885472  0.001312  0.627168  1
  C  C25  1  0.614528  0.498688  0.127168  1
  C  C26  1  0.885472  0.998688  0.872832  1
  C  C27  1  0.614528  0.501312  0.372832  1
  C  C28  1  0.114528  0.998688  0.372832  1
  C  C29  1  0.385472  0.501312  0.872832  1
  C  C30  1  0.114528  0.001312  0.127168  1
  C  C31  1  0.385472  0.498688  0.627168  1
  C  C32  1  0.794060  0.095790  0.519050  1
  C  C33  1  0.705940  0.404210  0.019050  1
  C  C34  1  0.794060  0.904210  0.980950  1
  C  C35  1  0.705940  0.595790  0.480950  1
  C  C36  1  0.205940  0.904210  0.480950  1
  C  C37  1  0.294060  0.595790  0.980950  1
  C  C38  1  0.205940  0.095790  0.019050  1
  C  C39  1  0.294060  0.404210  0.519050  1
  O  O40  1  0.757185  -0.000000  0.750000  1
  O  O41  1  0.742815  0.500000  0.250000  1
  O  O42  1  0.242815  -0.000000  0.250000  1
  O  O43  1  0.257185  0.500000  0.750000  1
