# generated using pymatgen
data_KAgBr3
_symmetry_space_group_name_H-M   'P 1'
_cell_length_a   5.41634151
_cell_length_b   5.41708632
_cell_length_c   5.42011560
_cell_angle_alpha   90.14374929
_cell_angle_beta   90.01498965
_cell_angle_gamma   90.07024186
_symmetry_Int_Tables_number   1
_chemical_formula_structural   KAgBr3
_chemical_formula_sum   'K1 Ag1 Br3'
_cell_volume   159.02984528
_cell_formula_units_Z   1
loop_
 _symmetry_equiv_pos_site_id
 _symmetry_equiv_pos_as_xyz
  1  'x, y, z'
loop_
 _atom_site_type_symbol
 _atom_site_label
 _atom_site_symmetry_multiplicity
 _atom_site_fract_x
 _atom_site_fract_y
 _atom_site_fract_z
 _atom_site_occupancy
  K  K0  1  0.000701  0.001396  0.000037  1
  Ag  Ag1  1  0.500397  0.514687  0.503605  1
  Br  Br2  1  0.000294  0.515677  0.507172  1
  Br  Br3  1  0.495719  0.014711  0.495708  1
  Br  Br4  1  0.502888  0.513530  0.003478  1
