# generated using pymatgen
data_K(ThSe3)2
_symmetry_space_group_name_H-M   'P 1'
_cell_length_a   4.24909504
_cell_length_b   5.58703801
_cell_length_c   11.75909672
_cell_angle_alpha   103.74271463
_cell_angle_beta   100.40894397
_cell_angle_gamma   90.00000001
_symmetry_Int_Tables_number   1
_chemical_formula_structural   K(ThSe3)2
_chemical_formula_sum   'K1 Th2 Se6'
_cell_volume   266.43575766
_cell_formula_units_Z   1
loop_
 _symmetry_equiv_pos_site_id
 _symmetry_equiv_pos_as_xyz
  1  'x, y, z'
loop_
 _atom_site_type_symbol
 _atom_site_label
 _atom_site_symmetry_multiplicity
 _atom_site_fract_x
 _atom_site_fract_y
 _atom_site_fract_z
 _atom_site_occupancy
  K  K0  1  0.000000  0.000000  0.000000  1
  Se  Se1  1  0.228281  0.228281  0.456562  1
  Se  Se2  1  0.604790  0.358694  0.209580  1
  Se  Se3  1  0.395210  0.641306  0.790420  1
  Se  Se4  1  0.395210  0.149115  0.790420  1
  Se  Se5  1  0.604790  0.850885  0.209580  1
  Se  Se6  1  0.771719  0.771719  0.543438  1
  Th  Th7  1  0.821854  0.321854  0.643708  1
  Th  Th8  1  0.178146  0.678146  0.356292  1
