# generated using pymatgen
data_U3Sb4Rh3
_symmetry_space_group_name_H-M   'P 1'
_cell_length_a   8.29843701
_cell_length_b   8.29843701
_cell_length_c   8.29843701
_cell_angle_alpha   109.47122063
_cell_angle_beta   109.47122063
_cell_angle_gamma   109.47122063
_symmetry_Int_Tables_number   1
_chemical_formula_structural   U3Sb4Rh3
_chemical_formula_sum   'U6 Sb8 Rh6'
_cell_volume   439.91322088
_cell_formula_units_Z   2
loop_
 _symmetry_equiv_pos_site_id
 _symmetry_equiv_pos_as_xyz
  1  'x, y, z'
loop_
 _atom_site_type_symbol
 _atom_site_label
 _atom_site_symmetry_multiplicity
 _atom_site_fract_x
 _atom_site_fract_y
 _atom_site_fract_z
 _atom_site_occupancy
  U  U0  1  0.874999  0.124999  0.750000  1
  U  U1  1  0.124999  0.750000  0.874999  1
  U  U2  1  0.625001  0.375001  0.250000  1
  U  U3  1  0.375001  0.250000  0.625001  1
  U  U4  1  0.750000  0.874999  0.124999  1
  U  U5  1  0.250000  0.625001  0.375001  1
  Sb  Sb6  1  0.824797  0.500000  0.000000  1
  Sb  Sb7  1  -0.000000  0.824797  0.500000  1
  Sb  Sb8  1  0.500000  -0.000000  0.824797  1
  Sb  Sb9  1  0.675203  0.675203  0.675203  1
  Sb  Sb10  1  -0.000000  0.324795  0.500000  1
  Sb  Sb11  1  0.324795  0.500000  0.000000  1
  Sb  Sb12  1  0.500000  0.000000  0.324795  1
  Sb  Sb13  1  0.175205  0.175205  0.175205  1
  Rh  Rh14  1  0.624999  0.750000  0.374999  1
  Rh  Rh15  1  0.374999  0.624999  0.750000  1
  Rh  Rh16  1  0.125001  0.875001  0.250000  1
  Rh  Rh17  1  0.875001  0.250000  0.125001  1
  Rh  Rh18  1  0.750000  0.374999  0.624999  1
  Rh  Rh19  1  0.250000  0.125001  0.875001  1
