# generated using pymatgen
data_Hf3Si3Ni2
_symmetry_space_group_name_H-M   'P 1'
_cell_length_a   3.84207336
_cell_length_b   5.29393776
_cell_length_c   12.91736416
_cell_angle_alpha   90.00000000
_cell_angle_beta   90.00000000
_cell_angle_gamma   111.27685351
_symmetry_Int_Tables_number   1
_chemical_formula_structural   Hf3Si3Ni2
_chemical_formula_sum   'Hf6 Si6 Ni4'
_cell_volume   244.82668770
_cell_formula_units_Z   2
loop_
 _symmetry_equiv_pos_site_id
 _symmetry_equiv_pos_as_xyz
  1  'x, y, z'
loop_
 _atom_site_type_symbol
 _atom_site_label
 _atom_site_symmetry_multiplicity
 _atom_site_fract_x
 _atom_site_fract_y
 _atom_site_fract_z
 _atom_site_occupancy
  Si  Si0  1  0.160487  0.320974  0.250000  1
  Si  Si1  1  0.839513  0.679026  0.750000  1
  Si  Si2  1  0.111474  0.222947  0.540700  1
  Si  Si3  1  0.888526  0.777053  0.459300  1
  Si  Si4  1  0.888526  0.777053  0.040700  1
  Si  Si5  1  0.111474  0.222947  0.959300  1
  Ni  Ni6  1  0.719106  0.438212  0.911325  1
  Ni  Ni7  1  0.280894  0.561788  0.088675  1
  Ni  Ni8  1  0.280894  0.561788  0.411325  1
  Ni  Ni9  1  0.719106  0.438212  0.588675  1
  Hf  Hf10  1  0.865967  0.731933  0.250000  1
  Hf  Hf11  1  0.134033  0.268067  0.750000  1
  Hf  Hf12  1  0.427389  0.854777  0.618011  1
  Hf  Hf13  1  0.572611  0.145223  0.381989  1
  Hf  Hf14  1  0.572611  0.145223  0.118011  1
  Hf  Hf15  1  0.427389  0.854777  0.881989  1
