# generated using pymatgen
data_SiH8
_symmetry_space_group_name_H-M   'P 1'
_cell_length_a   5.11915187
_cell_length_b   5.11915187
_cell_length_c   5.11915187
_cell_angle_alpha   119.33999129
_cell_angle_beta   119.33999129
_cell_angle_gamma   91.14702133
_symmetry_Int_Tables_number   1
_chemical_formula_structural   SiH8
_chemical_formula_sum   'Si1 H8'
_cell_volume   95.78465102
_cell_formula_units_Z   1
loop_
 _symmetry_equiv_pos_site_id
 _symmetry_equiv_pos_as_xyz
  1  'x, y, z'
loop_
 _atom_site_type_symbol
 _atom_site_label
 _atom_site_symmetry_multiplicity
 _atom_site_fract_x
 _atom_site_fract_y
 _atom_site_fract_z
 _atom_site_occupancy
  Si  Si0  1  -0.000000  0.000000  0.000000  1
  H  H1  1  0.447387  0.447387  0.000000  1
  H  H2  1  0.552612  0.552612  0.000000  1
  H  H3  1  0.697697  0.197695  0.500002  1
  H  H4  1  0.802307  0.302305  0.500002  1
  H  H5  1  0.118827  0.355617  0.236791  1
  H  H6  1  0.118827  0.882038  0.763211  1
  H  H7  1  0.644383  0.881175  0.763211  1
  H  H8  1  0.117964  0.881175  0.236793  1
