# generated using pymatgen
data_Ho2Co3Si5
_symmetry_space_group_name_H-M   'P 1'
_cell_length_a   7.87289241
_cell_length_b   7.87289241
_cell_length_c   7.87289241
_cell_angle_alpha   105.49971995
_cell_angle_beta   88.74041678
_cell_angle_gamma   139.00339366
_symmetry_Int_Tables_number   1
_chemical_formula_structural   Ho2Co3Si5
_chemical_formula_sum   'Ho4 Co6 Si10'
_cell_volume   295.75237305
_cell_formula_units_Z   2
loop_
 _symmetry_equiv_pos_site_id
 _symmetry_equiv_pos_as_xyz
  1  'x, y, z'
loop_
 _atom_site_type_symbol
 _atom_site_label
 _atom_site_symmetry_multiplicity
 _atom_site_fract_x
 _atom_site_fract_y
 _atom_site_fract_z
 _atom_site_occupancy
  Ho  Ho0  1  0.865477  0.733270  0.598749  1
  Ho  Ho1  1  0.365477  0.766729  0.132207  1
  Ho  Ho2  1  0.634522  0.233271  0.867793  1
  Ho  Ho3  1  0.134522  0.266729  0.401252  1
  Co  Co4  1  0.250001  0.250001  -0.000000  1
  Co  Co5  1  0.750000  0.750000  -0.000000  1
  Co  Co6  1  0.861679  0.391694  0.253375  1
  Co  Co7  1  0.638320  0.891694  0.530016  1
  Co  Co8  1  0.361680  0.108305  0.469984  1
  Co  Co9  1  0.138320  0.608304  0.746624  1
  Si  Si10  1  0.024250  0.249999  0.774251  1
  Si  Si11  1  0.975748  0.750000  0.225748  1
  Si  Si12  1  0.524252  0.750001  0.774251  1
  Si  Si13  1  0.100191  0.840793  0.940984  1
  Si  Si14  1  0.899809  0.159206  0.059016  1
  Si  Si15  1  0.250001  0.750001  0.500000  1
  Si  Si16  1  0.750001  0.250001  0.500000  1
  Si  Si17  1  0.399809  0.340793  0.740604  1
  Si  Si18  1  0.600190  0.659207  0.259398  1
  Si  Si19  1  0.475749  0.250001  0.225748  1
