# generated using pymatgen
data_Sr2LiTaN3F
_symmetry_space_group_name_H-M   'P 1'
_cell_length_a   10.83687012
_cell_length_b   5.66552322
_cell_length_c   16.00329361
_cell_angle_alpha   90.00000000
_cell_angle_beta   90.00000000
_cell_angle_gamma   90.00000000
_symmetry_Int_Tables_number   1
_chemical_formula_structural   Sr2LiTaN3F
_chemical_formula_sum   'Sr16 Li8 Ta8 N24 F8'
_cell_volume   982.54684501
_cell_formula_units_Z   8
loop_
 _symmetry_equiv_pos_site_id
 _symmetry_equiv_pos_as_xyz
  1  'x, y, z'
loop_
 _atom_site_type_symbol
 _atom_site_label
 _atom_site_symmetry_multiplicity
 _atom_site_fract_x
 _atom_site_fract_y
 _atom_site_fract_z
 _atom_site_occupancy
  Sr  Sr0  1  0.129542  0.218087  0.715808  1
  Sr  Sr1  1  0.370458  0.781912  0.215807  1
  Sr  Sr2  1  0.629542  0.281913  0.284193  1
  Sr  Sr3  1  0.870458  0.718088  0.784192  1
  Sr  Sr4  1  0.870458  0.781912  0.284193  1
  Sr  Sr5  1  0.629542  0.218087  0.784192  1
  Sr  Sr6  1  0.370458  0.718088  0.715808  1
  Sr  Sr7  1  0.129542  0.281913  0.215807  1
  Sr  Sr8  1  0.949974  0.292615  0.414938  1
  Sr  Sr9  1  0.550026  0.707386  0.914937  1
  Sr  Sr10  1  0.449974  0.207386  0.585063  1
  Sr  Sr11  1  0.050026  0.792613  0.085062  1
  Sr  Sr12  1  0.050026  0.707386  0.585063  1
  Sr  Sr13  1  0.449974  0.292615  0.085062  1
  Sr  Sr14  1  0.550026  0.792613  0.414938  1
  Sr  Sr15  1  0.949974  0.207386  0.914937  1
  Li  Li16  1  0.834508  0.787919  0.479479  1
  Li  Li17  1  0.665492  0.212080  0.979479  1
  Li  Li18  1  0.334508  0.712081  0.520521  1
  Li  Li19  1  0.165492  0.287920  0.020521  1
  Li  Li20  1  0.165492  0.212080  0.520521  1
  Li  Li21  1  0.334508  0.787919  0.020521  1
  Li  Li22  1  0.665492  0.287920  0.479479  1
  Li  Li23  1  0.834508  0.712081  0.979479  1
  Ta  Ta24  1  0.844441  0.165331  0.634762  1
  Ta  Ta25  1  0.655558  0.834669  0.134763  1
  Ta  Ta26  1  0.344441  0.334668  0.365238  1
  Ta  Ta27  1  0.155558  0.665331  0.865238  1
  Ta  Ta28  1  0.155558  0.834669  0.365238  1
  Ta  Ta29  1  0.344441  0.165331  0.865238  1
  Ta  Ta30  1  0.655558  0.665331  0.634762  1
  Ta  Ta31  1  0.844441  0.334668  0.134763  1
  N  N32  1  0.882204  0.194276  0.751890  1
  N  N33  1  0.617797  0.805723  0.251890  1
  N  N34  1  0.382204  0.305724  0.248110  1
  N  N35  1  0.117797  0.694275  0.748110  1
  N  N36  1  0.117797  0.805723  0.248110  1
  N  N37  1  0.382204  0.194276  0.748110  1
  N  N38  1  0.617797  0.694275  0.751890  1
  N  N39  1  0.882204  0.305724  0.251890  1
  N  N40  1  0.993055  0.251998  0.575394  1
  N  N41  1  0.506946  0.748001  0.075394  1
  N  N42  1  0.493055  0.248000  0.424607  1
  N  N43  1  0.006946  0.751999  0.924606  1
  N  N44  1  0.006946  0.748001  0.424607  1
  N  N45  1  0.493055  0.251998  0.924606  1
  N  N46  1  0.506946  0.751999  0.575394  1
  N  N47  1  0.993055  0.248000  0.075394  1
  N  N48  1  0.820292  0.821845  0.612808  1
  N  N49  1  0.679709  0.178154  0.112808  1
  N  N50  1  0.320292  0.678155  0.387192  1
  N  N51  1  0.179709  0.321845  0.887192  1
  N  N52  1  0.179709  0.178154  0.387192  1
  N  N53  1  0.320292  0.821845  0.887192  1
  N  N54  1  0.679709  0.321845  0.612808  1
  N  N55  1  0.820292  0.678155  0.112808  1
  F  F56  1  0.754918  0.037832  0.418555  1
  F  F57  1  0.745081  0.962167  0.918556  1
  F  F58  1  0.254918  0.462167  0.581444  1
  F  F59  1  0.245082  0.537833  0.081445  1
  F  F60  1  0.245082  0.962167  0.581444  1
  F  F61  1  0.254918  0.037832  0.081445  1
  F  F62  1  0.745081  0.537833  0.418555  1
  F  F63  1  0.754918  0.462167  0.918556  1
