# generated using pymatgen
data_RbMgPO4
_symmetry_space_group_name_H-M   'P 1'
_cell_length_a   8.77967477
_cell_length_b   9.37891564
_cell_length_c   5.47236068
_cell_angle_alpha   90.00000000
_cell_angle_beta   90.00000000
_cell_angle_gamma   90.00000000
_symmetry_Int_Tables_number   1
_chemical_formula_structural   RbMgPO4
_chemical_formula_sum   'Rb4 Mg4 P4 O16'
_cell_volume   450.61513214
_cell_formula_units_Z   4
loop_
 _symmetry_equiv_pos_site_id
 _symmetry_equiv_pos_as_xyz
  1  'x, y, z'
loop_
 _atom_site_type_symbol
 _atom_site_label
 _atom_site_symmetry_multiplicity
 _atom_site_fract_x
 _atom_site_fract_y
 _atom_site_fract_z
 _atom_site_occupancy
  Rb  Rb0  1  0.496747  0.222015  0.232425  1
  Rb  Rb1  1  0.996746  0.277986  0.232425  1
  Rb  Rb2  1  0.003254  0.722015  0.732425  1
  Rb  Rb3  1  0.503254  0.777985  0.732425  1
  Mg  Mg4  1  0.312983  0.585163  0.248215  1
  Mg  Mg5  1  0.812984  0.914837  0.248215  1
  Mg  Mg6  1  0.187016  0.085163  0.748215  1
  Mg  Mg7  1  0.687016  0.414837  0.748215  1
  P  P8  1  0.709203  0.576804  0.245827  1
  P  P9  1  0.209202  0.923196  0.245827  1
  P  P10  1  0.790797  0.076804  0.745827  1
  P  P11  1  0.290798  0.423196  0.745827  1
  O  O12  1  0.776291  0.550774  0.986070  1
  O  O13  1  0.276291  0.949226  0.986070  1
  O  O14  1  0.533475  0.578118  0.229525  1
  O  O15  1  0.033475  0.921883  0.229525  1
  O  O16  1  0.765032  0.720928  0.351927  1
  O  O17  1  0.265031  0.779072  0.351927  1
  O  O18  1  0.262887  0.045250  0.418212  1
  O  O19  1  0.762888  0.454750  0.418212  1
  O  O20  1  0.723709  0.050774  0.486070  1
  O  O21  1  0.223710  0.449226  0.486070  1
  O  O22  1  0.966525  0.078117  0.729526  1
  O  O23  1  0.466526  0.421882  0.729526  1
  O  O24  1  0.734968  0.220927  0.851927  1
  O  O25  1  0.234968  0.279073  0.851927  1
  O  O26  1  0.237113  0.545250  0.918212  1
  O  O27  1  0.737112  0.954750  0.918212  1
