# generated using pymatgen
data_Nd2O5
_symmetry_space_group_name_H-M   'P 1'
_cell_length_a   5.66108079
_cell_length_b   6.04687006
_cell_length_c   7.41450771
_cell_angle_alpha   118.12223537
_cell_angle_beta   112.44255940
_cell_angle_gamma   90.00000081
_symmetry_Int_Tables_number   1
_chemical_formula_structural   Nd2O5
_chemical_formula_sum   'Nd4 O10'
_cell_volume   201.79047940
_cell_formula_units_Z   2
loop_
 _symmetry_equiv_pos_site_id
 _symmetry_equiv_pos_as_xyz
  1  'x, y, z'
loop_
 _atom_site_type_symbol
 _atom_site_label
 _atom_site_symmetry_multiplicity
 _atom_site_fract_x
 _atom_site_fract_y
 _atom_site_fract_z
 _atom_site_occupancy
  Nd  Nd0  1  0.681287  0.839218  0.781462  1
  Nd  Nd1  1  0.899826  0.660782  0.218538  1
  Nd  Nd2  1  0.318713  0.160782  0.218538  1
  Nd  Nd3  1  0.100174  0.339218  0.781462  1
  O  O4  1  0.383901  0.651668  0.376587  1
  O  O5  1  0.007313  0.848332  0.623413  1
  O  O6  1  0.616099  0.348332  0.623413  1
  O  O7  1  0.992687  0.151668  0.376587  1
  O  O8  1  0.945409  0.250000  0.000000  1
  O  O9  1  0.054591  0.750000  1.000000  1
  O  O10  1  0.476128  0.516188  0.195985  1
  O  O11  1  0.280142  0.983812  0.804015  1
  O  O12  1  0.523872  0.483812  0.804015  1
  O  O13  1  0.719858  0.016188  0.195985  1
