# generated using pymatgen
data_HoMgSn
_symmetry_space_group_name_H-M   'P 1'
_cell_length_a   4.38787495
_cell_length_b   4.38787495
_cell_length_c   8.52724671
_cell_angle_alpha   104.90905780
_cell_angle_beta   104.90905780
_cell_angle_gamma   90.00000000
_symmetry_Int_Tables_number   1
_chemical_formula_structural   HoMgSn
_chemical_formula_sum   'Ho2 Mg2 Sn2'
_cell_volume   152.92523482
_cell_formula_units_Z   2
loop_
 _symmetry_equiv_pos_site_id
 _symmetry_equiv_pos_as_xyz
  1  'x, y, z'
loop_
 _atom_site_type_symbol
 _atom_site_label
 _atom_site_symmetry_multiplicity
 _atom_site_fract_x
 _atom_site_fract_y
 _atom_site_fract_z
 _atom_site_occupancy
  Ho  Ho0  1  0.667631  0.667631  0.335262  1
  Ho  Ho1  1  0.332368  0.332368  0.664737  1
  Mg  Mg2  1  0.499999  0.000000  0.000000  1
  Mg  Mg3  1  0.000000  0.499999  0.000000  1
  Sn  Sn4  1  0.135826  0.135826  0.271652  1
  Sn  Sn5  1  0.864172  0.864172  0.728347  1
