# generated using pymatgen
data_SiGeN2O
_symmetry_space_group_name_H-M   'P 1'
_cell_length_a   9.18467785
_cell_length_b   5.00892261
_cell_length_c   5.39055528
_cell_angle_alpha   90.00005883
_cell_angle_beta   31.52424586
_cell_angle_gamma   90.00001976
_symmetry_Int_Tables_number   1
_chemical_formula_structural   SiGeN2O
_chemical_formula_sum   'Si2 Ge2 N4 O2'
_cell_volume   129.66614988
_cell_formula_units_Z   2
loop_
 _symmetry_equiv_pos_site_id
 _symmetry_equiv_pos_as_xyz
  1  'x, y, z'
loop_
 _atom_site_type_symbol
 _atom_site_label
 _atom_site_symmetry_multiplicity
 _atom_site_fract_x
 _atom_site_fract_y
 _atom_site_fract_z
 _atom_site_occupancy
  Si  Si0  1  0.165166  0.314439  0.316725  1
  Si  Si1  1  0.834834  0.814440  0.683275  1
  Ge  Ge2  1  0.519493  0.316131  0.304846  1
  Ge  Ge3  1  0.480507  0.816131  0.695155  1
  N  N4  1  0.586938  0.675126  0.239452  1
  N  N5  1  0.152785  0.654679  0.272512  1
  N  N6  1  0.847215  0.154678  0.727489  1
  N  N7  1  0.413062  0.175126  0.760549  1
  O  O8  1  0.248873  0.243623  0.483167  1
  O  O9  1  0.751126  0.743625  0.516834  1
