# generated using pymatgen
data_H2CO
_symmetry_space_group_name_H-M   'P 1'
_cell_length_a   6.48431381
_cell_length_b   7.54646577
_cell_length_c   7.54646577
_cell_angle_alpha   79.36344763
_cell_angle_beta   64.55618092
_cell_angle_gamma   64.55618092
_symmetry_Int_Tables_number   1
_chemical_formula_structural   H2CO
_chemical_formula_sum   'H16 C8 O8'
_cell_volume   301.11573913
_cell_formula_units_Z   8
loop_
 _symmetry_equiv_pos_site_id
 _symmetry_equiv_pos_as_xyz
  1  'x, y, z'
loop_
 _atom_site_type_symbol
 _atom_site_label
 _atom_site_symmetry_multiplicity
 _atom_site_fract_x
 _atom_site_fract_y
 _atom_site_fract_z
 _atom_site_occupancy
  H  H0  1  0.257155  0.158545  0.596963  1
  H  H1  1  0.012663  0.841455  0.403037  1
  H  H2  1  0.104118  0.903037  0.658545  1
  H  H3  1  0.665700  0.096963  0.341455  1
  H  H4  1  0.992845  0.341455  0.903037  1
  H  H5  1  0.237337  0.658545  0.096963  1
  H  H6  1  0.145882  0.596963  0.841455  1
  H  H7  1  0.584300  0.403037  0.158545  1
  H  H8  1  0.192901  0.321596  0.398979  1
  H  H9  1  0.913476  0.678404  0.601021  1
  H  H10  1  0.841880  0.101021  0.821596  1
  H  H11  1  0.764497  0.898979  0.178404  1
  H  H12  1  0.057099  0.178404  0.101021  1
  H  H13  1  0.336524  0.821596  0.898979  1
  H  H14  1  0.408120  0.398979  0.678404  1
  H  H15  1  0.485503  0.601021  0.321596  1
  C  C16  1  0.206470  0.177636  0.469939  1
  C  C17  1  0.854045  0.822364  0.530061  1
  C  C18  1  0.926409  0.030061  0.677636  1
  C  C19  1  0.634106  0.969939  0.322364  1
  C  C20  1  0.043530  0.322364  0.030061  1
  C  C21  1  0.395955  0.677636  0.969939  1
  C  C22  1  0.323591  0.469939  0.822364  1
  C  C23  1  0.615894  0.530061  0.177636  1
  O  O24  1  0.976625  0.169906  0.523847  1
  O  O25  1  0.670378  0.830094  0.476153  1
  O  O26  1  0.750472  0.976153  0.669906  1
  O  O27  1  0.396531  0.023847  0.330094  1
  O  O28  1  0.273375  0.330094  0.976153  1
  O  O29  1  0.579622  0.669906  0.023847  1
  O  O30  1  0.499528  0.523847  0.830094  1
  O  O31  1  0.853469  0.476153  0.169906  1
