# generated using pymatgen
data_Nd(Mg4Al3)4
_symmetry_space_group_name_H-M   'P 1'
_cell_length_a   8.94437507
_cell_length_b   9.25906684
_cell_length_c   9.25906753
_cell_angle_alpha   110.14944364
_cell_angle_beta   108.78417768
_cell_angle_gamma   108.78416871
_symmetry_Int_Tables_number   1
_chemical_formula_structural   Nd(Mg4Al3)4
_chemical_formula_sum   'Nd1 Mg16 Al12'
_cell_volume   595.21647517
_cell_formula_units_Z   1
loop_
 _symmetry_equiv_pos_site_id
 _symmetry_equiv_pos_as_xyz
  1  'x, y, z'
loop_
 _atom_site_type_symbol
 _atom_site_label
 _atom_site_symmetry_multiplicity
 _atom_site_fract_x
 _atom_site_fract_y
 _atom_site_fract_z
 _atom_site_occupancy
  Nd  Nd0  1  0.371353  -0.000000  0.000000  1
  Mg  Mg1  1  0.995916  0.342497  0.999999  1
  Mg  Mg2  1  0.612778  0.331948  -0.000000  1
  Mg  Mg3  1  0.996187  0.000000  -0.000000  1
  Mg  Mg4  1  0.315211  0.598160  0.000001  1
  Mg  Mg5  1  0.688344  0.686943  0.293930  1
  Mg  Mg6  1  0.001401  0.606986  0.313057  1
  Mg  Mg7  1  0.612779  0.000000  0.331948  1
  Mg  Mg8  1  0.995915  -0.000000  0.342496  1
  Mg  Mg9  1  0.394415  0.706072  0.393015  1
  Mg  Mg10  1  0.717050  0.401841  0.401841  1
  Mg  Mg11  1  0.315211  -0.000000  0.598160  1
  Mg  Mg12  1  0.001401  0.313056  0.606986  1
  Mg  Mg13  1  0.653418  0.657502  0.657503  1
  Mg  Mg14  1  0.280830  0.668051  0.668052  1
  Mg  Mg15  1  0.688344  0.293930  0.686943  1
  Mg  Mg16  1  0.394416  0.393015  0.706072  1
  Al  Al17  1  0.629927  0.816452  -0.000000  1
  Al  Al18  1  0.810781  0.636051  0.000000  1
  Al  Al19  1  0.364424  0.366020  0.179544  1
  Al  Al20  1  0.813475  0.183548  0.183548  1
  Al  Al21  1  0.184879  0.820455  0.186475  1
  Al  Al22  1  0.174730  0.363949  0.363949  1
  Al  Al23  1  0.364424  0.179544  0.366020  1
  Al  Al24  1  0.998403  0.813524  0.633980  1
  Al  Al25  1  0.810782  -0.000000  0.636051  1
  Al  Al26  1  0.998403  0.633981  0.813524  1
  Al  Al27  1  0.629928  0.000000  0.816452  1
  Al  Al28  1  0.184879  0.186475  0.820455  1
