# generated using pymatgen
data_TlGeBr3
_symmetry_space_group_name_H-M   'P 1'
_cell_length_a   5.55133026
_cell_length_b   5.55269812
_cell_length_c   5.56826021
_cell_angle_alpha   89.29556163
_cell_angle_beta   88.90415136
_cell_angle_gamma   89.31373796
_symmetry_Int_Tables_number   1
_chemical_formula_structural   TlGeBr3
_chemical_formula_sum   'Tl1 Ge1 Br3'
_cell_volume   171.58464807
_cell_formula_units_Z   1
loop_
 _symmetry_equiv_pos_site_id
 _symmetry_equiv_pos_as_xyz
  1  'x, y, z'
loop_
 _atom_site_type_symbol
 _atom_site_label
 _atom_site_symmetry_multiplicity
 _atom_site_fract_x
 _atom_site_fract_y
 _atom_site_fract_z
 _atom_site_occupancy
  Tl  Tl0  1  0.005396  0.995199  0.992846  1
  Ge  Ge1  1  0.468675  0.484779  0.478403  1
  Br  Br2  1  0.483604  0.010512  0.499854  1
  Br  Br3  1  0.995217  0.507630  0.509152  1
  Br  Br4  1  0.487109  0.501882  0.009741  1
