# generated using pymatgen
data_Sm2(CuAs)3
_symmetry_space_group_name_H-M   'P 1'
_cell_length_a   13.41960799
_cell_length_b   4.03825331
_cell_length_c   11.07319115
_cell_angle_alpha   90.00000000
_cell_angle_beta   90.00000000
_cell_angle_gamma   90.00000000
_symmetry_Int_Tables_number   1
_chemical_formula_structural   Sm2(CuAs)3
_chemical_formula_sum   'Sm8 Cu12 As12'
_cell_volume   600.07589866
_cell_formula_units_Z   4
loop_
 _symmetry_equiv_pos_site_id
 _symmetry_equiv_pos_as_xyz
  1  'x, y, z'
loop_
 _atom_site_type_symbol
 _atom_site_label
 _atom_site_symmetry_multiplicity
 _atom_site_fract_x
 _atom_site_fract_y
 _atom_site_fract_z
 _atom_site_occupancy
  Sm  Sm0  1  0.796896  0.249999  0.930458  1
  Sm  Sm1  1  0.703105  0.750001  0.430459  1
  Sm  Sm2  1  0.296896  0.249999  0.569542  1
  Sm  Sm3  1  0.203104  0.750001  0.069542  1
  Sm  Sm4  1  0.503694  0.249999  0.842109  1
  Sm  Sm5  1  0.996306  0.750001  0.342110  1
  Sm  Sm6  1  0.003694  0.249999  0.657890  1
  Sm  Sm7  1  0.496305  0.750001  0.157889  1
  Cu  Cu8  1  0.513384  0.249999  0.392987  1
  Cu  Cu9  1  0.986616  0.750001  0.892986  1
  Cu  Cu10  1  0.013384  0.249999  0.107013  1
  Cu  Cu11  1  0.486616  0.750001  0.607014  1
  Cu  Cu12  1  0.333302  0.249999  0.276223  1
  Cu  Cu13  1  0.166697  0.750001  0.776223  1
  Cu  Cu14  1  0.833302  0.249999  0.223777  1
  Cu  Cu15  1  0.666698  0.750001  0.723778  1
  Cu  Cu16  1  0.275940  0.249999  0.858219  1
  Cu  Cu17  1  0.224060  0.750001  0.358220  1
  Cu  Cu18  1  0.775941  0.249999  0.641780  1
  Cu  Cu19  1  0.724060  0.750001  0.141781  1
  As  As20  1  0.644718  0.249999  0.234836  1
  As  As21  1  0.855282  0.750001  0.734836  1
  As  As22  1  0.144718  0.249999  0.265164  1
  As  As23  1  0.355282  0.750001  0.765164  1
  As  As24  1  0.596362  0.249999  0.599898  1
  As  As25  1  0.903638  0.750001  0.099899  1
  As  As26  1  0.096362  0.249999  0.900101  1
  As  As27  1  0.403638  0.750001  0.400101  1
  As  As28  1  0.365882  0.249999  0.057081  1
  As  As29  1  0.134117  0.750001  0.557082  1
  As  As30  1  0.865882  0.249999  0.442918  1
  As  As31  1  0.634118  0.750001  0.942917  1
