# generated using pymatgen
data_BaWN3
_symmetry_space_group_name_H-M   'P 1'
_cell_length_a   3.93444084
_cell_length_b   6.57394299
_cell_length_c   7.22983999
_cell_angle_alpha   104.57817261
_cell_angle_beta   105.78911042
_cell_angle_gamma   90.00000111
_symmetry_Int_Tables_number   1
_chemical_formula_structural   BaWN3
_chemical_formula_sum   'Ba2 W2 N6'
_cell_volume   173.67800838
_cell_formula_units_Z   2
loop_
 _symmetry_equiv_pos_site_id
 _symmetry_equiv_pos_as_xyz
  1  'x, y, z'
loop_
 _atom_site_type_symbol
 _atom_site_label
 _atom_site_symmetry_multiplicity
 _atom_site_fract_x
 _atom_site_fract_y
 _atom_site_fract_z
 _atom_site_occupancy
  Ba  Ba0  1  0.394110  0.685570  0.788220  1
  Ba  Ba1  1  0.605890  0.314430  0.211780  1
  W  W2  1  0.160470  0.879360  0.320940  1
  W  W3  1  0.839530  0.120640  0.679060  1
  N  N4  1  0.854170  0.401950  0.708340  1
  N  N5  1  0.145830  0.598050  0.291660  1
  N  N6  1  0.966530  0.055240  0.933060  1
  N  N7  1  0.690570  0.976980  0.381140  1
  N  N8  1  0.309430  0.023020  0.618860  1
  N  N9  1  0.033470  0.944760  0.066940  1
