# generated using pymatgen
data_Ac3Er
_symmetry_space_group_name_H-M   'P 1'
_cell_length_a   7.81642246
_cell_length_b   7.81724947
_cell_length_c   6.25840753
_cell_angle_alpha   90.00000000
_cell_angle_beta   90.00000000
_cell_angle_gamma   120.04644006
_symmetry_Int_Tables_number   1
_chemical_formula_structural   Ac3Er
_chemical_formula_sum   'Ac6 Er2'
_cell_volume   331.01909296
_cell_formula_units_Z   2
loop_
 _symmetry_equiv_pos_site_id
 _symmetry_equiv_pos_as_xyz
  1  'x, y, z'
loop_
 _atom_site_type_symbol
 _atom_site_label
 _atom_site_symmetry_multiplicity
 _atom_site_fract_x
 _atom_site_fract_y
 _atom_site_fract_z
 _atom_site_occupancy
  Ac  Ac0  1  0.169637  0.339271  0.249999  1
  Ac  Ac1  1  0.660732  0.830363  0.249999  1
  Ac  Ac2  1  0.169626  0.830361  0.249999  1
  Ac  Ac3  1  0.830365  0.660730  0.749999  1
  Ac  Ac4  1  0.339267  0.169634  0.749999  1
  Ac  Ac5  1  0.830373  0.169636  0.749999  1
  Er  Er6  1  0.333327  0.666670  0.749999  1
  Er  Er7  1  0.666672  0.333332  0.249999  1
