# generated using pymatgen
data_Mg2As
_symmetry_space_group_name_H-M   'P 1'
_cell_length_a   4.22227751
_cell_length_b   8.87938861
_cell_length_c   4.58618326
_cell_angle_alpha   90.00000000
_cell_angle_beta   90.00000000
_cell_angle_gamma   76.24579594
_symmetry_Int_Tables_number   1
_chemical_formula_structural   Mg2As
_chemical_formula_sum   'Mg4 As2'
_cell_volume   167.01121760
_cell_formula_units_Z   2
loop_
 _symmetry_equiv_pos_site_id
 _symmetry_equiv_pos_as_xyz
  1  'x, y, z'
loop_
 _atom_site_type_symbol
 _atom_site_label
 _atom_site_symmetry_multiplicity
 _atom_site_fract_x
 _atom_site_fract_y
 _atom_site_fract_z
 _atom_site_occupancy
  Mg  Mg0  1  0.990040  0.019922  0.000000  1
  Mg  Mg1  1  0.792519  0.414959  0.000000  1
  Mg  Mg2  1  0.318592  0.362819  0.500001  1
  Mg  Mg3  1  0.121072  0.757856  0.500001  1
  As  As4  1  0.393276  0.213448  0.000000  1
  As  As5  1  0.717834  0.564330  0.500001  1
