# generated using pymatgen
data_VInPt
_symmetry_space_group_name_H-M   'P 1'
_cell_length_a   4.38113274
_cell_length_b   4.38847170
_cell_length_c   4.38795097
_cell_angle_alpha   60.02082011
_cell_angle_beta   60.00562975
_cell_angle_gamma   60.00270322
_symmetry_Int_Tables_number   1
_chemical_formula_structural   VInPt
_chemical_formula_sum   'V1 In1 Pt1'
_cell_volume   59.66808873
_cell_formula_units_Z   1
loop_
 _symmetry_equiv_pos_site_id
 _symmetry_equiv_pos_as_xyz
  1  'x, y, z'
loop_
 _atom_site_type_symbol
 _atom_site_label
 _atom_site_symmetry_multiplicity
 _atom_site_fract_x
 _atom_site_fract_y
 _atom_site_fract_z
 _atom_site_occupancy
  V  V0  1  0.249968  0.250081  0.249987  1
  In  In1  1  0.000053  0.000079  0.999945  1
  Pt  Pt2  1  0.499978  0.499840  0.500068  1
