# generated using pymatgen
data_Pa3Ta
_symmetry_space_group_name_H-M   'P 1'
_cell_length_a   6.25992916
_cell_length_b   6.25992905
_cell_length_c   5.56822616
_cell_angle_alpha   90.00000000
_cell_angle_beta   90.00000000
_cell_angle_gamma   120.00001117
_symmetry_Int_Tables_number   1
_chemical_formula_structural   Pa3Ta
_chemical_formula_sum   'Pa6 Ta2'
_cell_volume   188.96713492
_cell_formula_units_Z   2
loop_
 _symmetry_equiv_pos_site_id
 _symmetry_equiv_pos_as_xyz
  1  'x, y, z'
loop_
 _atom_site_type_symbol
 _atom_site_label
 _atom_site_symmetry_multiplicity
 _atom_site_fract_x
 _atom_site_fract_y
 _atom_site_fract_z
 _atom_site_occupancy
  Pa  Pa0  1  0.172844  0.345688  0.250000  1
  Pa  Pa1  1  0.654312  0.827156  0.250000  1
  Pa  Pa2  1  0.172843  0.827156  0.250000  1
  Pa  Pa3  1  0.827157  0.654314  0.750001  1
  Pa  Pa4  1  0.345687  0.172842  0.750001  1
  Pa  Pa5  1  0.827156  0.172842  0.750001  1
  Ta  Ta6  1  0.333333  0.666666  0.750001  1
  Ta  Ta7  1  0.666668  0.333333  0.250000  1
