# generated using pymatgen
data_Li9Mg(Ni6O13)2
_symmetry_space_group_name_H-M   'P 1'
_cell_length_a   7.55183999
_cell_length_b   7.73008889
_cell_length_c   8.15825136
_cell_angle_alpha   76.30037170
_cell_angle_beta   75.42154132
_cell_angle_gamma   87.79952331
_symmetry_Int_Tables_number   1
_chemical_formula_structural   Li9Mg(Ni6O13)2
_chemical_formula_sum   'Li9 Mg1 Ni12 O26'
_cell_volume   447.68915525
_cell_formula_units_Z   1
loop_
 _symmetry_equiv_pos_site_id
 _symmetry_equiv_pos_as_xyz
  1  'x, y, z'
loop_
 _atom_site_type_symbol
 _atom_site_label
 _atom_site_symmetry_multiplicity
 _atom_site_fract_x
 _atom_site_fract_y
 _atom_site_fract_z
 _atom_site_occupancy
  Li  Li0  1  0.003217  0.006339  0.500051  1
  Li  Li1  1  0.069730  0.382733  0.882694  1
  Li  Li2  1  0.306600  0.550370  0.041199  1
  Li  Li3  1  0.387246  0.935938  0.436818  1
  Li  Li4  1  0.527160  0.693137  0.192971  1
  Li  Li5  1  0.461639  0.294684  0.797170  1
  Li  Li6  1  0.776677  0.850220  0.351836  1
  Li  Li7  1  0.915906  0.609147  0.114582  1
  Li  Li8  1  0.841146  0.231738  0.725561  1
  Mg  Mg9  1  0.003753  0.996817  0.001032  1
  Ni  Ni10  1  0.080864  0.388491  0.378094  1
  Ni  Ni11  1  0.234915  0.149920  0.156435  1
  Ni  Ni12  1  0.153713  0.768183  0.770534  1
  Ni  Ni13  1  0.305177  0.544875  0.533107  1
  Ni  Ni14  1  0.463857  0.303264  0.310643  1
  Ni  Ni15  1  0.619290  0.073960  0.076030  1
  Ni  Ni16  1  0.384677  0.929012  0.920273  1
  Ni  Ni17  1  0.535592  0.694359  0.694148  1
  Ni  Ni18  1  0.690365  0.462631  0.463028  1
  Ni  Ni19  1  0.848053  0.230501  0.230768  1
  Ni  Ni20  1  0.767156  0.840487  0.845648  1
  Ni  Ni21  1  0.922222  0.611277  0.615672  1
  O  O22  1  0.996644  0.031249  0.245559  1
  O  O23  1  0.062453  0.376900  0.146585  1
  O  O24  1  0.071990  0.409926  0.615516  1
  O  O25  1  0.146991  0.748913  0.543908  1
  O  O26  1  0.246799  0.164205  0.380513  1
  O  O27  1  0.303639  0.519215  0.290182  1
  O  O28  1  0.168170  0.781831  0.993454  1
  O  O29  1  0.405019  0.932439  0.147708  1
  O  O30  1  0.242305  0.137427  0.926358  1
  O  O31  1  0.466779  0.273977  0.076444  1
  O  O32  1  0.306202  0.565574  0.784185  1
  O  O33  1  0.366103  0.912438  0.698046  1
  O  O34  1  0.458347  0.343917  0.542426  1
  O  O35  1  0.524007  0.692322  0.463610  1
  O  O36  1  0.633644  0.082892  0.302308  1
  O  O37  1  0.688713  0.436966  0.235271  1
  O  O38  1  0.532736  0.722579  0.921830  1
  O  O39  1  0.759637  0.857271  0.081395  1
  O  O40  1  0.605461  0.068224  0.849830  1
  O  O41  1  0.838798  0.214209  0.002873  1
  O  O42  1  0.704991  0.471153  0.688511  1
  O  O43  1  0.773005  0.813588  0.613869  1
  O  O44  1  0.865566  0.245532  0.456023  1
  O  O45  1  0.907350  0.605892  0.388277  1
  O  O46  1  0.941035  0.620660  0.843291  1
  O  O47  1  0.991927  0.965510  0.759121  1
