# generated using pymatgen
data_YbNd3
_symmetry_space_group_name_H-M   'P 1'
_cell_length_a   7.41116597
_cell_length_b   7.41116624
_cell_length_c   5.97413841
_cell_angle_alpha   90.00000000
_cell_angle_beta   90.00000000
_cell_angle_gamma   119.99999884
_symmetry_Int_Tables_number   1
_chemical_formula_structural   YbNd3
_chemical_formula_sum   'Yb2 Nd6'
_cell_volume   284.17051294
_cell_formula_units_Z   2
loop_
 _symmetry_equiv_pos_site_id
 _symmetry_equiv_pos_as_xyz
  1  'x, y, z'
loop_
 _atom_site_type_symbol
 _atom_site_label
 _atom_site_symmetry_multiplicity
 _atom_site_fract_x
 _atom_site_fract_y
 _atom_site_fract_z
 _atom_site_occupancy
  Yb  Yb0  1  0.333333  0.666667  0.750000  1
  Yb  Yb1  1  0.666667  0.333333  0.250000  1
  Nd  Nd2  1  0.164386  0.328771  0.250000  1
  Nd  Nd3  1  0.671229  0.835613  0.250000  1
  Nd  Nd4  1  0.164385  0.835613  0.250000  1
  Nd  Nd5  1  0.835613  0.671228  0.750000  1
  Nd  Nd6  1  0.328771  0.164386  0.750000  1
  Nd  Nd7  1  0.835614  0.164386  0.750000  1
