# generated using pymatgen
data_Ho11Ge10
_symmetry_space_group_name_H-M   'P 1'
_cell_length_a   10.89159233
_cell_length_b   10.89159233
_cell_length_c   11.23475700
_cell_angle_alpha   118.99462337
_cell_angle_beta   118.99462341
_cell_angle_gamma   90.00000002
_symmetry_Int_Tables_number   1
_chemical_formula_structural   Ho11Ge10
_chemical_formula_sum   'Ho22 Ge20'
_cell_volume   970.32338521
_cell_formula_units_Z   2
loop_
 _symmetry_equiv_pos_site_id
 _symmetry_equiv_pos_as_xyz
  1  'x, y, z'
loop_
 _atom_site_type_symbol
 _atom_site_label
 _atom_site_symmetry_multiplicity
 _atom_site_fract_x
 _atom_site_fract_y
 _atom_site_fract_z
 _atom_site_occupancy
  Ge  Ge0  1  0.109721  0.109721  0.637480  1
  Ge  Ge1  1  0.472241  0.472241  0.362520  1
  Ge  Ge2  1  0.890279  0.890279  0.362520  1
  Ge  Ge3  1  0.472241  0.890279  0.362520  1
  Ge  Ge4  1  0.890279  0.472241  0.362520  1
  Ge  Ge5  1  0.527759  0.109721  0.637480  1
  Ge  Ge6  1  0.109721  0.527759  0.637480  1
  Ge  Ge7  1  0.527759  0.527759  0.637480  1
  Ge  Ge8  1  0.750000  0.250000  0.500000  1
  Ge  Ge9  1  0.250000  0.750000  0.500000  1
  Ge  Ge10  1  0.620552  0.620552  0.000000  1
  Ge  Ge11  1  0.379448  0.620552  0.000000  1
  Ge  Ge12  1  0.620552  0.379448  0.000000  1
  Ge  Ge13  1  0.379448  0.379448  0.000000  1
  Ge  Ge14  1  0.887300  0.887300  0.774599  1
  Ge  Ge15  1  0.112700  0.112700  0.225401  1
  Ge  Ge16  1  0.640604  0.000000  0.000000  1
  Ge  Ge17  1  0.000000  0.640604  0.000000  1
  Ge  Ge18  1  0.000000  0.359396  0.000000  1
  Ge  Ge19  1  0.359396  0.000000  0.000000  1
  Ho  Ho20  1  0.277607  0.602201  0.204402  1
  Ho  Ho21  1  0.397799  0.073205  0.795598  1
  Ho  Ho22  1  0.926795  0.602201  0.204402  1
  Ho  Ho23  1  0.602201  0.926795  0.204402  1
  Ho  Ho24  1  0.602201  0.277607  0.204402  1
  Ho  Ho25  1  0.722393  0.397799  0.795598  1
  Ho  Ho26  1  0.073205  0.397799  0.795598  1
  Ho  Ho27  1  0.397799  0.722393  0.795598  1
  Ho  Ho28  1  0.660682  0.660682  0.321364  1
  Ho  Ho29  1  0.339318  0.339318  0.678636  1
  Ho  Ho30  1  0.823055  0.823055  0.000000  1
  Ho  Ho31  1  0.176945  0.823055  0.000000  1
  Ho  Ho32  1  0.823055  0.176945  0.000000  1
  Ho  Ho33  1  0.176945  0.176945  0.000000  1
  Ho  Ho34  1  0.189962  0.937851  0.379924  1
  Ho  Ho35  1  0.557927  0.810038  0.620076  1
  Ho  Ho36  1  0.062149  0.810038  0.620076  1
  Ho  Ho37  1  0.810038  0.062149  0.620076  1
  Ho  Ho38  1  0.810038  0.557927  0.620076  1
  Ho  Ho39  1  0.442073  0.189962  0.379924  1
  Ho  Ho40  1  0.937851  0.189962  0.379924  1
  Ho  Ho41  1  0.189962  0.442073  0.379924  1
