# generated using pymatgen
data_Hf4Co4Ge7
_symmetry_space_group_name_H-M   'P 1'
_cell_length_a   9.68358202
_cell_length_b   9.68358202
_cell_length_c   9.68358202
_cell_angle_alpha   94.12836319
_cell_angle_beta   94.12836319
_cell_angle_gamma   148.87233737
_symmetry_Int_Tables_number   1
_chemical_formula_structural   Hf4Co4Ge7
_chemical_formula_sum   'Hf8 Co8 Ge14'
_cell_volume   452.19931681
_cell_formula_units_Z   2
loop_
 _symmetry_equiv_pos_site_id
 _symmetry_equiv_pos_as_xyz
  1  'x, y, z'
loop_
 _atom_site_type_symbol
 _atom_site_label
 _atom_site_symmetry_multiplicity
 _atom_site_fract_x
 _atom_site_fract_y
 _atom_site_fract_z
 _atom_site_occupancy
  Hf  Hf0  1  0.138726  0.138726  0.277452  1
  Hf  Hf1  1  0.861273  0.861273  0.722547  1
  Hf  Hf2  1  0.861273  0.138726  0.000000  1
  Hf  Hf3  1  0.138726  0.861273  -0.000000  1
  Hf  Hf4  1  0.500000  0.305078  0.805078  1
  Hf  Hf5  1  0.499999  0.694920  0.194921  1
  Hf  Hf6  1  0.694920  0.499999  0.194921  1
  Hf  Hf7  1  0.305078  0.500000  0.805078  1
  Co  Co8  1  0.398957  0.601044  0.500000  1
  Co  Co9  1  0.101044  0.898957  0.500000  1
  Co  Co10  1  0.601044  0.101044  0.202087  1
  Co  Co11  1  0.898957  0.398957  0.797914  1
  Co  Co12  1  0.101044  0.601044  0.202087  1
  Co  Co13  1  0.398957  0.898957  0.797914  1
  Co  Co14  1  0.898957  0.101044  0.500000  1
  Co  Co15  1  0.601044  0.398957  0.500000  1
  Ge  Ge16  1  0.293231  0.293231  0.586462  1
  Ge  Ge17  1  0.706769  0.706769  0.413539  1
  Ge  Ge18  1  0.706769  0.293229  0.000000  1
  Ge  Ge19  1  0.293229  0.706769  -0.000000  1
  Ge  Ge20  1  0.500000  0.094128  0.594127  1
  Ge  Ge21  1  0.499999  0.905872  0.405873  1
  Ge  Ge22  1  0.905872  0.499999  0.405873  1
  Ge  Ge23  1  0.094128  0.500000  0.594127  1
  Ge  Ge24  1  0.000000  0.291782  0.291782  1
  Ge  Ge25  1  -0.000000  0.708218  0.708218  1
  Ge  Ge26  1  0.708218  -0.000000  0.708218  1
  Ge  Ge27  1  0.291782  0.000000  0.291782  1
  Ge  Ge28  1  0.248754  0.248754  0.000000  1
  Ge  Ge29  1  0.751244  0.751244  0.000000  1
