# generated using pymatgen
data_AgHO2
_symmetry_space_group_name_H-M   'P 1'
_cell_length_a   3.94592946
_cell_length_b   5.61308000
_cell_length_c   5.63124994
_cell_angle_alpha   82.15368458
_cell_angle_beta   70.45511081
_cell_angle_gamma   70.79172147
_symmetry_Int_Tables_number   1
_chemical_formula_structural   AgHO2
_chemical_formula_sum   'Ag2 H2 O4'
_cell_volume   110.94624507
_cell_formula_units_Z   2
loop_
 _symmetry_equiv_pos_site_id
 _symmetry_equiv_pos_as_xyz
  1  'x, y, z'
loop_
 _atom_site_type_symbol
 _atom_site_label
 _atom_site_symmetry_multiplicity
 _atom_site_fract_x
 _atom_site_fract_y
 _atom_site_fract_z
 _atom_site_occupancy
  Ag  Ag0  1  0.823410  0.168890  0.993090  1
  Ag  Ag1  1  0.823190  0.669080  0.493690  1
  H  H2  1  0.239080  0.697520  0.022090  1
  H  H3  1  0.789950  0.642260  0.966470  1
  O  O4  1  0.961520  0.784080  0.108920  1
  O  O5  1  0.271450  0.237080  0.385840  1
  O  O6  1  0.676220  0.555550  0.879960  1
  O  O7  1  0.268570  0.060590  0.560890  1
