# generated using pymatgen
data_Fe4OF7
_symmetry_space_group_name_H-M   'P 1'
_cell_length_a   6.53727102
_cell_length_b   6.68309812
_cell_length_c   7.61096280
_cell_angle_alpha   90.00000000
_cell_angle_beta   115.43355724
_cell_angle_gamma   90.00000000
_symmetry_Int_Tables_number   1
_chemical_formula_structural   Fe4OF7
_chemical_formula_sum   'Fe8 O2 F14'
_cell_volume   300.29080557
_cell_formula_units_Z   2
loop_
 _symmetry_equiv_pos_site_id
 _symmetry_equiv_pos_as_xyz
  1  'x, y, z'
loop_
 _atom_site_type_symbol
 _atom_site_label
 _atom_site_symmetry_multiplicity
 _atom_site_fract_x
 _atom_site_fract_y
 _atom_site_fract_z
 _atom_site_occupancy
  Fe  Fe0  1  0.499082  0.993170  0.998164  1
  Fe  Fe1  1  0.000155  0.025338  0.000311  1
  Fe  Fe2  1  0.758749  0.491560  0.000047  1
  Fe  Fe3  1  0.241298  0.491560  0.000047  1
  Fe  Fe4  1  0.491251  0.991560  0.499953  1
  Fe  Fe5  1  0.008702  0.991560  0.499953  1
  Fe  Fe6  1  0.750918  0.493170  0.501836  1
  Fe  Fe7  1  0.249845  0.525338  0.499689  1
  O  O8  1  -0.000430  0.298822  -0.000860  1
  O  O9  1  0.250430  0.798822  0.500860  1
  F  F10  1  0.336936  0.998519  0.192805  1
  F  F11  1  0.855869  0.998519  0.192805  1
  F  F12  1  0.499644  0.293868  0.999287  1
  F  F13  1  0.500437  0.692488  0.000874  1
  F  F14  1  0.749563  0.192488  0.499126  1
  F  F15  1  0.250520  0.220271  0.501038  1
  F  F16  1  0.999480  0.720271  0.998962  1
  F  F17  1  0.665768  0.997942  0.806261  1
  F  F18  1  0.140493  0.997942  0.806261  1
  F  F19  1  0.394130  0.498519  0.307195  1
  F  F20  1  0.913064  0.498519  0.307195  1
  F  F21  1  0.109507  0.497942  0.693739  1
  F  F22  1  0.584232  0.497942  0.693739  1
  F  F23  1  0.750356  0.793868  0.500713  1
