# generated using pymatgen
data_Li7Mn7P6(O8F)3
_symmetry_space_group_name_H-M   'P 1'
_cell_length_a   13.60403304
_cell_length_b   13.60386463
_cell_length_c   6.51217192
_cell_angle_alpha   90.00052568
_cell_angle_beta   90.00035366
_cell_angle_gamma   59.99981660
_symmetry_Int_Tables_number   1
_chemical_formula_structural   Li7Mn7P6(O8F)3
_chemical_formula_sum   'Li14 Mn14 P12 O48 F6'
_cell_volume   1043.72399006
_cell_formula_units_Z   2
loop_
 _symmetry_equiv_pos_site_id
 _symmetry_equiv_pos_as_xyz
  1  'x, y, z'
loop_
 _atom_site_type_symbol
 _atom_site_label
 _atom_site_symmetry_multiplicity
 _atom_site_fract_x
 _atom_site_fract_y
 _atom_site_fract_z
 _atom_site_occupancy
  Li  Li0  1  0.130820  0.576572  0.997923  1
  Li  Li1  1  0.126847  0.583108  0.524293  1
  Li  Li2  1  0.423427  0.707394  0.497935  1
  Li  Li3  1  0.416894  0.709953  0.024290  1
  Li  Li4  1  0.709964  0.873148  0.024287  1
  Li  Li5  1  0.707404  0.869174  0.497929  1
  Li  Li6  1  0.999999  0.000000  0.998457  1
  Li  Li7  1  0.999999  0.999999  0.498455  1
  Li  Li8  1  0.292600  0.130825  0.997928  1
  Li  Li9  1  0.290040  0.126847  0.524291  1
  Li  Li10  1  0.583113  0.290048  0.524273  1
  Li  Li11  1  0.576570  0.292605  0.997936  1
  Li  Li12  1  0.873162  0.416885  0.024291  1
  Li  Li13  1  0.869177  0.423428  0.497924  1
  Mn  Mn14  1  0.255795  0.934072  0.255599  1
  Mn  Mn15  1  0.189906  0.744227  0.755623  1
  Mn  Mn16  1  0.500404  0.893899  0.755780  1
  Mn  Mn17  1  0.106143  0.394271  0.255831  1
  Mn  Mn18  1  0.065864  0.189903  0.755615  1
  Mn  Mn19  1  0.394273  0.499587  0.255809  1
  Mn  Mn20  1  0.333350  0.333312  0.496051  1
  Mn  Mn21  1  0.666662  0.666678  0.996050  1
  Mn  Mn22  1  0.605727  0.500420  0.755818  1
  Mn  Mn23  1  0.934134  0.810095  0.255607  1
  Mn  Mn24  1  0.893857  0.605732  0.755829  1
  Mn  Mn25  1  0.499595  0.106100  0.255757  1
  Mn  Mn26  1  0.810123  0.255779  0.255571  1
  Mn  Mn27  1  0.744198  0.065930  0.755573  1
  P  P28  1  0.250615  0.935086  0.754918  1
  P  P29  1  0.185698  0.749378  0.254932  1
  P  P30  1  0.488476  0.880835  0.261274  1
  P  P31  1  0.119172  0.369304  0.761300  1
  P  P32  1  0.369309  0.511522  0.761289  1
  P  P33  1  0.064924  0.185698  0.254921  1
  P  P34  1  0.935086  0.814296  0.754931  1
  P  P35  1  0.630691  0.488476  0.261290  1
  P  P36  1  0.880831  0.630692  0.261297  1
  P  P37  1  0.511524  0.119159  0.761256  1
  P  P38  1  0.814301  0.250620  0.754909  1
  P  P39  1  0.749382  0.064919  0.254912  1
  O  O40  1  0.119001  0.014173  0.755266  1
  O  O41  1  0.133168  0.881002  0.255263  1
  O  O42  1  0.000722  0.680795  0.750924  1
  O  O43  1  0.376502  0.998130  0.244615  1
  O  O44  1  0.283740  0.857210  0.564222  1
  O  O45  1  0.140956  0.716257  0.064211  1
  O  O46  1  0.284472  0.859308  0.948868  1
  O  O47  1  0.143779  0.715535  0.448874  1
  O  O48  1  0.319197  0.681520  0.250925  1
  O  O49  1  0.001869  0.374631  0.744614  1
  O  O50  1  0.553947  0.884570  0.452347  1
  O  O51  1  0.115424  0.438510  0.952396  1
  O  O52  1  0.459147  0.785840  0.267557  1
  O  O53  1  0.139724  0.425236  0.565424  1
  O  O54  1  0.564947  0.860282  0.065380  1
  O  O55  1  0.681525  0.999276  0.250916  1
  O  O56  1  0.245003  0.540837  0.767549  1
  O  O57  1  0.374637  0.623497  0.744616  1
  O  O58  1  0.985830  0.133172  0.255258  1
  O  O59  1  0.214161  0.244994  0.767556  1
  O  O60  1  0.140688  0.143783  0.448873  1
  O  O61  1  0.438517  0.446058  0.952379  1
  O  O62  1  0.142785  0.140956  0.064208  1
  O  O63  1  0.574753  0.564965  0.065401  1
  O  O64  1  0.425246  0.435038  0.565398  1
  O  O65  1  0.857220  0.859042  0.564209  1
  O  O66  1  0.561481  0.553943  0.452377  1
  O  O67  1  0.859320  0.856212  0.948873  1
  O  O68  1  0.785838  0.754996  0.267550  1
  O  O69  1  0.014183  0.866823  0.755273  1
  O  O70  1  0.625370  0.376501  0.244613  1
  O  O71  1  0.754998  0.459163  0.267545  1
  O  O72  1  0.318479  0.000720  0.750918  1
  O  O73  1  0.435057  0.139701  0.565361  1
  O  O74  1  0.860282  0.574753  0.065404  1
  O  O75  1  0.540837  0.214165  0.767537  1
  O  O76  1  0.884578  0.561481  0.452387  1
  O  O77  1  0.446056  0.115419  0.952323  1
  O  O78  1  0.998131  0.625362  0.244614  1
  O  O79  1  0.680801  0.318485  0.750926  1
  O  O80  1  0.856229  0.284471  0.948860  1
  O  O81  1  0.715523  0.140696  0.448857  1
  O  O82  1  0.859043  0.283744  0.564203  1
  O  O83  1  0.716255  0.142786  0.064208  1
  O  O84  1  0.623505  0.001868  0.744608  1
  O  O85  1  0.999283  0.319200  0.250918  1
  O  O86  1  0.866833  0.118999  0.755260  1
  O  O87  1  0.881001  0.985829  0.255268  1
  F  F88  1  0.250001  0.476943  0.282791  1
  F  F89  1  0.523054  0.726953  0.782776  1
  F  F90  1  0.726942  0.750000  0.782788  1
  F  F91  1  0.273058  0.250000  0.282779  1
  F  F92  1  0.476946  0.273040  0.282774  1
  F  F93  1  0.750000  0.523052  0.782779  1
