# generated using pymatgen
data_LaMoN3
_symmetry_space_group_name_H-M   'P 1'
_cell_length_a   6.38211780
_cell_length_b   7.44619523
_cell_length_c   7.44619551
_cell_angle_alpha   94.24144215
_cell_angle_beta   103.52400307
_cell_angle_gamma   76.47599071
_symmetry_Int_Tables_number   1
_chemical_formula_structural   LaMoN3
_chemical_formula_sum   'La4 Mo4 N12'
_cell_volume   334.44058532
_cell_formula_units_Z   4
loop_
 _symmetry_equiv_pos_site_id
 _symmetry_equiv_pos_as_xyz
  1  'x, y, z'
loop_
 _atom_site_type_symbol
 _atom_site_label
 _atom_site_symmetry_multiplicity
 _atom_site_fract_x
 _atom_site_fract_y
 _atom_site_fract_z
 _atom_site_occupancy
  La  La0  1  0.750000  0.313431  0.313431  1
  La  La1  1  0.750000  0.907524  0.907524  1
  La  La2  1  0.250000  0.092476  0.092476  1
  La  La3  1  0.250000  0.686569  0.686569  1
  Mo  Mo4  1  0.250326  0.201390  0.619953  1
  Mo  Mo5  1  0.749674  0.798610  0.380047  1
  Mo  Mo6  1  0.750326  0.380047  0.798610  1
  Mo  Mo7  1  0.249674  0.619953  0.201390  1
  N  N8  1  0.145032  0.125732  0.389721  1
  N  N9  1  0.153755  0.774609  0.001455  1
  N  N10  1  0.990312  0.368128  0.669059  1
  N  N11  1  0.354968  0.389721  0.125732  1
  N  N12  1  0.645032  0.610279  0.874268  1
  N  N13  1  0.653755  0.998545  0.225391  1
  N  N14  1  0.009688  0.631872  0.330941  1
  N  N15  1  0.346245  0.001455  0.774609  1
  N  N16  1  0.854968  0.874268  0.610279  1
  N  N17  1  0.509688  0.669059  0.368128  1
  N  N18  1  0.846245  0.225391  0.998545  1
  N  N19  1  0.490312  0.330941  0.631872  1
