# generated using pymatgen
data_H2O
_symmetry_space_group_name_H-M   'P 1'
_cell_length_a   5.81734360
_cell_length_b   6.53664062
_cell_length_c   6.53664062
_cell_angle_alpha   75.27093379
_cell_angle_beta   63.57796572
_cell_angle_gamma   63.57796572
_symmetry_Int_Tables_number   1
_chemical_formula_structural   H2O
_chemical_formula_sum   'H16 O8'
_cell_volume   198.85387354
_cell_formula_units_Z   8
loop_
 _symmetry_equiv_pos_site_id
 _symmetry_equiv_pos_as_xyz
  1  'x, y, z'
loop_
 _atom_site_type_symbol
 _atom_site_label
 _atom_site_symmetry_multiplicity
 _atom_site_fract_x
 _atom_site_fract_y
 _atom_site_fract_z
 _atom_site_occupancy
  H  H0  1  0.851264  0.148736  0.148736  1
  H  H1  1  0.148736  0.851264  0.851264  1
  H  H2  1  0.148736  0.351264  0.351264  1
  H  H3  1  0.851264  0.648736  0.648736  1
  H  H4  1  0.750002  0.000000  -0.000000  1
  H  H5  1  0.249998  0.000000  0.000000  1
  H  H6  1  0.249998  0.500000  0.500000  1
  H  H7  1  0.750002  0.500000  0.500000  1
  H  H8  1  0.500000  0.750000  0.250000  1
  H  H9  1  0.500000  0.250000  0.750000  1
  H  H10  1  -0.000000  0.000000  0.000000  1
  H  H11  1  0.000000  0.500000  0.500000  1
  H  H12  1  0.500000  0.250000  0.250000  1
  H  H13  1  0.500000  0.750000  0.750000  1
  H  H14  1  0.000000  0.750000  0.750000  1
  H  H15  1  0.000000  0.250000  0.250000  1
  O  O16  1  0.681959  0.066944  0.185659  1
  O  O17  1  0.318041  0.814341  0.933056  1
  O  O18  1  0.934561  0.933056  0.814341  1
  O  O19  1  0.065439  0.185659  0.066944  1
  O  O20  1  0.318041  0.433056  0.314341  1
  O  O21  1  0.681959  0.685659  0.566944  1
  O  O22  1  0.065439  0.566944  0.685659  1
  O  O23  1  0.934561  0.314341  0.433056  1
