# generated using pymatgen
data_Ac3Tl
_symmetry_space_group_name_H-M   'P 1'
_cell_length_a   7.74259907
_cell_length_b   7.74259898
_cell_length_c   6.03932217
_cell_angle_alpha   90.00000000
_cell_angle_beta   90.00000000
_cell_angle_gamma   120.00000484
_symmetry_Int_Tables_number   1
_chemical_formula_structural   Ac3Tl
_chemical_formula_sum   'Ac6 Tl2'
_cell_volume   313.53956081
_cell_formula_units_Z   2
loop_
 _symmetry_equiv_pos_site_id
 _symmetry_equiv_pos_as_xyz
  1  'x, y, z'
loop_
 _atom_site_type_symbol
 _atom_site_label
 _atom_site_symmetry_multiplicity
 _atom_site_fract_x
 _atom_site_fract_y
 _atom_site_fract_z
 _atom_site_occupancy
  Ac  Ac0  1  0.174486  0.348973  0.250001  1
  Ac  Ac1  1  0.651027  0.825514  0.250001  1
  Ac  Ac2  1  0.174487  0.825514  0.250001  1
  Ac  Ac3  1  0.825513  0.651026  0.750001  1
  Ac  Ac4  1  0.348973  0.174486  0.750001  1
  Ac  Ac5  1  0.825513  0.174486  0.750001  1
  Tl  Tl6  1  0.333334  0.666668  0.750001  1
  Tl  Tl7  1  0.666668  0.333333  0.250001  1
