# generated using pymatgen
data_RbInCl3
_symmetry_space_group_name_H-M   'P 1'
_cell_length_a   5.45154226
_cell_length_b   5.45295938
_cell_length_c   5.45312342
_cell_angle_alpha   90.29383617
_cell_angle_beta   90.13919516
_cell_angle_gamma   90.03015767
_symmetry_Int_Tables_number   1
_chemical_formula_structural   RbInCl3
_chemical_formula_sum   'Rb1 In1 Cl3'
_cell_volume   162.10257604
_cell_formula_units_Z   1
loop_
 _symmetry_equiv_pos_site_id
 _symmetry_equiv_pos_as_xyz
  1  'x, y, z'
loop_
 _atom_site_type_symbol
 _atom_site_label
 _atom_site_symmetry_multiplicity
 _atom_site_fract_x
 _atom_site_fract_y
 _atom_site_fract_z
 _atom_site_occupancy
  Rb  Rb0  1  0.001692  0.002864  0.002684  1
  In  In1  1  0.500596  0.514237  0.503496  1
  Cl  Cl2  1  0.000093  0.515894  0.505163  1
  Cl  Cl3  1  0.495762  0.014376  0.495917  1
  Cl  Cl4  1  0.501857  0.512630  0.002738  1
