# generated using pymatgen
data_YAs3
_symmetry_space_group_name_H-M   'P 1'
_cell_length_a   6.02554348
_cell_length_b   6.02554475
_cell_length_c   5.56636773
_cell_angle_alpha   90.00000000
_cell_angle_beta   90.00000000
_cell_angle_gamma   120.00000403
_symmetry_Int_Tables_number   1
_chemical_formula_structural   YAs3
_chemical_formula_sum   'Y2 As6'
_cell_volume   175.02296963
_cell_formula_units_Z   2
loop_
 _symmetry_equiv_pos_site_id
 _symmetry_equiv_pos_as_xyz
  1  'x, y, z'
loop_
 _atom_site_type_symbol
 _atom_site_label
 _atom_site_symmetry_multiplicity
 _atom_site_fract_x
 _atom_site_fract_y
 _atom_site_fract_z
 _atom_site_occupancy
  Y  Y0  1  0.333334  0.666667  0.749999  1
  Y  Y1  1  0.666667  0.333333  0.250000  1
  As  As2  1  0.186097  0.372195  0.250000  1
  As  As3  1  0.627803  0.813901  0.250000  1
  As  As4  1  0.186096  0.813901  0.250000  1
  As  As5  1  0.813903  0.627803  0.749999  1
  As  As6  1  0.372195  0.186097  0.749999  1
  As  As7  1  0.813903  0.186097  0.749999  1
