# generated using pymatgen
data_H6PbCBr3N
_symmetry_space_group_name_H-M   'P 1'
_cell_length_a   8.58699949
_cell_length_b   8.59140358
_cell_length_c   12.20770998
_cell_angle_alpha   90.56911437
_cell_angle_beta   90.47752767
_cell_angle_gamma   89.92370419
_symmetry_Int_Tables_number   1
_chemical_formula_structural   H6PbCBr3N
_chemical_formula_sum   'H24 Pb4 C4 Br12 N4'
_cell_volume   900.53980409
_cell_formula_units_Z   4
loop_
 _symmetry_equiv_pos_site_id
 _symmetry_equiv_pos_as_xyz
  1  'x, y, z'
loop_
 _atom_site_type_symbol
 _atom_site_label
 _atom_site_symmetry_multiplicity
 _atom_site_fract_x
 _atom_site_fract_y
 _atom_site_fract_z
 _atom_site_occupancy
  H  H0  1  0.415860  0.918118  0.703775  1
  H  H1  1  0.620641  0.963852  0.707293  1
  H  H2  1  0.394386  0.032984  0.886633  1
  H  H3  1  0.580619  0.082458  0.887263  1
  H  H4  1  0.535856  0.895543  0.888817  1
  H  H5  1  0.920056  0.414668  0.702252  1
  H  H6  1  0.122493  0.470162  0.706707  1
  H  H7  1  0.890527  0.521774  0.883985  1
  H  H8  1  0.075477  0.583586  0.889783  1
  H  H9  1  0.035065  0.393978  0.885848  1
  H  H10  1  0.882831  0.490314  0.202778  1
  H  H11  1  0.070353  0.395922  0.206356  1
  H  H12  1  0.930960  0.590501  0.386488  1
  H  H13  1  0.109504  0.510217  0.388491  1
  H  H14  1  0.953729  0.398084  0.385452  1
  H  H15  1  0.420978  0.914616  0.202960  1
  H  H16  1  0.621733  0.975264  0.206918  1
  H  H17  1  0.390948  0.018295  0.385897  1
  H  H18  1  0.574672  0.083810  0.390996  1
  H  H19  1  0.537725  0.893478  0.385618  1
  H  H20  1  0.059276  0.604074  0.205144  1
  H  H21  1  0.974924  0.617389  0.704757  1
  H  H22  1  0.480914  0.118191  0.705267  1
  H  H23  1  0.470285  0.118778  0.206983  1
  Pb  Pb24  1  0.998301  0.999678  0.006916  1
  Pb  Pb25  1  0.498018  0.499464  0.507007  1
  Pb  Pb26  1  0.002977  0.999146  0.507033  1
  Pb  Pb27  1  0.499443  0.498795  0.006979  1
  C  C28  1  0.503809  0.002431  0.233873  1
  C  C29  1  0.004821  0.500828  0.732957  1
  C  C30  1  0.002884  0.497836  0.233105  1
  C  C31  1  0.504461  0.999873  0.733805  1
  Br  Br32  1  0.000701  0.000140  0.249786  1
  Br  Br33  1  0.500996  0.499438  0.749744  1
  Br  Br34  1  0.999714  0.000081  0.749750  1
  Br  Br35  1  0.499442  0.500361  0.249749  1
  Br  Br36  1  0.225343  0.727083  0.003737  1
  Br  Br37  1  0.728779  0.228321  0.502447  1
  Br  Br38  1  0.268770  0.223001  0.002644  1
  Br  Br39  1  0.773626  0.727668  0.501872  1
  Br  Br40  1  0.770423  0.271860  0.001939  1
  Br  Br41  1  0.273682  0.773160  0.503965  1
  Br  Br42  1  0.722299  0.769342  0.002957  1
  Br  Br43  1  0.226968  0.274144  0.503656  1
  N  N44  1  0.500888  0.999188  0.355984  1
  N  N45  1  0.000913  0.499549  0.855003  1
  N  N46  1  0.999525  0.499451  0.355083  1
  N  N47  1  0.502735  0.001886  0.855709  1
