# generated using pymatgen
data_Dy5Ni2Sb
_symmetry_space_group_name_H-M   'P 1'
_cell_length_a   7.61804455
_cell_length_b   7.61804455
_cell_length_c   8.59493983
_cell_angle_alpha   116.30633599
_cell_angle_beta   116.30633596
_cell_angle_gamma   90.00000005
_symmetry_Int_Tables_number   1
_chemical_formula_structural   Dy5Ni2Sb
_chemical_formula_sum   'Dy10 Ni4 Sb2'
_cell_volume   388.68321233
_cell_formula_units_Z   2
loop_
 _symmetry_equiv_pos_site_id
 _symmetry_equiv_pos_as_xyz
  1  'x, y, z'
loop_
 _atom_site_type_symbol
 _atom_site_label
 _atom_site_symmetry_multiplicity
 _atom_site_fract_x
 _atom_site_fract_y
 _atom_site_fract_z
 _atom_site_occupancy
  Ni  Ni0  1  0.368565  0.868565  0.000000  1
  Ni  Ni1  1  0.131435  0.368565  0.000000  1
  Ni  Ni2  1  0.631435  0.131435  0.000000  1
  Ni  Ni3  1  0.868565  0.631435  0.000000  1
  Sb  Sb4  1  0.250000  0.250000  0.500000  1
  Sb  Sb5  1  0.750000  0.750000  0.500000  1
  Dy  Dy6  1  0.206342  0.019508  0.725850  1
  Dy  Dy7  1  0.019508  0.519508  0.725850  1
  Dy  Dy8  1  0.706342  0.206342  0.725850  1
  Dy  Dy9  1  0.980492  0.480492  0.274150  1
  Dy  Dy10  1  0.519508  0.706342  0.725850  1
  Dy  Dy11  1  0.793658  0.980492  0.274150  1
  Dy  Dy12  1  0.480492  0.293658  0.274150  1
  Dy  Dy13  1  0.293658  0.793658  0.274150  1
  Dy  Dy14  1  0.500000  0.500000  0.000000  1
  Dy  Dy15  1  0.000000  0.000000  0.000000  1
