# generated using pymatgen
data_Ac3Sm
_symmetry_space_group_name_H-M   'P 1'
_cell_length_a   7.86203877
_cell_length_b   7.86203931
_cell_length_c   6.31901782
_cell_angle_alpha   90.00000000
_cell_angle_beta   90.00000000
_cell_angle_gamma   119.99999350
_symmetry_Int_Tables_number   1
_chemical_formula_structural   Ac3Sm
_chemical_formula_sum   'Ac6 Sm2'
_cell_volume   338.25999029
_cell_formula_units_Z   2
loop_
 _symmetry_equiv_pos_site_id
 _symmetry_equiv_pos_as_xyz
  1  'x, y, z'
loop_
 _atom_site_type_symbol
 _atom_site_label
 _atom_site_symmetry_multiplicity
 _atom_site_fract_x
 _atom_site_fract_y
 _atom_site_fract_z
 _atom_site_occupancy
  Ac  Ac0  1  0.168548  0.337096  0.249999  1
  Ac  Ac1  1  0.662904  0.831452  0.249999  1
  Ac  Ac2  1  0.168548  0.831452  0.249999  1
  Ac  Ac3  1  0.831453  0.662906  0.750000  1
  Ac  Ac4  1  0.337094  0.168547  0.750000  1
  Ac  Ac5  1  0.831451  0.168547  0.750000  1
  Sm  Sm6  1  0.333333  0.666667  0.750000  1
  Sm  Sm7  1  0.666666  0.333333  0.249999  1
