# generated using pymatgen
data_K3NpO2F5
_symmetry_space_group_name_H-M   'P 1'
_cell_length_a   9.28331419
_cell_length_b   9.28331418
_cell_length_c   11.29458938
_cell_angle_alpha   114.26533640
_cell_angle_beta   114.26533642
_cell_angle_gamma   89.99999996
_symmetry_Int_Tables_number   1
_chemical_formula_structural   K3NpO2F5
_chemical_formula_sum   'K12 Np4 O8 F20'
_cell_volume   792.09517081
_cell_formula_units_Z   4
loop_
 _symmetry_equiv_pos_site_id
 _symmetry_equiv_pos_as_xyz
  1  'x, y, z'
loop_
 _atom_site_type_symbol
 _atom_site_label
 _atom_site_symmetry_multiplicity
 _atom_site_fract_x
 _atom_site_fract_y
 _atom_site_fract_z
 _atom_site_occupancy
  O  O0  1  0.644181  0.160464  0.206621  1
  O  O1  1  0.046157  0.144181  0.706621  1
  O  O2  1  0.660464  0.062440  0.706621  1
  O  O3  1  0.562440  0.546157  0.206621  1
  O  O4  1  0.355819  0.839536  0.793379  1
  O  O5  1  0.953843  0.855819  0.293379  1
  O  O6  1  0.339536  0.937560  0.293379  1
  O  O7  1  0.437560  0.453843  0.793379  1
  F  F8  1  0.126351  0.557507  0.709677  1
  F  F9  1  0.152170  0.626351  0.209677  1
  F  F10  1  0.057507  0.083325  0.209677  1
  F  F11  1  0.583325  0.652170  0.709677  1
  F  F12  1  0.873649  0.442493  0.290323  1
  F  F13  1  0.847830  0.373649  0.790323  1
  F  F14  1  0.942493  0.916675  0.790323  1
  F  F15  1  0.416675  0.347830  0.290323  1
  F  F16  1  0.270358  0.520358  0.540715  1
  F  F17  1  0.020358  0.770358  0.040715  1
  F  F18  1  0.729642  0.479642  0.459285  1
  F  F19  1  0.979642  0.229642  0.959285  1
  F  F20  1  0.362421  0.236261  0.011578  1
  F  F21  1  0.775317  0.862421  0.511578  1
  F  F22  1  0.736261  0.149156  0.511578  1
  F  F23  1  0.649156  0.275317  0.011578  1
  F  F24  1  0.637579  0.763739  0.988422  1
  F  F25  1  0.224683  0.137579  0.488422  1
  F  F26  1  0.263739  0.850844  0.488422  1
  F  F27  1  0.350844  0.724683  0.988422  1
  K  K28  1  0.198652  0.473106  0.976549  1
  K  K29  1  0.503444  0.698652  0.476549  1
  K  K30  1  0.973106  0.277897  0.476549  1
  K  K31  1  0.777897  0.003444  0.976549  1
  K  K32  1  0.801348  0.526894  0.023451  1
  K  K33  1  0.496556  0.301348  0.523451  1
  K  K34  1  0.026894  0.722103  0.523451  1
  K  K35  1  0.222103  0.996556  0.023451  1
  K  K36  1  0.375000  0.125000  0.750000  1
  K  K37  1  0.625000  0.875000  0.250000  1
  K  K38  1  0.875000  0.625000  0.750000  1
  K  K39  1  0.125000  0.375000  0.250000  1
  Np  Np40  1  0.853745  0.103745  0.707490  1
  Np  Np41  1  0.603745  0.353745  0.207490  1
  Np  Np42  1  0.146255  0.896255  0.292510  1
  Np  Np43  1  0.396255  0.646255  0.792510  1
