# generated using pymatgen
data_Mg(CrSe2)2
_symmetry_space_group_name_H-M   'P 1'
_cell_length_a   7.61065791
_cell_length_b   7.60981851
_cell_length_c   7.61013696
_cell_angle_alpha   60.00371206
_cell_angle_beta   60.00669171
_cell_angle_gamma   60.00691336
_symmetry_Int_Tables_number   1
_chemical_formula_structural   Mg(CrSe2)2
_chemical_formula_sum   'Mg2 Cr4 Se8'
_cell_volume   311.69569699
_cell_formula_units_Z   2
loop_
 _symmetry_equiv_pos_site_id
 _symmetry_equiv_pos_as_xyz
  1  'x, y, z'
loop_
 _atom_site_type_symbol
 _atom_site_label
 _atom_site_symmetry_multiplicity
 _atom_site_fract_x
 _atom_site_fract_y
 _atom_site_fract_z
 _atom_site_occupancy
  Mg  Mg0  1  0.875028  0.875039  0.874986  1
  Mg  Mg1  1  0.125064  0.124989  0.124967  1
  Cr  Cr2  1  0.499958  0.500210  0.499776  1
  Cr  Cr3  1  0.499882  0.499883  0.000052  1
  Cr  Cr4  1  0.999780  0.500052  0.500145  1
  Cr  Cr5  1  0.499946  0.999803  0.500212  1
  Se  Se6  1  0.736889  0.736846  0.736850  1
  Se  Se7  1  0.263198  0.263168  0.710531  1
  Se  Se8  1  0.263185  0.710572  0.263127  1
  Se  Se9  1  0.710603  0.263144  0.263121  1
  Se  Se10  1  0.736888  0.289444  0.736826  1
  Se  Se11  1  0.289480  0.736838  0.736835  1
  Se  Se12  1  0.263183  0.263136  0.263162  1
  Se  Se13  1  0.736920  0.736872  0.289411  1
