# generated using pymatgen
data_CdSe2O5
_symmetry_space_group_name_H-M   'P 1'
_cell_length_a   6.23840082
_cell_length_b   7.08509426
_cell_length_c   7.08509425
_cell_angle_alpha   108.47403108
_cell_angle_beta   105.82430045
_cell_angle_gamma   105.82430052
_symmetry_Int_Tables_number   1
_chemical_formula_structural   CdSe2O5
_chemical_formula_sum   'Cd2 Se4 O10'
_cell_volume   262.70781792
_cell_formula_units_Z   2
loop_
 _symmetry_equiv_pos_site_id
 _symmetry_equiv_pos_as_xyz
  1  'x, y, z'
loop_
 _atom_site_type_symbol
 _atom_site_label
 _atom_site_symmetry_multiplicity
 _atom_site_fract_x
 _atom_site_fract_y
 _atom_site_fract_z
 _atom_site_occupancy
  O  O0  1  0.750000  0.081867  0.918133  1
  O  O1  1  0.250000  0.918133  0.081867  1
  O  O2  1  0.670241  0.721196  0.590152  1
  O  O3  1  0.829759  0.409848  0.278804  1
  O  O4  1  0.329759  0.278804  0.409848  1
  O  O5  1  0.170241  0.590152  0.721196  1
  O  O6  1  0.268169  0.521356  0.078479  1
  O  O7  1  0.231831  0.921521  0.478644  1
  O  O8  1  0.731831  0.478644  0.921521  1
  O  O9  1  0.768169  0.078479  0.521356  1
  Se  Se10  1  0.867617  0.986730  0.706269  1
  Se  Se11  1  0.632383  0.293731  0.013270  1
  Se  Se12  1  0.132383  0.013270  0.293731  1
  Se  Se13  1  0.367617  0.706269  0.986730  1
  Cd  Cd14  1  0.250000  0.587231  0.412769  1
  Cd  Cd15  1  0.750000  0.412769  0.587231  1
