# generated using pymatgen
data_KHfCuS3
_symmetry_space_group_name_H-M   'P 1'
_cell_length_a   3.73226406
_cell_length_b   7.39057345
_cell_length_c   9.76200861
_cell_angle_alpha   90.00000000
_cell_angle_beta   90.00000000
_cell_angle_gamma   104.62559677
_symmetry_Int_Tables_number   1
_chemical_formula_structural   KHfCuS3
_chemical_formula_sum   'K2 Hf2 Cu2 S6'
_cell_volume   260.54572926
_cell_formula_units_Z   2
loop_
 _symmetry_equiv_pos_site_id
 _symmetry_equiv_pos_as_xyz
  1  'x, y, z'
loop_
 _atom_site_type_symbol
 _atom_site_label
 _atom_site_symmetry_multiplicity
 _atom_site_fract_x
 _atom_site_fract_y
 _atom_site_fract_z
 _atom_site_occupancy
  S  S0  1  0.380624  0.761248  0.551186  1
  S  S1  1  0.619376  0.238752  0.448814  1
  S  S2  1  0.619376  0.238752  0.051186  1
  S  S3  1  0.063108  0.126217  0.750000  1
  S  S4  1  0.936892  0.873783  0.250000  1
  S  S5  1  0.380624  0.761248  0.948814  1
  K  K6  1  0.254682  0.509363  0.250000  1
  K  K7  1  0.745318  0.490637  0.750000  1
  Cu  Cu8  1  0.534552  0.069104  0.250000  1
  Cu  Cu9  1  0.465448  0.930896  0.750000  1
  Hf  Hf10  1  0.000000  0.000000  0.000000  1
  Hf  Hf11  1  0.000000  0.000000  0.500000  1
