# generated using pymatgen
data_Sr(DyS2)2
_symmetry_space_group_name_H-M   'P 1'
_cell_length_a   12.00152947
_cell_length_b   4.00227759
_cell_length_c   14.37851691
_cell_angle_alpha   90.00000000
_cell_angle_beta   90.00000000
_cell_angle_gamma   90.00000000
_symmetry_Int_Tables_number   1
_chemical_formula_structural   Sr(DyS2)2
_chemical_formula_sum   'Sr4 Dy8 S16'
_cell_volume   690.64980820
_cell_formula_units_Z   4
loop_
 _symmetry_equiv_pos_site_id
 _symmetry_equiv_pos_as_xyz
  1  'x, y, z'
loop_
 _atom_site_type_symbol
 _atom_site_label
 _atom_site_symmetry_multiplicity
 _atom_site_fract_x
 _atom_site_fract_y
 _atom_site_fract_z
 _atom_site_occupancy
  Sr  Sr0  1  0.756993  0.249999  0.661345  1
  Sr  Sr1  1  0.743008  0.750002  0.161346  1
  Sr  Sr2  1  0.256993  0.249999  0.838654  1
  Sr  Sr3  1  0.243007  0.750002  0.338654  1
  Dy  Dy4  1  0.429605  0.249999  0.609641  1
  Dy  Dy5  1  0.070395  0.750002  0.109641  1
  Dy  Dy6  1  0.929605  0.249999  0.890359  1
  Dy  Dy7  1  0.570396  0.750002  0.390359  1
  Dy  Dy8  1  0.420458  0.249999  0.101376  1
  Dy  Dy9  1  0.079542  0.750002  0.601376  1
  Dy  Dy10  1  0.920459  0.249999  0.398624  1
  Dy  Dy11  1  0.579542  0.750002  0.898625  1
  S  S12  1  0.020600  0.249999  0.715829  1
  S  S13  1  0.479399  0.750002  0.215829  1
  S  S14  1  0.520601  0.249999  0.784171  1
  S  S15  1  0.979399  0.750002  0.284171  1
  S  S16  1  0.131529  0.249999  0.474510  1
  S  S17  1  0.368471  0.750002  0.974510  1
  S  S18  1  0.631529  0.249999  0.025491  1
  S  S19  1  0.868470  0.750002  0.525491  1
  S  S20  1  0.208649  0.249999  0.176102  1
  S  S21  1  0.291350  0.750002  0.676103  1
  S  S22  1  0.708649  0.249999  0.323898  1
  S  S23  1  0.791351  0.750002  0.823898  1
  S  S24  1  0.416274  0.249999  0.420781  1
  S  S25  1  0.083725  0.750002  0.920782  1
  S  S26  1  0.916275  0.249999  0.079217  1
  S  S27  1  0.583725  0.750002  0.579218  1
