# generated using pymatgen
data_Na2P3HO9
_symmetry_space_group_name_H-M   'P 1'
_cell_length_a   7.80705207
_cell_length_b   6.75572607
_cell_length_c   7.17255848
_cell_angle_alpha   91.25079472
_cell_angle_beta   92.21729100
_cell_angle_gamma   102.12679545
_symmetry_Int_Tables_number   1
_chemical_formula_structural   Na2P3HO9
_chemical_formula_sum   'Na4 P6 H2 O18'
_cell_volume   369.40490073
_cell_formula_units_Z   2
loop_
 _symmetry_equiv_pos_site_id
 _symmetry_equiv_pos_as_xyz
  1  'x, y, z'
loop_
 _atom_site_type_symbol
 _atom_site_label
 _atom_site_symmetry_multiplicity
 _atom_site_fract_x
 _atom_site_fract_y
 _atom_site_fract_z
 _atom_site_occupancy
  Na  Na0  1  0.136656  0.905674  0.350608  1
  Na  Na1  1  0.149992  0.412113  0.357318  1
  Na  Na2  1  0.850007  0.587886  0.642682  1
  Na  Na3  1  0.863345  0.094326  0.649392  1
  P  P4  1  0.771630  0.538672  0.157548  1
  P  P5  1  0.766112  0.092944  0.160903  1
  P  P6  1  0.546138  0.763889  0.364391  1
  P  P7  1  0.453863  0.236112  0.635610  1
  P  P8  1  0.233889  0.907055  0.839097  1
  P  P9  1  0.228370  0.461329  0.842452  1
  H  H10  1  0.804903  0.832022  0.970546  1
  H  H11  1  0.195096  0.167978  0.029455  1
  O  O12  1  0.189293  0.359091  0.027849  1
  O  O13  1  0.201632  0.001721  0.029270  1
  O  O14  1  0.710923  0.299588  0.105223  1
  O  O15  1  0.590345  0.586705  0.224393  1
  O  O16  1  0.586236  0.962389  0.230270  1
  O  O17  1  0.911956  0.119511  0.306384  1
  O  O18  1  0.913827  0.582734  0.307985  1
  O  O19  1  0.353119  0.715155  0.384235  1
  O  O20  1  0.328639  0.202908  0.469788  1
  O  O21  1  0.671361  0.797092  0.530212  1
  O  O22  1  0.646881  0.284844  0.615767  1
  O  O23  1  0.086173  0.417265  0.692016  1
  O  O24  1  0.088045  0.880490  0.693616  1
  O  O25  1  0.413763  0.037612  0.769729  1
  O  O26  1  0.409655  0.413295  0.775607  1
  O  O27  1  0.289076  0.700413  0.894777  1
  O  O28  1  0.798367  0.998278  0.970730  1
  O  O29  1  0.810706  0.640909  0.972151  1
