# generated using pymatgen
data_Tl2(IO3)3
_symmetry_space_group_name_H-M   'P 1'
_cell_length_a   7.21881470
_cell_length_b   7.24958920
_cell_length_c   10.70029338
_cell_angle_alpha   86.80572997
_cell_angle_beta   72.95527977
_cell_angle_gamma   72.23682166
_symmetry_Int_Tables_number   1
_chemical_formula_structural   Tl2(IO3)3
_chemical_formula_sum   'Tl4 I6 O18'
_cell_volume   509.51297293
_cell_formula_units_Z   2
loop_
 _symmetry_equiv_pos_site_id
 _symmetry_equiv_pos_as_xyz
  1  'x, y, z'
loop_
 _atom_site_type_symbol
 _atom_site_label
 _atom_site_symmetry_multiplicity
 _atom_site_fract_x
 _atom_site_fract_y
 _atom_site_fract_z
 _atom_site_occupancy
  Tl  Tl0  1  0.000005  0.499995  0.000010  1
  Tl  Tl1  1  0.159310  0.531145  0.601393  1
  Tl  Tl2  1  0.840692  0.468847  0.398604  1
  Tl  Tl3  1  0.500008  0.999996  0.999995  1
  I  I4  1  0.412156  0.946865  0.370020  1
  I  I5  1  0.587854  0.053128  0.629970  1
  I  I6  1  0.446193  0.462035  0.191571  1
  I  I7  1  0.553798  0.537964  0.808433  1
  I  I8  1  0.034081  0.024882  0.809004  1
  I  I9  1  0.965922  0.975130  0.190999  1
  O  O10  1  0.337244  0.064169  0.608220  1
  O  O11  1  0.662765  0.935826  0.391769  1
  O  O12  1  0.589718  0.299437  0.583272  1
  O  O13  1  0.410281  0.700562  0.416723  1
  O  O14  1  0.922619  0.288108  0.813196  1
  O  O15  1  0.077386  0.711907  0.186806  1
  O  O16  1  0.960044  0.951035  0.674685  1
  O  O17  1  0.039939  0.048978  0.325326  1
  O  O18  1  0.287494  0.646646  0.809009  1
  O  O19  1  0.712498  0.353351  0.190995  1
  O  O20  1  0.680020  0.665988  0.675329  1
  O  O21  1  0.319974  0.334011  0.324672  1
  O  O22  1  0.564377  0.672759  0.949467  1
  O  O23  1  0.435613  0.327231  0.050537  1
  O  O24  1  0.843115  0.952412  0.950009  1
  O  O25  1  0.156896  0.047605  0.050000  1
  O  O26  1  0.466769  0.123449  0.808626  1
  O  O27  1  0.533228  0.876535  0.191366  1
