# generated using pymatgen
data_Lu2Ni12P7
_symmetry_space_group_name_H-M   'P 1'
_cell_length_a   9.00840461
_cell_length_b   9.00673606
_cell_length_c   3.64714841
_cell_angle_alpha   90.00000000
_cell_angle_beta   90.00000000
_cell_angle_gamma   119.99923132
_symmetry_Int_Tables_number   1
_chemical_formula_structural   Lu2Ni12P7
_chemical_formula_sum   'Lu2 Ni12 P7'
_cell_volume   256.27294017
_cell_formula_units_Z   1
loop_
 _symmetry_equiv_pos_site_id
 _symmetry_equiv_pos_as_xyz
  1  'x, y, z'
loop_
 _atom_site_type_symbol
 _atom_site_label
 _atom_site_symmetry_multiplicity
 _atom_site_fract_x
 _atom_site_fract_y
 _atom_site_fract_z
 _atom_site_occupancy
  Lu  Lu0  1  0.333364  0.666654  0.000000  1
  Lu  Lu1  1  0.666674  0.333466  0.500000  1
  Ni  Ni2  1  0.153114  0.275998  0.000000  1
  Ni  Ni3  1  0.724031  0.877115  0.000000  1
  Ni  Ni4  1  0.122875  0.846903  0.000000  1
  Ni  Ni5  1  0.381768  0.431763  0.500000  1
  Ni  Ni6  1  0.568171  0.950069  0.500000  1
  Ni  Ni7  1  0.050020  0.618204  0.500000  1
  Ni  Ni8  1  0.436664  0.061071  0.000000  1
  Ni  Ni9  1  0.938887  0.375467  0.000000  1
  Ni  Ni10  1  0.624451  0.563435  0.000000  1
  Ni  Ni11  1  0.216742  0.093722  0.500000  1
  Ni  Ni12  1  0.906335  0.123055  0.500000  1
  Ni  Ni13  1  0.876905  0.783054  0.500000  1
  P  P14  1  0.113703  0.408219  0.500000  1
  P  P15  1  0.591812  0.705474  0.500000  1
  P  P16  1  0.294498  0.886312  0.500000  1
  P  P17  1  0.408008  0.291597  0.000000  1
  P  P18  1  0.708450  0.116441  0.000000  1
  P  P19  1  0.883546  0.592011  0.000000  1
  P  P20  1  -0.000022  0.999972  0.000000  1
