# generated using pymatgen
data_Tm3Mg
_symmetry_space_group_name_H-M   'P 1'
_cell_length_a   6.91639496
_cell_length_b   6.91639529
_cell_length_c   5.49807966
_cell_angle_alpha   90.00000000
_cell_angle_beta   90.00000000
_cell_angle_gamma   119.99999842
_symmetry_Int_Tables_number   1
_chemical_formula_structural   Tm3Mg
_chemical_formula_sum   'Tm6 Mg2'
_cell_volume   227.77248428
_cell_formula_units_Z   2
loop_
 _symmetry_equiv_pos_site_id
 _symmetry_equiv_pos_as_xyz
  1  'x, y, z'
loop_
 _atom_site_type_symbol
 _atom_site_label
 _atom_site_symmetry_multiplicity
 _atom_site_fract_x
 _atom_site_fract_y
 _atom_site_fract_z
 _atom_site_occupancy
  Tm  Tm0  1  0.168739  0.337476  0.250000  1
  Tm  Tm1  1  0.168739  0.831261  0.250000  1
  Tm  Tm2  1  0.662523  0.831261  0.250000  1
  Tm  Tm3  1  0.337476  0.168739  0.749999  1
  Tm  Tm4  1  0.831261  0.168739  0.749999  1
  Tm  Tm5  1  0.831261  0.662523  0.749999  1
  Mg  Mg6  1  0.666668  0.333334  0.250000  1
  Mg  Mg7  1  0.333334  0.666668  0.749999  1
