# generated using pymatgen
data_Sr3SiO5
_symmetry_space_group_name_H-M   'P 1'
_cell_length_a   6.94945402
_cell_length_b   6.94945402
_cell_length_c   7.34293338
_cell_angle_alpha   118.24266791
_cell_angle_beta   118.24266791
_cell_angle_gamma   90.00000000
_symmetry_Int_Tables_number   1
_chemical_formula_structural   Sr3SiO5
_chemical_formula_sum   'Sr6 Si2 O10'
_cell_volume   263.51154751
_cell_formula_units_Z   2
loop_
 _symmetry_equiv_pos_site_id
 _symmetry_equiv_pos_as_xyz
  1  'x, y, z'
loop_
 _atom_site_type_symbol
 _atom_site_label
 _atom_site_symmetry_multiplicity
 _atom_site_fract_x
 _atom_site_fract_y
 _atom_site_fract_z
 _atom_site_occupancy
  Sr  Sr0  1  0.000000  0.500000  0.000000  1
  Sr  Sr1  1  0.500000  0.000000  0.000000  1
  Sr  Sr2  1  0.566597  0.566597  0.500001  1
  Sr  Sr3  1  0.933404  0.933404  0.500001  1
  Sr  Sr4  1  0.066597  0.433404  0.500001  1
  Sr  Sr5  1  0.433404  0.066597  0.500001  1
  Si  Si6  1  0.999999  0.999999  0.999999  1
  Si  Si7  1  0.499999  0.499999  0.999999  1
  O  O8  1  0.750001  0.250001  0.500001  1
  O  O9  1  0.250001  0.750001  0.500001  1
  O  O10  1  0.774883  0.040537  0.815420  1
  O  O11  1  0.040537  0.774882  0.815420  1
  O  O12  1  0.959462  0.959463  0.184580  1
  O  O13  1  0.225117  0.225117  0.184580  1
  O  O14  1  0.459462  0.725117  0.184580  1
  O  O15  1  0.725117  0.459463  0.184580  1
  O  O16  1  0.540537  0.540537  0.815420  1
  O  O17  1  0.274883  0.274882  0.815420  1
