# generated using pymatgen
data_RbSeBr3
_symmetry_space_group_name_H-M   'P 1'
_cell_length_a   5.71740658
_cell_length_b   7.49085681
_cell_length_c   9.22833323
_cell_angle_alpha   90.00000000
_cell_angle_beta   90.00000000
_cell_angle_gamma   96.92611110
_symmetry_Int_Tables_number   1
_chemical_formula_structural   RbSeBr3
_chemical_formula_sum   'Rb2 Se2 Br6'
_cell_volume   392.34936301
_cell_formula_units_Z   2
loop_
 _symmetry_equiv_pos_site_id
 _symmetry_equiv_pos_as_xyz
  1  'x, y, z'
loop_
 _atom_site_type_symbol
 _atom_site_label
 _atom_site_symmetry_multiplicity
 _atom_site_fract_x
 _atom_site_fract_y
 _atom_site_fract_z
 _atom_site_occupancy
  Rb  Rb0  1  0.798629  0.394004  0.999990  1
  Rb  Rb1  1  0.201371  0.605996  0.499990  1
  Se  Se2  1  0.000001  0.999999  0.749991  1
  Se  Se3  1  0.999999  0.000001  0.249991  1
  Br  Br4  1  0.720614  0.697582  0.722679  1
  Br  Br5  1  0.279386  0.302418  0.222679  1
  Br  Br6  1  0.720613  0.697579  0.277293  1
  Br  Br7  1  0.279387  0.302421  0.777293  1
  Br  Br8  1  0.152394  0.887336  0.999985  1
  Br  Br9  1  0.847606  0.112663  0.499985  1
