# generated using pymatgen
data_LuSb3
_symmetry_space_group_name_H-M   'P 1'
_cell_length_a   6.53593621
_cell_length_b   6.53593701
_cell_length_c   5.79472991
_cell_angle_alpha   90.00000000
_cell_angle_beta   90.00000000
_cell_angle_gamma   120.00000098
_symmetry_Int_Tables_number   1
_chemical_formula_structural   LuSb3
_chemical_formula_sum   'Lu2 Sb6'
_cell_volume   214.37764148
_cell_formula_units_Z   2
loop_
 _symmetry_equiv_pos_site_id
 _symmetry_equiv_pos_as_xyz
  1  'x, y, z'
loop_
 _atom_site_type_symbol
 _atom_site_label
 _atom_site_symmetry_multiplicity
 _atom_site_fract_x
 _atom_site_fract_y
 _atom_site_fract_z
 _atom_site_occupancy
  Lu  Lu0  1  0.666667  0.333332  0.250000  1
  Lu  Lu1  1  0.333333  0.666666  0.750001  1
  Sb  Sb2  1  0.824390  0.175610  0.750001  1
  Sb  Sb3  1  0.351221  0.175610  0.750001  1
  Sb  Sb4  1  0.824390  0.648779  0.750001  1
  Sb  Sb5  1  0.175609  0.824390  0.250000  1
  Sb  Sb6  1  0.648780  0.824390  0.250000  1
  Sb  Sb7  1  0.175609  0.351219  0.250000  1
