# generated using pymatgen
data_PW4Cl11
_symmetry_space_group_name_H-M   'P 1'
_cell_length_a   8.70436497
_cell_length_b   8.70436497
_cell_length_c   11.52383867
_cell_angle_alpha   89.46636552
_cell_angle_beta   90.53363448
_cell_angle_gamma   109.53978775
_symmetry_Int_Tables_number   1
_chemical_formula_structural   PW4Cl11
_chemical_formula_sum   'P2 W8 Cl22'
_cell_volume   822.77816897
_cell_formula_units_Z   2
loop_
 _symmetry_equiv_pos_site_id
 _symmetry_equiv_pos_as_xyz
  1  'x, y, z'
loop_
 _atom_site_type_symbol
 _atom_site_label
 _atom_site_symmetry_multiplicity
 _atom_site_fract_x
 _atom_site_fract_y
 _atom_site_fract_z
 _atom_site_occupancy
  P  P0  1  0.324163  0.675837  0.251065  1
  P  P1  1  0.675836  0.324163  0.748935  1
  W  W2  1  0.355338  0.905099  0.372148  1
  W  W3  1  0.905099  0.355338  0.627853  1
  W  W4  1  0.644661  0.094899  0.627853  1
  W  W5  1  0.094900  0.644660  0.372148  1
  W  W6  1  0.355367  0.904932  0.127000  1
  W  W7  1  0.904931  0.355367  0.872999  1
  W  W8  1  0.644634  0.095069  0.872999  1
  W  W9  1  0.095069  0.644634  0.127000  1
  Cl  Cl10  1  0.129988  0.870012  0.993920  1
  Cl  Cl11  1  0.870012  0.129988  0.006079  1
  Cl  Cl12  1  0.519708  0.821252  0.986543  1
  Cl  Cl13  1  0.821252  0.519708  0.013456  1
  Cl  Cl14  1  0.480293  0.178749  0.013456  1
  Cl  Cl15  1  0.178748  0.480293  0.986543  1
  Cl  Cl16  1  0.129926  0.870074  0.502496  1
  Cl  Cl17  1  0.870074  0.129926  0.497504  1
  Cl  Cl18  1  0.519551  0.821413  0.516123  1
  Cl  Cl19  1  0.821414  0.519550  0.483877  1
  Cl  Cl20  1  0.480450  0.178586  0.483877  1
  Cl  Cl21  1  0.178587  0.480449  0.516123  1
  Cl  Cl22  1  0.245009  0.068781  0.247575  1
  Cl  Cl23  1  0.068782  0.245009  0.752424  1
  Cl  Cl24  1  0.754991  0.931218  0.752424  1
  Cl  Cl25  1  0.931218  0.754990  0.247575  1
  Cl  Cl26  1  0.467896  0.532104  0.252782  1
  Cl  Cl27  1  0.532103  0.467897  0.747217  1
  Cl  Cl28  1  0.605089  0.010944  0.250665  1
  Cl  Cl29  1  0.010943  0.605090  0.749335  1
  Cl  Cl30  1  0.394910  0.989057  0.749335  1
  Cl  Cl31  1  0.989056  0.394911  0.250665  1
