# generated using pymatgen
data_Nd3AlNiS7
_symmetry_space_group_name_H-M   'P 1'
_cell_length_a   10.01491156
_cell_length_b   10.01486289
_cell_length_c   6.02138574
_cell_angle_alpha   89.99753821
_cell_angle_beta   90.00069903
_cell_angle_gamma   120.00209757
_symmetry_Int_Tables_number   1
_chemical_formula_structural   Nd3AlNiS7
_chemical_formula_sum   'Nd6 Al2 Ni2 S14'
_cell_volume   523.01004215
_cell_formula_units_Z   2
loop_
 _symmetry_equiv_pos_site_id
 _symmetry_equiv_pos_as_xyz
  1  'x, y, z'
loop_
 _atom_site_type_symbol
 _atom_site_label
 _atom_site_symmetry_multiplicity
 _atom_site_fract_x
 _atom_site_fract_y
 _atom_site_fract_z
 _atom_site_occupancy
  Nd  Nd0  1  0.140460  0.372221  0.229120  1
  Nd  Nd1  1  0.859508  0.627740  0.729235  1
  Nd  Nd2  1  0.627804  0.768254  0.229116  1
  Nd  Nd3  1  0.231767  0.859539  0.229144  1
  Nd  Nd4  1  0.768211  0.140457  0.729319  1
  Nd  Nd5  1  0.372215  0.231787  0.729307  1
  Al  Al6  1  0.333361  0.666680  0.652111  1
  Al  Al7  1  0.666680  0.333339  0.152138  1
  Ni  Ni8  1  0.000017  0.999988  0.004153  1
  Ni  Ni9  1  0.999994  0.999976  0.503995  1
  S  S10  1  0.333357  0.666694  0.021286  1
  S  S11  1  0.666630  0.333297  0.521338  1
  S  S12  1  0.420022  0.517576  0.503541  1
  S  S13  1  0.579999  0.482424  0.003570  1
  S  S14  1  0.482453  0.902455  0.503521  1
  S  S15  1  0.097559  0.579977  0.503545  1
  S  S16  1  0.902443  0.420054  0.003563  1
  S  S17  1  0.517567  0.097579  0.003540  1
  S  S18  1  0.087047  0.227717  0.768809  1
  S  S19  1  0.912963  0.772267  0.268694  1
  S  S20  1  0.772257  0.859320  0.768880  1
  S  S21  1  0.140655  0.912929  0.768858  1
  S  S22  1  0.859311  0.087057  0.268614  1
  S  S23  1  0.227725  0.140678  0.268598  1
