# generated using pymatgen
data_SrHg3
_symmetry_space_group_name_H-M   'P 1'
_cell_length_a   5.51402608
_cell_length_b   5.83068626
_cell_length_c   7.05633082
_cell_angle_alpha   90.00001267
_cell_angle_beta   90.00019832
_cell_angle_gamma   90.00035252
_symmetry_Int_Tables_number   1
_chemical_formula_structural   SrHg3
_chemical_formula_sum   'Sr2 Hg6'
_cell_volume   226.86495990
_cell_formula_units_Z   2
loop_
 _symmetry_equiv_pos_site_id
 _symmetry_equiv_pos_as_xyz
  1  'x, y, z'
loop_
 _atom_site_type_symbol
 _atom_site_label
 _atom_site_symmetry_multiplicity
 _atom_site_fract_x
 _atom_site_fract_y
 _atom_site_fract_z
 _atom_site_occupancy
  Sr  Sr0  1  0.750001  0.154799  0.749999  1
  Sr  Sr1  1  0.249999  0.845199  0.249999  1
  Hg  Hg2  1  0.750000  0.663203  0.495799  1
  Hg  Hg3  1  0.749999  0.663202  0.004201  1
  Hg  Hg4  1  0.749999  0.191073  0.249999  1
  Hg  Hg5  1  0.249999  0.336796  0.995796  1
  Hg  Hg6  1  0.250000  0.336797  0.504202  1
  Hg  Hg7  1  0.250001  0.808927  0.749999  1
