# generated using pymatgen
data_Tb3Nd
_symmetry_space_group_name_H-M   'P 1'
_cell_length_a   7.29697366
_cell_length_b   7.29697236
_cell_length_c   5.76971618
_cell_angle_alpha   90.00000000
_cell_angle_beta   90.00000000
_cell_angle_gamma   120.00000589
_symmetry_Int_Tables_number   1
_chemical_formula_structural   Tb3Nd
_chemical_formula_sum   'Tb6 Nd2'
_cell_volume   266.05445528
_cell_formula_units_Z   2
loop_
 _symmetry_equiv_pos_site_id
 _symmetry_equiv_pos_as_xyz
  1  'x, y, z'
loop_
 _atom_site_type_symbol
 _atom_site_label
 _atom_site_symmetry_multiplicity
 _atom_site_fract_x
 _atom_site_fract_y
 _atom_site_fract_z
 _atom_site_occupancy
  Tb  Tb0  1  0.668919  0.834459  0.250000  1
  Tb  Tb1  1  0.165540  0.331081  0.250000  1
  Tb  Tb2  1  0.834459  0.165542  0.749999  1
  Tb  Tb3  1  0.331082  0.165542  0.749999  1
  Tb  Tb4  1  0.834460  0.668919  0.749999  1
  Tb  Tb5  1  0.165540  0.834459  0.250000  1
  Nd  Nd6  1  0.666667  0.333334  0.250000  1
  Nd  Nd7  1  0.333334  0.666668  0.749999  1
