# generated using pymatgen
data_LaOsN3
_symmetry_space_group_name_H-M   'P 1'
_cell_length_a   3.66525739
_cell_length_b   5.70017255
_cell_length_c   6.74748926
_cell_angle_alpha   89.99965185
_cell_angle_beta   89.99975907
_cell_angle_gamma   89.99989593
_symmetry_Int_Tables_number   1
_chemical_formula_structural   LaOsN3
_chemical_formula_sum   'La2 Os2 N6'
_cell_volume   140.97259116
_cell_formula_units_Z   2
loop_
 _symmetry_equiv_pos_site_id
 _symmetry_equiv_pos_as_xyz
  1  'x, y, z'
loop_
 _atom_site_type_symbol
 _atom_site_label
 _atom_site_symmetry_multiplicity
 _atom_site_fract_x
 _atom_site_fract_y
 _atom_site_fract_z
 _atom_site_occupancy
  La  La0  1  0.000008  0.749993  0.792208  1
  La  La1  1  -0.000002  0.250007  0.207784  1
  Os  Os2  1  0.500002  0.749999  0.194750  1
  Os  Os3  1  0.499995  0.249998  0.805250  1
  N  N4  1  0.499996  0.492645  0.594243  1
  N  N5  1  0.500005  0.999998  0.000001  1
  N  N6  1  0.500001  0.007360  0.594241  1
  N  N7  1  0.499996  0.507359  0.405763  1
  N  N8  1  0.500000  0.499999  0.000001  1
  N  N9  1  0.499999  0.992641  0.405760  1
