# generated using pymatgen
data_Fe7Se3
_symmetry_space_group_name_H-M   'P 1'
_cell_length_a   5.64625546
_cell_length_b   7.96357602
_cell_length_c   13.74978834
_cell_angle_alpha   90.00000000
_cell_angle_beta   65.75476139
_cell_angle_gamma   90.00000000
_symmetry_Int_Tables_number   1
_chemical_formula_structural   Fe7Se3
_chemical_formula_sum   'Fe28 Se12'
_cell_volume   563.71868602
_cell_formula_units_Z   4
loop_
 _symmetry_equiv_pos_site_id
 _symmetry_equiv_pos_as_xyz
  1  'x, y, z'
loop_
 _atom_site_type_symbol
 _atom_site_label
 _atom_site_symmetry_multiplicity
 _atom_site_fract_x
 _atom_site_fract_y
 _atom_site_fract_z
 _atom_site_occupancy
  Fe  Fe0  1  0.785421  0.508311  0.196646  1
  Fe  Fe1  1  0.172380  0.413096  0.008621  1
  Fe  Fe2  1  0.452694  0.250000  0.299082  1
  Fe  Fe3  1  0.189621  0.086904  0.491379  1
  Fe  Fe4  1  0.821287  0.491689  0.696646  1
  Fe  Fe5  1  0.503539  0.250000  0.813616  1
  Fe  Fe6  1  0.496461  0.750000  0.186384  1
  Fe  Fe7  1  0.038972  0.750000  0.598935  1
  Fe  Fe8  1  0.214579  0.008311  0.803354  1
  Fe  Fe9  1  0.547306  0.750000  0.700918  1
  Fe  Fe10  1  0.214579  0.491689  0.803354  1
  Fe  Fe11  1  -0.038972  0.250000  0.401065  1
  Fe  Fe12  1  0.130771  0.250000  0.686384  1
  Fe  Fe13  1  0.821287  0.008311  0.696646  1
  Fe  Fe14  1  0.178713  0.508311  0.303354  1
  Fe  Fe15  1  0.869229  0.750000  0.313616  1
  Fe  Fe16  1  0.810379  0.913096  0.508621  1
  Fe  Fe17  1  0.178713  0.991689  0.303354  1
  Fe  Fe18  1  0.810379  0.586904  0.508621  1
  Fe  Fe19  1  0.827620  0.586904  0.991379  1
  Fe  Fe20  1  0.172380  0.086904  0.008621  1
  Fe  Fe21  1  0.949143  0.750000  0.799082  1
  Fe  Fe22  1  0.236842  0.750000  0.901065  1
  Fe  Fe23  1  0.050857  0.250000  0.200918  1
  Fe  Fe24  1  0.785421  0.991689  0.196646  1
  Fe  Fe25  1  0.827620  0.913096  0.991379  1
  Fe  Fe26  1  0.189621  0.413096  0.491379  1
  Fe  Fe27  1  0.763158  0.250000  0.098935  1
  Se  Se28  1  0.020674  0.750000  0.099301  1
  Se  Se29  1  0.219277  0.750000  0.400699  1
  Se  Se30  1  0.574253  0.538234  0.878232  1
  Se  Se31  1  0.669284  0.461766  0.378232  1
  Se  Se32  1  0.425747  0.461766  0.121768  1
  Se  Se33  1  0.780723  0.250000  0.599301  1
  Se  Se34  1  0.330716  0.538234  0.621768  1
  Se  Se35  1  0.669284  0.038234  0.378232  1
  Se  Se36  1  0.574253  0.961766  0.878232  1
  Se  Se37  1  0.425747  0.038234  0.121768  1
  Se  Se38  1  -0.020674  0.250000  0.900699  1
  Se  Se39  1  0.330716  0.961766  0.621768  1
