# generated using pymatgen
data_Tl4SnS3
_symmetry_space_group_name_H-M   'P 1'
_cell_length_a   8.14443970
_cell_length_b   8.14443970
_cell_length_c   14.51139494
_cell_angle_alpha   90.00000000
_cell_angle_beta   90.00000000
_cell_angle_gamma   90.00000000
_symmetry_Int_Tables_number   1
_chemical_formula_structural   Tl4SnS3
_chemical_formula_sum   'Tl16 Sn4 S12'
_cell_volume   962.56836939
_cell_formula_units_Z   4
loop_
 _symmetry_equiv_pos_site_id
 _symmetry_equiv_pos_as_xyz
  1  'x, y, z'
loop_
 _atom_site_type_symbol
 _atom_site_label
 _atom_site_symmetry_multiplicity
 _atom_site_fract_x
 _atom_site_fract_y
 _atom_site_fract_z
 _atom_site_occupancy
  S  S0  1  0.920276  0.079724  0.750000  1
  S  S1  1  0.420276  0.920276  0.750000  1
  S  S2  1  0.079724  0.579724  0.750000  1
  S  S3  1  0.579724  0.420276  0.750000  1
  S  S4  1  0.079724  0.920276  0.250000  1
  S  S5  1  0.579724  0.079724  0.250000  1
  S  S6  1  0.920276  0.420276  0.250000  1
  S  S7  1  0.250000  0.250000  0.414703  1
  S  S8  1  0.420276  0.579724  0.250000  1
  S  S9  1  0.750000  0.750000  0.585297  1
  S  S10  1  0.750000  0.750000  0.085297  1
  S  S11  1  0.250000  0.250000  0.914703  1
  Sn  Sn12  1  0.250000  0.250000  0.740046  1
  Sn  Sn13  1  0.750000  0.750000  0.759954  1
  Sn  Sn14  1  0.750000  0.750000  0.259954  1
  Sn  Sn15  1  0.250000  0.250000  0.240046  1
  Tl  Tl16  1  0.890335  0.409526  0.609238  1
  Tl  Tl17  1  0.609665  0.090474  0.609238  1
  Tl  Tl18  1  0.909526  0.390335  0.890762  1
  Tl  Tl19  1  0.409526  0.609665  0.609238  1
  Tl  Tl20  1  0.090474  0.890335  0.609238  1
  Tl  Tl21  1  0.109665  0.909526  0.890762  1
  Tl  Tl22  1  0.390335  0.590474  0.890762  1
  Tl  Tl23  1  0.590474  0.109665  0.890762  1
  Tl  Tl24  1  0.109665  0.590474  0.390762  1
  Tl  Tl25  1  0.390335  0.909526  0.390762  1
  Tl  Tl26  1  0.090474  0.609665  0.109238  1
  Tl  Tl27  1  0.590474  0.390335  0.390762  1
  Tl  Tl28  1  0.909526  0.109665  0.390762  1
  Tl  Tl29  1  0.890335  0.090474  0.109238  1
  Tl  Tl30  1  0.609665  0.409526  0.109238  1
  Tl  Tl31  1  0.409526  0.890335  0.109238  1
