# generated using pymatgen
data_Zr5Al3C
_symmetry_space_group_name_H-M   'P 1'
_cell_length_a   8.33852400
_cell_length_b   8.33852440
_cell_length_c   5.62451100
_cell_angle_alpha   90.00000000
_cell_angle_beta   90.00000000
_cell_angle_gamma   119.99980702
_symmetry_Int_Tables_number   1
_chemical_formula_structural   Zr5Al3C
_chemical_formula_sum   'Zr10 Al6 C2'
_cell_volume   338.68396349
_cell_formula_units_Z   2
loop_
 _symmetry_equiv_pos_site_id
 _symmetry_equiv_pos_as_xyz
  1  'x, y, z'
loop_
 _atom_site_type_symbol
 _atom_site_label
 _atom_site_symmetry_multiplicity
 _atom_site_fract_x
 _atom_site_fract_y
 _atom_site_fract_z
 _atom_site_occupancy
  Zr  Zr0  1  0.666668  0.333337  0.000000  1
  Zr  Zr1  1  0.333336  0.666667  0.000000  1
  Zr  Zr2  1  0.223855  0.999998  0.249999  1
  Zr  Zr3  1  0.999997  0.223856  0.249999  1
  Zr  Zr4  1  0.776142  0.776142  0.250004  1
  Zr  Zr5  1  0.666663  0.333332  0.500001  1
  Zr  Zr6  1  0.333333  0.666663  0.500001  1
  Zr  Zr7  1  0.776144  0.000001  0.749998  1
  Zr  Zr8  1  0.000002  0.776144  0.749998  1
  Zr  Zr9  1  0.223857  0.223857  0.750003  1
  Al  Al10  1  0.599835  0.000002  0.249995  1
  Al  Al11  1  0.000002  0.599834  0.249995  1
  Al  Al12  1  0.400158  0.400158  0.250008  1
  Al  Al13  1  0.400166  0.999998  0.749996  1
  Al  Al14  1  0.999997  0.400165  0.749996  1
  Al  Al15  1  0.599841  0.599841  0.750008  1
  C  C16  1  0.999997  0.999998  0.000000  1
  C  C17  1  0.000003  0.000003  0.500001  1
