# generated using pymatgen
data_SrGaSnH
_symmetry_space_group_name_H-M   'P 1'
_cell_length_a   4.48741791
_cell_length_b   4.48741675
_cell_length_c   5.16552383
_cell_angle_alpha   90.00149423
_cell_angle_beta   89.99853217
_cell_angle_gamma   119.99305449
_symmetry_Int_Tables_number   1
_chemical_formula_structural   SrGaSnH
_chemical_formula_sum   'Sr1 Ga1 Sn1 H1'
_cell_volume   90.08828370
_cell_formula_units_Z   1
loop_
 _symmetry_equiv_pos_site_id
 _symmetry_equiv_pos_as_xyz
  1  'x, y, z'
loop_
 _atom_site_type_symbol
 _atom_site_label
 _atom_site_symmetry_multiplicity
 _atom_site_fract_x
 _atom_site_fract_y
 _atom_site_fract_z
 _atom_site_occupancy
  Sr  Sr0  1  0.000008  0.999991  0.998458  1
  Ga  Ga1  1  0.666682  0.333319  0.600885  1
  Sn  Sn2  1  0.333328  0.666675  0.450563  1
  H  H3  1  0.666684  0.333315  0.939396  1
