# generated using pymatgen
data_Yb2Cu(GeO3)4
_symmetry_space_group_name_H-M   'P 1'
_cell_length_a   4.87479929
_cell_length_b   7.36132285
_cell_length_c   7.99779498
_cell_angle_alpha   66.32964358
_cell_angle_beta   86.94723441
_cell_angle_gamma   76.11693056
_symmetry_Int_Tables_number   1
_chemical_formula_structural   Yb2Cu(GeO3)4
_chemical_formula_sum   'Yb2 Cu1 Ge4 O12'
_cell_volume   254.87708588
_cell_formula_units_Z   1
loop_
 _symmetry_equiv_pos_site_id
 _symmetry_equiv_pos_as_xyz
  1  'x, y, z'
loop_
 _atom_site_type_symbol
 _atom_site_label
 _atom_site_symmetry_multiplicity
 _atom_site_fract_x
 _atom_site_fract_y
 _atom_site_fract_z
 _atom_site_occupancy
  O  O0  1  0.740633  0.944221  0.601698  1
  O  O1  1  0.259367  0.055779  0.398302  1
  O  O2  1  0.765661  0.592927  0.391465  1
  O  O3  1  0.234339  0.407073  0.608535  1
  O  O4  1  0.398766  0.647932  0.727327  1
  O  O5  1  0.601234  0.352068  0.272673  1
  O  O6  1  0.749186  0.703935  0.983844  1
  O  O7  1  0.757363  0.222480  0.821539  1
  O  O8  1  0.242637  0.777520  0.178461  1
  O  O9  1  0.775652  0.999730  0.195988  1
  O  O10  1  0.224348  0.000270  0.804012  1
  O  O11  1  0.250814  0.296065  0.016156  1
  Cu  Cu12  1  0.000000  0.000000  0.000000  1
  Ge  Ge13  1  0.530449  0.826465  0.778101  1
  Ge  Ge14  1  0.469551  0.173535  0.221899  1
  Ge  Ge15  1  0.588388  0.621080  0.198738  1
  Ge  Ge16  1  0.411612  0.378920  0.801262  1
  Yb  Yb17  1  0.063753  0.760445  0.456132  1
  Yb  Yb18  1  0.936247  0.239555  0.543868  1
