# generated using pymatgen
data_ErAgGe
_symmetry_space_group_name_H-M   'P 1'
_cell_length_a   7.32729717
_cell_length_b   7.32729717
_cell_length_c   4.09651836
_cell_angle_alpha   90.00000000
_cell_angle_beta   90.00000000
_cell_angle_gamma   119.99999997
_symmetry_Int_Tables_number   1
_chemical_formula_structural   ErAgGe
_chemical_formula_sum   'Er3 Ag3 Ge3'
_cell_volume   190.47287983
_cell_formula_units_Z   3
loop_
 _symmetry_equiv_pos_site_id
 _symmetry_equiv_pos_as_xyz
  1  'x, y, z'
loop_
 _atom_site_type_symbol
 _atom_site_label
 _atom_site_symmetry_multiplicity
 _atom_site_fract_x
 _atom_site_fract_y
 _atom_site_fract_z
 _atom_site_occupancy
  Ge  Ge0  1  0.731819  0.731819  0.500000  1
  Ge  Ge1  1  0.268181  0.000000  0.500000  1
  Ge  Ge2  1  0.000000  0.268181  0.500000  1
  Ag  Ag3  1  0.666667  0.333333  0.500000  1
  Ag  Ag4  1  0.000000  0.000000  0.000000  1
  Ag  Ag5  1  0.333333  0.666667  0.500000  1
  Er  Er6  1  0.000000  0.603564  0.000000  1
  Er  Er7  1  0.396436  0.396436  0.000000  1
  Er  Er8  1  0.603564  0.000000  0.000000  1
