# generated using pymatgen
data_HfNiPb
_symmetry_space_group_name_H-M   'P 1'
_cell_length_a   4.42926947
_cell_length_b   4.42926230
_cell_length_c   4.42968688
_cell_angle_alpha   60.00175139
_cell_angle_beta   59.99133677
_cell_angle_gamma   59.99964176
_symmetry_Int_Tables_number   1
_chemical_formula_structural   HfNiPb
_chemical_formula_sum   'Hf1 Ni1 Pb1'
_cell_volume   61.44657251
_cell_formula_units_Z   1
loop_
 _symmetry_equiv_pos_site_id
 _symmetry_equiv_pos_as_xyz
  1  'x, y, z'
loop_
 _atom_site_type_symbol
 _atom_site_label
 _atom_site_symmetry_multiplicity
 _atom_site_fract_x
 _atom_site_fract_y
 _atom_site_fract_z
 _atom_site_occupancy
  Hf  Hf0  1  0.000030  0.999997  0.999982  1
  Ni  Ni1  1  0.499996  0.499999  0.500004  1
  Pb  Pb2  1  0.249974  0.250004  0.250015  1
