# generated using pymatgen
data_UBiSb
_symmetry_space_group_name_H-M   'P 1'
_cell_length_a   4.41962780
_cell_length_b   4.41967485
_cell_length_c   8.82400899
_cell_angle_alpha   90.00068099
_cell_angle_beta   89.99910946
_cell_angle_gamma   89.99901566
_symmetry_Int_Tables_number   1
_chemical_formula_structural   UBiSb
_chemical_formula_sum   'U2 Bi2 Sb2'
_cell_volume   172.36217214
_cell_formula_units_Z   2
loop_
 _symmetry_equiv_pos_site_id
 _symmetry_equiv_pos_as_xyz
  1  'x, y, z'
loop_
 _atom_site_type_symbol
 _atom_site_label
 _atom_site_symmetry_multiplicity
 _atom_site_fract_x
 _atom_site_fract_y
 _atom_site_fract_z
 _atom_site_occupancy
  U  U0  1  0.249995  0.250003  0.293504  1
  U  U1  1  0.749991  0.749999  0.706501  1
  Bi  Bi2  1  0.750005  0.249998  0.999998  1
  Bi  Bi3  1  0.250001  0.750001  0.999996  1
  Sb  Sb4  1  0.250003  0.249999  0.647001  1
  Sb  Sb5  1  0.750002  0.749997  0.353000  1
