# generated using pymatgen
data_As3W
_symmetry_space_group_name_H-M   'P 1'
_cell_length_a   6.06181624
_cell_length_b   6.06181571
_cell_length_c   4.61278594
_cell_angle_alpha   90.00000000
_cell_angle_beta   90.00000000
_cell_angle_gamma   120.00000287
_symmetry_Int_Tables_number   1
_chemical_formula_structural   As3W
_chemical_formula_sum   'As6 W2'
_cell_volume   146.79099576
_cell_formula_units_Z   2
loop_
 _symmetry_equiv_pos_site_id
 _symmetry_equiv_pos_as_xyz
  1  'x, y, z'
loop_
 _atom_site_type_symbol
 _atom_site_label
 _atom_site_symmetry_multiplicity
 _atom_site_fract_x
 _atom_site_fract_y
 _atom_site_fract_z
 _atom_site_occupancy
  As  As0  1  0.187071  0.374142  0.249999  1
  As  As1  1  0.625858  0.812927  0.249999  1
  As  As2  1  0.187071  0.812927  0.249999  1
  As  As3  1  0.812929  0.625858  0.750000  1
  As  As4  1  0.374141  0.187072  0.750000  1
  As  As5  1  0.812929  0.187072  0.750000  1
  W  W6  1  0.333334  0.666668  0.750000  1
  W  W7  1  0.666666  0.333332  0.249999  1
