# generated using pymatgen
data_RbSrCl3
_symmetry_space_group_name_H-M   'P 1'
_cell_length_a   5.69859206
_cell_length_b   5.70256052
_cell_length_c   5.70253404
_cell_angle_alpha   90.06517409
_cell_angle_beta   90.14974998
_cell_angle_gamma   90.00048397
_symmetry_Int_Tables_number   1
_chemical_formula_structural   RbSrCl3
_chemical_formula_sum   'Rb1 Sr1 Cl3'
_cell_volume   185.31202167
_cell_formula_units_Z   1
loop_
 _symmetry_equiv_pos_site_id
 _symmetry_equiv_pos_as_xyz
  1  'x, y, z'
loop_
 _atom_site_type_symbol
 _atom_site_label
 _atom_site_symmetry_multiplicity
 _atom_site_fract_x
 _atom_site_fract_y
 _atom_site_fract_z
 _atom_site_occupancy
  Rb  Rb0  1  0.998767  0.997384  0.994432  1
  Sr  Sr1  1  0.484771  0.498568  0.494124  1
  Cl  Cl2  1  0.483615  0.998911  0.495029  1
  Cl  Cl3  1  0.984739  0.507762  0.511429  1
  Cl  Cl4  1  0.488109  0.497376  0.994984  1
