# generated using pymatgen
data_Y4C7
_symmetry_space_group_name_H-M   'P 1'
_cell_length_a   3.72263618
_cell_length_b   6.48688377
_cell_length_c   13.77382811
_cell_angle_alpha   90.00000000
_cell_angle_beta   90.00000000
_cell_angle_gamma   104.73670832
_symmetry_Int_Tables_number   1
_chemical_formula_structural   Y4C7
_chemical_formula_sum   'Y8 C14'
_cell_volume   321.67327961
_cell_formula_units_Z   2
loop_
 _symmetry_equiv_pos_site_id
 _symmetry_equiv_pos_as_xyz
  1  'x, y, z'
loop_
 _atom_site_type_symbol
 _atom_site_label
 _atom_site_symmetry_multiplicity
 _atom_site_fract_x
 _atom_site_fract_y
 _atom_site_fract_z
 _atom_site_occupancy
  C  C0  1  0.000000  0.500000  0.500000  1
  C  C1  1  0.000000  0.000000  0.000000  1
  C  C2  1  0.530855  0.076487  0.784207  1
  C  C3  1  0.469145  0.423513  0.284207  1
  C  C4  1  0.469145  0.923513  0.215793  1
  C  C5  1  0.530855  0.576487  0.715793  1
  C  C6  1  0.621560  0.452871  0.196601  1
  C  C7  1  0.378440  0.047129  0.696601  1
  C  C8  1  0.732582  0.949539  0.395389  1
  C  C9  1  0.267418  0.550461  0.895389  1
  C  C10  1  0.267418  0.050461  0.604611  1
  C  C11  1  0.732582  0.449539  0.104611  1
  C  C12  1  0.621560  0.952871  0.303399  1
  C  C13  1  0.378440  0.547129  0.803399  1
  Y  Y14  1  0.633718  0.261015  0.944913  1
  Y  Y15  1  0.366282  0.238985  0.444913  1
  Y  Y16  1  0.366282  0.738985  0.055087  1
  Y  Y17  1  0.633718  0.761015  0.555087  1
  Y  Y18  1  0.943951  0.339761  0.662567  1
  Y  Y19  1  0.056050  0.160239  0.162567  1
  Y  Y20  1  0.056050  0.660239  0.337433  1
  Y  Y21  1  0.943951  0.839761  0.837433  1
