# generated using pymatgen
data_SrTcN3
_symmetry_space_group_name_H-M   'P 1'
_cell_length_a   6.18054218
_cell_length_b   7.60032000
_cell_length_c   7.60031979
_cell_angle_alpha   92.21708291
_cell_angle_beta   101.48885148
_cell_angle_gamma   78.51115274
_symmetry_Int_Tables_number   1
_chemical_formula_structural   SrTcN3
_chemical_formula_sum   'Sr4 Tc4 N12'
_cell_volume   342.85451836
_cell_formula_units_Z   4
loop_
 _symmetry_equiv_pos_site_id
 _symmetry_equiv_pos_as_xyz
  1  'x, y, z'
loop_
 _atom_site_type_symbol
 _atom_site_label
 _atom_site_symmetry_multiplicity
 _atom_site_fract_x
 _atom_site_fract_y
 _atom_site_fract_z
 _atom_site_occupancy
  Sr  Sr0  1  0.750000  0.326390  0.326390  1
  Sr  Sr1  1  0.250000  0.092280  0.092280  1
  Sr  Sr2  1  0.250000  0.673610  0.673610  1
  Sr  Sr3  1  0.750000  0.907720  0.907720  1
  Tc  Tc4  1  0.745940  0.798190  0.375570  1
  Tc  Tc5  1  0.754060  0.375570  0.798190  1
  Tc  Tc6  1  0.245940  0.624430  0.201810  1
  Tc  Tc7  1  0.254060  0.201810  0.624430  1
  N  N8  1  0.000000  0.366870  0.675830  1
  N  N9  1  0.666280  0.987950  0.233110  1
  N  N10  1  0.333720  0.012050  0.766890  1
  N  N11  1  0.666320  0.594330  0.865650  1
  N  N12  1  0.833720  0.233110  0.987950  1
  N  N13  1  0.500000  0.324170  0.633130  1
  N  N14  1  0.166280  0.766890  0.012050  1
  N  N15  1  0.000000  0.633130  0.324170  1
  N  N16  1  0.500000  0.675830  0.366870  1
  N  N17  1  0.833680  0.865650  0.594330  1
  N  N18  1  0.333680  0.405670  0.134350  1
  N  N19  1  0.166320  0.134350  0.405670  1
