# generated using pymatgen
data_SiH6CI3N
_symmetry_space_group_name_H-M   'P 1'
_cell_length_a   8.59336923
_cell_length_b   8.58244408
_cell_length_c   12.95676868
_cell_angle_alpha   91.09395837
_cell_angle_beta   90.03011832
_cell_angle_gamma   88.83690136
_symmetry_Int_Tables_number   1
_chemical_formula_structural   SiH6CI3N
_chemical_formula_sum   'Si4 H24 C4 I12 N4'
_cell_volume   955.21800752
_cell_formula_units_Z   4
loop_
 _symmetry_equiv_pos_site_id
 _symmetry_equiv_pos_as_xyz
  1  'x, y, z'
loop_
 _atom_site_type_symbol
 _atom_site_label
 _atom_site_symmetry_multiplicity
 _atom_site_fract_x
 _atom_site_fract_y
 _atom_site_fract_z
 _atom_site_occupancy
  Si  Si0  1  0.022173  0.000561  0.036274  1
  Si  Si1  1  0.491736  0.478054  0.536540  1
  Si  Si2  1  0.998444  0.976652  0.536397  1
  Si  Si3  1  0.521791  0.501028  0.036356  1
  H  H4  1  0.418059  0.918193  0.705815  1
  H  H5  1  0.621178  0.963390  0.707168  1
  H  H6  1  0.395437  0.034668  0.878509  1
  H  H7  1  0.581241  0.083145  0.879911  1
  H  H8  1  0.534699  0.895935  0.879352  1
  H  H9  1  0.922244  0.414842  0.703840  1
  H  H10  1  0.122763  0.469553  0.707243  1
  H  H11  1  0.891640  0.526824  0.877454  1
  H  H12  1  0.075229  0.583295  0.880224  1
  H  H13  1  0.036872  0.394223  0.877923  1
  H  H14  1  0.883437  0.489989  0.204132  1
  H  H15  1  0.071374  0.395272  0.207697  1
  H  H16  1  0.929255  0.592652  0.377858  1
  H  H17  1  0.105937  0.510629  0.381220  1
  H  H18  1  0.948185  0.400059  0.377777  1
  H  H19  1  0.423139  0.914850  0.204443  1
  H  H20  1  0.622175  0.974793  0.207233  1
  H  H21  1  0.392959  0.023265  0.379020  1
  H  H22  1  0.575133  0.083877  0.381092  1
  H  H23  1  0.540879  0.894312  0.377810  1
  H  H24  1  0.056156  0.604278  0.207523  1
  H  H25  1  0.972022  0.617108  0.706701  1
  H  H26  1  0.477237  0.117597  0.706366  1
  H  H27  1  0.467957  0.118537  0.208679  1
  C  C28  1  0.503848  0.001704  0.233872  1
  C  C29  1  0.004406  0.500077  0.733045  1
  C  C30  1  0.002488  0.497033  0.233531  1
  C  C31  1  0.504995  0.000047  0.733635  1
  I  I32  1  0.008788  0.003615  0.239036  1
  I  I33  1  0.501274  0.498221  0.738599  1
  I  I34  1  0.000397  0.998062  0.738484  1
  I  I35  1  0.503372  0.505370  0.239046  1
  I  I36  1  0.235351  0.759206  0.005802  1
  I  I37  1  0.745374  0.256069  0.504340  1
  I  I38  1  0.227149  0.229830  0.007036  1
  I  I39  1  0.765139  0.763998  0.506377  1
  I  I40  1  0.733725  0.257675  0.008177  1
  I  I41  1  0.243406  0.754314  0.508551  1
  I  I42  1  0.729074  0.728077  0.008636  1
  I  I43  1  0.266337  0.262428  0.509533  1
  N  N44  1  0.502322  0.000797  0.348819  1
  N  N45  1  0.001948  0.501029  0.848008  1
  N  N46  1  0.996769  0.500337  0.348437  1
  N  N47  1  0.503818  0.003311  0.848646  1
