# generated using pymatgen
data_TlCdTe2
_symmetry_space_group_name_H-M   'P 1'
_cell_length_a   4.38168899
_cell_length_b   4.38081140
_cell_length_c   7.62431928
_cell_angle_alpha   90.00000005
_cell_angle_beta   90.17650010
_cell_angle_gamma   119.99337145
_symmetry_Int_Tables_number   1
_chemical_formula_structural   TlCdTe2
_chemical_formula_sum   'Tl1 Cd1 Te2'
_cell_volume   126.75178045
_cell_formula_units_Z   1
loop_
 _symmetry_equiv_pos_site_id
 _symmetry_equiv_pos_as_xyz
  1  'x, y, z'
loop_
 _atom_site_type_symbol
 _atom_site_label
 _atom_site_symmetry_multiplicity
 _atom_site_fract_x
 _atom_site_fract_y
 _atom_site_fract_z
 _atom_site_occupancy
  Tl  Tl0  1  0.000000  -0.000000  0.500000  1
  Cd  Cd1  1  -0.000000  0.000000  -0.000000  1
  Te  Te2  1  0.666603  0.333302  0.775933  1
  Te  Te3  1  0.333397  0.666698  0.224067  1
