# generated using pymatgen
data_H8PdC2NCl3
_symmetry_space_group_name_H-M   'P 1'
_cell_length_a   7.23444385
_cell_length_b   7.76366294
_cell_length_c   7.76366294
_cell_angle_alpha   118.42277044
_cell_angle_beta   90.19925004
_cell_angle_gamma   90.19925004
_symmetry_Int_Tables_number   1
_chemical_formula_structural   H8PdC2NCl3
_chemical_formula_sum   'H16 Pd2 C4 N2 Cl6'
_cell_volume   383.48140218
_cell_formula_units_Z   2
loop_
 _symmetry_equiv_pos_site_id
 _symmetry_equiv_pos_as_xyz
  1  'x, y, z'
loop_
 _atom_site_type_symbol
 _atom_site_label
 _atom_site_symmetry_multiplicity
 _atom_site_fract_x
 _atom_site_fract_y
 _atom_site_fract_z
 _atom_site_occupancy
  H  H0  1  0.167115  0.561214  0.088764  1
  H  H1  1  0.000364  0.500406  0.223225  1
  H  H2  1  0.461596  0.717402  0.248669  1
  H  H3  1  0.038403  0.751332  0.282599  1
  H  H4  1  0.310239  0.490996  0.330160  1
  H  H5  1  0.332884  0.911235  0.438785  1
  H  H6  1  0.810238  0.330161  0.490997  1
  H  H7  1  0.500363  0.223225  0.500406  1
  H  H8  1  0.499637  0.776775  0.499594  1
  H  H9  1  0.189762  0.669839  0.509003  1
  H  H10  1  0.667116  0.088765  0.561215  1
  H  H11  1  0.689762  0.509004  0.669840  1
  H  H12  1  0.961597  0.248668  0.717401  1
  H  H13  1  0.538403  0.282599  0.751332  1
  H  H14  1  -0.000364  0.499594  0.776775  1
  H  H15  1  0.832884  0.438786  0.911236  1
  Pd  Pd16  1  0.499999  0.999999  0.999999  1
  Pd  Pd17  1  0.000000  0.000000  0.000000  1
  C  C18  1  0.103028  0.608441  0.231362  1
  C  C19  1  0.396971  0.768638  0.391559  1
  C  C20  1  0.603029  0.231363  0.608442  1
  C  C21  1  0.896971  0.391559  0.768639  1
  N  N22  1  0.250000  0.626476  0.373523  1
  N  N23  1  0.750001  0.373524  0.626477  1
  Cl  Cl24  1  0.750001  0.890146  0.109855  1
  Cl  Cl25  1  0.604920  0.322776  0.179340  1
  Cl  Cl26  1  0.104919  0.179339  0.322775  1
  Cl  Cl27  1  0.895081  0.820661  0.677225  1
  Cl  Cl28  1  0.395080  0.677224  0.820660  1
  Cl  Cl29  1  0.250000  0.109854  0.890145  1
