# generated using pymatgen
data_Pr(Al2Fe)4
_symmetry_space_group_name_H-M   'P 1'
_cell_length_a   5.03854208
_cell_length_b   6.70609154
_cell_length_c   6.70609154
_cell_angle_alpha   98.11308298
_cell_angle_beta   67.93432513
_cell_angle_gamma   112.06567487
_symmetry_Int_Tables_number   1
_chemical_formula_structural   Pr(Al2Fe)4
_chemical_formula_sum   'Pr1 Al8 Fe4'
_cell_volume   194.61335856
_cell_formula_units_Z   1
loop_
 _symmetry_equiv_pos_site_id
 _symmetry_equiv_pos_as_xyz
  1  'x, y, z'
loop_
 _atom_site_type_symbol
 _atom_site_label
 _atom_site_symmetry_multiplicity
 _atom_site_fract_x
 _atom_site_fract_y
 _atom_site_fract_z
 _atom_site_occupancy
  Pr  Pr0  1  -0.000000  0.000000  -0.000000  1
  Al  Al1  1  0.500000  0.224653  0.224653  1
  Al  Al2  1  0.275346  0.775347  0.224654  1
  Al  Al3  1  -0.000000  0.343264  0.343264  1
  Al  Al4  1  0.656736  0.656737  0.343264  1
  Al  Al5  1  0.343263  0.343264  0.656737  1
  Al  Al6  1  0.000000  0.656737  0.656737  1
  Al  Al7  1  0.724655  0.224654  0.775347  1
  Al  Al8  1  0.500000  0.775347  0.775347  1
  Fe  Fe9  1  0.000001  0.500000  0.000000  1
  Fe  Fe10  1  0.500000  0.500000  0.000000  1
  Fe  Fe11  1  0.000000  0.000000  0.500000  1
  Fe  Fe12  1  0.499999  -0.000000  0.500000  1
