# generated using pymatgen
data_YWN3
_symmetry_space_group_name_H-M   'P 1'
_cell_length_a   6.31393807
_cell_length_b   7.38835260
_cell_length_c   7.38835233
_cell_angle_alpha   98.46414606
_cell_angle_beta   106.61164310
_cell_angle_gamma   73.38835575
_symmetry_Int_Tables_number   1
_chemical_formula_structural   YWN3
_chemical_formula_sum   'Y4 W4 N12'
_cell_volume   315.68938978
_cell_formula_units_Z   4
loop_
 _symmetry_equiv_pos_site_id
 _symmetry_equiv_pos_as_xyz
  1  'x, y, z'
loop_
 _atom_site_type_symbol
 _atom_site_label
 _atom_site_symmetry_multiplicity
 _atom_site_fract_x
 _atom_site_fract_y
 _atom_site_fract_z
 _atom_site_occupancy
  Y  Y0  1  0.750000  0.288719  0.288719  1
  Y  Y1  1  0.750000  0.909784  0.909784  1
  Y  Y2  1  0.250000  0.711281  0.711281  1
  Y  Y3  1  0.250000  0.090216  0.090216  1
  W  W4  1  0.225009  0.201511  0.620168  1
  W  W5  1  0.774991  0.798489  0.379832  1
  W  W6  1  0.274991  0.620168  0.201511  1
  W  W7  1  0.725009  0.379832  0.798489  1
  N  N8  1  0.160089  0.114073  0.375122  1
  N  N9  1  0.427337  0.366484  0.656448  1
  N  N10  1  0.844895  0.219348  0.997618  1
  N  N11  1  0.839911  0.885927  0.624878  1
  N  N12  1  0.655105  0.997618  0.219348  1
  N  N13  1  0.660089  0.624878  0.885927  1
  N  N14  1  0.339911  0.375122  0.114073  1
  N  N15  1  0.572663  0.633516  0.343552  1
  N  N16  1  0.072663  0.656448  0.366484  1
  N  N17  1  0.927337  0.343552  0.633516  1
  N  N18  1  0.155105  0.780652  0.002382  1
  N  N19  1  0.344895  0.002382  0.780652  1
