# generated using pymatgen
data_La11V12O36
_symmetry_space_group_name_H-M   'P 1'
_cell_length_a   11.15629656
_cell_length_b   9.66335324
_cell_length_c   7.90969908
_cell_angle_alpha   66.13435983
_cell_angle_beta   89.89033014
_cell_angle_gamma   73.37543526
_symmetry_Int_Tables_number   1
_chemical_formula_structural   La11V12O36
_chemical_formula_sum   'La11 V12 O36'
_cell_volume   740.88362368
_cell_formula_units_Z   1
loop_
 _symmetry_equiv_pos_site_id
 _symmetry_equiv_pos_as_xyz
  1  'x, y, z'
loop_
 _atom_site_type_symbol
 _atom_site_label
 _atom_site_symmetry_multiplicity
 _atom_site_fract_x
 _atom_site_fract_y
 _atom_site_fract_z
 _atom_site_occupancy
  La  La0  1  0.592401  0.157554  0.940897  1
  La  La1  1  0.925314  0.825998  0.603565  1
  La  La2  1  0.745833  0.504337  0.729357  1
  La  La3  1  0.931664  0.818591  0.097008  1
  La  La4  1  0.258200  0.484125  0.769869  1
  La  La5  1  0.597606  0.153910  0.437027  1
  La  La6  1  0.403330  0.845311  0.571986  1
  La  La7  1  0.739916  0.509388  0.235789  1
  La  La8  1  0.255792  0.491379  0.267417  1
  La  La9  1  0.406482  0.843546  0.065591  1
  La  La10  1  0.077085  0.177800  0.387127  1
  V  V11  1  0.837647  0.165912  0.670335  1
  V  V12  1  0.667525  0.831694  0.834818  1
  V  V13  1  0.166029  0.844846  0.830570  1
  V  V14  1  0.666450  0.832873  0.335010  1
  V  V15  1  0.840533  0.162667  0.161211  1
  V  V16  1  0.497694  0.500742  0.500887  1
  V  V17  1  0.329907  0.166783  0.669563  1
  V  V18  1  0.000022  0.493110  0.506566  1
  V  V19  1  0.165381  0.835129  0.332213  1
  V  V20  1  0.500623  0.498998  0.000893  1
  V  V21  1  0.331578  0.166923  0.166524  1
  V  V22  1  0.003464  0.494235  0.995992  1
  O  O23  1  0.848903  0.691007  0.936398  1
  O  O24  1  0.985030  0.962954  0.789317  1
  O  O25  1  0.810947  0.215728  0.897935  1
  O  O26  1  0.962086  0.515537  0.736875  1
  O  O27  1  0.618938  0.625983  0.903856  1
  O  O28  1  0.940303  0.321968  0.545663  1
  O  O29  1  0.720117  0.034416  0.765827  1
  O  O30  1  0.841400  0.121009  0.437638  1
  O  O31  1  0.702276  0.844272  0.580504  1
  O  O32  1  0.369196  0.172274  0.913218  1
  O  O33  1  0.504591  0.449632  0.775851  1
  O  O34  1  0.820782  0.638944  0.397980  1
  O  O35  1  0.681807  0.362171  0.537933  1
  O  O36  1  0.487648  0.968923  0.734992  1
  O  O37  1  0.342812  0.697821  0.869285  1
  O  O38  1  0.895102  0.349574  0.120827  1
  O  O39  1  0.234592  0.006632  0.780817  1
  O  O40  1  0.562326  0.688842  0.455611  1
  O  O41  1  0.436087  0.310277  0.547528  1
  O  O42  1  0.772567  0.977712  0.211747  1
  O  O43  1  0.106069  0.655817  0.875693  1
  O  O44  1  0.179159  0.373344  0.581429  1
  O  O45  1  0.314933  0.639836  0.462390  1
  O  O46  1  0.514281  0.029937  0.268689  1
  O  O47  1  0.660395  0.296133  0.135565  1
  O  O48  1  0.156103  0.886904  0.560043  1
  O  O49  1  0.297789  0.157775  0.423675  1
  O  O50  1  0.630878  0.822034  0.088090  1
  O  O51  1  0.492197  0.550298  0.224863  1
  O  O52  1  0.286493  0.960142  0.251148  1
  O  O53  1  0.050589  0.691595  0.429433  1
  O  O54  1  0.387248  0.366615  0.097387  1
  O  O55  1  0.174074  0.783655  0.103674  1
  O  O56  1  0.031267  0.510640  0.246144  1
  O  O57  1  0.004349  0.021264  0.223414  1
  O  O58  1  0.159219  0.319456  0.075612  1
