# generated using pymatgen
data_SiO2
_symmetry_space_group_name_H-M   'P 1'
_cell_length_a   5.17850726
_cell_length_b   8.25737300
_cell_length_c   8.26281559
_cell_angle_alpha   90.00000000
_cell_angle_beta   92.68322745
_cell_angle_gamma   90.00000000
_symmetry_Int_Tables_number   1
_chemical_formula_structural   SiO2
_chemical_formula_sum   'Si8 O16'
_cell_volume   352.93777253
_cell_formula_units_Z   8
loop_
 _symmetry_equiv_pos_site_id
 _symmetry_equiv_pos_as_xyz
  1  'x, y, z'
loop_
 _atom_site_type_symbol
 _atom_site_label
 _atom_site_symmetry_multiplicity
 _atom_site_fract_x
 _atom_site_fract_y
 _atom_site_fract_z
 _atom_site_occupancy
  Si  Si0  1  0.028019  0.227202  0.871323  1
  Si  Si1  1  0.019252  0.082206  0.227574  1
  Si  Si2  1  0.528019  0.229018  0.371323  1
  Si  Si3  1  0.444160  0.582208  0.226691  1
  Si  Si4  1  0.435402  0.727200  0.582938  1
  Si  Si5  1  0.935402  0.729020  0.082938  1
  Si  Si6  1  0.519252  0.374014  0.727574  1
  Si  Si7  1  0.944160  0.874012  0.726691  1
  O  O8  1  0.813376  0.151047  0.353266  1
  O  O9  1  0.153660  0.597894  0.144020  1
  O  O10  1  0.000017  0.064075  0.761739  1
  O  O11  1  0.809765  0.358327  0.810239  1
  O  O12  1  0.309765  0.097893  0.310239  1
  O  O13  1  0.500017  0.392145  0.261739  1
  O  O14  1  0.471612  0.686235  0.393656  1
  O  O15  1  0.653660  0.858326  0.644020  1
  O  O16  1  0.150036  0.805172  0.600989  1
  O  O17  1  0.313376  0.305173  0.853266  1
  O  O18  1  0.491781  0.269987  0.560607  1
  O  O19  1  0.971612  0.769985  0.893656  1
  O  O20  1  0.463399  0.564074  0.692518  1
  O  O21  1  0.963399  0.892146  0.192518  1
  O  O22  1  0.650036  0.651048  0.100989  1
  O  O23  1  0.991781  0.186233  0.060607  1
