# generated using pymatgen
data_Er2(SO4)3
_symmetry_space_group_name_H-M   'P 1'
_cell_length_a   9.22423378
_cell_length_b   9.48045629
_cell_length_c   12.84541897
_cell_angle_alpha   90.00000000
_cell_angle_beta   90.00000000
_cell_angle_gamma   90.00000000
_symmetry_Int_Tables_number   1
_chemical_formula_structural   Er2(SO4)3
_chemical_formula_sum   'Er8 S12 O48'
_cell_volume   1123.33118448
_cell_formula_units_Z   4
loop_
 _symmetry_equiv_pos_site_id
 _symmetry_equiv_pos_as_xyz
  1  'x, y, z'
loop_
 _atom_site_type_symbol
 _atom_site_label
 _atom_site_symmetry_multiplicity
 _atom_site_fract_x
 _atom_site_fract_y
 _atom_site_fract_z
 _atom_site_occupancy
  Er  Er0  1  0.752554  0.970868  0.608926  1
  Er  Er1  1  0.747446  0.029132  0.108926  1
  Er  Er2  1  0.747446  0.470868  0.891074  1
  Er  Er3  1  0.252554  0.970868  0.891074  1
  Er  Er4  1  0.247446  0.470868  0.608926  1
  Er  Er5  1  0.752554  0.529132  0.391074  1
  Er  Er6  1  0.247446  0.029132  0.391074  1
  Er  Er7  1  0.252554  0.529132  0.108926  1
  S  S8  1  0.108124  0.876975  0.143979  1
  S  S9  1  0.891876  0.123025  0.856021  1
  S  S10  1  0.391876  0.376975  0.356021  1
  S  S11  1  0.520879  0.750000  0.000000  1
  S  S12  1  0.391876  0.123025  0.643979  1
  S  S13  1  0.020879  0.750000  0.500000  1
  S  S14  1  0.608124  0.876975  0.356021  1
  S  S15  1  0.108124  0.623025  0.856021  1
  S  S16  1  0.891876  0.376975  0.143979  1
  S  S17  1  0.479121  0.250000  0.000000  1
  S  S18  1  0.608124  0.623025  0.643979  1
  S  S19  1  0.979121  0.250000  0.500000  1
  O  O20  1  0.158871  0.938056  0.243775  1
  O  O21  1  0.114255  0.861795  0.456921  1
  O  O22  1  0.303729  0.062269  0.558344  1
  O  O23  1  0.877250  0.278453  0.853618  1
  O  O24  1  0.385745  0.361795  0.043079  1
  O  O25  1  0.803729  0.437731  0.058344  1
  O  O26  1  0.929471  0.690018  0.415665  1
  O  O27  1  0.452863  0.588593  0.627800  1
  O  O28  1  0.570529  0.190018  0.084335  1
  O  O29  1  0.877250  0.221547  0.146382  1
  O  O30  1  0.614255  0.638205  0.956921  1
  O  O31  1  0.122750  0.721547  0.146382  1
  O  O32  1  0.303729  0.437731  0.441656  1
  O  O33  1  0.341129  0.438056  0.256225  1
  O  O34  1  0.429471  0.690018  0.084335  1
  O  O35  1  0.885745  0.361795  0.456921  1
  O  O36  1  0.658871  0.938056  0.256225  1
  O  O37  1  0.803729  0.062269  0.941656  1
  O  O38  1  0.547137  0.411407  0.372200  1
  O  O39  1  0.658871  0.561944  0.743775  1
  O  O40  1  0.952863  0.911407  0.127800  1
  O  O41  1  0.614255  0.861795  0.043079  1
  O  O42  1  0.929471  0.809982  0.584335  1
  O  O43  1  0.158871  0.561944  0.756225  1
  O  O44  1  0.196271  0.937731  0.058344  1
  O  O45  1  0.696271  0.562269  0.558344  1
  O  O46  1  0.114255  0.638205  0.543079  1
  O  O47  1  0.547137  0.088593  0.627800  1
  O  O48  1  0.622750  0.721547  0.353618  1
  O  O49  1  0.377250  0.278453  0.646382  1
  O  O50  1  0.070529  0.309982  0.584335  1
  O  O51  1  0.385745  0.138205  0.956921  1
  O  O52  1  0.696271  0.937731  0.441656  1
  O  O53  1  0.070529  0.190018  0.415665  1
  O  O54  1  0.622750  0.778453  0.646382  1
  O  O55  1  0.341129  0.061944  0.743775  1
  O  O56  1  0.952863  0.588593  0.872200  1
  O  O57  1  0.429471  0.809982  0.915665  1
  O  O58  1  0.452863  0.911407  0.372200  1
  O  O59  1  0.885745  0.138205  0.543079  1
  O  O60  1  0.570529  0.309982  0.915665  1
  O  O61  1  0.841129  0.438056  0.243775  1
  O  O62  1  0.196271  0.562269  0.941656  1
  O  O63  1  0.122750  0.778453  0.853618  1
  O  O64  1  0.841129  0.061944  0.756225  1
  O  O65  1  0.047137  0.411407  0.127800  1
  O  O66  1  0.377250  0.221547  0.353618  1
  O  O67  1  0.047137  0.088593  0.872200  1
