# generated using pymatgen
data_Na3AlTe3
_symmetry_space_group_name_H-M   'P 1'
_cell_length_a   7.83541316
_cell_length_b   8.12863300
_cell_length_c   14.19387799
_cell_angle_alpha   90.29746128
_cell_angle_beta   90.00000000
_cell_angle_gamma   90.00000000
_symmetry_Int_Tables_number   1
_chemical_formula_structural   Na3AlTe3
_chemical_formula_sum   'Na12 Al4 Te12'
_cell_volume   904.01290962
_cell_formula_units_Z   4
loop_
 _symmetry_equiv_pos_site_id
 _symmetry_equiv_pos_as_xyz
  1  'x, y, z'
loop_
 _atom_site_type_symbol
 _atom_site_label
 _atom_site_symmetry_multiplicity
 _atom_site_fract_x
 _atom_site_fract_y
 _atom_site_fract_z
 _atom_site_occupancy
  Na  Na0  1  0.479916  0.724965  0.778648  1
  Na  Na1  1  0.979916  0.775035  0.721352  1
  Na  Na2  1  0.520084  0.275035  0.221352  1
  Na  Na3  1  0.020084  0.224965  0.278648  1
  Na  Na4  1  0.497458  0.327396  0.603982  1
  Na  Na5  1  0.997458  0.172604  0.896018  1
  Na  Na6  1  0.502542  0.672604  0.396018  1
  Na  Na7  1  0.002542  0.827396  0.103982  1
  Na  Na8  1  0.499128  0.215754  0.898330  1
  Na  Na9  1  0.999128  0.284246  0.601670  1
  Na  Na10  1  0.500872  0.784246  0.101670  1
  Na  Na11  1  0.000872  0.715754  0.398330  1
  Al  Al12  1  0.859461  0.582716  0.918142  1
  Al  Al13  1  0.359461  0.917284  0.581858  1
  Al  Al14  1  0.140539  0.417284  0.081858  1
  Al  Al15  1  0.640539  0.082716  0.418142  1
  Te  Te16  1  0.702784  0.917383  0.574849  1
  Te  Te17  1  0.202784  0.582617  0.925151  1
  Te  Te18  1  0.297216  0.082617  0.425151  1
  Te  Te19  1  0.797216  0.417383  0.074849  1
  Te  Te20  1  0.256075  0.075618  0.731207  1
  Te  Te21  1  0.756075  0.424382  0.768793  1
  Te  Te22  1  0.743925  0.924382  0.268793  1
  Te  Te23  1  0.243925  0.575618  0.231207  1
  Te  Te24  1  0.740709  0.881278  0.926284  1
  Te  Te25  1  0.240709  0.618722  0.573716  1
  Te  Te26  1  0.259291  0.118722  0.073716  1
  Te  Te27  1  0.759291  0.381278  0.426284  1
