# generated using pymatgen
data_NaAg(CO2)2
_symmetry_space_group_name_H-M   'P 1'
_cell_length_a   3.55551438
_cell_length_b   5.31612482
_cell_length_c   11.09566524
_cell_angle_alpha   90.00000000
_cell_angle_beta   96.16850680
_cell_angle_gamma   90.00000000
_symmetry_Int_Tables_number   1
_chemical_formula_structural   NaAg(CO2)2
_chemical_formula_sum   'Na2 Ag2 C4 O8'
_cell_volume   208.51109007
_cell_formula_units_Z   2
loop_
 _symmetry_equiv_pos_site_id
 _symmetry_equiv_pos_as_xyz
  1  'x, y, z'
loop_
 _atom_site_type_symbol
 _atom_site_label
 _atom_site_symmetry_multiplicity
 _atom_site_fract_x
 _atom_site_fract_y
 _atom_site_fract_z
 _atom_site_occupancy
  Na  Na0  1  0.313060  0.189797  0.854395  1
  Na  Na1  1  0.313060  0.810203  0.354395  1
  Ag  Ag2  1  0.702256  0.323286  0.157142  1
  Ag  Ag3  1  0.702256  0.676714  0.657142  1
  C  C4  1  0.885978  0.289275  0.438717  1
  C  C5  1  0.885978  0.710725  0.938717  1
  C  C6  1  0.104843  0.183056  0.558813  1
  C  C7  1  0.104843  0.816944  0.058813  1
  O  O8  1  0.274808  0.023947  0.048337  1
  O  O9  1  0.274808  0.976053  0.548337  1
  O  O10  1  0.769586  0.486084  0.937956  1
  O  O11  1  0.769586  0.513916  0.437956  1
  O  O12  1  0.101233  0.689885  0.155639  1
  O  O13  1  0.101233  0.310115  0.655639  1
  O  O14  1  0.848286  0.862306  0.848991  1
  O  O15  1  0.848286  0.137694  0.348991  1
