# generated using pymatgen
data_Ho2Se3
_symmetry_space_group_name_H-M   'P 1'
_cell_length_a   7.07352894
_cell_length_b   7.07352894
_cell_length_c   12.89799572
_cell_angle_alpha   100.67400220
_cell_angle_beta   100.67400222
_cell_angle_gamma   108.93713697
_symmetry_Int_Tables_number   1
_chemical_formula_structural   Ho2Se3
_chemical_formula_sum   'Ho8 Se12'
_cell_volume   578.58652088
_cell_formula_units_Z   4
loop_
 _symmetry_equiv_pos_site_id
 _symmetry_equiv_pos_as_xyz
  1  'x, y, z'
loop_
 _atom_site_type_symbol
 _atom_site_label
 _atom_site_symmetry_multiplicity
 _atom_site_fract_x
 _atom_site_fract_y
 _atom_site_fract_z
 _atom_site_occupancy
  Se  Se0  1  0.539238  0.282745  0.088116  1
  Se  Se1  1  0.194630  0.951123  0.411884  1
  Se  Se2  1  0.717255  0.460762  0.411884  1
  Se  Se3  1  0.048877  0.805370  0.088116  1
  Se  Se4  1  0.460762  0.717255  0.911884  1
  Se  Se5  1  0.805370  0.048877  0.588116  1
  Se  Se6  1  0.282745  0.539238  0.588116  1
  Se  Se7  1  0.951123  0.194630  0.911884  1
  Se  Se8  1  0.633138  0.883138  0.250000  1
  Se  Se9  1  0.116862  0.366862  0.250000  1
  Se  Se10  1  0.366862  0.116862  0.750000  1
  Se  Se11  1  0.883138  0.633138  0.750000  1
  Ho  Ho12  1  0.377750  0.127750  0.255499  1
  Ho  Ho13  1  0.872250  0.622250  0.244501  1
  Ho  Ho14  1  0.622250  0.872250  0.744501  1
  Ho  Ho15  1  0.127750  0.377750  0.755499  1
  Ho  Ho16  1  0.041100  0.791100  0.582200  1
  Ho  Ho17  1  0.208900  0.958900  0.917800  1
  Ho  Ho18  1  0.958900  0.208900  0.417800  1
  Ho  Ho19  1  0.791100  0.041100  0.082200  1
