# generated using pymatgen
data_Ba2MgSi2O7
_symmetry_space_group_name_H-M   'P 1'
_cell_length_a   5.48856692
_cell_length_b   8.30788294
_cell_length_c   8.30788294
_cell_angle_alpha   90.00000000
_cell_angle_beta   90.00000000
_cell_angle_gamma   90.00000000
_symmetry_Int_Tables_number   1
_chemical_formula_structural   Ba2MgSi2O7
_chemical_formula_sum   'Ba4 Mg2 Si4 O14'
_cell_volume   378.82593251
_cell_formula_units_Z   2
loop_
 _symmetry_equiv_pos_site_id
 _symmetry_equiv_pos_as_xyz
  1  'x, y, z'
loop_
 _atom_site_type_symbol
 _atom_site_label
 _atom_site_symmetry_multiplicity
 _atom_site_fract_x
 _atom_site_fract_y
 _atom_site_fract_z
 _atom_site_occupancy
  O  O0  1  0.822803  0.694644  0.577659  1
  O  O1  1  0.822803  0.305356  0.422341  1
  O  O2  1  0.177197  0.422341  0.694644  1
  O  O3  1  0.177197  0.577659  0.305356  1
  O  O4  1  0.822803  0.922341  0.805356  1
  O  O5  1  0.177197  0.805356  0.077659  1
  O  O6  1  0.177197  0.194644  0.922341  1
  O  O7  1  0.822803  0.077659  0.194644  1
  O  O8  1  0.250557  0.860042  0.639958  1
  O  O9  1  0.749443  0.639958  0.139958  1
  O  O10  1  0.141049  0.500000  0.000000  1
  O  O11  1  0.858951  0.000000  0.500000  1
  O  O12  1  0.250557  0.139958  0.360042  1
  O  O13  1  0.749443  0.360042  0.860042  1
  Mg  Mg14  1  0.000000  0.000000  0.000000  1
  Mg  Mg15  1  0.000000  0.500000  0.500000  1
  Si  Si16  1  0.954886  0.863222  0.636778  1
  Si  Si17  1  0.954886  0.136778  0.363222  1
  Si  Si18  1  0.045114  0.636778  0.136778  1
  Si  Si19  1  0.045114  0.363222  0.863222  1
  Ba  Ba20  1  0.510390  0.665274  0.834726  1
  Ba  Ba21  1  0.489610  0.834726  0.334726  1
  Ba  Ba22  1  0.489610  0.165274  0.665274  1
  Ba  Ba23  1  0.510390  0.334726  0.165274  1
