# generated using pymatgen
data_TlGeCl3
_symmetry_space_group_name_H-M   'P 1'
_cell_length_a   5.74354521
_cell_length_b   7.19568795
_cell_length_c   8.34712285
_cell_angle_alpha   90.00000000
_cell_angle_beta   109.74653241
_cell_angle_gamma   90.00000000
_symmetry_Int_Tables_number   1
_chemical_formula_structural   TlGeCl3
_chemical_formula_sum   'Tl2 Ge2 Cl6'
_cell_volume   324.69040704
_cell_formula_units_Z   2
loop_
 _symmetry_equiv_pos_site_id
 _symmetry_equiv_pos_as_xyz
  1  'x, y, z'
loop_
 _atom_site_type_symbol
 _atom_site_label
 _atom_site_symmetry_multiplicity
 _atom_site_fract_x
 _atom_site_fract_y
 _atom_site_fract_z
 _atom_site_occupancy
  Tl  Tl0  1  0.340901  0.750000  0.188667  1
  Tl  Tl1  1  0.659100  0.250000  0.811332  1
  Ge  Ge2  1  0.027132  0.750000  0.625177  1
  Ge  Ge3  1  0.972868  0.250000  0.374822  1
  Cl  Cl4  1  0.160152  0.994580  0.825726  1
  Cl  Cl5  1  0.839848  0.494579  0.174273  1
  Cl  Cl6  1  0.385879  0.250000  0.379578  1
  Cl  Cl7  1  0.614122  0.750000  0.620421  1
  Cl  Cl8  1  0.839848  0.005420  0.174273  1
  Cl  Cl9  1  0.160152  0.505421  0.825726  1
