# generated using pymatgen
data_Li7Fe7P6(O8F)3
_symmetry_space_group_name_H-M   'P 1'
_cell_length_a   13.59600802
_cell_length_b   13.59975550
_cell_length_c   6.41020420
_cell_angle_alpha   90.14565603
_cell_angle_beta   90.16572818
_cell_angle_gamma   60.10115200
_symmetry_Int_Tables_number   1
_chemical_formula_structural   Li7Fe7P6(O8F)3
_chemical_formula_sum   'Li14 Fe14 P12 O48 F6'
_cell_volume   1027.50656601
_cell_formula_units_Z   2
loop_
 _symmetry_equiv_pos_site_id
 _symmetry_equiv_pos_as_xyz
  1  'x, y, z'
loop_
 _atom_site_type_symbol
 _atom_site_label
 _atom_site_symmetry_multiplicity
 _atom_site_fract_x
 _atom_site_fract_y
 _atom_site_fract_z
 _atom_site_occupancy
  Li  Li0  1  0.258818  0.923205  0.254743  1
  Li  Li1  1  0.181578  0.741148  0.756335  1
  Li  Li2  1  0.504696  0.872374  0.756226  1
  Li  Li3  1  0.127092  0.376928  0.256495  1
  Li  Li4  1  0.076893  0.182075  0.755476  1
  Li  Li5  1  0.376709  0.495397  0.255847  1
  Li  Li6  1  0.333062  0.333570  0.429365  1
  Li  Li7  1  0.667092  0.666301  0.929430  1
  Li  Li8  1  0.623324  0.504457  0.756696  1
  Li  Li9  1  0.923281  0.817859  0.258248  1
  Li  Li10  1  0.872226  0.622869  0.756001  1
  Li  Li11  1  0.495240  0.127709  0.256888  1
  Li  Li12  1  0.818543  0.259204  0.258013  1
  Li  Li13  1  0.741286  0.076594  0.758719  1
  Fe  Fe14  1  0.126598  0.576606  0.008221  1
  Fe  Fe15  1  0.121854  0.582011  0.513019  1
  Fe  Fe16  1  0.422759  0.703167  0.507460  1
  Fe  Fe17  1  0.418550  0.704033  0.012889  1
  Fe  Fe18  1  0.703611  0.878007  0.014134  1
  Fe  Fe19  1  0.703392  0.873347  0.508714  1
  Fe  Fe20  1  0.000042  0.000005  0.005869  1
  Fe  Fe21  1  0.000104  0.999845  0.506020  1
  Fe  Fe22  1  0.296677  0.126072  0.007853  1
  Fe  Fe23  1  0.296327  0.122622  0.513329  1
  Fe  Fe24  1  0.581246  0.296287  0.514282  1
  Fe  Fe25  1  0.577626  0.296569  0.008952  1
  Fe  Fe26  1  0.877935  0.418806  0.013855  1
  Fe  Fe27  1  0.873544  0.422575  0.509196  1
  P  P28  1  0.246641  0.936363  0.755470  1
  P  P29  1  0.182731  0.753524  0.256795  1
  P  P30  1  0.486864  0.883554  0.260200  1
  P  P31  1  0.116600  0.370368  0.760181  1
  P  P32  1  0.370233  0.513107  0.760921  1
  P  P33  1  0.063884  0.183268  0.256570  1
  P  P34  1  0.936180  0.816753  0.759627  1
  P  P35  1  0.629829  0.486800  0.261488  1
  P  P36  1  0.883328  0.629774  0.260852  1
  P  P37  1  0.513173  0.116451  0.761633  1
  P  P38  1  0.817191  0.246389  0.760250  1
  P  P39  1  0.753334  0.063767  0.260372  1
  O  O40  1  0.112303  0.010547  0.752450  1
  O  O41  1  0.123228  0.887358  0.252681  1
  O  O42  1  0.007805  0.684214  0.758315  1
  O  O43  1  0.370796  0.998802  0.253888  1
  O  O44  1  0.283309  0.862586  0.557655  1
  O  O45  1  0.145478  0.716068  0.059787  1
  O  O46  1  0.281353  0.863106  0.954078  1
  O  O47  1  0.144690  0.719167  0.456182  1
  O  O48  1  0.315506  0.692627  0.258316  1
  O  O49  1  0.001214  0.369333  0.754447  1
  O  O50  1  0.550567  0.881413  0.461121  1
  O  O51  1  0.118598  0.431984  0.961066  1
  O  O52  1  0.459589  0.785510  0.262640  1
  O  O53  1  0.129969  0.426825  0.560165  1
  O  O54  1  0.556623  0.870195  0.060366  1
  O  O55  1  0.692503  0.991816  0.259159  1
  O  O56  1  0.245257  0.540367  0.762291  1
  O  O57  1  0.369737  0.629208  0.754085  1
  O  O58  1  0.989177  0.123151  0.254270  1
  O  O59  1  0.214344  0.245369  0.763174  1
  O  O60  1  0.137132  0.145103  0.455360  1
  O  O61  1  0.431920  0.449712  0.961928  1
  O  O62  1  0.137231  0.145644  0.058958  1
  O  O63  1  0.573209  0.557057  0.061336  1
  O  O64  1  0.427028  0.442731  0.561139  1
  O  O65  1  0.861856  0.855047  0.562325  1
  O  O66  1  0.568089  0.550142  0.462110  1
  O  O67  1  0.863995  0.854487  0.958749  1
  O  O68  1  0.785537  0.754699  0.263134  1
  O  O69  1  0.010979  0.876820  0.759643  1
  O  O70  1  0.630388  0.370693  0.254637  1
  O  O71  1  0.754820  0.459635  0.264299  1
  O  O72  1  0.307470  0.008303  0.758425  1
  O  O73  1  0.442848  0.130209  0.561244  1
  O  O74  1  0.869691  0.573379  0.060117  1
  O  O75  1  0.540482  0.214376  0.764633  1
  O  O76  1  0.881370  0.568014  0.460993  1
  O  O77  1  0.449810  0.118119  0.961961  1
  O  O78  1  0.998736  0.630596  0.255317  1
  O  O79  1  0.684427  0.307353  0.759891  1
  O  O80  1  0.854253  0.282809  0.959088  1
  O  O81  1  0.717564  0.136927  0.459094  1
  O  O82  1  0.855679  0.281699  0.562617  1
  O  O83  1  0.717609  0.137503  0.062658  1
  O  O84  1  0.629179  0.001217  0.755646  1
  O  O85  1  0.992434  0.315807  0.258440  1
  O  O86  1  0.876687  0.112572  0.761317  1
  O  O87  1  0.887691  0.989452  0.261579  1
  F  F88  1  0.244144  0.481661  0.274412  1
  F  F89  1  0.518492  0.725845  0.772706  1
  F  F90  1  0.725784  0.755725  0.774553  1
  F  F91  1  0.274058  0.244531  0.272418  1
  F  F92  1  0.481565  0.274071  0.272799  1
  F  F93  1  0.755803  0.518557  0.773481  1
