# generated using pymatgen
data_CuBrO2
_symmetry_space_group_name_H-M   'P 1'
_cell_length_a   3.65279607
_cell_length_b   6.76774625
_cell_length_c   6.87365465
_cell_angle_alpha   70.36422737
_cell_angle_beta   88.91425777
_cell_angle_gamma   86.71684531
_symmetry_Int_Tables_number   1
_chemical_formula_structural   CuBrO2
_chemical_formula_sum   'Cu2 Br2 O4'
_cell_volume   159.78077695
_cell_formula_units_Z   2
loop_
 _symmetry_equiv_pos_site_id
 _symmetry_equiv_pos_as_xyz
  1  'x, y, z'
loop_
 _atom_site_type_symbol
 _atom_site_label
 _atom_site_symmetry_multiplicity
 _atom_site_fract_x
 _atom_site_fract_y
 _atom_site_fract_z
 _atom_site_occupancy
  Cu  Cu0  1  0.495295  0.087643  0.684515  1
  Cu  Cu1  1  0.046701  0.754928  0.331250  1
  Br  Br2  1  0.565894  0.619152  0.185349  1
  Br  Br3  1  0.975832  0.231036  0.823282  1
  O  O4  1  0.801510  0.093508  0.454227  1
  O  O5  1  0.222758  0.855859  0.679965  1
  O  O6  1  0.721288  0.983673  0.338601  1
  O  O7  1  0.334682  0.745951  0.564361  1
