# generated using pymatgen
data_V4SiSb2
_symmetry_space_group_name_H-M   'P 1'
_cell_length_a   4.69194592
_cell_length_b   7.36038920
_cell_length_c   7.36038920
_cell_angle_alpha   84.16935064
_cell_angle_beta   71.41389381
_cell_angle_gamma   71.41389385
_symmetry_Int_Tables_number   1
_chemical_formula_structural   V4SiSb2
_chemical_formula_sum   'V8 Si2 Sb4'
_cell_volume   228.36517210
_cell_formula_units_Z   2
loop_
 _symmetry_equiv_pos_site_id
 _symmetry_equiv_pos_as_xyz
  1  'x, y, z'
loop_
 _atom_site_type_symbol
 _atom_site_label
 _atom_site_symmetry_multiplicity
 _atom_site_fract_x
 _atom_site_fract_y
 _atom_site_fract_z
 _atom_site_occupancy
  Si  Si0  1  0.250000  0.000000  0.000000  1
  Si  Si1  1  0.750000  0.000000  0.000000  1
  V  V2  1  0.205393  0.710033  0.879181  1
  V  V3  1  0.915426  0.879181  0.289967  1
  V  V4  1  0.294607  0.120819  0.289967  1
  V  V5  1  0.705393  0.879181  0.710033  1
  V  V6  1  0.415426  0.289967  0.879181  1
  V  V7  1  0.584574  0.710033  0.120819  1
  V  V8  1  0.084574  0.120819  0.710033  1
  V  V9  1  0.794607  0.289967  0.120819  1
  Sb  Sb10  1  0.140981  0.500000  0.218038  1
  Sb  Sb11  1  0.359019  0.781962  0.500000  1
  Sb  Sb12  1  0.640981  0.218038  0.500000  1
  Sb  Sb13  1  0.859019  0.500000  0.781962  1
