# generated using pymatgen
data_TlNiO3
_symmetry_space_group_name_H-M   'P 1'
_cell_length_a   5.37748919
_cell_length_b   5.37748934
_cell_length_c   5.37748876
_cell_angle_alpha   59.74407221
_cell_angle_beta   59.74407132
_cell_angle_gamma   59.74406949
_symmetry_Int_Tables_number   1
_chemical_formula_structural   TlNiO3
_chemical_formula_sum   'Tl2 Ni2 O6'
_cell_volume   109.31813465
_cell_formula_units_Z   2
loop_
 _symmetry_equiv_pos_site_id
 _symmetry_equiv_pos_as_xyz
  1  'x, y, z'
loop_
 _atom_site_type_symbol
 _atom_site_label
 _atom_site_symmetry_multiplicity
 _atom_site_fract_x
 _atom_site_fract_y
 _atom_site_fract_z
 _atom_site_occupancy
  Tl  Tl0  1  0.269520  0.269521  0.269520  1
  Tl  Tl1  1  0.769521  0.769520  0.769520  1
  Ni  Ni2  1  0.005986  0.005986  0.005987  1
  Ni  Ni3  1  0.505985  0.505986  0.505985  1
  O  O4  1  0.243006  0.847425  0.662563  1
  O  O5  1  0.847426  0.662562  0.243007  1
  O  O6  1  0.662562  0.243009  0.847424  1
  O  O7  1  0.162563  0.347426  0.743006  1
  O  O8  1  0.743007  0.162562  0.347423  1
  O  O9  1  0.347425  0.743007  0.162562  1
