# generated using pymatgen
data_LiErSn
_symmetry_space_group_name_H-M   'P 1'
_cell_length_a   9.34278931
_cell_length_b   9.34266145
_cell_length_c   7.25810481
_cell_angle_alpha   90.00000000
_cell_angle_beta   90.00000000
_cell_angle_gamma   120.00044913
_symmetry_Int_Tables_number   1
_chemical_formula_structural   LiErSn
_chemical_formula_sum   'Li8 Er8 Sn8'
_cell_volume   548.65465516
_cell_formula_units_Z   8
loop_
 _symmetry_equiv_pos_site_id
 _symmetry_equiv_pos_as_xyz
  1  'x, y, z'
loop_
 _atom_site_type_symbol
 _atom_site_label
 _atom_site_symmetry_multiplicity
 _atom_site_fract_x
 _atom_site_fract_y
 _atom_site_fract_z
 _atom_site_occupancy
  Li  Li0  1  0.166744  0.333488  0.211746  1
  Li  Li1  1  0.166747  0.833255  0.211746  1
  Li  Li2  1  0.666509  0.833255  0.211746  1
  Li  Li3  1  0.666669  0.333338  0.331284  1
  Li  Li4  1  0.833256  0.666512  0.711746  1
  Li  Li5  1  0.333491  0.166744  0.711746  1
  Li  Li6  1  0.833252  0.166744  0.711746  1
  Li  Li7  1  0.333332  0.666662  0.831285  1
  Er  Er8  1  0.000002  0.000004  0.999699  1
  Er  Er9  1  0.512339  0.024677  0.006040  1
  Er  Er10  1  0.512341  0.487665  0.006037  1
  Er  Er11  1  0.975325  0.487665  0.006037  1
  Er  Er12  1  0.999998  0.999996  0.499699  1
  Er  Er13  1  0.487661  0.975323  0.506040  1
  Er  Er14  1  0.024675  0.512336  0.506037  1
  Er  Er15  1  0.487660  0.512336  0.506037  1
  Sn  Sn16  1  0.333332  0.666664  0.238047  1
  Sn  Sn17  1  0.833009  0.666017  0.268868  1
  Sn  Sn18  1  0.333991  0.166995  0.268875  1
  Sn  Sn19  1  0.833004  0.166995  0.268875  1
  Sn  Sn20  1  0.666669  0.333337  0.738049  1
  Sn  Sn21  1  0.166992  0.333983  0.768867  1
  Sn  Sn22  1  0.166996  0.833005  0.768875  1
  Sn  Sn23  1  0.666008  0.833005  0.768875  1
