# generated using pymatgen
data_MnN
_symmetry_space_group_name_H-M   'P 1'
_cell_length_a   2.96277756
_cell_length_b   2.96276422
_cell_length_c   5.23167101
_cell_angle_alpha   90.00000000
_cell_angle_beta   90.00000000
_cell_angle_gamma   120.00014893
_symmetry_Int_Tables_number   1
_chemical_formula_structural   MnN
_chemical_formula_sum   'Mn2 N2'
_cell_volume   39.77100300
_cell_formula_units_Z   2
loop_
 _symmetry_equiv_pos_site_id
 _symmetry_equiv_pos_as_xyz
  1  'x, y, z'
loop_
 _atom_site_type_symbol
 _atom_site_label
 _atom_site_symmetry_multiplicity
 _atom_site_fract_x
 _atom_site_fract_y
 _atom_site_fract_z
 _atom_site_occupancy
  Mn  Mn0  1  0.666668  0.333336  0.511272  1
  Mn  Mn1  1  0.333332  0.666664  0.011272  1
  N  N2  1  0.666667  0.333335  0.866728  1
  N  N3  1  0.333333  0.666665  0.366728  1
