# generated using pymatgen
data_Ba4Er(RuO4)3
_symmetry_space_group_name_H-M   'P 1'
_cell_length_a   10.37570523
_cell_length_b   10.37570523
_cell_length_c   10.37570485
_cell_angle_alpha   33.19852470
_cell_angle_beta   33.19852470
_cell_angle_gamma   33.19852003
_symmetry_Int_Tables_number   1
_chemical_formula_structural   Ba4Er(RuO4)3
_chemical_formula_sum   'Ba4 Er1 Ru3 O12'
_cell_volume   298.10902907
_cell_formula_units_Z   1
loop_
 _symmetry_equiv_pos_site_id
 _symmetry_equiv_pos_as_xyz
  1  'x, y, z'
loop_
 _atom_site_type_symbol
 _atom_site_label
 _atom_site_symmetry_multiplicity
 _atom_site_fract_x
 _atom_site_fract_y
 _atom_site_fract_z
 _atom_site_occupancy
  Ba  Ba0  1  0.286020  0.286020  0.286020  1
  Ba  Ba1  1  0.713980  0.713980  0.713981  1
  Ba  Ba2  1  0.128754  0.128754  0.128754  1
  Ba  Ba3  1  0.871246  0.871246  0.871247  1
  Er  Er4  1  0.000000  0.000000  0.000000  1
  Ru  Ru5  1  0.413342  0.413342  0.413342  1
  Ru  Ru6  1  0.586658  0.586658  0.586659  1
  Ru  Ru7  1  0.500000  0.500000  0.500000  1
  O  O8  1  0.782535  0.305661  0.782536  1
  O  O9  1  0.782536  0.782536  0.305661  1
  O  O10  1  0.305661  0.782535  0.782536  1
  O  O11  1  0.694339  0.217465  0.217464  1
  O  O12  1  0.217464  0.217464  0.694340  1
  O  O13  1  0.217465  0.694339  0.217464  1
  O  O14  1  0.612647  0.146907  0.612647  1
  O  O15  1  0.612648  0.612648  0.146906  1
  O  O16  1  0.146907  0.612647  0.612647  1
  O  O17  1  0.853092  0.387353  0.387354  1
  O  O18  1  0.387352  0.387352  0.853095  1
  O  O19  1  0.387353  0.853092  0.387354  1
