# generated using pymatgen
data_TlGeCl3
_symmetry_space_group_name_H-M   'P 1'
_cell_length_a   5.32192957
_cell_length_b   5.32841910
_cell_length_c   5.32778823
_cell_angle_alpha   89.16190115
_cell_angle_beta   89.09958321
_cell_angle_gamma   89.35282317
_symmetry_Int_Tables_number   1
_chemical_formula_structural   TlGeCl3
_chemical_formula_sum   'Tl1 Ge1 Cl3'
_cell_volume   151.03853251
_cell_formula_units_Z   1
loop_
 _symmetry_equiv_pos_site_id
 _symmetry_equiv_pos_as_xyz
  1  'x, y, z'
loop_
 _atom_site_type_symbol
 _atom_site_label
 _atom_site_symmetry_multiplicity
 _atom_site_fract_x
 _atom_site_fract_y
 _atom_site_fract_z
 _atom_site_occupancy
  Tl  Tl0  1  0.009017  0.990758  0.989089  1
  Ge  Ge1  1  0.467459  0.482305  0.480367  1
  Cl  Cl2  1  0.476890  0.021688  0.496952  1
  Cl  Cl3  1  0.005613  0.504373  0.503563  1
  Cl  Cl4  1  0.481021  0.500875  0.020030  1
