# generated using pymatgen
data_Tc7B3
_symmetry_space_group_name_H-M   'P 1'
_cell_length_a   7.51702959
_cell_length_b   7.51702970
_cell_length_c   4.86651267
_cell_angle_alpha   90.00000000
_cell_angle_beta   90.00000000
_cell_angle_gamma   120.00093643
_symmetry_Int_Tables_number   1
_chemical_formula_structural   Tc7B3
_chemical_formula_sum   'Tc14 B6'
_cell_volume   238.14250509
_cell_formula_units_Z   2
loop_
 _symmetry_equiv_pos_site_id
 _symmetry_equiv_pos_as_xyz
  1  'x, y, z'
loop_
 _atom_site_type_symbol
 _atom_site_label
 _atom_site_symmetry_multiplicity
 _atom_site_fract_x
 _atom_site_fract_y
 _atom_site_fract_z
 _atom_site_occupancy
  Tc  Tc0  1  0.545647  0.454354  0.048915  1
  Tc  Tc1  1  0.454354  0.545647  0.548915  1
  Tc  Tc2  1  0.545646  0.091292  0.048921  1
  Tc  Tc3  1  0.908707  0.454355  0.048921  1
  Tc  Tc4  1  0.091293  0.545644  0.548922  1
  Tc  Tc5  1  0.454356  0.908708  0.548922  1
  Tc  Tc6  1  0.123641  0.876360  0.254315  1
  Tc  Tc7  1  0.876358  0.123641  0.754317  1
  Tc  Tc8  1  0.123637  0.247277  0.254320  1
  Tc  Tc9  1  0.752722  0.876364  0.254320  1
  Tc  Tc10  1  0.247278  0.123636  0.754318  1
  Tc  Tc11  1  0.876365  0.752722  0.754318  1
  Tc  Tc12  1  0.333331  0.666669  0.082829  1
  Tc  Tc13  1  0.666669  0.333332  0.582829  1
  B  B14  1  0.810558  0.621113  0.339820  1
  B  B15  1  0.189441  0.810559  0.839821  1
  B  B16  1  0.810559  0.189440  0.339821  1
  B  B17  1  0.378887  0.189443  0.339820  1
  B  B18  1  0.621113  0.810558  0.839818  1
  B  B19  1  0.189442  0.378887  0.839818  1
