# generated using pymatgen
data_KP2AuS7
_symmetry_space_group_name_H-M   'P 1'
_cell_length_a   6.32102283
_cell_length_b   6.32102600
_cell_length_c   15.26320400
_cell_angle_alpha   89.92446667
_cell_angle_beta   90.07550012
_cell_angle_gamma   79.39134851
_symmetry_Int_Tables_number   1
_chemical_formula_structural   KP2AuS7
_chemical_formula_sum   'K2 P4 Au2 S14'
_cell_volume   599.42160992
_cell_formula_units_Z   2
loop_
 _symmetry_equiv_pos_site_id
 _symmetry_equiv_pos_as_xyz
  1  'x, y, z'
loop_
 _atom_site_type_symbol
 _atom_site_label
 _atom_site_symmetry_multiplicity
 _atom_site_fract_x
 _atom_site_fract_y
 _atom_site_fract_z
 _atom_site_occupancy
  K  K0  1  0.242627  0.242640  0.749999  1
  K  K1  1  0.757366  0.757375  0.249999  1
  P  P2  1  0.648780  0.679105  0.639833  1
  P  P3  1  0.679102  0.648782  0.860166  1
  P  P4  1  0.351216  0.320897  0.360167  1
  P  P5  1  0.320896  0.351218  0.139832  1
  Au  Au6  1  0.000001  0.499999  0.499998  1
  Au  Au7  1  0.500000  0.000004  0.000001  1
  S  S8  1  0.336017  0.725292  0.656455  1
  S  S9  1  0.663979  0.274710  0.343555  1
  S  S10  1  0.725294  0.336021  0.843554  1
  S  S11  1  0.274711  0.663983  0.156450  1
  S  S12  1  0.799521  0.364178  0.612562  1
  S  S13  1  0.364187  0.799517  0.887432  1
  S  S14  1  0.200461  0.635818  0.387443  1
  S  S15  1  0.635822  0.200458  0.112560  1
  S  S16  1  0.769998  0.831403  0.535701  1
  S  S17  1  0.831411  0.769997  0.964297  1
  S  S18  1  0.229994  0.168604  0.464298  1
  S  S19  1  0.168607  0.229993  0.035700  1
  S  S20  1  0.802830  0.802827  0.750000  1
  S  S21  1  0.197182  0.197180  0.250000  1
