# generated using pymatgen
data_NaMoO3
_symmetry_space_group_name_H-M   'P 1'
_cell_length_a   5.52645859
_cell_length_b   5.52645831
_cell_length_c   5.54082890
_cell_angle_alpha   60.08576127
_cell_angle_beta   60.08575539
_cell_angle_gamma   60.00000497
_symmetry_Int_Tables_number   1
_chemical_formula_structural   NaMoO3
_chemical_formula_sum   'Na2 Mo2 O6'
_cell_volume   119.81613609
_cell_formula_units_Z   2
loop_
 _symmetry_equiv_pos_site_id
 _symmetry_equiv_pos_as_xyz
  1  'x, y, z'
loop_
 _atom_site_type_symbol
 _atom_site_label
 _atom_site_symmetry_multiplicity
 _atom_site_fract_x
 _atom_site_fract_y
 _atom_site_fract_z
 _atom_site_occupancy
  Na  Na0  1  0.258680  0.258680  0.223960  1
  Na  Na1  1  0.758680  0.758680  0.723960  1
  Mo  Mo2  1  0.005190  0.005190  0.984431  1
  Mo  Mo3  1  0.505190  0.505190  0.484431  1
  O  O4  1  0.710981  0.799040  0.235371  1
  O  O5  1  0.254608  0.710981  0.235371  1
  O  O6  1  0.799040  0.254608  0.235371  1
  O  O7  1  0.754608  0.299040  0.735371  1
  O  O8  1  0.299040  0.210981  0.735371  1
  O  O9  1  0.210981  0.754608  0.735371  1
