# generated using pymatgen
data_PrFeGe2
_symmetry_space_group_name_H-M   'P 1'
_cell_length_a   8.51237465
_cell_length_b   8.51237465
_cell_length_c   4.34717439
_cell_angle_alpha   90.00000000
_cell_angle_beta   90.00000000
_cell_angle_gamma   29.47928108
_symmetry_Int_Tables_number   1
_chemical_formula_structural   PrFeGe2
_chemical_formula_sum   'Pr2 Fe2 Ge4'
_cell_volume   155.01354550
_cell_formula_units_Z   2
loop_
 _symmetry_equiv_pos_site_id
 _symmetry_equiv_pos_as_xyz
  1  'x, y, z'
loop_
 _atom_site_type_symbol
 _atom_site_label
 _atom_site_symmetry_multiplicity
 _atom_site_fract_x
 _atom_site_fract_y
 _atom_site_fract_z
 _atom_site_occupancy
  Pr  Pr0  1  0.894158  0.894158  0.750000  1
  Pr  Pr1  1  0.105842  0.105842  0.249998  1
  Fe  Fe2  1  0.687150  0.687150  0.750000  1
  Fe  Fe3  1  0.312850  0.312850  0.249998  1
  Ge  Ge4  1  0.453934  0.453934  0.249998  1
  Ge  Ge5  1  0.251689  0.251689  0.750000  1
  Ge  Ge6  1  0.546066  0.546066  0.750000  1
  Ge  Ge7  1  0.748311  0.748311  0.249998  1
