# generated using pymatgen
data_YEr4Al15
_symmetry_space_group_name_H-M   'P 1'
_cell_length_a   12.48909238
_cell_length_b   12.48909238
_cell_length_c   12.48909238
_cell_angle_alpha   28.15084930
_cell_angle_beta   28.15084930
_cell_angle_gamma   28.15085340
_symmetry_Int_Tables_number   1
_chemical_formula_structural   YEr4Al15
_chemical_formula_sum   'Y1 Er4 Al15'
_cell_volume   383.06230677
_cell_formula_units_Z   1
loop_
 _symmetry_equiv_pos_site_id
 _symmetry_equiv_pos_as_xyz
  1  'x, y, z'
loop_
 _atom_site_type_symbol
 _atom_site_label
 _atom_site_symmetry_multiplicity
 _atom_site_fract_x
 _atom_site_fract_y
 _atom_site_fract_z
 _atom_site_occupancy
  Y  Y0  1  0.000000  0.000000  0.000000  1
  Er  Er1  1  0.131202  0.131202  0.131202  1
  Er  Er2  1  0.868798  0.868798  0.868797  1
  Er  Er3  1  0.400066  0.400066  0.400066  1
  Er  Er4  1  0.599934  0.599934  0.599933  1
  Al  Al5  1  0.635226  0.130646  0.635225  1
  Al  Al6  1  0.635226  0.635226  0.130647  1
  Al  Al7  1  0.130646  0.635226  0.635225  1
  Al  Al8  1  0.869354  0.364774  0.364774  1
  Al  Al9  1  0.364774  0.364774  0.869353  1
  Al  Al10  1  0.364774  0.869354  0.364774  1
  Al  Al11  1  0.882986  0.433642  0.882984  1
  Al  Al12  1  0.882986  0.882986  0.433640  1
  Al  Al13  1  0.433642  0.882986  0.882984  1
  Al  Al14  1  0.566358  0.117014  0.117016  1
  Al  Al15  1  0.117014  0.117014  0.566360  1
  Al  Al16  1  0.117014  0.566358  0.117016  1
  Al  Al17  1  0.500000  0.500000  0.000000  1
  Al  Al18  1  0.000000  0.500001  0.500000  1
  Al  Al19  1  0.500001  0.000000  0.500000  1
