# generated using pymatgen
data_WCl4
_symmetry_space_group_name_H-M   'P 1'
_cell_length_a   6.51978244
_cell_length_b   7.08616583
_cell_length_c   7.25522092
_cell_angle_alpha   107.17519825
_cell_angle_beta   116.69984640
_cell_angle_gamma   62.61057095
_symmetry_Int_Tables_number   1
_chemical_formula_structural   WCl4
_chemical_formula_sum   'W2 Cl8'
_cell_volume   264.22028901
_cell_formula_units_Z   2
loop_
 _symmetry_equiv_pos_site_id
 _symmetry_equiv_pos_as_xyz
  1  'x, y, z'
loop_
 _atom_site_type_symbol
 _atom_site_label
 _atom_site_symmetry_multiplicity
 _atom_site_fract_x
 _atom_site_fract_y
 _atom_site_fract_z
 _atom_site_occupancy
  W  W0  1  0.204696  0.000000  0.000000  1
  W  W1  1  0.795304  0.000000  0.000000  1
  Cl  Cl2  1  0.671782  0.805535  0.149097  1
  Cl  Cl3  1  0.205819  0.766947  0.178583  1
  Cl  Cl4  1  0.258472  0.246885  0.289885  1
  Cl  Cl5  1  0.784526  0.246885  0.289885  1
  Cl  Cl6  1  0.215474  0.753114  0.710115  1
  Cl  Cl7  1  0.741527  0.753114  0.710115  1
  Cl  Cl8  1  0.794181  0.233055  0.821417  1
  Cl  Cl9  1  0.328219  0.194464  0.850903  1
