# generated using pymatgen
data_RbSrSiHO4
_symmetry_space_group_name_H-M   'P 1'
_cell_length_a   5.93086704
_cell_length_b   7.87811221
_cell_length_c   5.93480347
_cell_angle_alpha   90.00000000
_cell_angle_beta   121.01856765
_cell_angle_gamma   90.00000000
_symmetry_Int_Tables_number   1
_chemical_formula_structural   RbSrSiHO4
_chemical_formula_sum   'Rb2 Sr2 Si2 H2 O8'
_cell_volume   237.64445812
_cell_formula_units_Z   2
loop_
 _symmetry_equiv_pos_site_id
 _symmetry_equiv_pos_as_xyz
  1  'x, y, z'
loop_
 _atom_site_type_symbol
 _atom_site_label
 _atom_site_symmetry_multiplicity
 _atom_site_fract_x
 _atom_site_fract_y
 _atom_site_fract_z
 _atom_site_occupancy
  Rb  Rb0  1  0.356521  0.768202  0.639167  1
  Rb  Rb1  1  0.643479  0.268202  0.360833  1
  Sr  Sr2  1  0.994983  0.516304  0.987515  1
  Sr  Sr3  1  0.005017  0.016304  0.012485  1
  Si  Si4  1  0.688908  0.754232  0.309574  1
  Si  Si5  1  0.311092  0.254232  0.690426  1
  H  H6  1  0.952807  0.993449  0.490961  1
  H  H7  1  0.047193  0.493449  0.509039  1
  O  O8  1  0.365753  0.761573  0.143985  1
  O  O9  1  0.634247  0.261573  0.856015  1
  O  O10  1  0.816086  0.760195  0.120849  1
  O  O11  1  0.183914  0.260195  0.879151  1
  O  O12  1  0.812746  0.596718  0.521552  1
  O  O13  1  0.187254  0.096718  0.478448  1
  O  O14  1  0.809745  0.932326  0.508101  1
  O  O15  1  0.190255  0.432326  0.491899  1
