# generated using pymatgen
data_CsY
_symmetry_space_group_name_H-M   'P 1'
_cell_length_a   3.84337681
_cell_length_b   3.84345427
_cell_length_c   7.51049482
_cell_angle_alpha   90.00000000
_cell_angle_beta   90.00000000
_cell_angle_gamma   119.99934198
_symmetry_Int_Tables_number   1
_chemical_formula_structural   CsY
_chemical_formula_sum   'Cs1 Y1'
_cell_volume   96.08083004
_cell_formula_units_Z   1
loop_
 _symmetry_equiv_pos_site_id
 _symmetry_equiv_pos_as_xyz
  1  'x, y, z'
loop_
 _atom_site_type_symbol
 _atom_site_label
 _atom_site_symmetry_multiplicity
 _atom_site_fract_x
 _atom_site_fract_y
 _atom_site_fract_z
 _atom_site_occupancy
  Cs  Cs0  1  0.666667  0.333335  0.749999  1
  Y  Y1  1  0.333332  0.666664  0.250000  1
