# generated using pymatgen
data_GeH6CI3N
_symmetry_space_group_name_H-M   'P 1'
_cell_length_a   8.61862976
_cell_length_b   8.62627210
_cell_length_c   12.38091043
_cell_angle_alpha   90.36532764
_cell_angle_beta   90.37212433
_cell_angle_gamma   89.91447642
_symmetry_Int_Tables_number   1
_chemical_formula_structural   GeH6CI3N
_chemical_formula_sum   'Ge4 H24 C4 I12 N4'
_cell_volume   920.44006393
_cell_formula_units_Z   4
loop_
 _symmetry_equiv_pos_site_id
 _symmetry_equiv_pos_as_xyz
  1  'x, y, z'
loop_
 _atom_site_type_symbol
 _atom_site_label
 _atom_site_symmetry_multiplicity
 _atom_site_fract_x
 _atom_site_fract_y
 _atom_site_fract_z
 _atom_site_occupancy
  Ge  Ge0  1  0.003796  0.002461  0.020277  1
  Ge  Ge1  1  0.496659  0.498252  0.520270  1
  Ge  Ge2  1  0.003206  0.997746  0.520251  1
  Ge  Ge3  1  0.504316  0.502795  0.020274  1
  H  H4  1  0.416989  0.919197  0.702177  1
  H  H5  1  0.620277  0.963961  0.705654  1
  H  H6  1  0.394609  0.032196  0.883053  1
  H  H7  1  0.580693  0.082474  0.884752  1
  H  H8  1  0.533966  0.895592  0.885696  1
  H  H9  1  0.920929  0.415276  0.700448  1
  H  H10  1  0.121804  0.470072  0.705198  1
  H  H11  1  0.890608  0.522866  0.880962  1
  H  H12  1  0.074546  0.582839  0.886042  1
  H  H13  1  0.035280  0.393811  0.883608  1
  H  H14  1  0.884018  0.490146  0.201463  1
  H  H15  1  0.070072  0.395899  0.204512  1
  H  H16  1  0.932240  0.590081  0.382423  1
  H  H17  1  0.109404  0.511107  0.385603  1
  H  H18  1  0.952276  0.398376  0.383541  1
  H  H19  1  0.421636  0.915175  0.201179  1
  H  H20  1  0.621095  0.975226  0.205447  1
  H  H21  1  0.390921  0.019399  0.382951  1
  H  H22  1  0.573665  0.083041  0.387294  1
  H  H23  1  0.538203  0.893465  0.383132  1
  H  H24  1  0.058115  0.603553  0.204068  1
  H  H25  1  0.974085  0.616482  0.703679  1
  H  H26  1  0.479688  0.117514  0.703835  1
  H  H27  1  0.469659  0.117738  0.205350  1
  C  C28  1  0.503704  0.002543  0.232421  1
  C  C29  1  0.004871  0.500647  0.731573  1
  C  C30  1  0.003070  0.497714  0.231840  1
  C  C31  1  0.504633  0.000001  0.732369  1
  I  I32  1  0.000981  0.000012  0.242890  1
  I  I33  1  0.501693  0.500539  0.742756  1
  I  I34  1  0.001363  0.000687  0.742733  1
  I  I35  1  0.498820  0.500538  0.242822  1
  I  I36  1  0.241300  0.743973  0.009390  1
  I  I37  1  0.745089  0.245243  0.508625  1
  I  I38  1  0.249158  0.236526  0.008047  1
  I  I39  1  0.757486  0.744969  0.507937  1
  I  I40  1  0.753383  0.255715  0.008041  1
  I  I41  1  0.256377  0.756631  0.509426  1
  I  I42  1  0.736643  0.749120  0.009230  1
  I  I43  1  0.244566  0.257897  0.508982  1
  N  N44  1  0.500772  0.999065  0.352882  1
  N  N45  1  0.000388  0.499358  0.851970  1
  N  N46  1  0.999754  0.499027  0.352256  1
  N  N47  1  0.502526  0.001835  0.852829  1
