# generated using pymatgen
data_TlInCl3
_symmetry_space_group_name_H-M   'P 1'
_cell_length_a   5.41738284
_cell_length_b   5.41827162
_cell_length_c   5.41190045
_cell_angle_alpha   90.00682652
_cell_angle_beta   90.06446003
_cell_angle_gamma   90.05411009
_symmetry_Int_Tables_number   1
_chemical_formula_structural   TlInCl3
_chemical_formula_sum   'Tl1 In1 Cl3'
_cell_volume   158.85453864
_cell_formula_units_Z   1
loop_
 _symmetry_equiv_pos_site_id
 _symmetry_equiv_pos_as_xyz
  1  'x, y, z'
loop_
 _atom_site_type_symbol
 _atom_site_label
 _atom_site_symmetry_multiplicity
 _atom_site_fract_x
 _atom_site_fract_y
 _atom_site_fract_z
 _atom_site_occupancy
  Tl  Tl0  1  0.011714  0.005857  0.989980  1
  In  In1  1  0.501041  0.499995  0.513142  1
  Cl  Cl2  1  0.502494  0.999173  0.521833  1
  Cl  Cl3  1  0.493854  0.494399  0.015675  1
  Cl  Cl4  1  0.000902  0.500577  0.519372  1
