# generated using pymatgen
data_KAuO2
_symmetry_space_group_name_H-M   'P 1'
_cell_length_a   4.48076067
_cell_length_b   6.10388000
_cell_length_c   6.43035000
_cell_angle_alpha   90.00000000
_cell_angle_beta   69.61008053
_cell_angle_gamma   90.00000000
_symmetry_Int_Tables_number   1
_chemical_formula_structural   KAuO2
_chemical_formula_sum   'K2 Au2 O4'
_cell_volume   164.85078773
_cell_formula_units_Z   2
loop_
 _symmetry_equiv_pos_site_id
 _symmetry_equiv_pos_as_xyz
  1  'x, y, z'
loop_
 _atom_site_type_symbol
 _atom_site_label
 _atom_site_symmetry_multiplicity
 _atom_site_fract_x
 _atom_site_fract_y
 _atom_site_fract_z
 _atom_site_occupancy
  K  K0  1  0.296390  0.250000  0.407220  1
  K  K1  1  0.703610  0.750000  0.592780  1
  Au  Au2  1  0.997250  0.750000  0.005500  1
  Au  Au3  1  0.002750  0.250000  0.994500  1
  O  O4  1  0.887690  0.494740  0.224620  1
  O  O5  1  0.112310  0.505260  0.775380  1
  O  O6  1  0.112310  0.994740  0.775380  1
  O  O7  1  0.887690  0.005260  0.224620  1
