# generated using pymatgen
data_Lu2Ni12As7
_symmetry_space_group_name_H-M   'P 1'
_cell_length_a   9.36302809
_cell_length_b   9.36489468
_cell_length_c   3.77733388
_cell_angle_alpha   90.00000000
_cell_angle_beta   90.00000000
_cell_angle_gamma   120.00246821
_symmetry_Int_Tables_number   1
_chemical_formula_structural   Lu2Ni12As7
_chemical_formula_sum   'Lu2 Ni12 As7'
_cell_volume   286.82990386
_cell_formula_units_Z   1
loop_
 _symmetry_equiv_pos_site_id
 _symmetry_equiv_pos_as_xyz
  1  'x, y, z'
loop_
 _atom_site_type_symbol
 _atom_site_label
 _atom_site_symmetry_multiplicity
 _atom_site_fract_x
 _atom_site_fract_y
 _atom_site_fract_z
 _atom_site_occupancy
  Lu  Lu0  1  0.333315  0.666652  0.000000  1
  Lu  Lu1  1  0.666628  0.333306  0.499999  1
  Ni  Ni2  1  0.153167  0.280145  0.000000  1
  Ni  Ni3  1  0.719824  0.873088  0.000000  1
  Ni  Ni4  1  0.126929  0.846715  0.000000  1
  Ni  Ni5  1  0.378956  0.428322  0.499999  1
  Ni  Ni6  1  0.571755  0.950625  0.499999  1
  Ni  Ni7  1  0.049427  0.621120  0.499999  1
  Ni  Ni8  1  0.439717  0.058100  0.000000  1
  Ni  Ni9  1  0.941999  0.381728  0.000000  1
  Ni  Ni10  1  0.618299  0.560267  0.000000  1
  Ni  Ni11  1  0.213747  0.095846  0.499999  1
  Ni  Ni12  1  0.904126  0.117911  0.499999  1
  Ni  Ni13  1  0.882042  0.786110  0.499999  1
  As  As14  1  0.000003  0.999963  0.000000  1
  As  As15  1  0.113645  0.410294  0.499999  1
  As  As16  1  0.589765  0.703347  0.499999  1
  As  As17  1  0.296698  0.886430  0.499999  1
  As  As18  1  0.405970  0.285762  0.000000  1
  As  As19  1  0.714307  0.120340  0.000000  1
  As  As20  1  0.879679  0.593930  0.000000  1
