# generated using pymatgen
data_LaOsN3
_symmetry_space_group_name_H-M   'P 1'
_cell_length_a   5.57403781
_cell_length_b   5.57876593
_cell_length_c   7.92000481
_cell_angle_alpha   89.99817609
_cell_angle_beta   89.99705388
_cell_angle_gamma   89.99674259
_symmetry_Int_Tables_number   1
_chemical_formula_structural   LaOsN3
_chemical_formula_sum   'La4 Os4 N12'
_cell_volume   246.28246679
_cell_formula_units_Z   4
loop_
 _symmetry_equiv_pos_site_id
 _symmetry_equiv_pos_as_xyz
  1  'x, y, z'
loop_
 _atom_site_type_symbol
 _atom_site_label
 _atom_site_symmetry_multiplicity
 _atom_site_fract_x
 _atom_site_fract_y
 _atom_site_fract_z
 _atom_site_occupancy
  La  La0  1  0.983209  0.000454  0.249993  1
  La  La1  1  0.483207  0.499545  0.249990  1
  La  La2  1  0.516735  0.500422  0.750021  1
  La  La3  1  0.016805  0.999575  0.750005  1
  Os  Os4  1  0.500015  0.999981  0.499995  1
  Os  Os5  1  -0.000005  0.500008  -0.000010  1
  Os  Os6  1  -0.000001  0.499998  0.500010  1
  Os  Os7  1  0.500015  0.999988  -0.000001  1
  N  N8  1  0.277463  0.722227  0.978019  1
  N  N9  1  0.722539  0.277770  0.478001  1
  N  N10  1  0.722541  0.277775  0.021994  1
  N  N11  1  0.003532  0.543677  0.250000  1
  N  N12  1  0.503527  0.956328  0.250008  1
  N  N13  1  0.996493  0.456311  0.749995  1
  N  N14  1  0.277465  0.722241  0.521986  1
  N  N15  1  0.777450  0.777772  0.521978  1
  N  N16  1  0.777471  0.777761  0.978024  1
  N  N17  1  0.222542  0.222238  0.478004  1
  N  N18  1  0.496462  0.043685  0.749993  1
  N  N19  1  0.222536  0.222245  0.021995  1
