# generated using pymatgen
data_K2NaGaAs2
_symmetry_space_group_name_H-M   'P 1'
_cell_length_a   6.65472949
_cell_length_b   6.80128231
_cell_length_c   8.90713996
_cell_angle_alpha   112.40621930
_cell_angle_beta   111.91931873
_cell_angle_gamma   89.98765380
_symmetry_Int_Tables_number   1
_chemical_formula_structural   K2NaGaAs2
_chemical_formula_sum   'K4 Na2 Ga2 As4'
_cell_volume   340.98796769
_cell_formula_units_Z   2
loop_
 _symmetry_equiv_pos_site_id
 _symmetry_equiv_pos_as_xyz
  1  'x, y, z'
loop_
 _atom_site_type_symbol
 _atom_site_label
 _atom_site_symmetry_multiplicity
 _atom_site_fract_x
 _atom_site_fract_y
 _atom_site_fract_z
 _atom_site_occupancy
  Na  Na0  1  0.750023  0.000003  0.000017  1
  Na  Na1  1  0.249977  -0.000003  -0.000017  1
  K  K2  1  0.327086  0.582185  0.654125  1
  K  K3  1  0.826942  0.072338  0.654069  1
  K  K4  1  0.173058  0.927662  0.345931  1
  K  K5  1  0.672914  0.417815  0.345875  1
  Ga  Ga6  1  0.249916  0.499953  -0.000048  1
  Ga  Ga7  1  0.750084  0.500047  0.000048  1
  As  As8  1  0.594601  0.796934  0.189641  1
  As  As9  1  0.405399  0.203066  0.810359  1
  As  As10  1  0.905146  0.607774  0.810299  1
  As  As11  1  0.094854  0.392226  0.189701  1
