# generated using pymatgen
data_TlFeSe2
_symmetry_space_group_name_H-M   'P 1'
_cell_length_a   3.80427694
_cell_length_b   3.80427694
_cell_length_c   7.51030537
_cell_angle_alpha   104.67112573
_cell_angle_beta   104.67112573
_cell_angle_gamma   90.00000000
_symmetry_Int_Tables_number   1
_chemical_formula_structural   TlFeSe2
_chemical_formula_sum   'Tl1 Fe1 Se2'
_cell_volume   101.48162170
_cell_formula_units_Z   1
loop_
 _symmetry_equiv_pos_site_id
 _symmetry_equiv_pos_as_xyz
  1  'x, y, z'
loop_
 _atom_site_type_symbol
 _atom_site_label
 _atom_site_symmetry_multiplicity
 _atom_site_fract_x
 _atom_site_fract_y
 _atom_site_fract_z
 _atom_site_occupancy
  Tl  Tl0  1  -0.000000  -0.000000  -0.000000  1
  Fe  Fe1  1  0.250000  0.750000  0.500000  1
  Se  Se2  1  0.647936  0.647936  0.295873  1
  Se  Se3  1  0.352064  0.352064  0.704127  1
