# generated using pymatgen
data_CsNaF3
_symmetry_space_group_name_H-M   'P 1'
_cell_length_a   4.15844513
_cell_length_b   7.00255367
_cell_length_c   13.57325086
_cell_angle_alpha   90.00372929
_cell_angle_beta   90.00015762
_cell_angle_gamma   90.00011588
_symmetry_Int_Tables_number   1
_chemical_formula_structural   CsNaF3
_chemical_formula_sum   'Cs4 Na4 F12'
_cell_volume   395.24947022
_cell_formula_units_Z   4
loop_
 _symmetry_equiv_pos_site_id
 _symmetry_equiv_pos_as_xyz
  1  'x, y, z'
loop_
 _atom_site_type_symbol
 _atom_site_label
 _atom_site_symmetry_multiplicity
 _atom_site_fract_x
 _atom_site_fract_y
 _atom_site_fract_z
 _atom_site_occupancy
  Cs  Cs0  1  0.750005  0.105722  0.670609  1
  Cs  Cs1  1  0.249998  0.894246  0.329394  1
  Cs  Cs2  1  0.750000  0.605728  0.829397  1
  Cs  Cs3  1  0.250000  0.394241  0.170599  1
  Na  Na4  1  0.250001  0.134554  0.926089  1
  Na  Na5  1  0.750003  0.865491  0.073836  1
  Na  Na6  1  0.249986  0.634564  0.573912  1
  Na  Na7  1  0.750005  0.365520  0.426166  1
  F  F8  1  0.750002  0.265121  0.988827  1
  F  F9  1  0.250000  0.734675  0.011174  1
  F  F10  1  0.750004  0.765108  0.511177  1
  F  F11  1  0.250005  0.234689  0.488822  1
  F  F12  1  0.250003  0.998709  0.088244  1
  F  F13  1  0.750000  0.001512  0.911856  1
  F  F14  1  0.250000  0.498707  0.411757  1
  F  F15  1  0.750001  0.501533  0.588145  1
  F  F16  1  0.249996  0.313779  0.789911  1
  F  F17  1  0.749997  0.686154  0.210119  1
  F  F18  1  0.249997  0.813776  0.710086  1
  F  F19  1  0.749996  0.186166  0.289880  1
