# generated using pymatgen
data_CsTbS2
_symmetry_space_group_name_H-M   'P 1'
_cell_length_a   4.11950513
_cell_length_b   4.11949943
_cell_length_c   16.08495809
_cell_angle_alpha   89.99982766
_cell_angle_beta   90.00049174
_cell_angle_gamma   119.99952000
_symmetry_Int_Tables_number   1
_chemical_formula_structural   CsTbS2
_chemical_formula_sum   'Cs2 Tb2 S4'
_cell_volume   236.39710880
_cell_formula_units_Z   2
loop_
 _symmetry_equiv_pos_site_id
 _symmetry_equiv_pos_as_xyz
  1  'x, y, z'
loop_
 _atom_site_type_symbol
 _atom_site_label
 _atom_site_symmetry_multiplicity
 _atom_site_fract_x
 _atom_site_fract_y
 _atom_site_fract_z
 _atom_site_occupancy
  Tb  Tb0  1  -0.000000  0.000001  1.000000  1
  Tb  Tb1  1  0.999972  0.000002  0.500000  1
  Cs  Cs2  1  0.333289  0.666693  0.250000  1
  Cs  Cs3  1  0.666693  0.333309  0.750000  1
  S  S4  1  0.333319  0.666663  0.591694  1
  S  S5  1  0.666666  0.333340  0.091694  1
  S  S6  1  0.666629  0.333336  0.408305  1
  S  S7  1  0.333334  0.666663  0.908307  1
