# generated using pymatgen
data_SnH6CI3N
_symmetry_space_group_name_H-M   'P 1'
_cell_length_a   9.05788286
_cell_length_b   9.05653535
_cell_length_c   12.55658239
_cell_angle_alpha   91.04997923
_cell_angle_beta   90.83772758
_cell_angle_gamma   89.49217230
_symmetry_Int_Tables_number   1
_chemical_formula_structural   SnH6CI3N
_chemical_formula_sum   'Sn4 H24 C4 I12 N4'
_cell_volume   1029.73348280
_cell_formula_units_Z   4
loop_
 _symmetry_equiv_pos_site_id
 _symmetry_equiv_pos_as_xyz
  1  'x, y, z'
loop_
 _atom_site_type_symbol
 _atom_site_label
 _atom_site_symmetry_multiplicity
 _atom_site_fract_x
 _atom_site_fract_y
 _atom_site_fract_z
 _atom_site_occupancy
  Sn  Sn0  1  0.000372  0.999852  0.010119  1
  Sn  Sn1  1  0.497743  0.498626  0.509998  1
  Sn  Sn2  1  0.003403  0.998326  0.510366  1
  Sn  Sn3  1  0.500641  0.500261  0.009972  1
  H  H4  1  0.421593  0.922195  0.703508  1
  H  H5  1  0.614530  0.966164  0.706577  1
  H  H6  1  0.402487  0.034586  0.882701  1
  H  H7  1  0.579344  0.080551  0.883232  1
  H  H8  1  0.534796  0.903449  0.886086  1
  H  H9  1  0.925551  0.419256  0.701468  1
  H  H10  1  0.116296  0.472117  0.705717  1
  H  H11  1  0.896936  0.523013  0.879088  1
  H  H12  1  0.071375  0.577829  0.886773  1
  H  H13  1  0.034387  0.398702  0.882716  1
  H  H14  1  0.888688  0.490755  0.202268  1
  H  H15  1  0.067252  0.401382  0.205108  1
  H  H16  1  0.934898  0.585996  0.381890  1
  H  H17  1  0.102903  0.508641  0.385707  1
  H  H18  1  0.953558  0.403488  0.382133  1
  H  H19  1  0.426529  0.919060  0.202463  1
  H  H20  1  0.615500  0.976596  0.206495  1
  H  H21  1  0.397426  0.019603  0.381664  1
  H  H22  1  0.570726  0.078188  0.388282  1
  H  H23  1  0.537613  0.898258  0.381147  1
  H  H24  1  0.053947  0.598373  0.207279  1
  H  H25  1  0.974725  0.611054  0.706573  1
  H  H26  1  0.480071  0.111694  0.706350  1
  H  H27  1  0.470596  0.112361  0.207427  1
  C  C28  1  0.503996  0.002533  0.233620  1
  C  C29  1  0.005218  0.500360  0.732716  1
  C  C30  1  0.002183  0.496760  0.233039  1
  C  C31  1  0.504880  0.999884  0.733682  1
  I  I32  1  0.001358  0.000335  0.253485  1
  I  I33  1  0.501917  0.499803  0.753477  1
  I  I34  1  0.000515  0.000560  0.753432  1
  I  I35  1  0.498606  0.500644  0.253534  1
  I  I36  1  0.242409  0.745589  0.007809  1
  I  I37  1  0.748948  0.248648  0.505490  1
  I  I38  1  0.245310  0.239028  0.006072  1
  I  I39  1  0.754981  0.747728  0.504535  1
  I  I40  1  0.748358  0.250996  0.005027  1
  I  I41  1  0.254168  0.753771  0.508755  1
  I  I42  1  0.738157  0.745992  0.007333  1
  I  I43  1  0.247549  0.255019  0.508169  1
  N  N44  1  0.502130  0.999338  0.352545  1
  N  N45  1  0.001834  0.499320  0.851604  1
  N  N46  1  0.998442  0.498722  0.351989  1
  N  N47  1  0.504485  0.003371  0.852743  1
