# generated using pymatgen
data_Co2(CO3)3
_symmetry_space_group_name_H-M   'P 1'
_cell_length_a   7.64467231
_cell_length_b   7.44659018
_cell_length_c   7.62132045
_cell_angle_alpha   109.38456434
_cell_angle_beta   108.96576708
_cell_angle_gamma   108.43863574
_symmetry_Int_Tables_number   1
_chemical_formula_structural   Co2(CO3)3
_chemical_formula_sum   'Co4 C6 O18'
_cell_volume   340.49765686
_cell_formula_units_Z   2
loop_
 _symmetry_equiv_pos_site_id
 _symmetry_equiv_pos_as_xyz
  1  'x, y, z'
loop_
 _atom_site_type_symbol
 _atom_site_label
 _atom_site_symmetry_multiplicity
 _atom_site_fract_x
 _atom_site_fract_y
 _atom_site_fract_z
 _atom_site_occupancy
  Co  Co0  1  0.044348  0.546175  0.165428  1
  Co  Co1  1  0.168829  0.051753  0.549950  1
  Co  Co2  1  0.476633  0.445376  0.442154  1
  Co  Co3  1  0.544263  0.160730  0.039376  1
  C  C4  1  0.166958  0.248752  0.939640  1
  C  C5  1  0.252452  0.944815  0.168577  1
  C  C6  1  0.402548  0.798170  0.580906  1
  C  C7  1  0.589938  0.401425  0.808117  1
  C  C8  1  0.806676  0.601188  0.406804  1
  C  C9  1  0.935954  0.169312  0.249735  1
  O  O10  1  0.065397  0.356683  0.945471  1
  O  O11  1  0.077621  0.774460  0.089131  1
  O  O12  1  0.086689  0.071571  0.764815  1
  O  O13  1  0.087750  0.349885  0.304713  1
  O  O14  1  0.395523  0.966708  0.700783  1
  O  O15  1  0.339628  0.745137  0.382582  1
  O  O16  1  0.468914  0.688900  0.654989  1
  O  O17  1  0.393291  0.343122  0.754742  1
  O  O18  1  0.360072  0.946354  0.069232  1
  O  O19  1  0.315152  0.112665  0.347740  1
  O  O20  1  0.343630  0.308730  0.098531  1
  O  O21  1  0.703945  0.395846  0.976485  1
  O  O22  1  0.671381  0.461381  0.703556  1
  O  O23  1  0.715170  0.698197  0.479039  1
  O  O24  1  0.725825  0.393545  0.346928  1
  O  O25  1  0.973162  0.700240  0.395932  1
  O  O26  1  0.760306  0.077932  0.075499  1
  O  O27  1  0.950499  0.069644  0.359426  1
