# generated using pymatgen
data_AgClO2
_symmetry_space_group_name_H-M   'P 1'
_cell_length_a   4.27588001
_cell_length_b   6.67247967
_cell_length_c   4.40148000
_cell_angle_alpha   98.39262174
_cell_angle_beta   118.86046507
_cell_angle_gamma   90.46129880
_symmetry_Int_Tables_number   1
_chemical_formula_structural   AgClO2
_chemical_formula_sum   'Ag1 Cl1 O2'
_cell_volume   108.35514625
_cell_formula_units_Z   1
loop_
 _symmetry_equiv_pos_site_id
 _symmetry_equiv_pos_as_xyz
  1  'x, y, z'
loop_
 _atom_site_type_symbol
 _atom_site_label
 _atom_site_symmetry_multiplicity
 _atom_site_fract_x
 _atom_site_fract_y
 _atom_site_fract_z
 _atom_site_occupancy
  Ag  Ag0  1  0.140060  0.946490  0.539060  1
  Cl  Cl1  1  0.467190  0.952780  0.190250  1
  O  O2  1  0.837140  0.427020  0.905950  1
  O  O3  1  0.700600  0.514860  0.649420  1
