# generated using pymatgen
data_RbBS3
_symmetry_space_group_name_H-M   'P 1'
_cell_length_a   5.87787479
_cell_length_b   7.25744326
_cell_length_c   12.10342509
_cell_angle_alpha   90.00000000
_cell_angle_beta   90.00000000
_cell_angle_gamma   104.54608240
_symmetry_Int_Tables_number   1
_chemical_formula_structural   RbBS3
_chemical_formula_sum   'Rb4 B4 S12'
_cell_volume   499.76216366
_cell_formula_units_Z   4
loop_
 _symmetry_equiv_pos_site_id
 _symmetry_equiv_pos_as_xyz
  1  'x, y, z'
loop_
 _atom_site_type_symbol
 _atom_site_label
 _atom_site_symmetry_multiplicity
 _atom_site_fract_x
 _atom_site_fract_y
 _atom_site_fract_z
 _atom_site_occupancy
  B  B0  1  0.691835  0.711668  0.233146  1
  B  B1  1  0.808165  0.288332  0.733146  1
  B  B2  1  0.308165  0.288332  0.766854  1
  B  B3  1  0.191835  0.711668  0.266854  1
  S  S4  1  0.172652  0.931592  0.176602  1
  S  S5  1  0.327348  0.068408  0.676602  1
  S  S6  1  0.827348  0.068408  0.823398  1
  S  S7  1  0.672652  0.931592  0.323398  1
  S  S8  1  0.351035  0.813031  0.400146  1
  S  S9  1  0.148965  0.186969  0.900146  1
  S  S10  1  0.648965  0.186969  0.599854  1
  S  S11  1  0.851035  0.813031  0.099854  1
  S  S12  1  0.384453  0.561167  0.198645  1
  S  S13  1  0.115547  0.438833  0.698645  1
  S  S14  1  0.615547  0.438833  0.801355  1
  S  S15  1  0.884453  0.561167  0.301355  1
  Rb  Rb16  1  0.702927  0.258950  0.081011  1
  Rb  Rb17  1  0.797073  0.741050  0.581011  1
  Rb  Rb18  1  0.297073  0.741050  0.918989  1
  Rb  Rb19  1  0.202927  0.258950  0.418989  1
