# generated using pymatgen
data_YMoN3
_symmetry_space_group_name_H-M   'P 1'
_cell_length_a   6.29992161
_cell_length_b   7.36266481
_cell_length_c   7.36266450
_cell_angle_alpha   98.52046640
_cell_angle_beta   106.63896465
_cell_angle_gamma   73.36102915
_symmetry_Int_Tables_number   1
_chemical_formula_structural   YMoN3
_chemical_formula_sum   'Y4 Mo4 N12'
_cell_volume   312.69511412
_cell_formula_units_Z   4
loop_
 _symmetry_equiv_pos_site_id
 _symmetry_equiv_pos_as_xyz
  1  'x, y, z'
loop_
 _atom_site_type_symbol
 _atom_site_label
 _atom_site_symmetry_multiplicity
 _atom_site_fract_x
 _atom_site_fract_y
 _atom_site_fract_z
 _atom_site_occupancy
  Y  Y0  1  0.750000  0.912095  0.912095  1
  Y  Y1  1  0.250000  0.706830  0.706830  1
  Y  Y2  1  0.250000  0.087905  0.087905  1
  Y  Y3  1  0.750000  0.293170  0.293170  1
  Mo  Mo4  1  0.773913  0.799671  0.380145  1
  Mo  Mo5  1  0.226087  0.200329  0.619855  1
  Mo  Mo6  1  0.273913  0.619855  0.200329  1
  Mo  Mo7  1  0.726087  0.380145  0.799671  1
  N  N8  1  0.845465  0.219577  0.999452  1
  N  N9  1  0.430233  0.366052  0.655175  1
  N  N10  1  0.569767  0.633948  0.344825  1
  N  N11  1  0.661251  0.623702  0.886139  1
  N  N12  1  0.654535  0.999452  0.219577  1
  N  N13  1  0.154535  0.780423  0.000548  1
  N  N14  1  0.161251  0.113861  0.376298  1
  N  N15  1  0.838749  0.886139  0.623702  1
  N  N16  1  0.345465  0.000548  0.780423  1
  N  N17  1  0.930233  0.344825  0.633948  1
  N  N18  1  0.069767  0.655175  0.366052  1
  N  N19  1  0.338749  0.376298  0.113861  1
