# generated using pymatgen
data_Sc3Co2Si3
_symmetry_space_group_name_H-M   'P 1'
_cell_length_a   3.93160220
_cell_length_b   5.34547762
_cell_length_c   12.82945020
_cell_angle_alpha   90.00000000
_cell_angle_beta   90.00000000
_cell_angle_gamma   111.57694036
_symmetry_Int_Tables_number   1
_chemical_formula_structural   Sc3Co2Si3
_chemical_formula_sum   'Sc6 Co4 Si6'
_cell_volume   250.73320511
_cell_formula_units_Z   2
loop_
 _symmetry_equiv_pos_site_id
 _symmetry_equiv_pos_as_xyz
  1  'x, y, z'
loop_
 _atom_site_type_symbol
 _atom_site_label
 _atom_site_symmetry_multiplicity
 _atom_site_fract_x
 _atom_site_fract_y
 _atom_site_fract_z
 _atom_site_occupancy
  Si  Si0  1  0.163987  0.327973  0.250000  1
  Si  Si1  1  0.886340  0.772680  0.459110  1
  Si  Si2  1  0.886340  0.772680  0.040890  1
  Si  Si3  1  0.113660  0.227320  0.540890  1
  Si  Si4  1  0.836013  0.672027  0.750000  1
  Si  Si5  1  0.113660  0.227320  0.959110  1
  Sc  Sc6  1  0.142869  0.285737  0.750000  1
  Sc  Sc7  1  0.420101  0.840202  0.613075  1
  Sc  Sc8  1  0.420101  0.840202  0.886925  1
  Sc  Sc9  1  0.579899  0.159798  0.113075  1
  Sc  Sc10  1  0.857131  0.714263  0.250000  1
  Sc  Sc11  1  0.579899  0.159798  0.386925  1
  Co  Co12  1  0.715546  0.431091  0.583205  1
  Co  Co13  1  0.284454  0.568909  0.083205  1
  Co  Co14  1  0.715546  0.431091  0.916795  1
  Co  Co15  1  0.284454  0.568909  0.416795  1
