# generated using pymatgen
data_Li8SeN2
_symmetry_space_group_name_H-M   'P 1'
_cell_length_a   7.08228686
_cell_length_b   7.08228686
_cell_length_c   7.08228686
_cell_angle_alpha   119.89127806
_cell_angle_beta   90.18841530
_cell_angle_gamma   119.89127806
_symmetry_Int_Tables_number   1
_chemical_formula_structural   Li8SeN2
_chemical_formula_sum   'Li16 Se2 N4'
_cell_volume   251.60316714
_cell_formula_units_Z   2
loop_
 _symmetry_equiv_pos_site_id
 _symmetry_equiv_pos_as_xyz
  1  'x, y, z'
loop_
 _atom_site_type_symbol
 _atom_site_label
 _atom_site_symmetry_multiplicity
 _atom_site_fract_x
 _atom_site_fract_y
 _atom_site_fract_z
 _atom_site_occupancy
  Li  Li0  1  0.613720  0.500000  0.113720  1
  Li  Li1  1  0.735671  0.044219  0.157218  1
  Li  Li2  1  0.112999  0.421548  0.157218  1
  Li  Li3  1  0.654205  0.345462  0.308745  1
  Li  Li4  1  0.963283  0.654538  0.308745  1
  Li  Li5  1  0.363720  0.000000  0.363720  1
  Li  Li6  1  0.558745  0.845462  0.404205  1
  Li  Li7  1  0.941452  0.078452  0.485671  1
  Li  Li8  1  0.407218  0.544219  0.485671  1
  Li  Li9  1  0.036631  0.500000  0.536631  1
  Li  Li10  1  0.735671  0.578452  0.691452  1
  Li  Li11  1  0.112999  0.955781  0.691452  1
  Li  Li12  1  0.558744  0.154538  0.713283  1
  Li  Li13  1  0.786630  0.000000  0.786630  1
  Li  Li14  1  0.941452  0.455781  0.862999  1
  Li  Li15  1  0.407218  0.921548  0.862999  1
  Se  Se16  1  0.100521  0.000000  0.100521  1
  Se  Se17  1  0.350521  0.500000  0.850521  1
  N  N18  1  0.749736  0.268782  0.018518  1
  N  N19  1  0.749736  0.731218  0.480954  1
  N  N20  1  0.730954  0.231218  0.499736  1
  N  N21  1  0.268518  0.768782  0.499736  1
