# generated using pymatgen
data_Rb2NaPbF6
_symmetry_space_group_name_H-M   'P 1'
_cell_length_a   6.45391433
_cell_length_b   6.45389320
_cell_length_c   6.45391182
_cell_angle_alpha   59.99991356
_cell_angle_beta   59.99967765
_cell_angle_gamma   59.99978410
_symmetry_Int_Tables_number   1
_chemical_formula_structural   Rb2NaPbF6
_chemical_formula_sum   'Rb2 Na1 Pb1 F6'
_cell_volume   190.08635807
_cell_formula_units_Z   1
loop_
 _symmetry_equiv_pos_site_id
 _symmetry_equiv_pos_as_xyz
  1  'x, y, z'
loop_
 _atom_site_type_symbol
 _atom_site_label
 _atom_site_symmetry_multiplicity
 _atom_site_fract_x
 _atom_site_fract_y
 _atom_site_fract_z
 _atom_site_occupancy
  Rb  Rb0  1  0.250001  0.250001  0.250000  1
  Rb  Rb1  1  0.750000  0.750001  0.750000  1
  Na  Na2  1  0.500002  0.499998  0.499999  1
  Pb  Pb3  1  0.000001  -0.000000  0.000001  1
  F  F4  1  0.247679  0.752320  0.752320  1
  F  F5  1  0.247679  0.752321  0.247680  1
  F  F6  1  0.752319  0.247680  0.752319  1
  F  F7  1  0.752319  0.752320  0.247680  1
  F  F8  1  0.247680  0.247680  0.752320  1
  F  F9  1  0.752320  0.247680  0.247681  1
