# generated using pymatgen
data_NdAu
_symmetry_space_group_name_H-M   'P 1'
_cell_length_a   3.92552617
_cell_length_b   4.77840255
_cell_length_c   5.99450306
_cell_angle_alpha   90.00000000
_cell_angle_beta   70.88731147
_cell_angle_gamma   90.00000000
_symmetry_Int_Tables_number   1
_chemical_formula_structural   NdAu
_chemical_formula_sum   'Nd2 Au2'
_cell_volume   106.24507562
_cell_formula_units_Z   2
loop_
 _symmetry_equiv_pos_site_id
 _symmetry_equiv_pos_as_xyz
  1  'x, y, z'
loop_
 _atom_site_type_symbol
 _atom_site_label
 _atom_site_symmetry_multiplicity
 _atom_site_fract_x
 _atom_site_fract_y
 _atom_site_fract_z
 _atom_site_occupancy
  Nd  Nd0  1  0.137741  0.750000  0.724518  1
  Nd  Nd1  1  0.862259  0.250000  0.275482  1
  Au  Au2  1  0.413297  0.750000  0.173405  1
  Au  Au3  1  0.586703  0.250000  0.826595  1
