# generated using pymatgen
data_Pr3I
_symmetry_space_group_name_H-M   'P 1'
_cell_length_a   7.14800920
_cell_length_b   7.14800789
_cell_length_c   5.86530229
_cell_angle_alpha   90.00000000
_cell_angle_beta   90.00000000
_cell_angle_gamma   120.00000143
_symmetry_Int_Tables_number   1
_chemical_formula_structural   Pr3I
_chemical_formula_sum   'Pr6 I2'
_cell_volume   259.53214220
_cell_formula_units_Z   2
loop_
 _symmetry_equiv_pos_site_id
 _symmetry_equiv_pos_as_xyz
  1  'x, y, z'
loop_
 _atom_site_type_symbol
 _atom_site_label
 _atom_site_symmetry_multiplicity
 _atom_site_fract_x
 _atom_site_fract_y
 _atom_site_fract_z
 _atom_site_occupancy
  Pr  Pr0  1  0.833151  0.166851  0.750000  1
  Pr  Pr1  1  0.333701  0.166851  0.750000  1
  Pr  Pr2  1  0.833150  0.666299  0.750000  1
  Pr  Pr3  1  0.166851  0.833150  0.250001  1
  Pr  Pr4  1  0.666299  0.833150  0.250001  1
  Pr  Pr5  1  0.166850  0.333700  0.250001  1
  I  I6  1  0.666666  0.333333  0.250001  1
  I  I7  1  0.333334  0.666668  0.750000  1
