# generated using pymatgen
data_K4Ba(SiO3)3
_symmetry_space_group_name_H-M   'P 1'
_cell_length_a   11.30352620
_cell_length_b   7.27235094
_cell_length_c   7.27235094
_cell_angle_alpha   66.89021617
_cell_angle_beta   90.00000000
_cell_angle_gamma   90.00000000
_symmetry_Int_Tables_number   1
_chemical_formula_structural   K4Ba(SiO3)3
_chemical_formula_sum   'K8 Ba2 Si6 O18'
_cell_volume   549.83896992
_cell_formula_units_Z   2
loop_
 _symmetry_equiv_pos_site_id
 _symmetry_equiv_pos_as_xyz
  1  'x, y, z'
loop_
 _atom_site_type_symbol
 _atom_site_label
 _atom_site_symmetry_multiplicity
 _atom_site_fract_x
 _atom_site_fract_y
 _atom_site_fract_z
 _atom_site_occupancy
  K  K0  1  0.749999  0.808010  0.718116  1
  K  K1  1  0.249999  0.718116  0.808010  1
  K  K2  1  0.000000  0.022790  0.022790  1
  K  K3  1  0.500001  0.022790  0.022790  1
  K  K4  1  0.000000  0.518247  0.518247  1
  K  K5  1  0.500001  0.518247  0.518247  1
  K  K6  1  0.749999  0.300985  0.715593  1
  K  K7  1  0.249999  0.715593  0.300985  1
  Ba  Ba8  1  0.749999  0.224897  0.231494  1
  Ba  Ba9  1  0.249999  0.231494  0.224897  1
  Si  Si10  1  0.749999  0.736469  0.186940  1
  Si  Si11  1  0.249999  0.186940  0.736469  1
  Si  Si12  1  0.977941  0.576465  0.995085  1
  Si  Si13  1  0.022059  0.995085  0.576465  1
  Si  Si14  1  0.522059  0.576465  0.995085  1
  Si  Si15  1  0.477941  0.995085  0.576465  1
  O  O16  1  0.749999  0.673905  0.425205  1
  O  O17  1  0.249999  0.425205  0.673905  1
  O  O18  1  0.749999  0.972966  0.047829  1
  O  O19  1  0.249999  0.047829  0.972966  1
  O  O20  1  0.867456  0.629553  0.124126  1
  O  O21  1  0.132543  0.124126  0.629553  1
  O  O22  1  0.632543  0.629553  0.124126  1
  O  O23  1  0.367456  0.124126  0.629553  1
  O  O24  1  0.097062  0.536594  0.127841  1
  O  O25  1  0.902939  0.127841  0.536594  1
  O  O26  1  0.402938  0.536594  0.127841  1
  O  O27  1  0.597061  0.127841  0.536594  1
  O  O28  1  0.000000  0.787821  0.787821  1
  O  O29  1  0.500001  0.787821  0.787821  1
  O  O30  1  0.926356  0.401828  0.931749  1
  O  O31  1  0.073645  0.931749  0.401828  1
  O  O32  1  0.573644  0.401828  0.931749  1
  O  O33  1  0.426355  0.931749  0.401828  1
