# generated using pymatgen
data_Ce2US5
_symmetry_space_group_name_H-M   'P 1'
_cell_length_a   11.78506043
_cell_length_b   8.07890011
_cell_length_c   7.43289060
_cell_angle_alpha   90.00000000
_cell_angle_beta   90.00000000
_cell_angle_gamma   90.00000000
_symmetry_Int_Tables_number   1
_chemical_formula_structural   Ce2US5
_chemical_formula_sum   'Ce8 U4 S20'
_cell_volume   707.68793718
_cell_formula_units_Z   4
loop_
 _symmetry_equiv_pos_site_id
 _symmetry_equiv_pos_as_xyz
  1  'x, y, z'
loop_
 _atom_site_type_symbol
 _atom_site_label
 _atom_site_symmetry_multiplicity
 _atom_site_fract_x
 _atom_site_fract_y
 _atom_site_fract_z
 _atom_site_occupancy
  Ce  Ce0  1  0.323566  0.001272  0.468910  1
  Ce  Ce1  1  0.176434  0.998728  0.968909  1
  Ce  Ce2  1  0.823565  0.498729  0.031090  1
  Ce  Ce3  1  0.676435  0.501271  0.531090  1
  Ce  Ce4  1  0.676435  0.998728  0.531090  1
  Ce  Ce5  1  0.823565  0.001272  0.031090  1
  Ce  Ce6  1  0.176434  0.501271  0.968909  1
  Ce  Ce7  1  0.323566  0.498729  0.468910  1
  U  U8  1  0.492592  0.250000  0.932304  1
  U  U9  1  0.007408  0.750000  0.432305  1
  U  U10  1  0.992592  0.250000  0.567695  1
  U  U11  1  0.507407  0.750000  0.067695  1
  S  S12  1  0.499010  0.250000  0.547398  1
  S  S13  1  0.000990  0.750000  0.047398  1
  S  S14  1  0.999010  0.250000  0.952601  1
  S  S15  1  0.500990  0.750000  0.452601  1
  S  S16  1  0.310356  0.250000  0.163637  1
  S  S17  1  0.189643  0.750000  0.663637  1
  S  S18  1  0.810357  0.250000  0.336363  1
  S  S19  1  0.689643  0.750000  0.836363  1
  S  S20  1  0.592945  0.459500  0.167303  1
  S  S21  1  0.907055  0.540501  0.667303  1
  S  S22  1  0.092945  0.040502  0.332696  1
  S  S23  1  0.407056  0.959499  0.832696  1
  S  S24  1  0.407056  0.540501  0.832696  1
  S  S25  1  0.092945  0.459500  0.332696  1
  S  S26  1  0.907055  0.959499  0.667303  1
  S  S27  1  0.592945  0.040502  0.167303  1
  S  S28  1  0.714623  0.250000  0.811008  1
  S  S29  1  0.785377  0.750000  0.311008  1
  S  S30  1  0.214623  0.250000  0.688993  1
  S  S31  1  0.285377  0.750000  0.188992  1
