# generated using pymatgen
data_H6PbCI3N
_symmetry_space_group_name_H-M   'P 1'
_cell_length_a   8.84962189
_cell_length_b   8.86929943
_cell_length_c   13.05495343
_cell_angle_alpha   89.62880432
_cell_angle_beta   89.50879472
_cell_angle_gamma   89.95641724
_symmetry_Int_Tables_number   1
_chemical_formula_structural   H6PbCI3N
_chemical_formula_sum   'H24 Pb4 C4 I12 N4'
_cell_volume   1024.62318036
_cell_formula_units_Z   4
loop_
 _symmetry_equiv_pos_site_id
 _symmetry_equiv_pos_as_xyz
  1  'x, y, z'
loop_
 _atom_site_type_symbol
 _atom_site_label
 _atom_site_symmetry_multiplicity
 _atom_site_fract_x
 _atom_site_fract_y
 _atom_site_fract_z
 _atom_site_occupancy
  H  H0  1  0.648525  0.019735  0.227978  1
  H  H1  1  0.516643  0.034649  0.332869  1
  H  H2  1  0.501660  0.159078  0.223992  1
  H  H3  1  0.452773  0.823538  0.219438  1
  H  H4  1  0.439923  0.940582  0.119371  1
  H  H5  1  0.315568  0.954203  0.215763  1
  H  H6  1  0.936381  0.595745  0.116714  1
  H  H7  1  0.952316  0.718655  0.212535  1
  H  H8  1  0.813578  0.589329  0.214408  1
  H  H9  1  0.146034  0.520970  0.226721  1
  H  H10  1  0.997865  0.383175  0.228730  1
  H  H11  1  0.015333  0.513388  0.332859  1
  H  H12  1  0.953534  0.315489  0.718004  1
  H  H13  1  0.945082  0.434418  0.618857  1
  H  H14  1  0.823417  0.453246  0.716491  1
  H  H15  1  0.159653  0.500443  0.725898  1
  H  H16  1  0.030740  0.521232  0.832195  1
  H  H17  1  0.020796  0.647820  0.724345  1
  H  H18  1  0.718579  0.952072  0.711462  1
  H  H19  1  0.593390  0.933273  0.617109  1
  H  H20  1  0.589093  0.813625  0.716145  1
  H  H21  1  0.520729  0.145650  0.725449  1
  H  H22  1  0.515101  0.018167  0.833112  1
  H  H23  1  0.382633  0.997883  0.730589  1
  Pb  Pb24  1  0.509125  0.516635  0.988607  1
  Pb  Pb25  1  0.517557  0.509995  0.488595  1
  Pb  Pb26  1  0.030114  0.011732  0.489534  1
  Pb  Pb27  1  0.010630  0.029892  0.989570  1
  C  C28  1  0.028785  0.498399  0.249908  1
  C  C29  1  0.531244  0.044914  0.249552  1
  C  C30  1  0.044445  0.531767  0.748825  1
  C  C31  1  0.498529  0.029311  0.750210  1
  I  I32  1  0.702987  0.831001  0.994600  1
  I  I33  1  0.324690  0.209174  0.997389  1
  I  I34  1  0.207452  0.720322  0.998125  1
  I  I35  1  0.830421  0.343521  0.989702  1
  I  I36  1  0.343588  0.830393  0.490078  1
  I  I37  1  0.720270  0.208346  0.499050  1
  I  I38  1  0.831588  0.704580  0.494610  1
  I  I39  1  0.209317  0.325653  0.496470  1
  I  I40  1  0.523701  0.531793  0.240126  1
  I  I41  1  0.531982  0.523642  0.740109  1
  I  I42  1  0.006421  0.022353  0.741783  1
  I  I43  1  0.022265  0.006586  0.241754  1
  N  N44  1  0.926947  0.606990  0.195669  1
  N  N45  1  0.428978  0.934485  0.198579  1
  N  N46  1  0.935261  0.427890  0.698112  1
  N  N47  1  0.606352  0.926254  0.696006  1
