# generated using pymatgen
data_H3F2
_symmetry_space_group_name_H-M   'P 1'
_cell_length_a   5.37516248
_cell_length_b   4.58672507
_cell_length_c   5.87309234
_cell_angle_alpha   121.15830069
_cell_angle_beta   62.33488398
_cell_angle_gamma   126.69915241
_symmetry_Int_Tables_number   1
_chemical_formula_structural   H3F2
_chemical_formula_sum   'H6 F4'
_cell_volume   96.77697103
_cell_formula_units_Z   2
loop_
 _symmetry_equiv_pos_site_id
 _symmetry_equiv_pos_as_xyz
  1  'x, y, z'
loop_
 _atom_site_type_symbol
 _atom_site_label
 _atom_site_symmetry_multiplicity
 _atom_site_fract_x
 _atom_site_fract_y
 _atom_site_fract_z
 _atom_site_occupancy
  H  H0  1  0.772466  0.301494  0.203084  1
  H  H1  1  0.755460  0.825424  0.259591  1
  H  H2  1  0.275147  0.430178  0.446321  1
  H  H3  1  0.302592  0.599418  0.575149  1
  H  H4  1  0.188237  0.169282  0.735979  1
  H  H5  1  0.674627  0.690609  0.792146  1
  F  F6  1  0.780473  0.436211  0.113034  1
  F  F7  1  0.770714  0.080345  0.337738  1
  F  F8  1  0.022815  0.919176  0.651597  1
  F  F9  1  0.457482  0.547861  0.885352  1
