# generated using pymatgen
data_Te6RhCl3
_symmetry_space_group_name_H-M   'P 1'
_cell_length_a   9.11152515
_cell_length_b   9.11152515
_cell_length_c   9.11152422
_cell_angle_alpha   107.63928604
_cell_angle_beta   107.63928604
_cell_angle_gamma   107.63929636
_symmetry_Int_Tables_number   1
_chemical_formula_structural   Te6RhCl3
_chemical_formula_sum   'Te12 Rh2 Cl6'
_cell_volume   618.65379631
_cell_formula_units_Z   2
loop_
 _symmetry_equiv_pos_site_id
 _symmetry_equiv_pos_as_xyz
  1  'x, y, z'
loop_
 _atom_site_type_symbol
 _atom_site_label
 _atom_site_symmetry_multiplicity
 _atom_site_fract_x
 _atom_site_fract_y
 _atom_site_fract_z
 _atom_site_occupancy
  Te  Te0  1  0.812035  0.825322  0.078989  1
  Te  Te1  1  0.078989  0.812035  0.825322  1
  Te  Te2  1  0.825322  0.078989  0.812035  1
  Te  Te3  1  0.674677  0.687964  0.421010  1
  Te  Te4  1  0.687965  0.421010  0.674677  1
  Te  Te5  1  0.421010  0.674678  0.687964  1
  Te  Te6  1  0.187965  0.174678  0.921010  1
  Te  Te7  1  0.921011  0.187965  0.174678  1
  Te  Te8  1  0.174678  0.921011  0.187964  1
  Te  Te9  1  0.325322  0.312035  0.578989  1
  Te  Te10  1  0.312035  0.578989  0.325323  1
  Te  Te11  1  0.578989  0.325322  0.312036  1
  Rh  Rh12  1  0.750000  0.750000  0.750000  1
  Rh  Rh13  1  0.250000  0.250000  0.250000  1
  Cl  Cl14  1  0.014832  0.750000  0.485166  1
  Cl  Cl15  1  0.750000  0.485167  0.014832  1
  Cl  Cl16  1  0.485166  0.014832  0.750000  1
  Cl  Cl17  1  0.985168  0.250000  0.514833  1
  Cl  Cl18  1  0.250000  0.514833  0.985168  1
  Cl  Cl19  1  0.514833  0.985168  0.249999  1
