# generated using pymatgen
data_KRb2ScF6
_symmetry_space_group_name_H-M   'P 1'
_cell_length_a   6.41700035
_cell_length_b   6.41700035
_cell_length_c   6.49460148
_cell_angle_alpha   119.60552567
_cell_angle_beta   119.60552572
_cell_angle_gamma   90.00000002
_symmetry_Int_Tables_number   1
_chemical_formula_structural   KRb2ScF6
_chemical_formula_sum   'K1 Rb2 Sc1 F6'
_cell_volume   191.33724497
_cell_formula_units_Z   1
loop_
 _symmetry_equiv_pos_site_id
 _symmetry_equiv_pos_as_xyz
  1  'x, y, z'
loop_
 _atom_site_type_symbol
 _atom_site_label
 _atom_site_symmetry_multiplicity
 _atom_site_fract_x
 _atom_site_fract_y
 _atom_site_fract_z
 _atom_site_occupancy
  F  F0  1  0.840304  0.724719  0.000000  1
  F  F1  1  0.275281  0.840304  1.000000  1
  F  F2  1  0.724719  0.159696  0.000000  1
  F  F3  1  0.159696  0.275281  1.000000  1
  F  F4  1  0.220229  0.220229  0.440459  1
  F  F5  1  0.779771  0.779771  0.559541  1
  K  K6  1  0.500000  0.500000  0.000000  1
  Sc  Sc7  1  0.000000  0.000000  0.000000  1
  Rb  Rb8  1  0.250000  0.750000  0.500000  1
  Rb  Rb9  1  0.750000  0.250000  0.500000  1
