# generated using pymatgen
data_ScBe13
_symmetry_space_group_name_H-M   'P 1'
_cell_length_a   7.09203075
_cell_length_b   7.09203075
_cell_length_c   7.09203075
_cell_angle_alpha   59.99674929
_cell_angle_beta   59.99674929
_cell_angle_gamma   59.99674929
_symmetry_Int_Tables_number   1
_chemical_formula_structural   ScBe13
_chemical_formula_sum   'Sc2 Be26'
_cell_volume   252.21146370
_cell_formula_units_Z   2
loop_
 _symmetry_equiv_pos_site_id
 _symmetry_equiv_pos_as_xyz
  1  'x, y, z'
loop_
 _atom_site_type_symbol
 _atom_site_label
 _atom_site_symmetry_multiplicity
 _atom_site_fract_x
 _atom_site_fract_y
 _atom_site_fract_z
 _atom_site_occupancy
  Sc  Sc0  1  0.249999  0.249999  0.249999  1
  Sc  Sc1  1  0.750001  0.750001  0.750001  1
  Be  Be2  1  0.292469  0.062733  0.937316  1
  Be  Be3  1  0.062667  0.292300  0.707613  1
  Be  Be4  1  0.707533  0.937264  0.062683  1
  Be  Be5  1  0.937333  0.707698  0.292388  1
  Be  Be6  1  0.937316  0.292469  0.062733  1
  Be  Be7  1  0.062733  0.937316  0.292469  1
  Be  Be8  1  0.292388  0.937333  0.707698  1
  Be  Be9  1  0.292300  0.707613  0.062667  1
  Be  Be10  1  0.707613  0.062667  0.292300  1
  Be  Be11  1  0.937264  0.062683  0.707533  1
  Be  Be12  1  0.062683  0.707533  0.937264  1
  Be  Be13  1  0.707698  0.292388  0.937333  1
  Be  Be14  1  0.437265  0.207533  0.562684  1
  Be  Be15  1  0.207698  0.437334  0.792388  1
  Be  Be16  1  0.562733  0.792468  0.437317  1
  Be  Be17  1  0.792300  0.562668  0.207613  1
  Be  Be18  1  0.207533  0.562684  0.437265  1
  Be  Be19  1  0.562684  0.437265  0.207533  1
  Be  Be20  1  0.562668  0.207613  0.792300  1
  Be  Be21  1  0.792388  0.207698  0.437334  1
  Be  Be22  1  0.437334  0.792388  0.207698  1
  Be  Be23  1  0.437317  0.562733  0.792468  1
  Be  Be24  1  0.792468  0.437317  0.562733  1
  Be  Be25  1  0.207613  0.792300  0.562668  1
  Be  Be26  1  0.000001  0.000001  0.000001  1
  Be  Be27  1  0.499999  0.499999  0.499999  1
