# generated using pymatgen
data_TaTl(CuS2)2
_symmetry_space_group_name_H-M   'P 1'
_cell_length_a   5.57753090
_cell_length_b   7.51630670
_cell_length_c   9.81807216
_cell_angle_alpha   90.00000000
_cell_angle_beta   106.50171815
_cell_angle_gamma   90.00000000
_symmetry_Int_Tables_number   1
_chemical_formula_structural   TaTl(CuS2)2
_chemical_formula_sum   'Ta2 Tl2 Cu4 S8'
_cell_volume   394.64427217
_cell_formula_units_Z   2
loop_
 _symmetry_equiv_pos_site_id
 _symmetry_equiv_pos_as_xyz
  1  'x, y, z'
loop_
 _atom_site_type_symbol
 _atom_site_label
 _atom_site_symmetry_multiplicity
 _atom_site_fract_x
 _atom_site_fract_y
 _atom_site_fract_z
 _atom_site_occupancy
  S  S0  1  0.634895  0.498253  0.791731  1
  S  S1  1  0.843164  0.501747  0.208269  1
  S  S2  1  0.634895  0.001747  0.791731  1
  S  S3  1  0.843164  0.998253  0.208269  1
  S  S4  1  0.038637  0.250000  0.589424  1
  S  S5  1  0.265601  0.750000  0.013636  1
  S  S6  1  0.251966  0.250000  0.986364  1
  S  S7  1  0.449213  0.750000  0.410576  1
  Cu  Cu8  1  0.100708  0.750000  0.209778  1
  Cu  Cu9  1  0.511516  0.000000  0.000000  1
  Cu  Cu10  1  0.890930  0.250000  0.790222  1
  Cu  Cu11  1  0.511516  0.500000  0.000000  1
  Ta  Ta12  1  0.385938  0.250000  0.781664  1
  Ta  Ta13  1  0.604274  0.750000  0.218336  1
  Tl  Tl14  1  0.511313  0.250000  0.363041  1
  Tl  Tl15  1  0.148272  0.750000  0.636959  1
