# generated using pymatgen
data_PrNiGe2
_symmetry_space_group_name_H-M   'P 1'
_cell_length_a   8.69080290
_cell_length_b   8.69080290
_cell_length_c   4.25029065
_cell_angle_alpha   90.00000000
_cell_angle_beta   90.00000000
_cell_angle_gamma   28.47747616
_symmetry_Int_Tables_number   1
_chemical_formula_structural   PrNiGe2
_chemical_formula_sum   'Pr2 Ni2 Ge4'
_cell_volume   153.06882336
_cell_formula_units_Z   2
loop_
 _symmetry_equiv_pos_site_id
 _symmetry_equiv_pos_as_xyz
  1  'x, y, z'
loop_
 _atom_site_type_symbol
 _atom_site_label
 _atom_site_symmetry_multiplicity
 _atom_site_fract_x
 _atom_site_fract_y
 _atom_site_fract_z
 _atom_site_occupancy
  Pr  Pr0  1  0.892361  0.892361  0.750001  1
  Pr  Pr1  1  0.107639  0.107639  0.249999  1
  Ni  Ni2  1  0.681483  0.681483  0.750001  1
  Ni  Ni3  1  0.318517  0.318517  0.249999  1
  Ge  Ge4  1  0.749860  0.749860  0.249999  1
  Ge  Ge5  1  0.250141  0.250141  0.750001  1
  Ge  Ge6  1  0.542644  0.542644  0.750001  1
  Ge  Ge7  1  0.457357  0.457357  0.249999  1
