# generated using pymatgen
data_RbHfAgTe3
_symmetry_space_group_name_H-M   'P 1'
_cell_length_a   4.24610246
_cell_length_b   9.27419785
_cell_length_c   11.07239754
_cell_angle_alpha   112.64551340
_cell_angle_beta   90.00000000
_cell_angle_gamma   90.00000000
_symmetry_Int_Tables_number   1
_chemical_formula_structural   RbHfAgTe3
_chemical_formula_sum   'Rb2 Hf2 Ag2 Te6'
_cell_volume   402.40682159
_cell_formula_units_Z   2
loop_
 _symmetry_equiv_pos_site_id
 _symmetry_equiv_pos_as_xyz
  1  'x, y, z'
loop_
 _atom_site_type_symbol
 _atom_site_label
 _atom_site_symmetry_multiplicity
 _atom_site_fract_x
 _atom_site_fract_y
 _atom_site_fract_z
 _atom_site_occupancy
  Rb  Rb0  1  0.750000  0.252131  0.282327  1
  Rb  Rb1  1  0.250000  0.747869  0.717673  1
  Ag  Ag2  1  0.250000  0.924579  0.398627  1
  Ag  Ag3  1  0.750000  0.075421  0.601373  1
  Te  Te4  1  0.250000  0.261200  0.564170  1
  Te  Te5  1  0.750000  0.105613  0.862241  1
  Te  Te6  1  0.750000  0.543603  0.875080  1
  Te  Te7  1  0.750000  0.738800  0.435830  1
  Te  Te8  1  0.250000  0.456397  0.124920  1
  Te  Te9  1  0.250000  0.894387  0.137759  1
  Hf  Hf10  1  0.250000  0.306467  0.832258  1
  Hf  Hf11  1  0.750000  0.693533  0.167742  1
