# generated using pymatgen
data_KAgCl3
_symmetry_space_group_name_H-M   'P 1'
_cell_length_a   7.20457022
_cell_length_b   7.20457052
_cell_length_c   7.20457003
_cell_angle_alpha   60.54654394
_cell_angle_beta   60.54654263
_cell_angle_gamma   60.54654761
_symmetry_Int_Tables_number   1
_chemical_formula_structural   KAgCl3
_chemical_formula_sum   'K2 Ag2 Cl6'
_cell_volume   267.69429324
_cell_formula_units_Z   2
loop_
 _symmetry_equiv_pos_site_id
 _symmetry_equiv_pos_as_xyz
  1  'x, y, z'
loop_
 _atom_site_type_symbol
 _atom_site_label
 _atom_site_symmetry_multiplicity
 _atom_site_fract_x
 _atom_site_fract_y
 _atom_site_fract_z
 _atom_site_occupancy
  K  K0  1  0.264508  0.264508  0.264508  1
  K  K1  1  0.764508  0.764508  0.764508  1
  Ag  Ag2  1  0.003902  0.003902  0.003902  1
  Ag  Ag3  1  0.503902  0.503902  0.503902  1
  Cl  Cl4  1  0.252612  0.802855  0.704623  1
  Cl  Cl5  1  0.802855  0.704623  0.252612  1
  Cl  Cl6  1  0.704623  0.252612  0.802855  1
  Cl  Cl7  1  0.204623  0.302855  0.752612  1
  Cl  Cl8  1  0.752612  0.204623  0.302855  1
  Cl  Cl9  1  0.302855  0.752612  0.204623  1
