# generated using pymatgen
data_Ag2WS4
_symmetry_space_group_name_H-M   'P 1'
_cell_length_a   7.85205574
_cell_length_b   7.38433199
_cell_length_c   12.05865021
_cell_angle_alpha   90.00000000
_cell_angle_beta   90.00000000
_cell_angle_gamma   90.00000000
_symmetry_Int_Tables_number   1
_chemical_formula_structural   Ag2WS4
_chemical_formula_sum   'Ag8 W4 S16'
_cell_volume   699.18690407
_cell_formula_units_Z   4
loop_
 _symmetry_equiv_pos_site_id
 _symmetry_equiv_pos_as_xyz
  1  'x, y, z'
loop_
 _atom_site_type_symbol
 _atom_site_label
 _atom_site_symmetry_multiplicity
 _atom_site_fract_x
 _atom_site_fract_y
 _atom_site_fract_z
 _atom_site_occupancy
  Ag  Ag0  1  0.250000  0.406821  0.545687  1
  Ag  Ag1  1  0.750000  0.593179  0.454313  1
  Ag  Ag2  1  0.250000  0.906821  0.954313  1
  Ag  Ag3  1  0.750000  0.093179  0.045687  1
  Ag  Ag4  1  0.250000  0.135924  0.370962  1
  Ag  Ag5  1  0.750000  0.864076  0.629038  1
  Ag  Ag6  1  0.250000  0.635924  0.129038  1
  Ag  Ag7  1  0.750000  0.364076  0.870962  1
  W  W8  1  0.250000  0.315159  0.954973  1
  W  W9  1  0.750000  0.684841  0.045027  1
  W  W10  1  0.250000  0.815159  0.545027  1
  W  W11  1  0.750000  0.184841  0.454973  1
  S  S12  1  0.974469  0.837764  0.110267  1
  S  S13  1  0.474469  0.162236  0.889733  1
  S  S14  1  0.525531  0.337764  0.389733  1
  S  S15  1  0.025531  0.662236  0.610267  1
  S  S16  1  0.025531  0.162236  0.889733  1
  S  S17  1  0.525531  0.837764  0.110267  1
  S  S18  1  0.474469  0.662236  0.610267  1
  S  S19  1  0.974469  0.337764  0.389733  1
  S  S20  1  0.250000  0.585945  0.878857  1
  S  S21  1  0.750000  0.414055  0.121143  1
  S  S22  1  0.250000  0.085945  0.621143  1
  S  S23  1  0.750000  0.914055  0.378857  1
  S  S24  1  0.750000  0.197162  0.639664  1
  S  S25  1  0.250000  0.802838  0.360336  1
  S  S26  1  0.750000  0.697162  0.860336  1
  S  S27  1  0.250000  0.302838  0.139664  1
