# generated using pymatgen
data_Ba2Cu(PO4)2
_symmetry_space_group_name_H-M   'P 1'
_cell_length_a   5.19800605
_cell_length_b   6.69040702
_cell_length_c   7.00235040
_cell_angle_alpha   104.21273171
_cell_angle_beta   90.00000000
_cell_angle_gamma   112.85915163
_symmetry_Int_Tables_number   1
_chemical_formula_structural   Ba2Cu(PO4)2
_chemical_formula_sum   'Ba2 Cu1 P2 O8'
_cell_volume   216.28175063
_cell_formula_units_Z   1
loop_
 _symmetry_equiv_pos_site_id
 _symmetry_equiv_pos_as_xyz
  1  'x, y, z'
loop_
 _atom_site_type_symbol
 _atom_site_label
 _atom_site_symmetry_multiplicity
 _atom_site_fract_x
 _atom_site_fract_y
 _atom_site_fract_z
 _atom_site_occupancy
  O  O0  1  0.366031  0.244483  0.564359  1
  O  O1  1  0.121548  0.755517  0.435641  1
  O  O2  1  0.633969  0.755517  0.435641  1
  O  O3  1  0.878452  0.244483  0.564359  1
  O  O4  1  0.745240  0.490480  0.159793  1
  O  O5  1  0.047055  0.094109  0.824719  1
  O  O6  1  0.952945  0.905891  0.175281  1
  O  O7  1  0.254760  0.509520  0.840207  1
  P  P8  1  0.867092  0.734184  0.297591  1
  P  P9  1  0.132908  0.265816  0.702409  1
  Cu  Cu10  1  0.500000  0.000000  0.500000  1
  Ba  Ba11  1  0.826808  0.653616  0.785110  1
  Ba  Ba12  1  0.173192  0.346384  0.214890  1
