# generated using pymatgen
data_YWN3
_symmetry_space_group_name_H-M   'P 1'
_cell_length_a   3.76367000
_cell_length_b   5.47213948
_cell_length_c   7.84833000
_cell_angle_alpha   110.40281669
_cell_angle_beta   90.00000000
_cell_angle_gamma   90.00000000
_symmetry_Int_Tables_number   1
_chemical_formula_structural   YWN3
_chemical_formula_sum   'Y2 W2 N6'
_cell_volume   151.49848246
_cell_formula_units_Z   2
loop_
 _symmetry_equiv_pos_site_id
 _symmetry_equiv_pos_as_xyz
  1  'x, y, z'
loop_
 _atom_site_type_symbol
 _atom_site_label
 _atom_site_symmetry_multiplicity
 _atom_site_fract_x
 _atom_site_fract_y
 _atom_site_fract_z
 _atom_site_occupancy
  Y  Y0  1  0.750000  0.069240  0.658560  1
  Y  Y1  1  0.250000  0.410680  0.341440  1
  W  W2  1  0.250000  0.699600  0.822980  1
  W  W3  1  0.750000  0.876620  0.177020  1
  N  N4  1  0.750000  0.164580  0.394020  1
  N  N5  1  0.750000  0.823980  0.890260  1
  N  N6  1  0.250000  0.933720  0.109740  1
  N  N7  1  0.250000  0.348110  0.764880  1
  N  N8  1  0.250000  0.770560  0.605980  1
  N  N9  1  0.750000  0.583230  0.235120  1
