# generated using pymatgen
data_NdAl2Cu9
_symmetry_space_group_name_H-M   'P 1'
_cell_length_a   7.90259443
_cell_length_b   7.90259364
_cell_length_c   7.90255997
_cell_angle_alpha   100.07925333
_cell_angle_beta   100.07914519
_cell_angle_gamma   130.54137411
_symmetry_Int_Tables_number   1
_chemical_formula_structural   NdAl2Cu9
_chemical_formula_sum   'Nd2 Al4 Cu18'
_cell_volume   340.64897987
_cell_formula_units_Z   2
loop_
 _symmetry_equiv_pos_site_id
 _symmetry_equiv_pos_as_xyz
  1  'x, y, z'
loop_
 _atom_site_type_symbol
 _atom_site_label
 _atom_site_symmetry_multiplicity
 _atom_site_fract_x
 _atom_site_fract_y
 _atom_site_fract_z
 _atom_site_occupancy
  Nd  Nd0  1  0.625002  0.375002  0.250000  1
  Nd  Nd1  1  0.375002  0.625002  0.750001  1
  Al  Al2  1  0.500000  0.999999  0.499999  1
  Al  Al3  1  0.000001  0.000001  0.000001  1
  Al  Al4  1  0.000000  0.000000  0.500000  1
  Al  Al5  1  0.000001  0.500001  0.000002  1
  Cu  Cu6  1  0.196003  0.275882  0.334387  1
  Cu  Cu7  1  0.441503  0.861620  0.165606  1
  Cu  Cu8  1  0.803990  0.138380  0.079881  1
  Cu  Cu9  1  0.558501  0.724116  0.420120  1
  Cu  Cu10  1  0.724103  0.803990  0.165602  1
  Cu  Cu11  1  0.138388  0.558503  0.334394  1
  Cu  Cu12  1  0.861610  0.196007  0.420116  1
  Cu  Cu13  1  0.275888  0.441498  0.079880  1
  Cu  Cu14  1  0.803994  0.724113  0.665604  1
  Cu  Cu15  1  0.558504  0.138383  0.834402  1
  Cu  Cu16  1  0.196005  0.861616  0.920111  1
  Cu  Cu17  1  0.441497  0.275886  0.579876  1
  Cu  Cu18  1  0.275889  0.196008  0.834397  1
  Cu  Cu19  1  0.861615  0.441498  0.665609  1
  Cu  Cu20  1  0.138386  0.803992  0.579886  1
  Cu  Cu21  1  0.724107  0.558500  0.920127  1
  Cu  Cu22  1  0.875003  0.124997  0.749993  1
  Cu  Cu23  1  0.125007  0.875003  0.250004  1
