# generated using pymatgen
data_Pr3Er
_symmetry_space_group_name_H-M   'P 1'
_cell_length_a   7.39232982
_cell_length_b   7.39232969
_cell_length_c   5.94381915
_cell_angle_alpha   90.00000000
_cell_angle_beta   90.00000000
_cell_angle_gamma   119.99999609
_symmetry_Int_Tables_number   1
_chemical_formula_structural   Pr3Er
_chemical_formula_sum   'Pr6 Er2'
_cell_volume   281.29298322
_cell_formula_units_Z   2
loop_
 _symmetry_equiv_pos_site_id
 _symmetry_equiv_pos_as_xyz
  1  'x, y, z'
loop_
 _atom_site_type_symbol
 _atom_site_label
 _atom_site_symmetry_multiplicity
 _atom_site_fract_x
 _atom_site_fract_y
 _atom_site_fract_z
 _atom_site_occupancy
  Pr  Pr0  1  0.167711  0.335420  0.250000  1
  Pr  Pr1  1  0.664579  0.832290  0.250000  1
  Pr  Pr2  1  0.167711  0.832290  0.250000  1
  Pr  Pr3  1  0.832289  0.664578  0.750001  1
  Pr  Pr4  1  0.335422  0.167711  0.750001  1
  Pr  Pr5  1  0.832288  0.167711  0.750001  1
  Er  Er6  1  0.333334  0.666667  0.750001  1
  Er  Er7  1  0.666668  0.333334  0.250000  1
