# generated using pymatgen
data_K2NbCuSe4
_symmetry_space_group_name_H-M   'P 1'
_cell_length_a   5.77661308
_cell_length_b   7.47172674
_cell_length_c   12.52731032
_cell_angle_alpha   84.88663208
_cell_angle_beta   76.66991010
_cell_angle_gamma   67.25908069
_symmetry_Int_Tables_number   1
_chemical_formula_structural   K2NbCuSe4
_chemical_formula_sum   'K4 Nb2 Cu2 Se8'
_cell_volume   485.22729309
_cell_formula_units_Z   2
loop_
 _symmetry_equiv_pos_site_id
 _symmetry_equiv_pos_as_xyz
  1  'x, y, z'
loop_
 _atom_site_type_symbol
 _atom_site_label
 _atom_site_symmetry_multiplicity
 _atom_site_fract_x
 _atom_site_fract_y
 _atom_site_fract_z
 _atom_site_occupancy
  K  K0  1  0.804620  0.750000  0.390759  1
  K  K1  1  0.445380  0.750000  0.109241  1
  K  K2  1  0.195380  0.250000  0.609241  1
  K  K3  1  0.554620  0.250000  0.890759  1
  Cu  Cu4  1  0.875000  0.250000  0.250000  1
  Cu  Cu5  1  0.125000  0.750000  0.750000  1
  Se  Se6  1  0.461015  0.454789  0.363860  1
  Se  Se7  1  0.175125  0.045211  0.363860  1
  Se  Se8  1  0.538985  0.545211  0.636140  1
  Se  Se9  1  0.220336  0.954789  0.863860  1
  Se  Se10  1  0.915804  0.545211  0.863860  1
  Se  Se11  1  0.824875  0.954789  0.636140  1
  Se  Se12  1  0.084196  0.454789  0.136140  1
  Se  Se13  1  0.779664  0.045211  0.136140  1
  Nb  Nb14  1  0.625000  0.750000  0.750000  1
  Nb  Nb15  1  0.375000  0.250000  0.250000  1
