# generated using pymatgen
data_RbPbBr3
_symmetry_space_group_name_H-M   'P 1'
_cell_length_a   4.51600844
_cell_length_b   7.86204965
_cell_length_c   11.34292335
_cell_angle_alpha   90.00000000
_cell_angle_beta   90.00000000
_cell_angle_gamma   106.60754026
_symmetry_Int_Tables_number   1
_chemical_formula_structural   RbPbBr3
_chemical_formula_sum   'Rb2 Pb2 Br6'
_cell_volume   385.93147626
_cell_formula_units_Z   2
loop_
 _symmetry_equiv_pos_site_id
 _symmetry_equiv_pos_as_xyz
  1  'x, y, z'
loop_
 _atom_site_type_symbol
 _atom_site_label
 _atom_site_symmetry_multiplicity
 _atom_site_fract_x
 _atom_site_fract_y
 _atom_site_fract_z
 _atom_site_occupancy
  Rb  Rb0  1  0.252574  0.506914  0.009494  1
  Rb  Rb1  1  0.747426  0.493085  0.509494  1
  Pb  Pb2  1  0.000195  0.999952  0.759760  1
  Pb  Pb3  1  0.999803  0.000048  0.259759  1
  Br  Br4  1  0.367316  0.731820  0.704253  1
  Br  Br5  1  0.632681  0.268179  0.204253  1
  Br  Br6  1  0.365911  0.731523  0.314353  1
  Br  Br7  1  0.634092  0.268477  0.814353  1
  Br  Br8  1  0.925130  0.854831  0.009841  1
  Br  Br9  1  0.074871  0.145170  0.509840  1
