# generated using pymatgen
data_B2(CN2)3
_symmetry_space_group_name_H-M   'P 1'
_cell_length_a   4.35780031
_cell_length_b   9.96848532
_cell_length_c   6.96416147
_cell_angle_alpha   81.24858607
_cell_angle_beta   90.00000031
_cell_angle_gamma   102.62557296
_symmetry_Int_Tables_number   1
_chemical_formula_structural   B2(CN2)3
_chemical_formula_sum   'B8 C12 N24'
_cell_volume   291.60204750
_cell_formula_units_Z   4
loop_
 _symmetry_equiv_pos_site_id
 _symmetry_equiv_pos_as_xyz
  1  'x, y, z'
loop_
 _atom_site_type_symbol
 _atom_site_label
 _atom_site_symmetry_multiplicity
 _atom_site_fract_x
 _atom_site_fract_y
 _atom_site_fract_z
 _atom_site_occupancy
  B  B0  1  0.368196  0.373864  0.968085  1
  B  B1  1  0.266341  0.878066  0.553648  1
  B  B2  1  0.388275  0.121934  0.946352  1
  B  B3  1  0.611725  0.878066  0.053648  1
  B  B4  1  0.005668  0.373864  0.468085  1
  B  B5  1  0.631804  0.626136  0.031915  1
  B  B6  1  0.733659  0.121934  0.446352  1
  B  B7  1  0.994332  0.626136  0.531915  1
  C  C8  1  0.191783  0.093908  0.311160  1
  C  C9  1  0.881415  0.421168  0.783109  1
  C  C10  1  0.815439  0.251705  0.083689  1
  C  C11  1  0.563734  0.748295  0.416311  1
  C  C12  1  0.436266  0.251705  0.583689  1
  C  C13  1  0.118585  0.578832  0.216891  1
  C  C14  1  0.460247  0.578832  0.716891  1
  C  C15  1  0.184561  0.748295  0.916311  1
  C  C16  1  0.097875  0.906092  0.188840  1
  C  C17  1  0.539753  0.421168  0.283109  1
  C  C18  1  0.902125  0.093908  0.811160  1
  C  C19  1  0.808217  0.906092  0.688840  1
  N  N20  1  0.030837  0.366485  0.963388  1
  N  N21  1  0.529765  0.311073  0.135731  1
  N  N22  1  0.065332  0.821643  0.715767  1
  N  N23  1  0.806066  0.945024  0.882047  1
  N  N24  1  0.934668  0.178357  0.284233  1
  N  N25  1  0.243689  0.178357  0.784233  1
  N  N26  1  0.719722  0.148625  0.957359  1
  N  N27  1  0.420040  0.534881  0.178374  1
  N  N28  1  0.428903  0.148625  0.457359  1
  N  N29  1  0.138958  0.945024  0.382047  1
  N  N30  1  0.579960  0.465119  0.821626  1
  N  N31  1  0.571097  0.851375  0.542641  1
  N  N32  1  0.885159  0.465119  0.321626  1
  N  N33  1  0.335648  0.366485  0.463388  1
  N  N34  1  0.193934  0.054976  0.117953  1
  N  N35  1  0.781309  0.311073  0.635731  1
  N  N36  1  0.218691  0.688927  0.364269  1
  N  N37  1  0.756311  0.821643  0.215767  1
  N  N38  1  0.664352  0.633515  0.536612  1
  N  N39  1  0.280278  0.851375  0.042641  1
  N  N40  1  0.114841  0.534881  0.678374  1
  N  N41  1  0.861042  0.054976  0.617953  1
  N  N42  1  0.969163  0.633515  0.036612  1
  N  N43  1  0.470235  0.688927  0.864269  1
