# generated using pymatgen
data_Lu(Mg4Al3)4
_symmetry_space_group_name_H-M   'P 1'
_cell_length_a   9.11779011
_cell_length_b   9.11778942
_cell_length_c   9.11779011
_cell_angle_alpha   109.47121611
_cell_angle_beta   109.47123331
_cell_angle_gamma   109.47121611
_symmetry_Int_Tables_number   1
_chemical_formula_structural   Lu(Mg4Al3)4
_chemical_formula_sum   'Lu1 Mg16 Al12'
_cell_volume   583.50801803
_cell_formula_units_Z   1
loop_
 _symmetry_equiv_pos_site_id
 _symmetry_equiv_pos_as_xyz
  1  'x, y, z'
loop_
 _atom_site_type_symbol
 _atom_site_label
 _atom_site_symmetry_multiplicity
 _atom_site_fract_x
 _atom_site_fract_y
 _atom_site_fract_z
 _atom_site_occupancy
  Lu  Lu0  1  0.000000  0.000000  0.000000  1
  Mg  Mg1  1  0.354921  0.999999  0.999999  1
  Mg  Mg2  1  0.999999  0.354920  0.999999  1
  Mg  Mg3  1  0.318761  0.603214  1.000000  1
  Mg  Mg4  1  0.603215  0.318761  0.000000  1
  Mg  Mg5  1  0.681239  0.681239  0.284454  1
  Mg  Mg6  1  1.000000  0.603214  0.318761  1
  Mg  Mg7  1  0.603215  0.000000  0.318762  1
  Mg  Mg8  1  0.999999  0.999999  0.354921  1
  Mg  Mg9  1  0.715547  0.396787  0.396786  1
  Mg  Mg10  1  0.396786  0.715548  0.396786  1
  Mg  Mg11  1  0.318762  0.000000  0.603215  1
  Mg  Mg12  1  0.000000  0.318761  0.603215  1
  Mg  Mg13  1  0.645078  0.645078  0.645078  1
  Mg  Mg14  1  0.681239  0.284454  0.681239  1
  Mg  Mg15  1  0.284454  0.681239  0.681239  1
  Mg  Mg16  1  0.396786  0.396787  0.715547  1
  Al  Al17  1  0.633348  0.813981  0.000000  1
  Al  Al18  1  0.813981  0.633347  1.000000  1
  Al  Al19  1  0.366654  0.366654  0.180634  1
  Al  Al20  1  0.819365  0.186019  0.186019  1
  Al  Al21  1  0.186019  0.819365  0.186019  1
  Al  Al22  1  0.366654  0.180634  0.366654  1
  Al  Al23  1  0.180634  0.366654  0.366654  1
  Al  Al24  1  0.813981  0.000000  0.633347  1
  Al  Al25  1  0.000000  0.813981  0.633348  1
  Al  Al26  1  0.633347  0.000000  0.813981  1
  Al  Al27  1  1.000000  0.633347  0.813981  1
  Al  Al28  1  0.186019  0.186019  0.819365  1
