# generated using pymatgen
data_Nd(BRh)4
_symmetry_space_group_name_H-M   'P 1'
_cell_length_a   5.37663526
_cell_length_b   5.37615872
_cell_length_c   7.55002490
_cell_angle_alpha   89.99319663
_cell_angle_beta   90.00284766
_cell_angle_gamma   90.00015546
_symmetry_Int_Tables_number   1
_chemical_formula_structural   Nd(BRh)4
_chemical_formula_sum   'Nd2 B8 Rh8'
_cell_volume   218.23833412
_cell_formula_units_Z   2
loop_
 _symmetry_equiv_pos_site_id
 _symmetry_equiv_pos_as_xyz
  1  'x, y, z'
loop_
 _atom_site_type_symbol
 _atom_site_label
 _atom_site_symmetry_multiplicity
 _atom_site_fract_x
 _atom_site_fract_y
 _atom_site_fract_z
 _atom_site_occupancy
  Nd  Nd0  1  0.750004  0.250012  0.250007  1
  Nd  Nd1  1  0.249995  0.749987  0.749992  1
  B  B2  1  0.250001  0.081493  0.098289  1
  B  B3  1  0.250001  0.418509  0.098291  1
  B  B4  1  0.581504  0.750008  0.401706  1
  B  B5  1  0.918499  0.750008  0.401704  1
  B  B6  1  0.081494  0.249991  0.598297  1
  B  B7  1  0.418506  0.249990  0.598299  1
  B  B8  1  0.749997  0.581488  0.901709  1
  B  B9  1  0.749997  0.918508  0.901711  1
  Rh  Rh10  1  0.001277  0.750014  0.106788  1
  Rh  Rh11  1  0.498718  0.750014  0.106781  1
  Rh  Rh12  1  0.250005  0.998709  0.393211  1
  Rh  Rh13  1  0.250005  0.501267  0.393197  1
  Rh  Rh14  1  0.749991  0.001298  0.606794  1
  Rh  Rh15  1  0.749989  0.498727  0.606806  1
  Rh  Rh16  1  0.998714  0.249984  0.893211  1
  Rh  Rh17  1  0.501296  0.249985  0.893208  1
