# generated using pymatgen
data_UNiB4
_symmetry_space_group_name_H-M   'P 1'
_cell_length_a   6.76994083
_cell_length_b   6.76994083
_cell_length_c   6.76994083
_cell_angle_alpha   113.11110045
_cell_angle_beta   113.11110045
_cell_angle_gamma   102.41373033
_symmetry_Int_Tables_number   1
_chemical_formula_structural   UNiB4
_chemical_formula_sum   'U4 Ni4 B16'
_cell_volume   236.18279168
_cell_formula_units_Z   4
loop_
 _symmetry_equiv_pos_site_id
 _symmetry_equiv_pos_as_xyz
  1  'x, y, z'
loop_
 _atom_site_type_symbol
 _atom_site_label
 _atom_site_symmetry_multiplicity
 _atom_site_fract_x
 _atom_site_fract_y
 _atom_site_fract_z
 _atom_site_occupancy
  U  U0  1  0.195420  0.195420  -0.000000  1
  U  U1  1  0.804579  0.804579  0.000000  1
  U  U2  1  0.750000  0.250000  0.500000  1
  U  U3  1  0.250000  0.750000  0.500000  1
  Ni  Ni4  1  0.500000  0.272515  0.772515  1
  Ni  Ni5  1  0.500001  0.727486  0.227485  1
  Ni  Ni6  1  0.727486  0.500001  0.227485  1
  Ni  Ni7  1  0.272515  0.500000  0.772515  1
  B  B8  1  0.110606  0.275039  0.385646  1
  B  B9  1  0.889396  0.724961  0.614355  1
  B  B10  1  0.889396  0.275040  0.164434  1
  B  B11  1  0.110606  0.724960  0.835568  1
  B  B12  1  0.724961  0.889396  0.614355  1
  B  B13  1  0.275039  0.110606  0.385646  1
  B  B14  1  0.724960  0.110606  0.835568  1
  B  B15  1  0.275040  0.889396  0.164434  1
  B  B16  1  0.422524  0.422524  0.536039  1
  B  B17  1  0.886486  0.886486  0.463961  1
  B  B18  1  0.577474  0.113513  -0.000000  1
  B  B19  1  0.113513  0.577474  0.000000  1
  B  B20  1  0.577474  0.577474  0.463961  1
  B  B21  1  0.113515  0.113515  0.536039  1
  B  B22  1  0.886486  0.422525  -0.000000  1
  B  B23  1  0.422525  0.886486  0.000000  1
