# generated using pymatgen
data_LuAlB4
_symmetry_space_group_name_H-M   'P 1'
_cell_length_a   3.50862706
_cell_length_b   5.89290028
_cell_length_c   5.89290028
_cell_angle_alpha   103.71956928
_cell_angle_beta   90.00000000
_cell_angle_gamma   90.00000000
_symmetry_Int_Tables_number   1
_chemical_formula_structural   LuAlB4
_chemical_formula_sum   'Lu2 Al2 B8'
_cell_volume   118.36518144
_cell_formula_units_Z   2
loop_
 _symmetry_equiv_pos_site_id
 _symmetry_equiv_pos_as_xyz
  1  'x, y, z'
loop_
 _atom_site_type_symbol
 _atom_site_label
 _atom_site_symmetry_multiplicity
 _atom_site_fract_x
 _atom_site_fract_y
 _atom_site_fract_z
 _atom_site_occupancy
  Lu  Lu0  1  0.000000  0.699326  0.300673  1
  Lu  Lu1  1  0.000000  0.300673  0.699326  1
  Al  Al2  1  0.000000  0.180919  0.180919  1
  Al  Al3  1  0.000000  0.819082  0.819082  1
  B  B4  1  0.499999  0.382738  0.063283  1
  B  B5  1  0.499999  0.907251  0.092748  1
  B  B6  1  0.499999  0.379047  0.379047  1
  B  B7  1  0.499999  0.063283  0.382738  1
  B  B8  1  0.499999  0.936718  0.617262  1
  B  B9  1  0.499999  0.620954  0.620954  1
  B  B10  1  0.499999  0.092748  0.907251  1
  B  B11  1  0.499999  0.617262  0.936718  1
