# generated using pymatgen
data_RbF3
_symmetry_space_group_name_H-M   'P 1'
_cell_length_a   5.92613091
_cell_length_b   5.91254591
_cell_length_c   5.41516353
_cell_angle_alpha   89.99563690
_cell_angle_beta   89.99546286
_cell_angle_gamma   117.13579235
_symmetry_Int_Tables_number   1
_chemical_formula_structural   RbF3
_chemical_formula_sum   'Rb2 F6'
_cell_volume   168.85434316
_cell_formula_units_Z   2
loop_
 _symmetry_equiv_pos_site_id
 _symmetry_equiv_pos_as_xyz
  1  'x, y, z'
loop_
 _atom_site_type_symbol
 _atom_site_label
 _atom_site_symmetry_multiplicity
 _atom_site_fract_x
 _atom_site_fract_y
 _atom_site_fract_z
 _atom_site_occupancy
  Rb  Rb0  1  0.354529  0.646684  0.750009  1
  Rb  Rb1  1  0.645694  0.355199  0.250028  1
  F  F2  1  0.145557  0.377131  0.250103  1
  F  F3  1  0.619837  0.853811  0.249993  1
  F  F4  1  0.252584  0.743409  0.250073  1
  F  F5  1  0.854823  0.621681  0.749766  1
  F  F6  1  0.380258  0.146558  0.750056  1
  F  F7  1  0.746720  0.255533  0.749969  1
