# generated using pymatgen
data_GdEr3
_symmetry_space_group_name_H-M   'P 1'
_cell_length_a   7.17212048
_cell_length_b   7.16651175
_cell_length_c   5.65020214
_cell_angle_alpha   90.00248107
_cell_angle_beta   89.98250670
_cell_angle_gamma   119.99196105
_symmetry_Int_Tables_number   1
_chemical_formula_structural   GdEr3
_chemical_formula_sum   'Gd2 Er6'
_cell_volume   251.52731882
_cell_formula_units_Z   2
loop_
 _symmetry_equiv_pos_site_id
 _symmetry_equiv_pos_as_xyz
  1  'x, y, z'
loop_
 _atom_site_type_symbol
 _atom_site_label
 _atom_site_symmetry_multiplicity
 _atom_site_fract_x
 _atom_site_fract_y
 _atom_site_fract_z
 _atom_site_occupancy
  Gd  Gd0  1  0.333338  0.666626  0.749920  1
  Gd  Gd1  1  0.666517  0.333341  0.249967  1
  Er  Er2  1  0.166108  0.332024  0.250039  1
  Er  Er3  1  0.668001  0.833977  0.249960  1
  Er  Er4  1  0.166002  0.834033  0.249893  1
  Er  Er5  1  0.834004  0.668047  0.750067  1
  Er  Er6  1  0.331974  0.165915  0.750126  1
  Er  Er7  1  0.834057  0.166037  0.750031  1
