# generated using pymatgen
data_Mg5Hg
_symmetry_space_group_name_H-M   'P 1'
_cell_length_a   5.46885269
_cell_length_b   5.46885256
_cell_length_c   6.02747448
_cell_angle_alpha   116.97876212
_cell_angle_beta   63.02122787
_cell_angle_gamma   119.99998689
_symmetry_Int_Tables_number   1
_chemical_formula_structural   Mg5Hg
_chemical_formula_sum   'Mg5 Hg1'
_cell_volume   132.98543695
_cell_formula_units_Z   1
loop_
 _symmetry_equiv_pos_site_id
 _symmetry_equiv_pos_as_xyz
  1  'x, y, z'
loop_
 _atom_site_type_symbol
 _atom_site_label
 _atom_site_symmetry_multiplicity
 _atom_site_fract_x
 _atom_site_fract_y
 _atom_site_fract_z
 _atom_site_occupancy
  Mg  Mg0  1  0.998013  -0.000000  0.000000  1
  Mg  Mg1  1  0.668652  0.335320  -0.000000  1
  Mg  Mg2  1  0.333332  0.664683  0.000000  1
  Mg  Mg3  1  0.500356  0.832976  0.498933  1
  Mg  Mg4  1  0.166310  0.167021  0.501066  1
  Hg  Hg5  1  0.833333  0.499998  0.499998  1
