# generated using pymatgen
data_KAgO2
_symmetry_space_group_name_H-M   'P 1'
_cell_length_a   4.38893987
_cell_length_b   6.01970000
_cell_length_c   6.48731000
_cell_angle_alpha   90.00000000
_cell_angle_beta   70.22841820
_cell_angle_gamma   90.00000000
_symmetry_Int_Tables_number   1
_chemical_formula_structural   KAgO2
_chemical_formula_sum   'K2 Ag2 O4'
_cell_volume   161.29140047
_cell_formula_units_Z   2
loop_
 _symmetry_equiv_pos_site_id
 _symmetry_equiv_pos_as_xyz
  1  'x, y, z'
loop_
 _atom_site_type_symbol
 _atom_site_label
 _atom_site_symmetry_multiplicity
 _atom_site_fract_x
 _atom_site_fract_y
 _atom_site_fract_z
 _atom_site_occupancy
  K  K0  1  0.293930  0.250000  0.412140  1
  K  K1  1  0.706070  0.750000  0.587860  1
  Ag  Ag2  1  0.003250  0.250000  0.993500  1
  Ag  Ag3  1  0.996750  0.750000  0.006500  1
  O  O4  1  0.112360  0.993410  0.775280  1
  O  O5  1  0.887640  0.493410  0.224720  1
  O  O6  1  0.112360  0.506590  0.775280  1
  O  O7  1  0.887640  0.006590  0.224720  1
