# generated using pymatgen
data_Ac3In
_symmetry_space_group_name_H-M   'P 1'
_cell_length_a   7.71833645
_cell_length_b   7.71833589
_cell_length_c   6.02833873
_cell_angle_alpha   90.00000000
_cell_angle_beta   90.00000000
_cell_angle_gamma   119.99999792
_symmetry_Int_Tables_number   1
_chemical_formula_structural   Ac3In
_chemical_formula_sum   'Ac6 In2'
_cell_volume   311.01094178
_cell_formula_units_Z   2
loop_
 _symmetry_equiv_pos_site_id
 _symmetry_equiv_pos_as_xyz
  1  'x, y, z'
loop_
 _atom_site_type_symbol
 _atom_site_label
 _atom_site_symmetry_multiplicity
 _atom_site_fract_x
 _atom_site_fract_y
 _atom_site_fract_z
 _atom_site_occupancy
  Ac  Ac0  1  0.175039  0.350078  0.249999  1
  Ac  Ac1  1  0.649922  0.824961  0.249999  1
  Ac  Ac2  1  0.175039  0.824961  0.249999  1
  Ac  Ac3  1  0.824962  0.649923  0.750000  1
  Ac  Ac4  1  0.350078  0.175038  0.750000  1
  Ac  Ac5  1  0.824961  0.175038  0.750000  1
  In  In6  1  0.333333  0.666667  0.750000  1
  In  In7  1  0.666666  0.333333  0.249999  1
