# generated using pymatgen
data_RbSnF3
_symmetry_space_group_name_H-M   'P 1'
_cell_length_a   4.64714443
_cell_length_b   4.60457649
_cell_length_c   5.27841103
_cell_angle_alpha   85.50171270
_cell_angle_beta   96.68307457
_cell_angle_gamma   90.50857166
_symmetry_Int_Tables_number   1
_chemical_formula_structural   RbSnF3
_chemical_formula_sum   'Rb1 Sn1 F3'
_cell_volume   111.83510539
_cell_formula_units_Z   1
loop_
 _symmetry_equiv_pos_site_id
 _symmetry_equiv_pos_as_xyz
  1  'x, y, z'
loop_
 _atom_site_type_symbol
 _atom_site_label
 _atom_site_symmetry_multiplicity
 _atom_site_fract_x
 _atom_site_fract_y
 _atom_site_fract_z
 _atom_site_occupancy
  Rb  Rb0  1  0.033380  -0.023303  0.920597  1
  Sn  Sn1  1  0.485656  0.506501  0.489849  1
  F  F2  1  0.496820  0.024489  0.568661  1
  F  F3  1  0.513014  0.488443  0.889504  1
  F  F4  1  0.961131  0.503870  0.571387  1
