# generated using pymatgen
data_RbSnF3
_symmetry_space_group_name_H-M   'P 1'
_cell_length_a   6.76606493
_cell_length_b   6.76606496
_cell_length_c   6.76606479
_cell_angle_alpha   61.64227780
_cell_angle_beta   61.64227761
_cell_angle_gamma   61.64227559
_symmetry_Int_Tables_number   1
_chemical_formula_structural   RbSnF3
_chemical_formula_sum   'Rb2 Sn2 F6'
_cell_volume   227.09114041
_cell_formula_units_Z   2
loop_
 _symmetry_equiv_pos_site_id
 _symmetry_equiv_pos_as_xyz
  1  'x, y, z'
loop_
 _atom_site_type_symbol
 _atom_site_label
 _atom_site_symmetry_multiplicity
 _atom_site_fract_x
 _atom_site_fract_y
 _atom_site_fract_z
 _atom_site_occupancy
  Rb  Rb0  1  0.874397  0.874399  0.874397  1
  Rb  Rb1  1  0.125601  0.125602  0.125603  1
  Sn  Sn2  1  0.643737  0.643738  0.643737  1
  Sn  Sn3  1  0.356263  0.356264  0.356263  1
  F  F4  1  0.952117  0.749053  0.475292  1
  F  F5  1  0.749053  0.475292  0.952116  1
  F  F6  1  0.475291  0.952116  0.749053  1
  F  F7  1  0.047883  0.250948  0.524709  1
  F  F8  1  0.524708  0.047884  0.250947  1
  F  F9  1  0.250947  0.524707  0.047885  1
