# generated using pymatgen
data_EuNiGe3
_symmetry_space_group_name_H-M   'P 1'
_cell_length_a   5.83442377
_cell_length_b   5.83442377
_cell_length_c   5.83442377
_cell_angle_alpha   136.16965600
_cell_angle_beta   136.16965600
_cell_angle_gamma   63.71815320
_symmetry_Int_Tables_number   1
_chemical_formula_structural   EuNiGe3
_chemical_formula_sum   'Eu1 Ni1 Ge3'
_cell_volume   93.99422655
_cell_formula_units_Z   1
loop_
 _symmetry_equiv_pos_site_id
 _symmetry_equiv_pos_as_xyz
  1  'x, y, z'
loop_
 _atom_site_type_symbol
 _atom_site_label
 _atom_site_symmetry_multiplicity
 _atom_site_fract_x
 _atom_site_fract_y
 _atom_site_fract_z
 _atom_site_occupancy
  Eu  Eu0  1  0.010484  0.010484  -0.000000  1
  Ni  Ni1  1  0.664379  0.664379  0.000000  1
  Ge  Ge2  1  0.763419  0.263418  0.500001  1
  Ge  Ge3  1  0.263418  0.763419  0.500001  1
  Ge  Ge4  1  0.428304  0.428304  0.000000  1
