# generated using pymatgen
data_LuNiSn
_symmetry_space_group_name_H-M   'P 1'
_cell_length_a   6.95805035
_cell_length_b   4.44275412
_cell_length_c   7.59484984
_cell_angle_alpha   90.00044404
_cell_angle_beta   89.99766669
_cell_angle_gamma   90.00028943
_symmetry_Int_Tables_number   1
_chemical_formula_structural   LuNiSn
_chemical_formula_sum   'Lu4 Ni4 Sn4'
_cell_volume   234.77888561
_cell_formula_units_Z   4
loop_
 _symmetry_equiv_pos_site_id
 _symmetry_equiv_pos_as_xyz
  1  'x, y, z'
loop_
 _atom_site_type_symbol
 _atom_site_label
 _atom_site_symmetry_multiplicity
 _atom_site_fract_x
 _atom_site_fract_y
 _atom_site_fract_z
 _atom_site_occupancy
  Lu  Lu0  1  0.512221  0.749998  0.201703  1
  Lu  Lu1  1  0.012214  0.749997  0.298297  1
  Lu  Lu2  1  0.987792  0.249999  0.701702  1
  Lu  Lu3  1  0.487785  0.250003  0.798293  1
  Ni  Ni4  1  0.204474  0.250002  0.082027  1
  Ni  Ni5  1  0.704467  0.250002  0.417988  1
  Ni  Ni6  1  0.295524  0.749999  0.582024  1
  Ni  Ni7  1  0.795515  0.750000  0.917968  1
  Sn  Sn8  1  0.809035  0.250002  0.088572  1
  Sn  Sn9  1  0.309029  0.249999  0.411424  1
  Sn  Sn10  1  0.690973  0.749999  0.588567  1
  Sn  Sn11  1  0.190972  0.750006  0.911439  1
