# generated using pymatgen
data_K(WO3)3
_symmetry_space_group_name_H-M   'P 1'
_cell_length_a   7.52727163
_cell_length_b   32.78131773
_cell_length_c   3.88268603
_cell_angle_alpha   90.04742376
_cell_angle_beta   90.05010610
_cell_angle_gamma   83.43064815
_symmetry_Int_Tables_number   1
_chemical_formula_structural   K(WO3)3
_chemical_formula_sum   'K5 W15 O45'
_cell_volume   951.77666156
_cell_formula_units_Z   5
loop_
 _symmetry_equiv_pos_site_id
 _symmetry_equiv_pos_as_xyz
  1  'x, y, z'
loop_
 _atom_site_type_symbol
 _atom_site_label
 _atom_site_symmetry_multiplicity
 _atom_site_fract_x
 _atom_site_fract_y
 _atom_site_fract_z
 _atom_site_occupancy
  K  K0  1  0.797196  0.899510  0.889364  1
  K  K1  1  0.404590  0.700891  0.907440  1
  K  K2  1  0.005982  0.499144  0.904670  1
  K  K3  1  0.605881  0.299440  0.900433  1
  K  K4  1  0.196609  0.099360  0.090428  1
  W  W5  1  0.296862  0.900142  0.491350  1
  W  W6  1  0.599930  0.800039  0.498721  1
  W  W7  1  0.900414  0.700283  0.499177  1
  W  W8  1  0.100645  0.800067  0.499466  1
  W  W9  1  0.698386  0.600248  0.503428  1
  W  W10  1  0.198174  0.599700  0.499993  1
  W  W11  1  0.499407  0.499822  0.501961  1
  W  W12  1  0.800321  0.400176  0.499226  1
  W  W13  1  0.301769  0.399760  0.503779  1
  W  W14  1  0.101228  0.300041  0.502970  1
  W  W15  1  0.901371  0.199484  0.496822  1
  W  W16  1  0.401125  0.199973  0.503796  1
  W  W17  1  0.700122  0.099971  0.505542  1
  W  W18  1  0.499097  0.000122  0.500396  1
  W  W19  1  -0.001696  0.000068  0.496901  1
  O  O20  1  0.759558  0.983453  0.498775  1
  O  O21  1  0.462378  0.941954  0.497807  1
  O  O22  1  0.094622  0.941315  0.495920  1
  O  O23  1  0.300347  0.900178  0.995512  1
  O  O24  1  0.504472  0.858241  0.497440  1
  O  O25  1  0.844496  0.816131  0.501437  1
  O  O26  1  0.597626  0.800872  -0.001038  1
  O  O27  1  0.135865  0.858729  0.496973  1
  O  O28  1  0.355039  0.783346  0.498507  1
  O  O29  1  0.691749  0.742713  0.498811  1
  O  O30  1  0.896762  0.699459  0.000284  1
  O  O31  1  0.101320  0.800149  0.999619  1
  O  O32  1  0.061415  0.741149  0.501050  1
  O  O33  1  0.732017  0.657979  0.500180  1
  O  O34  1  0.955274  0.584295  0.503094  1
  O  O35  1  0.698342  0.600492  0.003236  1
  O  O36  1  0.106411  0.657237  0.501705  1
  O  O37  1  0.440837  0.615402  0.503677  1
  O  O38  1  0.197754  0.599819  0.001973  1
  O  O39  1  0.664527  0.542510  0.505655  1
  O  O40  1  0.290282  0.542287  0.503296  1
  O  O41  1  0.502002  0.500741  0.003089  1
  O  O42  1  0.707846  0.457256  0.500726  1
  O  O43  1  0.801942  0.399462  0.000415  1
  O  O44  1  0.338127  0.458738  0.503902  1
  O  O45  1  0.893312  0.341578  0.500057  1
  O  O46  1  0.556355  0.383391  0.504669  1
  O  O47  1  0.300783  0.400032  0.003817  1
  O  O48  1  0.045834  0.415697  0.502285  1
  O  O49  1  0.936796  0.257764  0.504327  1
  O  O50  1  0.263341  0.341074  0.506069  1
  O  O51  1  0.901627  0.199835  -0.000982  1
  O  O52  1  0.096658  0.300137  0.003964  1
  O  O53  1  0.642610  0.215840  0.502203  1
  O  O54  1  0.303927  0.258634  0.505775  1
  O  O55  1  0.400438  0.200041  0.002974  1
  O  O56  1  0.866575  0.142301  0.498875  1
  O  O57  1  0.495662  0.141533  0.504057  1
  O  O58  1  0.159429  0.184003  0.497232  1
  O  O59  1  0.700340  0.099767  0.003507  1
  O  O60  1  0.905024  0.058688  0.499797  1
  O  O61  1  0.534763  0.057406  0.503597  1
  O  O62  1  0.499366  -0.000058  0.000157  1
  O  O63  1  0.238431  0.015739  0.498960  1
  O  O64  1  0.998505  -0.000165  -0.002146  1
