# generated using pymatgen
data_KCrCl3
_symmetry_space_group_name_H-M   'P 1'
_cell_length_a   4.97061632
_cell_length_b   4.97752223
_cell_length_c   4.97831683
_cell_angle_alpha   89.87045904
_cell_angle_beta   89.71352097
_cell_angle_gamma   89.98703330
_symmetry_Int_Tables_number   1
_chemical_formula_structural   KCrCl3
_chemical_formula_sum   'K1 Cr1 Cl3'
_cell_volume   123.16843800
_cell_formula_units_Z   1
loop_
 _symmetry_equiv_pos_site_id
 _symmetry_equiv_pos_as_xyz
  1  'x, y, z'
loop_
 _atom_site_type_symbol
 _atom_site_label
 _atom_site_symmetry_multiplicity
 _atom_site_fract_x
 _atom_site_fract_y
 _atom_site_fract_z
 _atom_site_occupancy
  K  K0  1  0.996758  0.999017  0.998973  1
  Cr  Cr1  1  0.485070  0.500384  0.496542  1
  Cl  Cl2  1  0.485365  0.000025  0.495031  1
  Cl  Cl3  1  0.985042  0.502546  0.502490  1
  Cl  Cl4  1  0.487766  0.498027  0.996964  1
