# generated using pymatgen
data_Rb3Yb
_symmetry_space_group_name_H-M   'P 1'
_cell_length_a   9.52755514
_cell_length_b   9.52755432
_cell_length_c   7.73631870
_cell_angle_alpha   90.00000000
_cell_angle_beta   90.00000000
_cell_angle_gamma   120.00000285
_symmetry_Int_Tables_number   1
_chemical_formula_structural   Rb3Yb
_chemical_formula_sum   'Rb6 Yb2'
_cell_volume   608.17403677
_cell_formula_units_Z   2
loop_
 _symmetry_equiv_pos_site_id
 _symmetry_equiv_pos_as_xyz
  1  'x, y, z'
loop_
 _atom_site_type_symbol
 _atom_site_label
 _atom_site_symmetry_multiplicity
 _atom_site_fract_x
 _atom_site_fract_y
 _atom_site_fract_z
 _atom_site_occupancy
  Yb  Yb0  1  0.333334  0.666667  0.750000  1
  Yb  Yb1  1  0.666665  0.333332  0.250000  1
  Rb  Rb2  1  0.170831  0.341662  0.250000  1
  Rb  Rb3  1  0.658337  0.829167  0.250000  1
  Rb  Rb4  1  0.170832  0.829167  0.250000  1
  Rb  Rb5  1  0.829168  0.658338  0.750000  1
  Rb  Rb6  1  0.341663  0.170832  0.750000  1
  Rb  Rb7  1  0.829168  0.170832  0.750000  1
