# generated using pymatgen
data_WSCl4
_symmetry_space_group_name_H-M   'P 1'
_cell_length_a   8.10862219
_cell_length_b   6.98898828
_cell_length_c   8.00985787
_cell_angle_alpha   79.45205392
_cell_angle_beta   103.34151453
_cell_angle_gamma   101.61223210
_symmetry_Int_Tables_number   1
_chemical_formula_structural   WSCl4
_chemical_formula_sum   'W2 S2 Cl8'
_cell_volume   428.16927060
_cell_formula_units_Z   2
loop_
 _symmetry_equiv_pos_site_id
 _symmetry_equiv_pos_as_xyz
  1  'x, y, z'
loop_
 _atom_site_type_symbol
 _atom_site_label
 _atom_site_symmetry_multiplicity
 _atom_site_fract_x
 _atom_site_fract_y
 _atom_site_fract_z
 _atom_site_occupancy
  W  W0  1  0.802094  0.140807  0.248534  1
  W  W1  1  0.197907  0.859193  0.751466  1
  S  S2  1  0.760640  0.342176  0.019560  1
  S  S3  1  0.239359  0.657824  0.980440  1
  Cl  Cl4  1  0.829814  0.860213  0.151387  1
  Cl  Cl5  1  0.531145  0.982996  0.280812  1
  Cl  Cl6  1  0.099288  0.190999  0.335590  1
  Cl  Cl7  1  0.798530  0.319589  0.461305  1
  Cl  Cl8  1  0.201471  0.680413  0.538694  1
  Cl  Cl9  1  0.900713  0.809001  0.664410  1
  Cl  Cl10  1  0.468856  0.017005  0.719188  1
  Cl  Cl11  1  0.170186  0.139789  0.848613  1
