# generated using pymatgen
data_NdHf
_symmetry_space_group_name_H-M   'P 1'
_cell_length_a   3.38268304
_cell_length_b   3.38267236
_cell_length_c   5.59232271
_cell_angle_alpha   89.99568096
_cell_angle_beta   90.00420805
_cell_angle_gamma   120.00386170
_symmetry_Int_Tables_number   1
_chemical_formula_structural   NdHf
_chemical_formula_sum   'Nd1 Hf1'
_cell_volume   55.41498171
_cell_formula_units_Z   1
loop_
 _symmetry_equiv_pos_site_id
 _symmetry_equiv_pos_as_xyz
  1  'x, y, z'
loop_
 _atom_site_type_symbol
 _atom_site_label
 _atom_site_symmetry_multiplicity
 _atom_site_fract_x
 _atom_site_fract_y
 _atom_site_fract_z
 _atom_site_occupancy
  Nd  Nd0  1  0.333327  0.666672  0.250002  1
  Hf  Hf1  1  0.666674  0.333327  0.749999  1
