# generated using pymatgen
data_MgAgF3
_symmetry_space_group_name_H-M   'P 1'
_cell_length_a   3.98328792
_cell_length_b   3.98364216
_cell_length_c   3.98281233
_cell_angle_alpha   89.81421864
_cell_angle_beta   89.63388012
_cell_angle_gamma   89.93465928
_symmetry_Int_Tables_number   1
_chemical_formula_structural   MgAgF3
_chemical_formula_sum   'Mg1 Ag1 F3'
_cell_volume   63.19757894
_cell_formula_units_Z   1
loop_
 _symmetry_equiv_pos_site_id
 _symmetry_equiv_pos_as_xyz
  1  'x, y, z'
loop_
 _atom_site_type_symbol
 _atom_site_label
 _atom_site_symmetry_multiplicity
 _atom_site_fract_x
 _atom_site_fract_y
 _atom_site_fract_z
 _atom_site_occupancy
  Mg  Mg0  1  0.486610  0.499634  0.496914  1
  Ag  Ag1  1  0.995027  0.998740  0.997724  1
  F  F2  1  0.484348  0.000049  0.494017  1
  F  F3  1  0.986748  0.503859  0.503987  1
  F  F4  1  0.487266  0.497720  0.997359  1
