# generated using pymatgen
data_Ca(SbO2)2
_symmetry_space_group_name_H-M   'P 1'
_cell_length_a   3.23296889
_cell_length_b   10.01610734
_cell_length_c   13.53550563
_cell_angle_alpha   89.99984325
_cell_angle_beta   89.99776833
_cell_angle_gamma   89.99375662
_symmetry_Int_Tables_number   1
_chemical_formula_structural   Ca(SbO2)2
_chemical_formula_sum   'Ca4 Sb8 O16'
_cell_volume   438.30353794
_cell_formula_units_Z   4
loop_
 _symmetry_equiv_pos_site_id
 _symmetry_equiv_pos_as_xyz
  1  'x, y, z'
loop_
 _atom_site_type_symbol
 _atom_site_label
 _atom_site_symmetry_multiplicity
 _atom_site_fract_x
 _atom_site_fract_y
 _atom_site_fract_z
 _atom_site_occupancy
  Ca  Ca0  1  0.749919  0.237385  0.354256  1
  Ca  Ca1  1  0.250312  0.762628  0.645747  1
  Ca  Ca2  1  0.749919  0.737375  0.145738  1
  Ca  Ca3  1  0.250319  0.262619  0.854249  1
  Sb  Sb4  1  0.249991  0.417987  0.106788  1
  Sb  Sb5  1  0.750045  0.082017  0.606795  1
  Sb  Sb6  1  0.249986  0.918014  0.393217  1
  Sb  Sb7  1  0.750049  0.581989  0.893220  1
  Sb  Sb8  1  0.750514  0.566757  0.351609  1
  Sb  Sb9  1  0.248459  0.433239  0.648395  1
  Sb  Sb10  1  0.750027  0.066760  0.148381  1
  Sb  Sb11  1  0.248823  0.933242  0.851615  1
  O  O12  1  0.249986  0.918819  0.129942  1
  O  O13  1  0.750349  0.081189  0.870055  1
  O  O14  1  0.249846  0.418816  0.370054  1
  O  O15  1  0.750461  0.581192  0.629946  1
  O  O16  1  0.250062  0.033623  0.702177  1
  O  O17  1  0.749991  0.966385  0.297830  1
  O  O18  1  0.250078  0.533601  0.797829  1
  O  O19  1  0.749978  0.466379  0.202169  1
  O  O20  1  0.249971  0.604415  0.054458  1
  O  O21  1  0.750115  0.395556  0.945536  1
  O  O22  1  0.249957  0.104439  0.445534  1
  O  O23  1  0.750116  0.895574  0.554468  1
  O  O24  1  0.750430  0.828302  0.769523  1
  O  O25  1  0.249944  0.171703  0.230479  1
  O  O26  1  0.249803  0.671697  0.269519  1
  O  O27  1  0.750537  0.328295  0.730473  1
