# generated using pymatgen
data_Mn4(CuO4)3
_symmetry_space_group_name_H-M   'P 1'
_cell_length_a   6.29949304
_cell_length_b   6.29933706
_cell_length_c   6.29943379
_cell_angle_alpha   109.46789574
_cell_angle_beta   109.46568893
_cell_angle_gamma   109.48200751
_symmetry_Int_Tables_number   1
_chemical_formula_structural   Mn4(CuO4)3
_chemical_formula_sum   'Mn4 Cu3 O12'
_cell_volume   192.42864341
_cell_formula_units_Z   1
loop_
 _symmetry_equiv_pos_site_id
 _symmetry_equiv_pos_as_xyz
  1  'x, y, z'
loop_
 _atom_site_type_symbol
 _atom_site_label
 _atom_site_symmetry_multiplicity
 _atom_site_fract_x
 _atom_site_fract_y
 _atom_site_fract_z
 _atom_site_occupancy
  Mn  Mn0  1  0.000003  -0.000002  0.500000  1
  Mn  Mn1  1  0.000004  0.500008  0.000006  1
  Mn  Mn2  1  0.499997  0.499997  0.499998  1
  Mn  Mn3  1  0.500003  0.000005  0.000004  1
  Cu  Cu4  1  0.499997  0.500002  1.000000  1
  Cu  Cu5  1  -0.000002  0.500001  0.499999  1
  Cu  Cu6  1  0.500000  0.999996  0.500001  1
  O  O7  1  0.503602  0.821113  0.682529  1
  O  O8  1  0.138583  0.821043  0.317533  1
  O  O9  1  0.861414  0.178954  0.682465  1
  O  O10  1  0.178892  0.317537  0.496446  1
  O  O11  1  0.317550  0.496529  0.178972  1
  O  O12  1  0.682449  0.503472  0.821027  1
  O  O13  1  0.821052  0.317567  0.138645  1
  O  O14  1  0.682525  0.861435  0.178924  1
  O  O15  1  0.496396  0.178889  0.317472  1
  O  O16  1  0.178951  0.682434  0.861357  1
  O  O17  1  0.821108  0.682455  0.503551  1
  O  O18  1  0.317475  0.138570  0.821077  1
