# generated using pymatgen
data_Mg(CrN)2
_symmetry_space_group_name_H-M   'P 1'
_cell_length_a   3.69950945
_cell_length_b   3.70176990
_cell_length_c   5.46882114
_cell_angle_alpha   89.99965663
_cell_angle_beta   90.00037288
_cell_angle_gamma   90.00004273
_symmetry_Int_Tables_number   1
_chemical_formula_structural   Mg(CrN)2
_chemical_formula_sum   'Mg1 Cr2 N2'
_cell_volume   74.89404384
_cell_formula_units_Z   1
loop_
 _symmetry_equiv_pos_site_id
 _symmetry_equiv_pos_as_xyz
  1  'x, y, z'
loop_
 _atom_site_type_symbol
 _atom_site_label
 _atom_site_symmetry_multiplicity
 _atom_site_fract_x
 _atom_site_fract_y
 _atom_site_fract_z
 _atom_site_occupancy
  Mg  Mg0  1  0.000001  0.000000  0.250062  1
  Cr  Cr1  1  0.499997  0.500000  0.998206  1
  Cr  Cr2  1  0.500003  0.499999  0.501747  1
  N  N3  1  0.500001  1.000000  0.480047  1
  N  N4  1  0.999998  0.500001  0.019938  1
