# generated using pymatgen
data_BaMgMoF7
_symmetry_space_group_name_H-M   'P 1'
_cell_length_a   5.74529545
_cell_length_b   9.93765043
_cell_length_c   10.22487454
_cell_angle_alpha   90.00000000
_cell_angle_beta   90.00000000
_cell_angle_gamma   92.81513182
_symmetry_Int_Tables_number   1
_chemical_formula_structural   BaMgMoF7
_chemical_formula_sum   'Ba4 Mg4 Mo4 F28'
_cell_volume   583.08201806
_cell_formula_units_Z   4
loop_
 _symmetry_equiv_pos_site_id
 _symmetry_equiv_pos_as_xyz
  1  'x, y, z'
loop_
 _atom_site_type_symbol
 _atom_site_label
 _atom_site_symmetry_multiplicity
 _atom_site_fract_x
 _atom_site_fract_y
 _atom_site_fract_z
 _atom_site_occupancy
  Ba  Ba0  1  0.268014  0.496605  0.327766  1
  Ba  Ba1  1  0.731986  0.003395  0.827766  1
  Ba  Ba2  1  0.731986  0.503395  0.672234  1
  Ba  Ba3  1  0.268014  0.996605  0.172234  1
  Mg  Mg4  1  0.688704  0.809887  0.392615  1
  Mg  Mg5  1  0.311296  0.690113  0.892615  1
  Mg  Mg6  1  0.688704  0.309887  0.107385  1
  Mg  Mg7  1  0.311296  0.190113  0.607385  1
  Mo  Mo8  1  0.193411  0.814776  0.611266  1
  Mo  Mo9  1  0.806589  0.185224  0.388734  1
  Mo  Mo10  1  0.193411  0.314776  0.888734  1
  Mo  Mo11  1  0.806589  0.685224  0.111266  1
  F  F12  1  0.131635  0.123957  0.453360  1
  F  F13  1  0.375629  0.374302  0.059012  1
  F  F14  1  0.485344  0.750042  0.717623  1
  F  F15  1  0.514656  0.249958  0.282377  1
  F  F16  1  0.895374  0.375981  0.458946  1
  F  F17  1  0.260857  0.507928  0.804247  1
  F  F18  1  0.027128  0.750416  0.786812  1
  F  F19  1  0.104626  0.124019  0.958946  1
  F  F20  1  0.375629  0.874302  0.440988  1
  F  F21  1  0.514656  0.749958  0.217623  1
  F  F22  1  0.131635  0.623957  0.046640  1
  F  F23  1  0.868365  0.876043  0.546640  1
  F  F24  1  0.972872  0.749584  0.286812  1
  F  F25  1  0.395028  0.868759  0.958750  1
  F  F26  1  0.104626  0.624019  0.541054  1
  F  F27  1  0.895374  0.875981  0.041054  1
  F  F28  1  0.972872  0.249584  0.213188  1
  F  F29  1  0.868365  0.376043  0.953360  1
  F  F30  1  0.604972  0.631241  0.458750  1
  F  F31  1  0.624371  0.625698  0.940988  1
  F  F32  1  0.604972  0.131241  0.041250  1
  F  F33  1  0.027128  0.250416  0.713188  1
  F  F34  1  0.395028  0.368759  0.541250  1
  F  F35  1  0.739143  0.992072  0.304247  1
  F  F36  1  0.739143  0.492072  0.195753  1
  F  F37  1  0.260857  0.007928  0.695753  1
  F  F38  1  0.624371  0.125698  0.559012  1
  F  F39  1  0.485344  0.250042  0.782377  1
