# generated using pymatgen
data_MgNiBiO5
_symmetry_space_group_name_H-M   'P 1'
_cell_length_a   5.25492282
_cell_length_b   10.04216030
_cell_length_c   14.96318663
_cell_angle_alpha   90.00000000
_cell_angle_beta   90.00000000
_cell_angle_gamma   90.00000000
_symmetry_Int_Tables_number   1
_chemical_formula_structural   MgNiBiO5
_chemical_formula_sum   'Mg8 Ni8 Bi8 O40'
_cell_volume   789.61898969
_cell_formula_units_Z   8
loop_
 _symmetry_equiv_pos_site_id
 _symmetry_equiv_pos_as_xyz
  1  'x, y, z'
loop_
 _atom_site_type_symbol
 _atom_site_label
 _atom_site_symmetry_multiplicity
 _atom_site_fract_x
 _atom_site_fract_y
 _atom_site_fract_z
 _atom_site_occupancy
  Mg  Mg0  1  0.517702  0.371886  0.438589  1
  Mg  Mg1  1  0.017702  0.128114  0.438589  1
  Mg  Mg2  1  0.017702  0.628114  0.061411  1
  Mg  Mg3  1  0.982298  0.371886  0.938589  1
  Mg  Mg4  1  0.482298  0.128114  0.938589  1
  Mg  Mg5  1  0.982298  0.871886  0.561411  1
  Mg  Mg6  1  0.482298  0.628114  0.561411  1
  Mg  Mg7  1  0.517702  0.871886  0.061411  1
  Ni  Ni8  1  0.038360  0.402628  0.574063  1
  Ni  Ni9  1  0.461640  0.902628  0.425937  1
  Ni  Ni10  1  0.961640  0.597372  0.425937  1
  Ni  Ni11  1  0.538360  0.097372  0.574063  1
  Ni  Ni12  1  0.961640  0.097372  0.074063  1
  Ni  Ni13  1  0.038360  0.902628  0.925937  1
  Ni  Ni14  1  0.461640  0.402628  0.074063  1
  Ni  Ni15  1  0.538360  0.597372  0.925937  1
  Bi  Bi16  1  0.989953  0.856608  0.250634  1
  Bi  Bi17  1  0.010047  0.143392  0.749366  1
  Bi  Bi18  1  0.510047  0.356608  0.749366  1
  Bi  Bi19  1  0.010047  0.643392  0.750634  1
  Bi  Bi20  1  0.489953  0.143392  0.249366  1
  Bi  Bi21  1  0.489953  0.643392  0.250634  1
  Bi  Bi22  1  0.510047  0.856608  0.750634  1
  Bi  Bi23  1  0.989953  0.356608  0.249366  1
  O  O24  1  0.854360  0.314689  0.674711  1
  O  O25  1  0.251492  0.014562  0.024682  1
  O  O26  1  0.248508  0.514562  0.975318  1
  O  O27  1  0.304069  0.796654  0.166513  1
  O  O28  1  0.195931  0.296654  0.833487  1
  O  O29  1  0.854360  0.814689  0.825289  1
  O  O30  1  0.195931  0.796654  0.666513  1
  O  O31  1  0.645640  0.814689  0.325289  1
  O  O32  1  0.251492  0.514562  0.475318  1
  O  O33  1  0.145640  0.685311  0.325289  1
  O  O34  1  0.645640  0.314689  0.174711  1
  O  O35  1  0.708640  0.224115  0.509488  1
  O  O36  1  0.751492  0.985438  0.475318  1
  O  O37  1  0.695931  0.703346  0.666513  1
  O  O38  1  0.253747  0.001477  0.835616  1
  O  O39  1  0.751492  0.485438  0.024682  1
  O  O40  1  0.145640  0.185311  0.174711  1
  O  O41  1  0.804069  0.203346  0.333487  1
  O  O42  1  0.208640  0.775885  0.990512  1
  O  O43  1  0.248508  0.014562  0.524682  1
  O  O44  1  0.291360  0.775885  0.490512  1
  O  O45  1  0.746253  0.998523  0.164384  1
  O  O46  1  0.695931  0.203346  0.833487  1
  O  O47  1  0.753747  0.998523  0.664384  1
  O  O48  1  0.291360  0.275885  0.009488  1
  O  O49  1  0.208640  0.275885  0.509488  1
  O  O50  1  0.748508  0.485438  0.524682  1
  O  O51  1  0.748508  0.985438  0.975318  1
  O  O52  1  0.753747  0.498523  0.835616  1
  O  O53  1  0.791360  0.724115  0.490512  1
  O  O54  1  0.791360  0.224115  0.009488  1
  O  O55  1  0.708640  0.724115  0.990512  1
  O  O56  1  0.746253  0.498523  0.335616  1
  O  O57  1  0.804069  0.703346  0.166513  1
  O  O58  1  0.304069  0.296654  0.333487  1
  O  O59  1  0.253747  0.501477  0.664384  1
  O  O60  1  0.246253  0.501477  0.164384  1
  O  O61  1  0.354360  0.185311  0.674711  1
  O  O62  1  0.246253  0.001477  0.335616  1
  O  O63  1  0.354360  0.685311  0.825289  1
