# generated using pymatgen
data_BiMoO5
_symmetry_space_group_name_H-M   'P 1'
_cell_length_a   5.78666144
_cell_length_b   9.19330990
_cell_length_c   11.38406549
_cell_angle_alpha   89.96221033
_cell_angle_beta   89.98435894
_cell_angle_gamma   107.57730144
_symmetry_Int_Tables_number   1
_chemical_formula_structural   BiMoO5
_chemical_formula_sum   'Bi4 Mo4 O20'
_cell_volume   577.33984840
_cell_formula_units_Z   4
loop_
 _symmetry_equiv_pos_site_id
 _symmetry_equiv_pos_as_xyz
  1  'x, y, z'
loop_
 _atom_site_type_symbol
 _atom_site_label
 _atom_site_symmetry_multiplicity
 _atom_site_fract_x
 _atom_site_fract_y
 _atom_site_fract_z
 _atom_site_occupancy
  Bi  Bi0  1  0.166694  0.166458  0.089000  1
  Bi  Bi1  1  0.833337  0.833537  0.910989  1
  Bi  Bi2  1  0.666072  0.666333  0.410989  1
  Bi  Bi3  1  0.333927  0.333663  0.589012  1
  Mo  Mo4  1  0.785687  0.947649  0.643602  1
  Mo  Mo5  1  0.214302  0.052351  0.356394  1
  Mo  Mo6  1  0.713912  0.552181  0.143433  1
  Mo  Mo7  1  0.286087  0.447822  0.856568  1
  O  O8  1  0.533379  0.368394  0.085716  1
  O  O9  1  0.074545  0.333844  0.965452  1
  O  O10  1  0.526887  0.657141  0.203591  1
  O  O11  1  0.679638  0.512697  0.552863  1
  O  O12  1  0.870681  0.529416  0.273345  1
  O  O13  1  0.370422  0.029207  0.226664  1
  O  O14  1  0.574355  0.833682  0.534393  1
  O  O15  1  0.425639  0.166317  0.465611  1
  O  O16  1  0.320356  0.487301  0.447139  1
  O  O17  1  0.966535  0.131433  0.585845  1
  O  O18  1  0.129315  0.470586  0.726657  1
  O  O19  1  0.466620  0.631611  0.914287  1
  O  O20  1  0.033455  0.868571  0.414157  1
  O  O21  1  0.629576  0.970791  0.773342  1
  O  O22  1  0.821170  0.987488  0.052637  1
  O  O23  1  0.178851  0.012512  0.947350  1
  O  O24  1  0.473107  0.342859  0.796416  1
  O  O25  1  0.925450  0.666154  0.034550  1
  O  O26  1  0.972512  0.842714  0.703996  1
  O  O27  1  0.027489  0.157288  0.296001  1
