# generated using pymatgen
data_TaTiZn(PO4)3
_symmetry_space_group_name_H-M   'P 1'
_cell_length_a   9.34850739
_cell_length_b   9.34850719
_cell_length_c   9.34850700
_cell_angle_alpha   54.22990041
_cell_angle_beta   54.22990235
_cell_angle_gamma   54.22990624
_symmetry_Int_Tables_number   1
_chemical_formula_structural   TaTiZn(PO4)3
_chemical_formula_sum   'Ta2 Ti2 Zn2 P6 O24'
_cell_volume   499.91782424
_cell_formula_units_Z   2
loop_
 _symmetry_equiv_pos_site_id
 _symmetry_equiv_pos_as_xyz
  1  'x, y, z'
loop_
 _atom_site_type_symbol
 _atom_site_label
 _atom_site_symmetry_multiplicity
 _atom_site_fract_x
 _atom_site_fract_y
 _atom_site_fract_z
 _atom_site_occupancy
  Ta  Ta0  1  0.350868  0.350868  0.350868  1
  Ta  Ta1  1  0.850868  0.850868  0.850868  1
  Ti  Ti2  1  0.150902  0.150902  0.150902  1
  Ti  Ti3  1  0.650902  0.650902  0.650902  1
  Zn  Zn4  1  0.003201  0.003201  0.003201  1
  Zn  Zn5  1  0.503201  0.503201  0.503201  1
  P  P6  1  0.027924  0.462020  0.757803  1
  P  P7  1  0.462020  0.757803  0.027924  1
  P  P8  1  0.757803  0.027924  0.462020  1
  P  P9  1  0.257803  0.962020  0.527924  1
  P  P10  1  0.527924  0.257803  0.962020  1
  P  P11  1  0.962020  0.527924  0.257803  1
  O  O12  1  0.142990  0.507605  0.252032  1
  O  O13  1  0.252032  0.142990  0.507605  1
  O  O14  1  0.072315  0.296562  0.933164  1
  O  O15  1  0.507605  0.252032  0.142990  1
  O  O16  1  0.007605  0.642990  0.752032  1
  O  O17  1  0.194734  0.427774  0.572234  1
  O  O18  1  0.296562  0.933164  0.072315  1
  O  O19  1  0.427774  0.572234  0.194734  1
  O  O20  1  0.259748  0.989024  0.349102  1
  O  O21  1  0.572234  0.194734  0.427774  1
  O  O22  1  0.072234  0.927774  0.694734  1
  O  O23  1  0.349102  0.259748  0.989024  1
  O  O24  1  0.642990  0.752032  0.007605  1
  O  O25  1  0.933164  0.072315  0.296562  1
  O  O26  1  0.433164  0.796562  0.572315  1
  O  O27  1  0.752032  0.007605  0.642990  1
  O  O28  1  0.572315  0.433164  0.796562  1
  O  O29  1  0.694734  0.072234  0.927774  1
  O  O30  1  0.796562  0.572315  0.433164  1
  O  O31  1  0.989024  0.349102  0.259748  1
  O  O32  1  0.489024  0.759748  0.849102  1
  O  O33  1  0.927774  0.694734  0.072234  1
  O  O34  1  0.759748  0.849102  0.489024  1
  O  O35  1  0.849102  0.489024  0.759748  1
