# generated using pymatgen
data_Sr2GaW2O7
_symmetry_space_group_name_H-M   'P 1'
_cell_length_a   5.56233430
_cell_length_b   5.71319901
_cell_length_c   12.07442607
_cell_angle_alpha   103.61550049
_cell_angle_beta   103.33279099
_cell_angle_gamma   90.01535191
_symmetry_Int_Tables_number   1
_chemical_formula_structural   Sr2GaW2O7
_chemical_formula_sum   'Sr4 Ga2 W4 O14'
_cell_volume   362.27083454
_cell_formula_units_Z   2
loop_
 _symmetry_equiv_pos_site_id
 _symmetry_equiv_pos_as_xyz
  1  'x, y, z'
loop_
 _atom_site_type_symbol
 _atom_site_label
 _atom_site_symmetry_multiplicity
 _atom_site_fract_x
 _atom_site_fract_y
 _atom_site_fract_z
 _atom_site_occupancy
  Sr  Sr0  1  0.149876  0.173477  0.305143  1
  Sr  Sr1  1  0.846280  0.825698  0.694739  1
  Sr  Sr2  1  0.651548  0.631228  0.305229  1
  Sr  Sr3  1  0.345576  0.368165  0.695145  1
  Ga  Ga4  1  0.208684  0.825318  0.499832  1
  Ga  Ga5  1  0.711225  0.176156  0.500340  1
  W  W6  1  0.440555  0.936933  0.871601  1
  W  W7  1  0.066993  0.565467  0.128921  1
  W  W8  1  0.940824  0.435910  0.875223  1
  W  W9  1  0.565786  0.060419  0.124482  1
  O  O10  1  0.811548  0.312025  0.138522  1
  O  O11  1  0.868582  0.877738  0.500498  1
  O  O12  1  0.325184  0.321378  0.148657  1
  O  O13  1  0.846179  0.373526  0.645838  1
  O  O14  1  0.676450  0.167419  0.840024  1
  O  O15  1  0.174042  0.187461  0.851934  1
  O  O16  1  0.368588  0.119835  0.499718  1
  O  O17  1  0.175499  0.680019  0.851653  1
  O  O18  1  0.689070  0.668175  0.861323  1
  O  O19  1  0.345556  0.778537  0.649055  1
  O  O20  1  0.193959  0.631400  0.350116  1
  O  O21  1  0.703837  0.231266  0.355771  1
  O  O22  1  0.833105  0.829515  0.160051  1
  O  O23  1  0.337801  0.832726  0.149573  1
