# generated using pymatgen
data_MgMn2O4
_symmetry_space_group_name_H-M   'P 1'
_cell_length_a   5.15442499
_cell_length_b   6.02597502
_cell_length_c   10.31650423
_cell_angle_alpha   90.01482246
_cell_angle_beta   90.00842173
_cell_angle_gamma   91.87233498
_symmetry_Int_Tables_number   1
_chemical_formula_structural   MgMn2O4
_chemical_formula_sum   'Mg4 Mn8 O16'
_cell_volume   320.26402959
_cell_formula_units_Z   4
loop_
 _symmetry_equiv_pos_site_id
 _symmetry_equiv_pos_as_xyz
  1  'x, y, z'
loop_
 _atom_site_type_symbol
 _atom_site_label
 _atom_site_symmetry_multiplicity
 _atom_site_fract_x
 _atom_site_fract_y
 _atom_site_fract_z
 _atom_site_occupancy
  Mg  Mg0  1  0.855923  0.246908  0.750002  1
  Mg  Mg1  1  0.144146  0.753183  0.249994  1
  Mg  Mg2  1  0.486037  0.259527  0.250023  1
  Mg  Mg3  1  0.513933  0.740464  0.750074  1
  Mn  Mn4  1  0.511587  0.752343  0.484314  1
  Mn  Mn5  1  0.511193  0.752493  0.015622  1
  Mn  Mn6  1  0.489110  0.247465  0.515252  1
  Mn  Mn7  1  0.488700  0.247561  0.984500  1
  Mn  Mn8  1  -0.000123  0.500273  0.499755  1
  Mn  Mn9  1  0.000052  0.000147  0.000032  1
  Mn  Mn10  1  -0.000067  -0.000461  0.499753  1
  Mn  Mn11  1  0.000012  0.500011  0.000075  1
  O  O12  1  0.857401  0.746409  0.398926  1
  O  O13  1  0.857233  0.746892  0.101229  1
  O  O14  1  0.142600  0.253592  0.601273  1
  O  O15  1  0.142665  0.253255  0.898784  1
  O  O16  1  0.235766  0.748949  0.603809  1
  O  O17  1  0.236031  0.748859  0.896363  1
  O  O18  1  0.763953  0.250957  0.396386  1
  O  O19  1  0.764010  0.251183  0.103721  1
  O  O20  1  0.685521  0.478688  0.617130  1
  O  O21  1  0.690880  0.978783  0.886688  1
  O  O22  1  0.308931  0.021755  0.386877  1
  O  O23  1  0.313993  0.520680  0.116949  1
  O  O24  1  0.314507  0.521136  0.383006  1
  O  O25  1  0.309050  0.021351  0.113212  1
  O  O26  1  0.691005  0.978170  0.613141  1
  O  O27  1  0.685952  0.479428  0.883109  1
