# generated using pymatgen
data_ZnP4W3O14
_symmetry_space_group_name_H-M   'P 1'
_cell_length_a   7.68226071
_cell_length_b   8.22561111
_cell_length_c   10.07702191
_cell_angle_alpha   90.00000000
_cell_angle_beta   110.14664822
_cell_angle_gamma   90.00000000
_symmetry_Int_Tables_number   1
_chemical_formula_structural   ZnP4W3O14
_chemical_formula_sum   'Zn2 P8 W6 O28'
_cell_volume   597.81807570
_cell_formula_units_Z   2
loop_
 _symmetry_equiv_pos_site_id
 _symmetry_equiv_pos_as_xyz
  1  'x, y, z'
loop_
 _atom_site_type_symbol
 _atom_site_label
 _atom_site_symmetry_multiplicity
 _atom_site_fract_x
 _atom_site_fract_y
 _atom_site_fract_z
 _atom_site_occupancy
  Zn  Zn0  1  0.500000  -0.000000  -0.000000  1
  Zn  Zn1  1  0.500000  0.500000  0.500000  1
  P  P2  1  0.594584  0.066381  0.696677  1
  P  P3  1  0.405416  0.566381  0.803323  1
  P  P4  1  0.405416  0.933619  0.303323  1
  P  P5  1  0.594584  0.433619  0.196677  1
  P  P6  1  0.890274  0.807925  0.701634  1
  P  P7  1  0.109726  0.307925  0.798366  1
  P  P8  1  0.109726  0.192075  0.298366  1
  P  P9  1  0.890274  0.692075  0.201634  1
  W  W10  1  0.195166  0.872127  0.531900  1
  W  W11  1  0.804834  0.372127  0.968100  1
  W  W12  1  0.804834  0.127873  0.468100  1
  W  W13  1  0.195166  0.627873  0.031900  1
  W  W14  1  -0.000000  -0.000000  -0.000000  1
  W  W15  1  -0.000000  0.500000  0.500000  1
  O  O16  1  0.869764  0.645160  0.630363  1
  O  O17  1  0.130236  0.145160  0.869637  1
  O  O18  1  0.130236  0.354840  0.369637  1
  O  O19  1  0.869764  0.854840  0.130363  1
  O  O20  1  0.303675  0.661765  0.668675  1
  O  O21  1  0.696325  0.161765  0.831325  1
  O  O22  1  0.696325  0.338235  0.331325  1
  O  O23  1  0.303675  0.838235  0.168675  1
  O  O24  1  0.608580  0.152049  0.566819  1
  O  O25  1  0.391420  0.652049  0.933181  1
  O  O26  1  0.391420  0.847951  0.433181  1
  O  O27  1  0.608580  0.347951  0.066819  1
  O  O28  1  0.702565  0.887208  0.707164  1
  O  O29  1  0.297435  0.387208  0.792836  1
  O  O30  1  0.297435  0.112792  0.292836  1
  O  O31  1  0.702565  0.612792  0.207164  1
  O  O32  1  0.396493  0.477989  0.181372  1
  O  O33  1  0.603507  0.977989  0.318628  1
  O  O34  1  0.603507  0.522011  0.818628  1
  O  O35  1  0.396493  0.022011  0.681372  1
  O  O36  1  0.987350  0.203619  0.138151  1
  O  O37  1  0.012650  0.703619  0.361849  1
  O  O38  1  0.012650  0.796381  0.861849  1
  O  O39  1  0.987350  0.296381  0.638151  1
  O  O40  1  0.965728  0.566266  0.115452  1
  O  O41  1  0.034272  0.066266  0.384548  1
  O  O42  1  0.034272  0.433734  0.884548  1
  O  O43  1  0.965728  0.933734  0.615452  1
