# generated using pymatgen
data_Zn2SbWO6
_symmetry_space_group_name_H-M   'P 1'
_cell_length_a   5.56104327
_cell_length_b   5.44421842
_cell_length_c   8.07537785
_cell_angle_alpha   90.00000000
_cell_angle_beta   90.00000000
_cell_angle_gamma   92.02826025
_symmetry_Int_Tables_number   1
_chemical_formula_structural   Zn2SbWO6
_chemical_formula_sum   'Zn4 Sb2 W2 O12'
_cell_volume   244.33320589
_cell_formula_units_Z   2
loop_
 _symmetry_equiv_pos_site_id
 _symmetry_equiv_pos_as_xyz
  1  'x, y, z'
loop_
 _atom_site_type_symbol
 _atom_site_label
 _atom_site_symmetry_multiplicity
 _atom_site_fract_x
 _atom_site_fract_y
 _atom_site_fract_z
 _atom_site_occupancy
  Zn  Zn0  1  0.475690  0.522083  0.750000  1
  Zn  Zn1  1  0.524310  0.477917  0.250000  1
  Zn  Zn2  1  0.016099  0.018967  0.750000  1
  Zn  Zn3  1  0.983901  0.981033  0.250000  1
  Sb  Sb4  1  0.000000  0.500000  0.500000  1
  Sb  Sb5  1  0.000000  0.500000  0.000000  1
  W  W6  1  0.500000  0.000000  0.500000  1
  W  W7  1  0.500000  0.000000  0.000000  1
  O  O8  1  0.367928  0.684253  0.427357  1
  O  O9  1  0.184293  0.148061  0.072521  1
  O  O10  1  0.632072  0.315747  0.927357  1
  O  O11  1  0.815707  0.851939  0.572521  1
  O  O12  1  0.184293  0.148061  0.427479  1
  O  O13  1  0.815707  0.851939  0.927479  1
  O  O14  1  0.870818  0.619307  0.250000  1
  O  O15  1  0.367928  0.684253  0.072643  1
  O  O16  1  0.377911  0.897928  0.750000  1
  O  O17  1  0.632072  0.315747  0.572643  1
  O  O18  1  0.129182  0.380693  0.750000  1
  O  O19  1  0.622089  0.102072  0.250000  1
