# generated using pymatgen
data_MgMn2O4
_symmetry_space_group_name_H-M   'P 1'
_cell_length_a   3.00560697
_cell_length_b   9.03883999
_cell_length_c   10.48140953
_cell_angle_alpha   89.99686294
_cell_angle_beta   89.99905138
_cell_angle_gamma   89.99987305
_symmetry_Int_Tables_number   1
_chemical_formula_structural   MgMn2O4
_chemical_formula_sum   'Mg4 Mn8 O16'
_cell_volume   284.75055373
_cell_formula_units_Z   4
loop_
 _symmetry_equiv_pos_site_id
 _symmetry_equiv_pos_as_xyz
  1  'x, y, z'
loop_
 _atom_site_type_symbol
 _atom_site_label
 _atom_site_symmetry_multiplicity
 _atom_site_fract_x
 _atom_site_fract_y
 _atom_site_fract_z
 _atom_site_occupancy
  Mg  Mg0  1  0.750011  0.246727  0.345575  1
  Mg  Mg1  1  0.250000  0.753182  0.654402  1
  Mg  Mg2  1  0.749995  0.746791  0.154412  1
  Mg  Mg3  1  0.249979  0.253186  0.845554  1
  Mn  Mn4  1  0.249987  0.417868  0.105623  1
  Mn  Mn5  1  0.749998  0.082139  0.605710  1
  Mn  Mn6  1  0.250005  0.917839  0.394340  1
  Mn  Mn7  1  0.750000  0.582144  0.894290  1
  Mn  Mn8  1  0.750005  0.565684  0.385329  1
  Mn  Mn9  1  0.250019  0.434247  0.614625  1
  Mn  Mn10  1  0.749995  0.065710  0.114641  1
  Mn  Mn11  1  0.249989  0.934290  0.885413  1
  O  O12  1  0.249992  0.901583  0.072177  1
  O  O13  1  0.750000  0.098448  0.927906  1
  O  O14  1  0.250019  0.401524  0.427865  1
  O  O15  1  0.750000  0.598398  0.572098  1
  O  O16  1  0.249994  0.020325  0.717977  1
  O  O17  1  0.749979  0.979929  0.282138  1
  O  O18  1  0.249993  0.520170  0.782050  1
  O  O19  1  0.750038  0.479778  0.217877  1
  O  O20  1  0.250010  0.619679  0.034125  1
  O  O21  1  0.750003  0.380375  0.965831  1
  O  O22  1  0.249983  0.119610  0.465923  1
  O  O23  1  0.749995  0.880331  0.534232  1
  O  O24  1  0.749991  0.780206  0.815874  1
  O  O25  1  0.250011  0.219812  0.184035  1
  O  O26  1  0.249986  0.719776  0.315952  1
  O  O27  1  0.750009  0.280248  0.684025  1
