# generated using pymatgen
data_Ba2CaTl2(CuO3)4
_symmetry_space_group_name_H-M   'P 1'
_cell_length_a   3.68765049
_cell_length_b   3.68765043
_cell_length_c   22.91084846
_cell_angle_alpha   94.61605297
_cell_angle_beta   94.61605358
_cell_angle_gamma   89.99999577
_symmetry_Int_Tables_number   1
_chemical_formula_structural   Ba2CaTl2(CuO3)4
_chemical_formula_sum   'Ba2 Ca1 Tl2 Cu4 O12'
_cell_volume   309.53479897
_cell_formula_units_Z   1
loop_
 _symmetry_equiv_pos_site_id
 _symmetry_equiv_pos_as_xyz
  1  'x, y, z'
loop_
 _atom_site_type_symbol
 _atom_site_label
 _atom_site_symmetry_multiplicity
 _atom_site_fract_x
 _atom_site_fract_y
 _atom_site_fract_z
 _atom_site_occupancy
  Ba  Ba0  1  0.156448  0.156448  0.312895  1
  Ba  Ba1  1  0.843552  0.843552  0.687105  1
  Ca  Ca2  1  0.000000  0.000000  0.000000  1
  Tl  Tl3  1  0.723398  0.723398  0.446794  1
  Tl  Tl4  1  0.276602  0.276602  0.553206  1
  Cu  Cu5  1  0.542880  0.542880  0.085760  1
  Cu  Cu6  1  0.395576  0.395576  0.791152  1
  Cu  Cu7  1  0.604424  0.604424  0.208848  1
  Cu  Cu8  1  0.457120  0.457120  0.914240  1
  O  O9  1  0.386536  0.886536  0.773073  1
  O  O10  1  0.533738  0.033738  0.067477  1
  O  O11  1  0.230109  0.230109  0.460217  1
  O  O12  1  0.966262  0.466262  0.932523  1
  O  O13  1  0.769891  0.769891  0.539783  1
  O  O14  1  0.113464  0.613464  0.226927  1
  O  O15  1  0.613464  0.113464  0.226927  1
  O  O16  1  0.321202  0.321202  0.642403  1
  O  O17  1  0.886536  0.386536  0.773073  1
  O  O18  1  0.033738  0.533738  0.067477  1
  O  O19  1  0.466262  0.966262  0.932523  1
  O  O20  1  0.678798  0.678798  0.357597  1
