# generated using pymatgen
data_CaCu2(As2O7)2
_symmetry_space_group_name_H-M   'P 1'
_cell_length_a   7.11978348
_cell_length_b   8.87230053
_cell_length_c   9.69237282
_cell_angle_alpha   90.00000000
_cell_angle_beta   106.15721979
_cell_angle_gamma   90.00000000
_symmetry_Int_Tables_number   1
_chemical_formula_structural   CaCu2(As2O7)2
_chemical_formula_sum   'Ca2 Cu4 As8 O28'
_cell_volume   588.07307068
_cell_formula_units_Z   2
loop_
 _symmetry_equiv_pos_site_id
 _symmetry_equiv_pos_as_xyz
  1  'x, y, z'
loop_
 _atom_site_type_symbol
 _atom_site_label
 _atom_site_symmetry_multiplicity
 _atom_site_fract_x
 _atom_site_fract_y
 _atom_site_fract_z
 _atom_site_occupancy
  Ca  Ca0  1  0.724439  0.061870  0.040088  1
  Ca  Ca1  1  0.275561  0.561870  0.459912  1
  Cu  Cu2  1  0.779529  0.054460  0.679424  1
  Cu  Cu3  1  0.220471  0.554460  0.820576  1
  Cu  Cu4  1  0.218961  0.946349  0.319235  1
  Cu  Cu5  1  0.781039  0.446349  0.180765  1
  As  As6  1  0.415173  0.240890  0.739141  1
  As  As7  1  0.584827  0.740890  0.760859  1
  As  As8  1  0.579593  0.760145  0.253781  1
  As  As9  1  0.420407  0.260145  0.246219  1
  As  As10  1  0.041638  0.298892  0.968627  1
  As  As11  1  0.958362  0.798892  0.531373  1
  As  As12  1  0.968599  0.701829  0.033138  1
  As  As13  1  0.031401  0.201829  0.466862  1
  O  O14  1  0.851935  0.324022  0.048609  1
  O  O15  1  0.148065  0.824022  0.451391  1
  O  O16  1  0.163069  0.673280  0.963448  1
  O  O17  1  0.836931  0.173280  0.536552  1
  O  O18  1  0.346033  0.429862  0.709663  1
  O  O19  1  0.653967  0.929862  0.790337  1
  O  O20  1  0.633628  0.570650  0.269974  1
  O  O21  1  0.366372  0.070650  0.230026  1
  O  O22  1  0.417517  0.166179  0.897103  1
  O  O23  1  0.582483  0.666179  0.602897  1
  O  O24  1  0.591117  0.851491  0.107635  1
  O  O25  1  0.408883  0.351491  0.392365  1
  O  O26  1  0.250933  0.139359  0.593400  1
  O  O27  1  0.749067  0.639359  0.906600  1
  O  O28  1  0.737987  0.856442  0.406948  1
  O  O29  1  0.262013  0.356442  0.093052  1
  O  O30  1  0.026946  0.085335  0.320500  1
  O  O31  1  0.973054  0.585335  0.179500  1
  O  O32  1  0.965229  0.911934  0.676803  1
  O  O33  1  0.034771  0.411934  0.823197  1
  O  O34  1  0.640873  0.267361  0.203326  1
  O  O35  1  0.359127  0.767361  0.296674  1
  O  O36  1  0.362641  0.726993  0.798042  1
  O  O37  1  0.637359  0.226993  0.701958  1
  O  O38  1  0.018129  0.378405  0.405080  1
  O  O39  1  0.981871  0.878405  0.094920  1
  O  O40  1  0.014648  0.620040  0.581234  1
  O  O41  1  0.985352  0.120040  0.918766  1
