# generated using pymatgen
data_Ti5Zn4(TeO6)3
_symmetry_space_group_name_H-M   'P 1'
_cell_length_a   8.88610573
_cell_length_b   8.88610598
_cell_length_c   10.80906263
_cell_angle_alpha   88.25443573
_cell_angle_beta   88.25443600
_cell_angle_gamma   62.30893435
_symmetry_Int_Tables_number   1
_chemical_formula_structural   Ti5Zn4(TeO6)3
_chemical_formula_sum   'Ti10 Zn8 Te6 O36'
_cell_volume   755.27939993
_cell_formula_units_Z   2
loop_
 _symmetry_equiv_pos_site_id
 _symmetry_equiv_pos_as_xyz
  1  'x, y, z'
loop_
 _atom_site_type_symbol
 _atom_site_label
 _atom_site_symmetry_multiplicity
 _atom_site_fract_x
 _atom_site_fract_y
 _atom_site_fract_z
 _atom_site_occupancy
  Ti  Ti0  1  0.810634  0.506512  0.969377  1
  Ti  Ti1  1  0.114149  0.201540  0.468615  1
  Ti  Ti2  1  0.348791  0.330514  0.303903  1
  Ti  Ti3  1  0.939321  0.740303  0.804079  1
  Ti  Ti4  1  0.669486  0.651209  0.696097  1
  Ti  Ti5  1  0.953907  0.046093  1.000000  1
  Ti  Ti6  1  0.653527  0.346473  0.500000  1
  Ti  Ti7  1  0.259697  0.060680  0.195921  1
  Ti  Ti8  1  0.798460  0.885851  0.531385  1
  Ti  Ti9  1  0.493488  0.189366  0.030623  1
  Zn  Zn10  1  0.861212  0.539900  0.317445  1
  Zn  Zn11  1  0.487577  0.591504  0.203003  1
  Zn  Zn12  1  0.460100  0.138788  0.682555  1
  Zn  Zn13  1  0.408496  0.512423  0.796997  1
  Zn  Zn14  1  0.199499  0.879260  0.703201  1
  Zn  Zn15  1  0.149186  0.253371  0.817647  1
  Zn  Zn16  1  0.746629  0.850814  0.182353  1
  Zn  Zn17  1  0.120740  0.800501  0.296799  1
  Te  Te18  1  0.459485  0.855595  0.942909  1
  Te  Te19  1  0.803814  0.195031  0.249730  1
  Te  Te20  1  0.804969  0.196186  0.750270  1
  Te  Te21  1  0.464764  0.851376  0.443056  1
  Te  Te22  1  0.148624  0.535236  0.556944  1
  Te  Te23  1  0.144405  0.540515  0.057091  1
  O  O24  1  0.403982  0.113107  0.869655  1
  O  O25  1  0.754726  0.455377  0.802119  1
  O  O26  1  0.609640  0.562188  0.568431  1
  O  O27  1  0.712956  0.099503  0.496689  1
  O  O28  1  0.544623  0.245274  0.197881  1
  O  O29  1  0.900497  0.287044  0.503311  1
  O  O30  1  0.342274  0.826785  0.278726  1
  O  O31  1  0.072969  0.074777  0.815995  1
  O  O32  1  0.536431  0.317260  0.684653  1
  O  O33  1  0.098976  0.425164  0.394536  1
  O  O34  1  0.577880  0.622149  0.038652  1
  O  O35  1  0.509087  0.966266  0.105307  1
  O  O36  1  0.854744  0.936110  0.697840  1
  O  O37  1  0.703194  0.760212  0.865686  1
  O  O38  1  0.377851  0.422120  0.961348  1
  O  O39  1  0.266504  0.564603  0.221104  1
  O  O40  1  0.029274  0.770264  0.460504  1
  O  O41  1  0.239788  0.296806  0.134314  1
  O  O42  1  0.437812  0.390360  0.431569  1
  O  O43  1  0.229736  0.970726  0.539495  1
  O  O44  1  0.719827  0.795550  0.369606  1
  O  O45  1  0.905529  0.631150  0.634237  1
  O  O46  1  0.925223  0.927031  0.184005  1
  O  O47  1  0.435397  0.733496  0.778896  1
  O  O48  1  0.998488  0.830189  0.931282  1
  O  O49  1  0.707052  0.105045  0.996215  1
  O  O50  1  0.033734  0.490913  0.894693  1
  O  O51  1  0.173215  0.657726  0.721274  1
  O  O52  1  0.063890  0.145256  0.302160  1
  O  O53  1  0.368850  0.094471  0.365763  1
  O  O54  1  0.204450  0.280173  0.630394  1
  O  O55  1  0.894955  0.292948  0.003785  1
  O  O56  1  0.682740  0.463569  0.315347  1
  O  O57  1  0.574836  0.901024  0.605464  1
  O  O58  1  0.169811  0.001512  0.068718  1
  O  O59  1  0.886893  0.596018  0.130345  1
