# generated using pymatgen
data_Si2BiO6
_symmetry_space_group_name_H-M   'P 1'
_cell_length_a   5.46262554
_cell_length_b   7.00860885
_cell_length_c   7.00860850
_cell_angle_alpha   86.13613272
_cell_angle_beta   75.90364329
_cell_angle_gamma   75.90364335
_symmetry_Int_Tables_number   1
_chemical_formula_structural   Si2BiO6
_chemical_formula_sum   'Si4 Bi2 O12'
_cell_volume   252.40142894
_cell_formula_units_Z   2
loop_
 _symmetry_equiv_pos_site_id
 _symmetry_equiv_pos_as_xyz
  1  'x, y, z'
loop_
 _atom_site_type_symbol
 _atom_site_label
 _atom_site_symmetry_multiplicity
 _atom_site_fract_x
 _atom_site_fract_y
 _atom_site_fract_z
 _atom_site_occupancy
  Si  Si0  1  0.231865  0.221385  0.374726  1
  Si  Si1  1  0.268137  0.625273  0.778613  1
  Si  Si2  1  0.731865  0.374726  0.221385  1
  Si  Si3  1  0.768138  0.778613  0.625273  1
  Bi  Bi4  1  0.250002  0.129266  0.870731  1
  Bi  Bi5  1  0.750002  0.870732  0.129265  1
  O  O6  1  0.464437  0.335803  0.368230  1
  O  O7  1  0.035568  0.631770  0.664193  1
  O  O8  1  0.535569  0.664193  0.631771  1
  O  O9  1  0.964436  0.368231  0.335802  1
  O  O10  1  0.173852  0.107042  0.584075  1
  O  O11  1  0.326138  0.415929  0.892965  1
  O  O12  1  0.826138  0.892966  0.415930  1
  O  O13  1  0.673851  0.584075  0.107043  1
  O  O14  1  0.840053  0.188983  0.061195  1
  O  O15  1  0.659946  0.938800  0.811020  1
  O  O16  1  0.340052  0.061195  0.188984  1
  O  O17  1  0.159947  0.811021  0.938800  1
