# generated using pymatgen
data_Ca(CuN)2
_symmetry_space_group_name_H-M   'P 1'
_cell_length_a   3.59224198
_cell_length_b   3.59447318
_cell_length_c   6.19693941
_cell_angle_alpha   90.00008144
_cell_angle_beta   90.00003983
_cell_angle_gamma   90.00014940
_symmetry_Int_Tables_number   1
_chemical_formula_structural   Ca(CuN)2
_chemical_formula_sum   'Ca1 Cu2 N2'
_cell_volume   80.01622921
_cell_formula_units_Z   1
loop_
 _symmetry_equiv_pos_site_id
 _symmetry_equiv_pos_as_xyz
  1  'x, y, z'
loop_
 _atom_site_type_symbol
 _atom_site_label
 _atom_site_symmetry_multiplicity
 _atom_site_fract_x
 _atom_site_fract_y
 _atom_site_fract_z
 _atom_site_occupancy
  Ca  Ca0  1  1.000000  0.000001  0.249882  1
  Cu  Cu1  1  0.500000  0.500000  0.959693  1
  Cu  Cu2  1  0.500000  0.500000  0.540323  1
  N  N3  1  0.500000  -0.000000  0.508581  1
  N  N4  1  0.000001  0.500000  0.991522  1
