# generated using pymatgen
data_CaLa2TiO6
_symmetry_space_group_name_H-M   'P 1'
_cell_length_a   5.73592231
_cell_length_b   5.73592192
_cell_length_c   5.73592255
_cell_angle_alpha   61.68932575
_cell_angle_beta   61.68932701
_cell_angle_gamma   61.68933012
_symmetry_Int_Tables_number   1
_chemical_formula_structural   CaLa2TiO6
_chemical_formula_sum   'Ca1 La2 Ti1 O6'
_cell_volume   138.49622202
_cell_formula_units_Z   1
loop_
 _symmetry_equiv_pos_site_id
 _symmetry_equiv_pos_as_xyz
  1  'x, y, z'
loop_
 _atom_site_type_symbol
 _atom_site_label
 _atom_site_symmetry_multiplicity
 _atom_site_fract_x
 _atom_site_fract_y
 _atom_site_fract_z
 _atom_site_occupancy
  Ca  Ca0  1  0.500000  0.500000  0.500000  1
  La  La1  1  0.759230  0.759230  0.759230  1
  La  La2  1  0.240770  0.240770  0.240770  1
  Ti  Ti3  1  0.000000  0.000000  0.000000  1
  O  O4  1  0.331694  0.786334  0.129620  1
  O  O5  1  0.786334  0.129620  0.331694  1
  O  O6  1  0.129620  0.331694  0.786334  1
  O  O7  1  0.668306  0.213666  0.870380  1
  O  O8  1  0.870380  0.668306  0.213666  1
  O  O9  1  0.213666  0.870380  0.668306  1
