# generated using pymatgen
data_MgSbO3
_symmetry_space_group_name_H-M   'P 1'
_cell_length_a   5.54997432
_cell_length_b   5.56526233
_cell_length_c   7.95004068
_cell_angle_alpha   90.00000000
_cell_angle_beta   90.00000000
_cell_angle_gamma   88.18962577
_symmetry_Int_Tables_number   1
_chemical_formula_structural   MgSbO3
_chemical_formula_sum   'Mg4 Sb4 O12'
_cell_volume   245.43084105
_cell_formula_units_Z   4
loop_
 _symmetry_equiv_pos_site_id
 _symmetry_equiv_pos_as_xyz
  1  'x, y, z'
loop_
 _atom_site_type_symbol
 _atom_site_label
 _atom_site_symmetry_multiplicity
 _atom_site_fract_x
 _atom_site_fract_y
 _atom_site_fract_z
 _atom_site_occupancy
  Mg  Mg0  1  0.491202  0.533487  0.750000  1
  Mg  Mg1  1  0.508798  0.466513  0.250000  1
  Mg  Mg2  1  0.021124  0.025822  0.750000  1
  Mg  Mg3  1  0.978876  0.974178  0.250000  1
  Sb  Sb4  1  0.500000  0.000000  0.500000  1
  Sb  Sb5  1  0.500000  0.000000  0.000000  1
  Sb  Sb6  1  0.000000  0.500000  0.500000  1
  Sb  Sb7  1  0.000000  0.500000  0.000000  1
  O  O8  1  0.309637  0.648896  0.429738  1
  O  O9  1  0.139008  0.181690  0.068503  1
  O  O10  1  0.690363  0.351104  0.929738  1
  O  O11  1  0.860992  0.818310  0.568503  1
  O  O12  1  0.139008  0.181690  0.431497  1
  O  O13  1  0.860992  0.818310  0.931497  1
  O  O14  1  0.862163  0.597065  0.250000  1
  O  O15  1  0.309637  0.648896  0.070262  1
  O  O16  1  0.361839  0.884466  0.750000  1
  O  O17  1  0.690363  0.351104  0.570262  1
  O  O18  1  0.137837  0.402935  0.750000  1
  O  O19  1  0.638161  0.115534  0.250000  1
