# generated using pymatgen
data_Mn3Al(SiO4)3
_symmetry_space_group_name_H-M   'P 1'
_cell_length_a   10.08462695
_cell_length_b   10.08462725
_cell_length_c   10.08462659
_cell_angle_alpha   109.47122120
_cell_angle_beta   109.47122186
_cell_angle_gamma   109.47122159
_symmetry_Int_Tables_number   1
_chemical_formula_structural   Mn3Al(SiO4)3
_chemical_formula_sum   'Mn12 Al4 Si12 O48'
_cell_volume   789.50994424
_cell_formula_units_Z   4
loop_
 _symmetry_equiv_pos_site_id
 _symmetry_equiv_pos_as_xyz
  1  'x, y, z'
loop_
 _atom_site_type_symbol
 _atom_site_label
 _atom_site_symmetry_multiplicity
 _atom_site_fract_x
 _atom_site_fract_y
 _atom_site_fract_z
 _atom_site_occupancy
  Mn  Mn0  1  0.359418  0.109418  0.250000  1
  Mn  Mn1  1  0.109418  0.250000  0.359418  1
  Mn  Mn2  1  0.390582  0.750000  0.140582  1
  Mn  Mn3  1  0.250000  0.359418  0.109418  1
  Mn  Mn4  1  0.140582  0.390582  0.750000  1
  Mn  Mn5  1  0.750000  0.140582  0.390582  1
  Mn  Mn6  1  0.750000  0.640582  0.890582  1
  Mn  Mn7  1  0.890582  0.750000  0.640582  1
  Mn  Mn8  1  0.640582  0.890582  0.750000  1
  Mn  Mn9  1  0.859418  0.609418  0.250000  1
  Mn  Mn10  1  0.250000  0.859418  0.609418  1
  Mn  Mn11  1  0.609418  0.250000  0.859418  1
  Al  Al12  1  0.500000  0.500000  0.500000  1
  Al  Al13  1  0.500000  0.000000  0.000000  1
  Al  Al14  1  0.000000  0.000000  0.500000  1
  Al  Al15  1  0.000000  0.500000  0.000000  1
  Si  Si16  1  0.121576  0.871576  0.250000  1
  Si  Si17  1  0.378424  0.628424  0.750000  1
  Si  Si18  1  0.628424  0.750000  0.378424  1
  Si  Si19  1  0.250000  0.621576  0.371576  1
  Si  Si20  1  0.750000  0.378424  0.628424  1
  Si  Si21  1  0.878424  0.128424  0.750000  1
  Si  Si22  1  0.128424  0.750000  0.878424  1
  Si  Si23  1  0.621576  0.371576  0.250000  1
  Si  Si24  1  0.371576  0.250000  0.621576  1
  Si  Si25  1  0.750000  0.878424  0.128424  1
  Si  Si26  1  0.871576  0.250000  0.121576  1
  Si  Si27  1  0.250000  0.121576  0.871576  1
  O  O28  1  0.298989  0.482540  0.378033  1
  O  O29  1  0.017460  0.316449  0.895493  1
  O  O30  1  0.121967  0.604507  0.920956  1
  O  O31  1  0.201011  0.579044  0.183551  1
  O  O32  1  0.226166  0.134341  0.028647  1
  O  O33  1  0.579044  0.183551  0.201011  1
  O  O34  1  0.605694  0.197519  0.471353  1
  O  O35  1  0.183551  0.201011  0.579044  1
  O  O36  1  0.894306  0.365659  0.591825  1
  O  O37  1  0.302481  0.908175  0.273834  1
  O  O38  1  0.908175  0.273834  0.302481  1
  O  O39  1  0.028647  0.226166  0.134341  1
  O  O40  1  0.197519  0.471353  0.605694  1
  O  O41  1  0.591825  0.894306  0.365659  1
  O  O42  1  0.134341  0.028647  0.226166  1
  O  O43  1  0.471353  0.605694  0.197519  1
  O  O44  1  0.365659  0.591825  0.894306  1
  O  O45  1  0.895493  0.017460  0.316449  1
  O  O46  1  0.604507  0.920956  0.121967  1
  O  O47  1  0.105694  0.634341  0.408175  1
  O  O48  1  0.920956  0.121967  0.604507  1
  O  O49  1  0.378033  0.298989  0.482540  1
  O  O50  1  0.316449  0.895493  0.017460  1
  O  O51  1  0.273834  0.302481  0.908175  1
  O  O52  1  0.701011  0.517460  0.621967  1
  O  O53  1  0.982540  0.683551  0.104507  1
  O  O54  1  0.878033  0.395493  0.079044  1
  O  O55  1  0.798989  0.420956  0.816449  1
  O  O56  1  0.773834  0.865659  0.971353  1
  O  O57  1  0.420956  0.816449  0.798989  1
  O  O58  1  0.394306  0.802481  0.528647  1
  O  O59  1  0.816449  0.798989  0.420956  1
  O  O60  1  0.726166  0.697519  0.091825  1
  O  O61  1  0.683551  0.104507  0.982540  1
  O  O62  1  0.621967  0.701011  0.517460  1
  O  O63  1  0.517460  0.621967  0.701011  1
  O  O64  1  0.079044  0.878033  0.395493  1
  O  O65  1  0.395493  0.079044  0.878033  1
  O  O66  1  0.104507  0.982540  0.683551  1
  O  O67  1  0.634341  0.408175  0.105694  1
  O  O68  1  0.528647  0.394306  0.802481  1
  O  O69  1  0.865659  0.971353  0.773834  1
  O  O70  1  0.408175  0.105694  0.634341  1
  O  O71  1  0.802481  0.528647  0.394306  1
  O  O72  1  0.971353  0.773834  0.865659  1
  O  O73  1  0.091825  0.726166  0.697519  1
  O  O74  1  0.697519  0.091825  0.726166  1
  O  O75  1  0.482540  0.378033  0.298989  1
