# generated using pymatgen
data_Mg2FeIrO6
_symmetry_space_group_name_H-M   'P 1'
_cell_length_a   5.14318107
_cell_length_b   5.32963783
_cell_length_c   7.59766838
_cell_angle_alpha   90.00000000
_cell_angle_beta   90.39992034
_cell_angle_gamma   90.00000000
_symmetry_Int_Tables_number   1
_chemical_formula_structural   Mg2FeIrO6
_chemical_formula_sum   'Mg4 Fe2 Ir2 O12'
_cell_volume   208.25683652
_cell_formula_units_Z   2
loop_
 _symmetry_equiv_pos_site_id
 _symmetry_equiv_pos_as_xyz
  1  'x, y, z'
loop_
 _atom_site_type_symbol
 _atom_site_label
 _atom_site_symmetry_multiplicity
 _atom_site_fract_x
 _atom_site_fract_y
 _atom_site_fract_z
 _atom_site_occupancy
  Mg  Mg0  1  0.011746  0.939082  0.248111  1
  Mg  Mg1  1  0.488254  0.439082  0.251889  1
  Mg  Mg2  1  0.511746  0.560918  0.748111  1
  Mg  Mg3  1  0.988254  0.060918  0.751889  1
  Fe  Fe4  1  0.000000  0.500000  0.000000  1
  Fe  Fe5  1  0.500000  0.000000  0.500000  1
  Ir  Ir6  1  0.000000  0.500000  0.500000  1
  Ir  Ir7  1  0.500000  0.000000  0.000000  1
  O  O8  1  0.134725  0.430743  0.745395  1
  O  O9  1  0.182489  0.184906  0.070745  1
  O  O10  1  0.176264  0.187545  0.426976  1
  O  O11  1  0.323736  0.687545  0.073024  1
  O  O12  1  0.317511  0.684906  0.429255  1
  O  O13  1  0.365275  0.930743  0.754605  1
  O  O14  1  0.634725  0.069257  0.245395  1
  O  O15  1  0.682489  0.315094  0.570745  1
  O  O16  1  0.676264  0.312455  0.926976  1
  O  O17  1  0.817511  0.815094  0.929255  1
  O  O18  1  0.823736  0.812455  0.573024  1
  O  O19  1  0.865275  0.569257  0.254605  1
