# generated using pymatgen
data_BaMgSbF7
_symmetry_space_group_name_H-M   'P 1'
_cell_length_a   5.82403570
_cell_length_b   9.97286774
_cell_length_c   10.72473204
_cell_angle_alpha   90.00000000
_cell_angle_beta   90.00000000
_cell_angle_gamma   95.23835704
_symmetry_Int_Tables_number   1
_chemical_formula_structural   BaMgSbF7
_chemical_formula_sum   'Ba4 Mg4 Sb4 F28'
_cell_volume   620.31589466
_cell_formula_units_Z   4
loop_
 _symmetry_equiv_pos_site_id
 _symmetry_equiv_pos_as_xyz
  1  'x, y, z'
loop_
 _atom_site_type_symbol
 _atom_site_label
 _atom_site_symmetry_multiplicity
 _atom_site_fract_x
 _atom_site_fract_y
 _atom_site_fract_z
 _atom_site_occupancy
  Ba  Ba0  1  0.263811  0.476390  0.339581  1
  Ba  Ba1  1  0.736189  0.023610  0.839581  1
  Ba  Ba2  1  0.736189  0.523610  0.660419  1
  Ba  Ba3  1  0.263811  0.976390  0.160419  1
  Mg  Mg4  1  0.698062  0.802749  0.366260  1
  Mg  Mg5  1  0.301938  0.697251  0.866260  1
  Mg  Mg6  1  0.698062  0.302749  0.133740  1
  Mg  Mg7  1  0.301938  0.197251  0.633740  1
  Sb  Sb8  1  0.205506  0.844465  0.588543  1
  Sb  Sb9  1  0.794494  0.155535  0.411457  1
  Sb  Sb10  1  0.205506  0.344465  0.911457  1
  Sb  Sb11  1  0.794494  0.655535  0.088543  1
  F  F12  1  0.132635  0.136966  0.476246  1
  F  F13  1  0.421351  0.402395  0.116124  1
  F  F14  1  0.474402  0.769525  0.710754  1
  F  F15  1  0.525598  0.230474  0.289246  1
  F  F16  1  0.888470  0.355631  0.467109  1
  F  F17  1  0.149831  0.524231  0.791800  1
  F  F18  1  0.033894  0.770717  0.751664  1
  F  F19  1  0.111530  0.144369  0.967109  1
  F  F20  1  0.421351  0.902395  0.383876  1
  F  F21  1  0.525598  0.730475  0.210754  1
  F  F22  1  0.132635  0.636966  0.023754  1
  F  F23  1  0.867365  0.863034  0.523754  1
  F  F24  1  0.966106  0.729283  0.251664  1
  F  F25  1  0.404507  0.865466  0.950110  1
  F  F26  1  0.111530  0.644369  0.532891  1
  F  F27  1  0.888470  0.855631  0.032891  1
  F  F28  1  0.966106  0.229283  0.248336  1
  F  F29  1  0.867365  0.363034  0.976246  1
  F  F30  1  0.595493  0.634534  0.450110  1
  F  F31  1  0.578649  0.597605  0.883876  1
  F  F32  1  0.595493  0.134534  0.049890  1
  F  F33  1  0.033894  0.270717  0.748336  1
  F  F34  1  0.404507  0.365466  0.549890  1
  F  F35  1  0.850169  0.975769  0.291800  1
  F  F36  1  0.850169  0.475769  0.208200  1
  F  F37  1  0.149831  0.024231  0.708200  1
  F  F38  1  0.578649  0.097605  0.616124  1
  F  F39  1  0.474402  0.269525  0.789246  1
