# generated using pymatgen
data_MgMn2(CuO4)2
_symmetry_space_group_name_H-M   'P 1'
_cell_length_a   6.42752053
_cell_length_b   8.28316536
_cell_length_c   11.88477467
_cell_angle_alpha   90.00000000
_cell_angle_beta   90.11099796
_cell_angle_gamma   90.00000000
_symmetry_Int_Tables_number   1
_chemical_formula_structural   MgMn2(CuO4)2
_chemical_formula_sum   'Mg4 Mn8 Cu8 O32'
_cell_volume   632.74677647
_cell_formula_units_Z   4
loop_
 _symmetry_equiv_pos_site_id
 _symmetry_equiv_pos_as_xyz
  1  'x, y, z'
loop_
 _atom_site_type_symbol
 _atom_site_label
 _atom_site_symmetry_multiplicity
 _atom_site_fract_x
 _atom_site_fract_y
 _atom_site_fract_z
 _atom_site_occupancy
  Mg  Mg0  1  0.113346  0.165139  0.048529  1
  Mg  Mg1  1  0.886654  0.834861  0.951471  1
  Mg  Mg2  1  0.886654  0.665139  0.451471  1
  Mg  Mg3  1  0.113346  0.334861  0.548529  1
  Mn  Mn4  1  0.098930  0.462268  0.844396  1
  Mn  Mn5  1  0.098930  0.037732  0.344396  1
  Mn  Mn6  1  0.612696  0.089436  0.131442  1
  Mn  Mn7  1  0.901070  0.962268  0.655604  1
  Mn  Mn8  1  0.387304  0.910564  0.868558  1
  Mn  Mn9  1  0.387304  0.589436  0.368558  1
  Mn  Mn10  1  0.612696  0.410564  0.631442  1
  Mn  Mn11  1  0.901070  0.537732  0.155604  1
  Cu  Cu12  1  0.764382  0.175320  0.864212  1
  Cu  Cu13  1  0.386933  0.056504  0.633889  1
  Cu  Cu14  1  0.613067  0.943496  0.366111  1
  Cu  Cu15  1  0.235618  0.824680  0.135788  1
  Cu  Cu16  1  0.764382  0.324680  0.364212  1
  Cu  Cu17  1  0.386933  0.443496  0.133889  1
  Cu  Cu18  1  0.235618  0.675320  0.635788  1
  Cu  Cu19  1  0.613067  0.556504  0.866111  1
  O  O20  1  0.033608  0.229547  0.393574  1
  O  O21  1  0.670930  0.013672  0.593214  1
  O  O22  1  0.189018  0.574181  0.470151  1
  O  O23  1  0.810982  0.074181  0.029849  1
  O  O24  1  0.033608  0.270453  0.893574  1
  O  O25  1  0.966392  0.770453  0.606426  1
  O  O26  1  0.087837  0.103683  0.617204  1
  O  O27  1  0.513148  0.899405  0.140207  1
  O  O28  1  0.513148  0.600595  0.640207  1
  O  O29  1  0.319927  0.869146  0.729088  1
  O  O30  1  0.680073  0.369146  0.770912  1
  O  O31  1  0.486852  0.100595  0.859793  1
  O  O32  1  0.912163  0.896317  0.382796  1
  O  O33  1  0.877243  0.535061  0.298383  1
  O  O34  1  0.419028  0.281544  0.585327  1
  O  O35  1  0.419028  0.218456  0.085327  1
  O  O36  1  0.122757  0.035061  0.201617  1
  O  O37  1  0.486852  0.399405  0.359793  1
  O  O38  1  0.122757  0.464939  0.701617  1
  O  O39  1  0.810982  0.425820  0.529849  1
  O  O40  1  0.670930  0.486328  0.093214  1
  O  O41  1  0.680073  0.130854  0.270912  1
  O  O42  1  0.966392  0.729547  0.106426  1
  O  O43  1  0.087837  0.396317  0.117204  1
  O  O44  1  0.189018  0.925819  0.970151  1
  O  O45  1  0.580972  0.781544  0.914673  1
  O  O46  1  0.329070  0.986328  0.406786  1
  O  O47  1  0.329070  0.513672  0.906786  1
  O  O48  1  0.912163  0.603683  0.882796  1
  O  O49  1  0.580972  0.718456  0.414673  1
  O  O50  1  0.319927  0.630854  0.229088  1
  O  O51  1  0.877243  0.964939  0.798383  1
