# generated using pymatgen
data_Mg2AgSbO6
_symmetry_space_group_name_H-M   'P 1'
_cell_length_a   5.54481441
_cell_length_b   5.62630294
_cell_length_c   7.60189667
_cell_angle_alpha   90.00000000
_cell_angle_beta   90.00000000
_cell_angle_gamma   99.24181068
_symmetry_Int_Tables_number   1
_chemical_formula_structural   Mg2AgSbO6
_chemical_formula_sum   'Mg4 Ag2 Sb2 O12'
_cell_volume   234.07646403
_cell_formula_units_Z   2
loop_
 _symmetry_equiv_pos_site_id
 _symmetry_equiv_pos_as_xyz
  1  'x, y, z'
loop_
 _atom_site_type_symbol
 _atom_site_label
 _atom_site_symmetry_multiplicity
 _atom_site_fract_x
 _atom_site_fract_y
 _atom_site_fract_z
 _atom_site_occupancy
  Mg  Mg0  1  0.520700  0.562921  0.750000  1
  Mg  Mg1  1  0.479300  0.437079  0.250000  1
  Mg  Mg2  1  0.057960  0.021683  0.750000  1
  Mg  Mg3  1  0.942040  0.978317  0.250000  1
  Ag  Ag4  1  0.500000  0.000000  0.500000  1
  Ag  Ag5  1  0.500000  0.000000  0.000000  1
  Sb  Sb6  1  0.000000  0.500000  0.500000  1
  Sb  Sb7  1  0.000000  0.500000  0.000000  1
  O  O8  1  0.346880  0.654192  0.441741  1
  O  O9  1  0.120107  0.208414  0.071664  1
  O  O10  1  0.653120  0.345808  0.941741  1
  O  O11  1  0.879893  0.791586  0.571664  1
  O  O12  1  0.120107  0.208414  0.428336  1
  O  O13  1  0.879893  0.791586  0.928336  1
  O  O14  1  0.876539  0.595028  0.250000  1
  O  O15  1  0.346880  0.654192  0.058259  1
  O  O16  1  0.387103  0.897358  0.750000  1
  O  O17  1  0.653120  0.345808  0.558259  1
  O  O18  1  0.123461  0.404972  0.750000  1
  O  O19  1  0.612897  0.102642  0.250000  1
