# generated using pymatgen
data_Zn(NiO2)2
_symmetry_space_group_name_H-M   'P 1'
_cell_length_a   5.89618624
_cell_length_b   5.90335062
_cell_length_c   23.50044271
_cell_angle_alpha   59.84455000
_cell_angle_beta   60.61260317
_cell_angle_gamma   60.16127298
_symmetry_Int_Tables_number   1
_chemical_formula_structural   Zn(NiO2)2
_chemical_formula_sum   'Zn8 Ni16 O32'
_cell_volume   581.05066527
_cell_formula_units_Z   8
loop_
 _symmetry_equiv_pos_site_id
 _symmetry_equiv_pos_as_xyz
  1  'x, y, z'
loop_
 _atom_site_type_symbol
 _atom_site_label
 _atom_site_symmetry_multiplicity
 _atom_site_fract_x
 _atom_site_fract_y
 _atom_site_fract_z
 _atom_site_occupancy
  Zn  Zn0  1  0.140577  0.122672  0.028516  1
  Zn  Zn1  1  0.998418  0.500646  0.125306  1
  Zn  Zn2  1  0.138369  0.117708  0.281709  1
  Zn  Zn3  1  0.000120  0.500264  0.374952  1
  Zn  Zn4  1  0.999452  0.499562  0.625300  1
  Zn  Zn5  1  0.500252  0.502144  0.499037  1
  Zn  Zn6  1  0.998440  0.501078  0.874826  1
  Zn  Zn7  1  0.500521  0.498262  0.750717  1
  Ni  Ni8  1  0.497482  0.502011  0.125292  1
  Ni  Ni9  1  0.499770  0.501132  0.249725  1
  Ni  Ni10  1  0.498127  -0.000240  0.125440  1
  Ni  Ni11  1  0.129365  0.118557  0.533283  1
  Ni  Ni12  1  0.504376  0.497930  0.373657  1
  Ni  Ni13  1  0.864468  0.881700  0.218550  1
  Ni  Ni14  1  0.132395  0.119853  0.781856  1
  Ni  Ni15  1  0.503094  0.004384  0.373781  1
  Ni  Ni16  1  0.499777  0.500094  0.625218  1
  Ni  Ni17  1  0.871120  0.880550  0.466979  1
  Ni  Ni18  1  0.499577  0.999117  0.625251  1
  Ni  Ni19  1  0.499442  0.996251  0.875745  1
  Ni  Ni20  1  0.499383  0.501269  0.875761  1
  Ni  Ni21  1  0.870566  0.880180  0.717409  1
  Ni  Ni22  1  0.499825  0.498413  0.000861  1
  Ni  Ni23  1  0.863982  0.878908  0.969591  1
  O  O24  1  0.280947  0.257570  0.062881  1
  O  O25  1  0.278637  0.253075  0.178654  1
  O  O26  1  0.282444  0.710029  0.062769  1
  O  O27  1  0.727964  0.263161  0.061988  1
  O  O28  1  0.262713  0.742837  0.185493  1
  O  O29  1  0.285459  0.253274  0.314247  1
  O  O30  1  0.710958  0.290678  0.188033  1
  O  O31  1  0.278841  0.254375  0.431115  1
  O  O32  1  0.285220  0.705364  0.313253  1
  O  O33  1  0.718763  0.748215  0.071296  1
  O  O34  1  0.729130  0.254063  0.316195  1
  O  O35  1  0.720649  0.743365  0.187294  1
  O  O36  1  0.270827  0.243092  0.567766  1
  O  O37  1  0.270261  0.753265  0.428760  1
  O  O38  1  0.729761  0.281395  0.432340  1
  O  O39  1  0.270232  0.246065  0.684015  1
  O  O40  1  0.269168  0.715410  0.567785  1
  O  O41  1  0.724143  0.745609  0.319113  1
  O  O42  1  0.723627  0.245913  0.570614  1
  O  O43  1  0.728243  0.762914  0.431391  1
  O  O44  1  0.277459  0.753009  0.679380  1
  O  O45  1  0.265095  0.241414  0.816136  1
  O  O46  1  0.731072  0.283890  0.682008  1
  O  O47  1  0.284628  0.255207  0.926149  1
  O  O48  1  0.265223  0.728870  0.816150  1
  O  O49  1  0.723255  0.756385  0.566759  1
  O  O50  1  0.750783  0.243285  0.815713  1
  O  O51  1  0.730444  0.757801  0.681889  1
  O  O52  1  0.269745  0.731320  0.941809  1
  O  O53  1  0.715549  0.285239  0.939261  1
  O  O54  1  0.714095  0.749477  0.821753  1
  O  O55  1  0.715768  0.741988  0.939225  1
