# generated using pymatgen
data_BaTaCuO5
_symmetry_space_group_name_H-M   'P 1'
_cell_length_a   3.80524397
_cell_length_b   3.80542511
_cell_length_c   9.17285413
_cell_angle_alpha   90.00008556
_cell_angle_beta   90.00002135
_cell_angle_gamma   90.00008763
_symmetry_Int_Tables_number   1
_chemical_formula_structural   BaTaCuO5
_chemical_formula_sum   'Ba1 Ta1 Cu1 O5'
_cell_volume   132.82816507
_cell_formula_units_Z   1
loop_
 _symmetry_equiv_pos_site_id
 _symmetry_equiv_pos_as_xyz
  1  'x, y, z'
loop_
 _atom_site_type_symbol
 _atom_site_label
 _atom_site_symmetry_multiplicity
 _atom_site_fract_x
 _atom_site_fract_y
 _atom_site_fract_z
 _atom_site_occupancy
  Ba  Ba0  1  0.999999  0.999999  0.029303  1
  Ta  Ta1  1  0.499999  0.500001  0.708395  1
  Cu  Cu2  1  0.500000  0.500002  0.275306  1
  O  O3  1  0.999999  0.500000  0.663610  1
  O  O4  1  0.499999  0.999998  0.663649  1
  O  O5  1  1.000000  0.499998  0.235675  1
  O  O6  1  0.500000  1.000000  0.235682  1
  O  O7  1  0.499999  0.499998  0.912296  1
