# generated using pymatgen
data_BaYCuNiO5
_symmetry_space_group_name_H-M   'P 1'
_cell_length_a   3.88584404
_cell_length_b   3.88585215
_cell_length_c   7.55479595
_cell_angle_alpha   90.00011432
_cell_angle_beta   89.99997763
_cell_angle_gamma   90.00002521
_symmetry_Int_Tables_number   1
_chemical_formula_structural   BaYCuNiO5
_chemical_formula_sum   'Ba1 Y1 Cu1 Ni1 O5'
_cell_volume   114.07602436
_cell_formula_units_Z   1
loop_
 _symmetry_equiv_pos_site_id
 _symmetry_equiv_pos_as_xyz
  1  'x, y, z'
loop_
 _atom_site_type_symbol
 _atom_site_label
 _atom_site_symmetry_multiplicity
 _atom_site_fract_x
 _atom_site_fract_y
 _atom_site_fract_z
 _atom_site_occupancy
  Ba  Ba0  1  0.999999  0.000000  0.965886  1
  Y  Y1  1  0.000001  0.999999  0.467883  1
  Cu  Cu2  1  0.499997  0.500000  0.231838  1
  Ni  Ni3  1  0.500000  0.500001  0.701192  1
  O  O4  1  0.000000  0.500001  0.651438  1
  O  O5  1  0.500000  0.000001  0.651438  1
  O  O6  1  0.999996  0.499999  0.277881  1
  O  O7  1  0.500000  0.000000  0.277880  1
  O  O8  1  0.500001  0.499993  0.962480  1
