# generated using pymatgen
data_Ca2Mn2(SiO4)3
_symmetry_space_group_name_H-M   'P 1'
_cell_length_a   10.36532814
_cell_length_b   10.36532838
_cell_length_c   10.36532817
_cell_angle_alpha   110.07507627
_cell_angle_beta   109.17014183
_cell_angle_gamma   109.17014018
_symmetry_Int_Tables_number   1
_chemical_formula_structural   Ca2Mn2(SiO4)3
_chemical_formula_sum   'Ca8 Mn8 Si12 O48'
_cell_volume   857.21752610
_cell_formula_units_Z   4
loop_
 _symmetry_equiv_pos_site_id
 _symmetry_equiv_pos_as_xyz
  1  'x, y, z'
loop_
 _atom_site_type_symbol
 _atom_site_label
 _atom_site_symmetry_multiplicity
 _atom_site_fract_x
 _atom_site_fract_y
 _atom_site_fract_z
 _atom_site_occupancy
  Ca  Ca0  1  0.879182  0.629181  0.250001  1
  Ca  Ca1  1  0.620819  0.870819  0.750000  1
  Ca  Ca2  1  0.879181  0.750000  0.629180  1
  Ca  Ca3  1  0.620819  0.249999  0.870819  1
  Ca  Ca4  1  0.120818  0.370819  0.750000  1
  Ca  Ca5  1  0.379182  0.129181  0.250000  1
  Ca  Ca6  1  0.120819  0.249999  0.370818  1
  Ca  Ca7  1  0.379181  0.750000  0.129181  1
  Mn  Mn8  1  0.500000  0.500000  0.500000  1
  Mn  Mn9  1  0.500000  0.500000  0.000000  1
  Mn  Mn10  1  0.500000  0.000000  0.500000  1
  Mn  Mn11  1  0.500000  0.000000  0.000000  1
  Mn  Mn12  1  0.000000  0.000000  0.500000  1
  Mn  Mn13  1  0.000000  0.500000  0.000000  1
  Mn  Mn14  1  0.000000  0.000000  0.000000  1
  Mn  Mn15  1  0.000000  0.500000  0.500000  1
  Si  Si16  1  0.250001  0.125000  0.875000  1
  Si  Si17  1  0.625442  0.750000  0.375442  1
  Si  Si18  1  0.250000  0.625000  0.375000  1
  Si  Si19  1  0.374559  0.624558  0.750000  1
  Si  Si20  1  0.750000  0.375000  0.625000  1
  Si  Si21  1  0.874558  0.124558  0.750000  1
  Si  Si22  1  0.125442  0.875442  0.250000  1
  Si  Si23  1  0.125442  0.750000  0.875442  1
  Si  Si24  1  0.625442  0.375442  0.250000  1
  Si  Si25  1  0.374558  0.249999  0.624558  1
  Si  Si26  1  0.750000  0.875000  0.125000  1
  Si  Si27  1  0.874557  0.249999  0.124558  1
  O  O28  1  0.696082  0.690978  0.088795  1
  O  O29  1  0.688981  0.107322  0.990597  1
  O  O30  1  0.616724  0.698382  0.509402  1
  O  O31  1  0.502299  0.611282  0.693585  1
  O  O32  1  0.082304  0.888718  0.391017  1
  O  O33  1  0.397818  0.088795  0.892712  1
  O  O34  1  0.102182  0.994896  0.690978  1
  O  O35  1  0.616724  0.418341  0.107322  1
  O  O36  1  0.502299  0.391017  0.808715  1
  O  O37  1  0.883276  0.990598  0.801618  1
  O  O38  1  0.417697  0.108983  0.611283  1
  O  O39  1  0.811019  0.509403  0.392678  1
  O  O40  1  0.997700  0.806415  0.888718  1
  O  O41  1  0.082304  0.693585  0.691285  1
  O  O42  1  0.688980  0.081659  0.698382  1
  O  O43  1  0.102182  0.607287  0.411205  1
  O  O44  1  0.811019  0.801618  0.418341  1
  O  O45  1  0.397818  0.809023  0.505105  1
  O  O46  1  0.417697  0.808716  0.806415  1
  O  O47  1  0.803917  0.892713  0.994895  1
  O  O48  1  0.303918  0.494895  0.392713  1
  O  O49  1  0.883276  0.392678  0.081659  1
  O  O50  1  0.997700  0.691285  0.108982  1
  O  O51  1  0.696082  0.505105  0.607287  1
  O  O52  1  0.303918  0.309023  0.911205  1
  O  O53  1  0.311019  0.892678  0.009402  1
  O  O54  1  0.383276  0.301618  0.490597  1
  O  O55  1  0.497701  0.388718  0.306415  1
  O  O56  1  0.917697  0.111283  0.608983  1
  O  O57  1  0.602181  0.911204  0.107286  1
  O  O58  1  0.897818  0.005105  0.309022  1
  O  O59  1  0.383276  0.581659  0.892678  1
  O  O60  1  0.497701  0.608983  0.191285  1
  O  O61  1  0.116724  0.009403  0.198382  1
  O  O62  1  0.582303  0.891017  0.388718  1
  O  O63  1  0.188981  0.490597  0.607321  1
  O  O64  1  0.002300  0.193585  0.111283  1
  O  O65  1  0.917697  0.306415  0.308716  1
  O  O66  1  0.311019  0.918340  0.301618  1
  O  O67  1  0.897818  0.392713  0.588795  1
  O  O68  1  0.188981  0.198382  0.581659  1
  O  O69  1  0.602182  0.190978  0.494896  1
  O  O70  1  0.582303  0.191285  0.193585  1
  O  O71  1  0.196083  0.107288  0.005105  1
  O  O72  1  0.196082  0.588795  0.190978  1
  O  O73  1  0.116724  0.607322  0.918341  1
  O  O74  1  0.002300  0.308716  0.891018  1
  O  O75  1  0.803918  0.411205  0.809022  1
