# generated using pymatgen
data_Ca2Nb2WO8
_symmetry_space_group_name_H-M   'P 1'
_cell_length_a   5.62716488
_cell_length_b   6.33108631
_cell_length_c   10.11244939
_cell_angle_alpha   108.51529703
_cell_angle_beta   92.60326819
_cell_angle_gamma   89.60707891
_symmetry_Int_Tables_number   1
_chemical_formula_structural   Ca2Nb2WO8
_chemical_formula_sum   'Ca4 Nb4 W2 O16'
_cell_volume   341.25554898
_cell_formula_units_Z   2
loop_
 _symmetry_equiv_pos_site_id
 _symmetry_equiv_pos_as_xyz
  1  'x, y, z'
loop_
 _atom_site_type_symbol
 _atom_site_label
 _atom_site_symmetry_multiplicity
 _atom_site_fract_x
 _atom_site_fract_y
 _atom_site_fract_z
 _atom_site_occupancy
  Ca  Ca0  1  0.765683  0.471539  0.584466  1
  Ca  Ca1  1  0.731618  0.882387  0.408240  1
  Ca  Ca2  1  0.234984  0.521191  0.408080  1
  Ca  Ca3  1  0.263465  0.108815  0.589457  1
  Nb  Nb4  1  0.763561  0.247451  0.225907  1
  Nb  Nb5  1  0.738131  0.029671  0.772270  1
  Nb  Nb6  1  0.240351  0.739145  0.771172  1
  Nb  Nb7  1  0.249193  0.971526  0.230727  1
  W  W8  1  0.751709  0.633598  0.999327  1
  W  W9  1  0.254714  0.366841  0.001251  1
  O  O10  1  0.102999  0.220609  0.145745  1
  O  O11  1  0.407542  0.064877  0.860453  1
  O  O12  1  0.909092  0.799526  0.863084  1
  O  O13  1  0.596268  0.937747  0.139943  1
  O  O14  1  0.601404  0.420287  0.112142  1
  O  O15  1  0.909822  0.310833  0.888399  1
  O  O16  1  0.408299  0.574151  0.887252  1
  O  O17  1  0.095111  0.689876  0.113229  1
  O  O18  1  0.488386  0.237160  0.355533  1
  O  O19  1  0.013605  0.881400  0.645917  1
  O  O20  1  0.336302  0.838808  0.376682  1
  O  O21  1  0.166638  0.464242  0.624392  1
  O  O22  1  0.664197  0.156702  0.624835  1
  O  O23  1  0.836416  0.530356  0.374366  1
  O  O24  1  0.989909  0.122179  0.365251  1
  O  O25  1  0.513640  0.759788  0.643708  1
