# generated using pymatgen
data_Ba3Y5(CoO5)3
_symmetry_space_group_name_H-M   'P 1'
_cell_length_a   17.18118069
_cell_length_b   7.15005260
_cell_length_c   12.01964231
_cell_angle_alpha   90.00000000
_cell_angle_beta   90.00000000
_cell_angle_gamma   90.01444932
_symmetry_Int_Tables_number   1
_chemical_formula_structural   Ba3Y5(CoO5)3
_chemical_formula_sum   'Ba12 Y20 Co12 O60'
_cell_volume   1476.56908693
_cell_formula_units_Z   4
loop_
 _symmetry_equiv_pos_site_id
 _symmetry_equiv_pos_as_xyz
  1  'x, y, z'
loop_
 _atom_site_type_symbol
 _atom_site_label
 _atom_site_symmetry_multiplicity
 _atom_site_fract_x
 _atom_site_fract_y
 _atom_site_fract_z
 _atom_site_occupancy
  Ba  Ba0  1  0.083335  0.957412  0.892759  1
  Ba  Ba1  1  0.419089  0.913457  0.892227  1
  Ba  Ba2  1  0.747161  0.919784  0.896742  1
  Ba  Ba3  1  0.252839  0.080216  0.103258  1
  Ba  Ba4  1  0.580911  0.086543  0.107773  1
  Ba  Ba5  1  0.916665  0.042588  0.107241  1
  Ba  Ba6  1  0.247161  0.419784  0.603258  1
  Ba  Ba7  1  0.583335  0.457412  0.607241  1
  Ba  Ba8  1  0.919089  0.413457  0.607773  1
  Ba  Ba9  1  0.080911  0.586543  0.392227  1
  Ba  Ba10  1  0.416665  0.542588  0.392759  1
  Ba  Ba11  1  0.752839  0.580216  0.396742  1
  Y  Y12  1  0.083791  0.122871  0.294766  1
  Y  Y13  1  0.750341  0.118112  0.293922  1
  Y  Y14  1  0.249659  0.881888  0.706078  1
  Y  Y15  1  0.916209  0.877129  0.705234  1
  Y  Y16  1  0.250341  0.618112  0.206078  1
  Y  Y17  1  0.583791  0.622871  0.205234  1
  Y  Y18  1  0.416209  0.377129  0.794766  1
  Y  Y19  1  0.749659  0.381888  0.793922  1
  Y  Y20  1  0.078701  0.390479  0.064454  1
  Y  Y21  1  0.417787  0.399308  0.086703  1
  Y  Y22  1  0.754358  0.397657  0.076329  1
  Y  Y23  1  0.245642  0.602343  0.923671  1
  Y  Y24  1  0.582213  0.600692  0.913297  1
  Y  Y25  1  0.921299  0.609521  0.935546  1
  Y  Y26  1  0.254358  0.897657  0.423671  1
  Y  Y27  1  0.578701  0.890479  0.435546  1
  Y  Y28  1  0.917787  0.899308  0.413297  1
  Y  Y29  1  0.082213  0.100692  0.586703  1
  Y  Y30  1  0.421299  0.109521  0.564454  1
  Y  Y31  1  0.745642  0.102343  0.576329  1
  Co  Co32  1  0.082429  0.653956  0.667014  1
  Co  Co33  1  0.417345  0.699491  0.652839  1
  Co  Co34  1  0.749037  0.699495  0.653928  1
  Co  Co35  1  0.250963  0.300505  0.346072  1
  Co  Co36  1  0.582655  0.300509  0.347161  1
  Co  Co37  1  0.917571  0.346044  0.332986  1
  Co  Co38  1  0.249037  0.199495  0.846072  1
  Co  Co39  1  0.582429  0.153956  0.832986  1
  Co  Co40  1  0.917345  0.199491  0.847161  1
  Co  Co41  1  0.082655  0.800509  0.152839  1
  Co  Co42  1  0.417571  0.846044  0.167014  1
  Co  Co43  1  0.750963  0.800505  0.153928  1
  O  O44  1  0.322089  0.182774  0.443190  1
  O  O45  1  0.659839  0.169361  0.431884  1
  O  O46  1  0.997156  0.170161  0.436472  1
  O  O47  1  0.163417  0.835532  0.564081  1
  O  O48  1  0.488303  0.815485  0.557613  1
  O  O49  1  0.826984  0.825705  0.566278  1
  O  O50  1  0.011697  0.684515  0.057613  1
  O  O51  1  0.336583  0.664468  0.064081  1
  O  O52  1  0.673016  0.674295  0.066278  1
  O  O53  1  0.177911  0.317226  0.943190  1
  O  O54  1  0.502844  0.329839  0.936472  1
  O  O55  1  0.840161  0.330639  0.931884  1
  O  O56  1  0.002844  0.829839  0.563528  1
  O  O57  1  0.340161  0.830639  0.568116  1
  O  O58  1  0.677911  0.817226  0.556810  1
  O  O59  1  0.173016  0.174295  0.433722  1
  O  O60  1  0.511697  0.184515  0.442387  1
  O  O61  1  0.836583  0.164468  0.435919  1
  O  O62  1  0.326984  0.325705  0.933722  1
  O  O63  1  0.663417  0.335532  0.935919  1
  O  O64  1  0.988303  0.315485  0.942387  1
  O  O65  1  0.159839  0.669361  0.068116  1
  O  O66  1  0.497156  0.670161  0.063528  1
  O  O67  1  0.822089  0.682774  0.056810  1
  O  O68  1  0.170759  0.354658  0.232756  1
  O  O69  1  0.508081  0.365433  0.228671  1
  O  O70  1  0.833246  0.335383  0.225950  1
  O  O71  1  0.997994  0.661597  0.774883  1
  O  O72  1  0.335625  0.642567  0.768320  1
  O  O73  1  0.673894  0.635331  0.771473  1
  O  O74  1  0.164375  0.857433  0.268320  1
  O  O75  1  0.502006  0.838403  0.274883  1
  O  O76  1  0.826106  0.864669  0.271473  1
  O  O77  1  0.329241  0.145342  0.732756  1
  O  O78  1  0.666754  0.164617  0.725950  1
  O  O79  1  0.991919  0.134567  0.728671  1
  O  O80  1  0.166754  0.664617  0.774050  1
  O  O81  1  0.491919  0.634567  0.771329  1
  O  O82  1  0.829241  0.645342  0.767244  1
  O  O83  1  0.326106  0.364669  0.228527  1
  O  O84  1  0.664375  0.357433  0.231680  1
  O  O85  1  0.002006  0.338403  0.225117  1
  O  O86  1  0.173894  0.135331  0.728527  1
  O  O87  1  0.497994  0.161597  0.725117  1
  O  O88  1  0.835625  0.142567  0.731680  1
  O  O89  1  0.008081  0.865433  0.271329  1
  O  O90  1  0.333246  0.835383  0.274050  1
  O  O91  1  0.670759  0.854658  0.267244  1
  O  O92  1  0.086936  0.068234  0.102134  1
  O  O93  1  0.416856  0.063116  0.093643  1
  O  O94  1  0.747446  0.070039  0.100158  1
  O  O95  1  0.252554  0.929961  0.899842  1
  O  O96  1  0.583144  0.936884  0.906357  1
  O  O97  1  0.913064  0.931766  0.897866  1
  O  O98  1  0.247446  0.570039  0.399842  1
  O  O99  1  0.586936  0.568234  0.397866  1
  O  O100  1  0.916856  0.563116  0.406357  1
  O  O101  1  0.083144  0.436884  0.593643  1
  O  O102  1  0.413064  0.431766  0.602134  1
  O  O103  1  0.752554  0.429961  0.600158  1
