# generated using pymatgen
data_CuMo2O7
_symmetry_space_group_name_H-M   'P 1'
_cell_length_a   9.24932978
_cell_length_b   11.63593273
_cell_length_c   10.62077674
_cell_angle_alpha   92.99754615
_cell_angle_beta   90.00000000
_cell_angle_gamma   90.00000000
_symmetry_Int_Tables_number   1
_chemical_formula_structural   CuMo2O7
_chemical_formula_sum   'Cu6 Mo12 O42'
_cell_volume   1141.49266785
_cell_formula_units_Z   6
loop_
 _symmetry_equiv_pos_site_id
 _symmetry_equiv_pos_as_xyz
  1  'x, y, z'
loop_
 _atom_site_type_symbol
 _atom_site_label
 _atom_site_symmetry_multiplicity
 _atom_site_fract_x
 _atom_site_fract_y
 _atom_site_fract_z
 _atom_site_occupancy
  Cu  Cu0  1  0.932839  0.805804  0.411703  1
  Cu  Cu1  1  0.067161  0.194196  0.588297  1
  Cu  Cu2  1  0.431648  0.500000  0.250000  1
  Cu  Cu3  1  0.932839  0.194196  0.088297  1
  Cu  Cu4  1  0.568352  0.500000  0.750000  1
  Cu  Cu5  1  0.067161  0.805804  0.911703  1
  Mo  Mo6  1  0.207179  0.159244  0.291724  1
  Mo  Mo7  1  0.752365  0.167809  0.379982  1
  Mo  Mo8  1  0.247635  0.167809  0.879982  1
  Mo  Mo9  1  0.792821  0.159244  0.791724  1
  Mo  Mo10  1  0.294184  0.468967  0.960137  1
  Mo  Mo11  1  0.752365  0.832191  0.120018  1
  Mo  Mo12  1  0.705816  0.468967  0.460137  1
  Mo  Mo13  1  0.247635  0.832191  0.620018  1
  Mo  Mo14  1  0.294184  0.531033  0.539863  1
  Mo  Mo15  1  0.705816  0.531033  0.039863  1
  Mo  Mo16  1  0.792821  0.840756  0.708276  1
  Mo  Mo17  1  0.207179  0.840756  0.208276  1
  O  O18  1  0.789939  0.194289  0.958620  1
  O  O19  1  0.789736  0.834130  0.285807  1
  O  O20  1  0.829664  -0.000000  0.750000  1
  O  O21  1  0.872550  0.503110  0.102241  1
  O  O22  1  0.359353  0.945104  0.590238  1
  O  O23  1  0.928615  0.241113  0.714613  1
  O  O24  1  0.336668  0.309547  0.936667  1
  O  O25  1  0.127450  0.503110  0.602241  1
  O  O26  1  0.712688  0.485642  0.875386  1
  O  O27  1  0.359353  0.054896  0.909762  1
  O  O28  1  0.712688  0.514358  0.624614  1
  O  O29  1  0.429501  0.547324  0.875862  1
  O  O30  1  0.917525  0.848096  0.032616  1
  O  O31  1  0.071385  0.241113  0.214613  1
  O  O32  1  0.663332  0.690453  0.063333  1
  O  O33  1  0.336668  0.690453  0.563333  1
  O  O34  1  0.928615  0.758887  0.785387  1
  O  O35  1  0.640647  0.054896  0.409762  1
  O  O36  1  0.210061  0.194289  0.458620  1
  O  O37  1  0.570499  0.452676  0.124138  1
  O  O38  1  0.372808  0.802391  0.266548  1
  O  O39  1  0.287312  0.514358  0.124614  1
  O  O40  1  0.082475  0.848096  0.532616  1
  O  O41  1  0.287312  0.485642  0.375386  1
  O  O42  1  0.872550  0.496890  0.397759  1
  O  O43  1  0.570499  0.547324  0.375862  1
  O  O44  1  0.127450  0.496890  0.897759  1
  O  O45  1  0.627192  0.802391  0.766548  1
  O  O46  1  0.627192  0.197609  0.733452  1
  O  O47  1  0.082475  0.151904  0.967384  1
  O  O48  1  0.071385  0.758887  0.285387  1
  O  O49  1  0.789939  0.805711  0.541380  1
  O  O50  1  0.170336  -0.000000  0.250000  1
  O  O51  1  0.210264  0.834130  0.785807  1
  O  O52  1  0.640647  0.945104  0.090238  1
  O  O53  1  0.917525  0.151904  0.467384  1
  O  O54  1  0.210061  0.805711  0.041380  1
  O  O55  1  0.789736  0.165870  0.214193  1
  O  O56  1  0.429501  0.452676  0.624138  1
  O  O57  1  0.663332  0.309547  0.436666  1
  O  O58  1  0.210264  0.165870  0.714193  1
  O  O59  1  0.372808  0.197609  0.233452  1
