# generated using pymatgen
data_Ba2Mg2Tl2Fe3O10
_symmetry_space_group_name_H-M   'P 1'
_cell_length_a   3.96555145
_cell_length_b   3.92778306
_cell_length_c   18.03748009
_cell_angle_alpha   95.35541295
_cell_angle_beta   95.89916694
_cell_angle_gamma   90.70756098
_symmetry_Int_Tables_number   1
_chemical_formula_structural   Ba2Mg2Tl2Fe3O10
_chemical_formula_sum   'Ba2 Mg2 Tl2 Fe3 O10'
_cell_volume   278.17266111
_cell_formula_units_Z   1
loop_
 _symmetry_equiv_pos_site_id
 _symmetry_equiv_pos_as_xyz
  1  'x, y, z'
loop_
 _atom_site_type_symbol
 _atom_site_label
 _atom_site_symmetry_multiplicity
 _atom_site_fract_x
 _atom_site_fract_y
 _atom_site_fract_z
 _atom_site_occupancy
  Ba  Ba0  1  0.109224  0.151395  0.280934  1
  Ba  Ba1  1  0.810546  0.821474  0.717284  1
  Mg  Mg2  1  0.895412  0.913882  0.908837  1
  Mg  Mg3  1  0.998711  0.044145  0.087976  1
  Tl  Tl4  1  0.616357  0.719865  0.435364  1
  Tl  Tl5  1  0.174981  0.270231  0.563147  1
  Fe  Fe6  1  0.378583  0.364431  0.840094  1
  Fe  Fe7  1  0.563707  0.590438  0.160193  1
  Fe  Fe8  1  0.355168  0.565743  0.000119  1
  O  O9  1  0.388976  0.862049  0.839150  1
  O  O10  1  0.301092  0.312488  0.682541  1
  O  O11  1  0.881948  0.358235  0.843856  1
  O  O12  1  0.837452  0.763206  0.553257  1
  O  O13  1  0.841400  0.629248  0.003627  1
  O  O14  1  0.069088  0.596118  0.162777  1
  O  O15  1  0.630231  0.668517  0.316022  1
  O  O16  1  0.575981  0.088864  0.153974  1
  O  O17  1  0.288805  0.221443  0.445883  1
  O  O18  1  0.283427  0.076191  0.995927  1
