# generated using pymatgen
data_Be3Fe2(SiO4)3
_symmetry_space_group_name_H-M   'P 1'
_cell_length_a   7.48637526
_cell_length_b   8.03534072
_cell_length_c   13.83160762
_cell_angle_alpha   89.75118453
_cell_angle_beta   90.00000000
_cell_angle_gamma   90.00000000
_symmetry_Int_Tables_number   1
_chemical_formula_structural   Be3Fe2(SiO4)3
_chemical_formula_sum   'Be12 Fe8 Si12 O48'
_cell_volume   832.04047788
_cell_formula_units_Z   4
loop_
 _symmetry_equiv_pos_site_id
 _symmetry_equiv_pos_as_xyz
  1  'x, y, z'
loop_
 _atom_site_type_symbol
 _atom_site_label
 _atom_site_symmetry_multiplicity
 _atom_site_fract_x
 _atom_site_fract_y
 _atom_site_fract_z
 _atom_site_occupancy
  Be  Be0  1  0.838998  0.924490  0.768039  1
  Be  Be1  1  0.660239  0.934455  0.402638  1
  Be  Be2  1  0.160240  0.565545  0.097362  1
  Be  Be3  1  0.339760  0.065544  0.597362  1
  Be  Be4  1  0.839760  0.434455  0.902638  1
  Be  Be5  1  0.156409  0.610625  0.416745  1
  Be  Be6  1  0.656409  0.889375  0.083255  1
  Be  Be7  1  0.843591  0.389374  0.583255  1
  Be  Be8  1  0.343590  0.110625  0.916745  1
  Be  Be9  1  0.661002  0.424490  0.268039  1
  Be  Be10  1  0.161002  0.075509  0.231961  1
  Be  Be11  1  0.338999  0.575510  0.731961  1
  Fe  Fe12  1  0.465962  0.252008  0.093325  1
  Fe  Fe13  1  0.034038  0.752009  0.593325  1
  Fe  Fe14  1  0.534039  0.747992  0.906675  1
  Fe  Fe15  1  0.965962  0.247991  0.406675  1
  Fe  Fe16  1  0.549840  0.254077  0.432220  1
  Fe  Fe17  1  0.049841  0.245922  0.067780  1
  Fe  Fe18  1  0.450160  0.745923  0.567780  1
  Fe  Fe19  1  0.950159  0.754078  0.932220  1
  Si  Si20  1  0.223144  0.927300  0.766171  1
  Si  Si21  1  0.723144  0.572700  0.733829  1
  Si  Si22  1  0.776856  0.072699  0.233829  1
  Si  Si23  1  0.276857  0.427300  0.266171  1
  Si  Si24  1  0.730174  0.112560  0.919875  1
  Si  Si25  1  0.230174  0.387441  0.580125  1
  Si  Si26  1  0.269826  0.887440  0.080125  1
  Si  Si27  1  0.769825  0.612560  0.419875  1
  Si  Si28  1  0.231916  0.436643  0.901952  1
  Si  Si29  1  0.731917  0.063356  0.598048  1
  Si  Si30  1  0.768084  0.563357  0.098048  1
  Si  Si31  1  0.268083  0.936643  0.401952  1
  O  O32  1  0.127896  0.746304  0.037931  1
  O  O33  1  0.032367  0.897788  0.825520  1
  O  O34  1  0.532367  0.602212  0.674480  1
  O  O35  1  0.967633  0.102212  0.174480  1
  O  O36  1  0.467632  0.397787  0.325520  1
  O  O37  1  0.534497  0.177979  0.962242  1
  O  O38  1  0.034497  0.322021  0.537759  1
  O  O39  1  0.465503  0.822021  0.037758  1
  O  O40  1  0.965502  0.677979  0.462241  1
  O  O41  1  0.034061  0.529299  0.891222  1
  O  O42  1  0.534061  0.970701  0.608778  1
  O  O43  1  0.965939  0.470702  0.108778  1
  O  O44  1  0.126893  0.075145  0.353165  1
  O  O45  1  0.626892  0.424856  0.146835  1
  O  O46  1  0.873108  0.924855  0.646835  1
  O  O47  1  0.373108  0.575145  0.853165  1
  O  O48  1  0.627897  0.753696  0.462069  1
  O  O49  1  0.465940  0.029299  0.391222  1
  O  O50  1  0.372104  0.246304  0.537931  1
  O  O51  1  0.872104  0.253695  0.962069  1
  O  O52  1  0.764647  0.079661  0.476431  1
  O  O53  1  0.625321  0.068601  0.145761  1
  O  O54  1  0.874679  0.568600  0.645761  1
  O  O55  1  0.374678  0.931399  0.854239  1
  O  O56  1  0.728774  0.424376  0.809590  1
  O  O57  1  0.228774  0.075623  0.690410  1
  O  O58  1  0.271226  0.575624  0.190410  1
  O  O59  1  0.771225  0.924376  0.309590  1
  O  O60  1  0.733361  0.072106  0.808020  1
  O  O61  1  0.233361  0.427895  0.691980  1
  O  O62  1  0.266638  0.927894  0.191980  1
  O  O63  1  0.766639  0.572106  0.308020  1
  O  O64  1  0.238980  0.250176  0.865498  1
  O  O65  1  0.738979  0.249824  0.634503  1
  O  O66  1  0.761021  0.749823  0.134502  1
  O  O67  1  0.261021  0.750177  0.365497  1
  O  O68  1  0.736243  0.746541  0.803360  1
  O  O69  1  0.236242  0.753459  0.696640  1
  O  O70  1  0.263757  0.253458  0.196640  1
  O  O71  1  0.763758  0.246542  0.303360  1
  O  O72  1  0.768195  0.929404  0.977184  1
  O  O73  1  0.268194  0.570596  0.522816  1
  O  O74  1  0.231805  0.070596  0.022816  1
  O  O75  1  0.731806  0.429403  0.477184  1
  O  O76  1  0.735354  0.579660  0.976431  1
  O  O77  1  0.235354  0.920339  0.523569  1
  O  O78  1  0.264646  0.420340  0.023569  1
  O  O79  1  0.125321  0.431399  0.354239  1
