# generated using pymatgen
data_Si2MoO6
_symmetry_space_group_name_H-M   'P 1'
_cell_length_a   5.45538997
_cell_length_b   6.63714641
_cell_length_c   6.63714613
_cell_angle_alpha   85.14083442
_cell_angle_beta   76.25133510
_cell_angle_gamma   76.25133520
_symmetry_Int_Tables_number   1
_chemical_formula_structural   Si2MoO6
_chemical_formula_sum   'Si4 Mo2 O12'
_cell_volume   226.64364518
_cell_formula_units_Z   2
loop_
 _symmetry_equiv_pos_site_id
 _symmetry_equiv_pos_as_xyz
  1  'x, y, z'
loop_
 _atom_site_type_symbol
 _atom_site_label
 _atom_site_symmetry_multiplicity
 _atom_site_fract_x
 _atom_site_fract_y
 _atom_site_fract_z
 _atom_site_occupancy
  Si  Si0  1  0.239987  0.219260  0.385883  1
  Si  Si1  1  0.260017  0.614116  0.780738  1
  Si  Si2  1  0.739987  0.385883  0.219260  1
  Si  Si3  1  0.760018  0.780738  0.614116  1
  Mo  Mo4  1  0.250000  0.100286  0.899713  1
  Mo  Mo5  1  0.750000  0.899714  0.100285  1
  O  O6  1  0.466418  0.348538  0.363640  1
  O  O7  1  0.033589  0.636364  0.651457  1
  O  O8  1  0.533590  0.651457  0.636365  1
  O  O9  1  0.966417  0.363641  0.348537  1
  O  O10  1  0.195352  0.110945  0.615365  1
  O  O11  1  0.304637  0.384637  0.889060  1
  O  O12  1  0.804637  0.889061  0.384638  1
  O  O13  1  0.695351  0.615365  0.110946  1
  O  O14  1  0.847975  0.193332  0.050084  1
  O  O15  1  0.652024  0.949913  0.806668  1
  O  O16  1  0.347974  0.050084  0.193333  1
  O  O17  1  0.152025  0.806669  0.949913  1
