# generated using pymatgen
data_MgSn(GeO3)2
_symmetry_space_group_name_H-M   'P 1'
_cell_length_a   5.47424504
_cell_length_b   10.21183334
_cell_length_c   10.63993230
_cell_angle_alpha   90.00000000
_cell_angle_beta   106.31240650
_cell_angle_gamma   90.00000000
_symmetry_Int_Tables_number   1
_chemical_formula_structural   MgSn(GeO3)2
_chemical_formula_sum   'Mg4 Sn4 Ge8 O24'
_cell_volume   570.85057967
_cell_formula_units_Z   4
loop_
 _symmetry_equiv_pos_site_id
 _symmetry_equiv_pos_as_xyz
  1  'x, y, z'
loop_
 _atom_site_type_symbol
 _atom_site_label
 _atom_site_symmetry_multiplicity
 _atom_site_fract_x
 _atom_site_fract_y
 _atom_site_fract_z
 _atom_site_occupancy
  Mg  Mg0  1  0.448550  0.474158  0.224907  1
  Mg  Mg1  1  0.051450  0.974158  0.775093  1
  Mg  Mg2  1  0.551450  0.525842  0.775093  1
  Mg  Mg3  1  0.948550  0.025842  0.224907  1
  Sn  Sn4  1  0.972742  0.624658  0.261951  1
  Sn  Sn5  1  0.527258  0.124658  0.738049  1
  Sn  Sn6  1  0.027258  0.375342  0.738049  1
  Sn  Sn7  1  0.472742  0.875342  0.261951  1
  Ge  Ge8  1  0.831789  0.340793  0.054559  1
  Ge  Ge9  1  0.668211  0.840793  0.945441  1
  Ge  Ge10  1  0.168211  0.659207  0.945441  1
  Ge  Ge11  1  0.331789  0.159207  0.054559  1
  Ge  Ge12  1  0.225432  0.348829  0.468582  1
  Ge  Ge13  1  0.274568  0.848829  0.531418  1
  Ge  Ge14  1  0.774568  0.651171  0.531418  1
  Ge  Ge15  1  0.725432  0.151171  0.468582  1
  O  O16  1  0.406220  0.210625  0.444071  1
  O  O17  1  0.093780  0.710625  0.555929  1
  O  O18  1  0.593780  0.789375  0.555929  1
  O  O19  1  0.906220  0.289375  0.444071  1
  O  O20  1  0.178397  0.306831  0.099216  1
  O  O21  1  0.321603  0.806831  0.900785  1
  O  O22  1  0.821603  0.693169  0.900785  1
  O  O23  1  0.678397  0.193169  0.099216  1
  O  O24  1  0.723715  0.040363  0.342882  1
  O  O25  1  0.776285  0.540363  0.657118  1
  O  O26  1  0.276285  0.959637  0.657118  1
  O  O27  1  0.223715  0.459637  0.342882  1
  O  O28  1  0.246361  0.038454  0.151919  1
  O  O29  1  0.253639  0.538454  0.848081  1
  O  O30  1  0.753639  0.961546  0.848081  1
  O  O31  1  0.746361  0.461546  0.151919  1
  O  O32  1  0.742981  0.383594  0.890709  1
  O  O33  1  0.757019  0.883594  0.109291  1
  O  O34  1  0.257019  0.616406  0.109291  1
  O  O35  1  0.242981  0.116406  0.890709  1
  O  O36  1  0.305071  0.419531  0.624997  1
  O  O37  1  0.194929  0.919531  0.375003  1
  O  O38  1  0.694929  0.580469  0.375003  1
  O  O39  1  0.805071  0.080469  0.624997  1
