# generated using pymatgen
data_Zn(MoO2)2
_symmetry_space_group_name_H-M   'P 1'
_cell_length_a   6.32409518
_cell_length_b   6.38940804
_cell_length_c   19.05264326
_cell_angle_alpha   59.00095272
_cell_angle_beta   60.11417288
_cell_angle_gamma   60.33669097
_symmetry_Int_Tables_number   1
_chemical_formula_structural   Zn(MoO2)2
_chemical_formula_sum   'Zn6 Mo12 O24'
_cell_volume   541.94964621
_cell_formula_units_Z   6
loop_
 _symmetry_equiv_pos_site_id
 _symmetry_equiv_pos_as_xyz
  1  'x, y, z'
loop_
 _atom_site_type_symbol
 _atom_site_label
 _atom_site_symmetry_multiplicity
 _atom_site_fract_x
 _atom_site_fract_y
 _atom_site_fract_z
 _atom_site_occupancy
  Zn  Zn0  1  0.119373  0.125704  0.045440  1
  Zn  Zn1  1  0.123891  0.125434  0.375830  1
  Zn  Zn2  1  0.495471  0.496540  0.003907  1
  Zn  Zn3  1  0.128964  0.119872  0.707575  1
  Zn  Zn4  1  0.875674  0.878667  0.290521  1
  Zn  Zn5  1  0.876057  0.873317  0.624550  1
  Mo  Mo6  1  0.001935  0.505949  0.165485  1
  Mo  Mo7  1  0.497798  0.506237  0.165288  1
  Mo  Mo8  1  0.999287  0.499180  0.499558  1
  Mo  Mo9  1  0.494526  0.012286  0.166840  1
  Mo  Mo10  1  0.500068  0.501912  0.332699  1
  Mo  Mo11  1  0.499145  0.498572  0.499755  1
  Mo  Mo12  1  0.002547  0.493843  0.833790  1
  Mo  Mo13  1  0.499612  0.998187  0.499862  1
  Mo  Mo14  1  0.503187  0.991583  0.834364  1
  Mo  Mo15  1  0.502127  0.494225  0.666720  1
  Mo  Mo16  1  0.503803  0.493790  0.833752  1
  Mo  Mo17  1  0.875177  0.877027  0.957642  1
  O  O18  1  0.247638  0.265351  0.086889  1
  O  O19  1  0.256571  0.261549  0.242531  1
  O  O20  1  0.261123  0.733782  0.082005  1
  O  O21  1  0.727332  0.266554  0.086448  1
  O  O22  1  0.270629  0.744644  0.246720  1
  O  O23  1  0.251949  0.259156  0.419790  1
  O  O24  1  0.739921  0.276769  0.248353  1
  O  O25  1  0.729821  0.765197  0.092603  1
  O  O26  1  0.257703  0.729132  0.417454  1
  O  O27  1  0.258927  0.249975  0.575900  1
  O  O28  1  0.745836  0.744231  0.246874  1
  O  O29  1  0.728124  0.257978  0.420037  1
  O  O30  1  0.271311  0.737021  0.580466  1
  O  O31  1  0.255044  0.250653  0.754084  1
  O  O32  1  0.740620  0.268335  0.582224  1
  O  O33  1  0.738645  0.746858  0.423896  1
  O  O34  1  0.263086  0.246079  0.909740  1
  O  O35  1  0.264504  0.720969  0.750597  1
  O  O36  1  0.747328  0.737719  0.580305  1
  O  O37  1  0.731966  0.251888  0.753658  1
  O  O38  1  0.275919  0.733960  0.909100  1
  O  O39  1  0.743203  0.742573  0.757541  1
  O  O40  1  0.728637  0.281907  0.920851  1
  O  O41  1  0.765523  0.735394  0.908359  1
