# generated using pymatgen
data_SrMgTi(PO4)2
_symmetry_space_group_name_H-M   'P 1'
_cell_length_a   5.60808950
_cell_length_b   6.76537606
_cell_length_c   9.55523525
_cell_angle_alpha   109.65910847
_cell_angle_beta   103.86403974
_cell_angle_gamma   97.35882554
_symmetry_Int_Tables_number   1
_chemical_formula_structural   SrMgTi(PO4)2
_chemical_formula_sum   'Sr2 Mg2 Ti2 P4 O16'
_cell_volume   322.70513159
_cell_formula_units_Z   2
loop_
 _symmetry_equiv_pos_site_id
 _symmetry_equiv_pos_as_xyz
  1  'x, y, z'
loop_
 _atom_site_type_symbol
 _atom_site_label
 _atom_site_symmetry_multiplicity
 _atom_site_fract_x
 _atom_site_fract_y
 _atom_site_fract_z
 _atom_site_occupancy
  Sr  Sr0  1  0.264017  0.791345  0.051337  1
  Sr  Sr1  1  0.735983  0.208655  0.948663  1
  Mg  Mg2  1  0.989815  0.396505  0.647203  1
  Mg  Mg3  1  0.010185  0.603495  0.352797  1
  Ti  Ti4  1  0.607183  0.884575  0.549376  1
  Ti  Ti5  1  0.392817  0.115425  0.450624  1
  P  P6  1  0.393820  0.414398  0.236347  1
  P  P7  1  0.606180  0.585602  0.763653  1
  P  P8  1  0.854808  0.026705  0.296956  1
  P  P9  1  0.145192  0.973295  0.703044  1
  O  O10  1  0.823036  0.565174  0.890370  1
  O  O11  1  0.654630  0.469380  0.211222  1
  O  O12  1  0.651416  0.812053  0.758192  1
  O  O13  1  0.949127  0.120315  0.692116  1
  O  O14  1  0.345370  0.530620  0.788778  1
  O  O15  1  0.005125  0.743707  0.577006  1
  O  O16  1  0.994875  0.256293  0.422994  1
  O  O17  1  0.243879  0.987532  0.869096  1
  O  O18  1  0.348584  0.187947  0.241808  1
  O  O19  1  0.756121  0.012468  0.130904  1
  O  O20  1  0.176964  0.434826  0.109630  1
  O  O21  1  0.378225  0.582738  0.392693  1
  O  O22  1  0.621775  0.417262  0.607307  1
  O  O23  1  0.629322  0.934975  0.346125  1
  O  O24  1  0.050873  0.879685  0.307884  1
  O  O25  1  0.370678  0.065025  0.653875  1
