# generated using pymatgen
data_Si2Sb15O28
_symmetry_space_group_name_H-M   'P 1'
_cell_length_a   7.02747872
_cell_length_b   9.40330056
_cell_length_c   14.27891294
_cell_angle_alpha   90.37360540
_cell_angle_beta   77.88167104
_cell_angle_gamma   82.99694079
_symmetry_Int_Tables_number   1
_chemical_formula_structural   Si2Sb15O28
_chemical_formula_sum   'Si2 Sb15 O28'
_cell_volume   915.16137039
_cell_formula_units_Z   1
loop_
 _symmetry_equiv_pos_site_id
 _symmetry_equiv_pos_as_xyz
  1  'x, y, z'
loop_
 _atom_site_type_symbol
 _atom_site_label
 _atom_site_symmetry_multiplicity
 _atom_site_fract_x
 _atom_site_fract_y
 _atom_site_fract_z
 _atom_site_occupancy
  Si  Si0  1  0.147251  0.383633  0.003824  1
  Si  Si1  1  0.763770  0.703864  0.008006  1
  Sb  Sb2  1  0.896812  0.642027  0.750049  1
  Sb  Sb3  1  0.664001  0.348626  0.106300  1
  Sb  Sb4  1  0.408389  0.320244  0.566374  1
  Sb  Sb5  1  0.964933  0.323033  0.439808  1
  Sb  Sb6  1  0.377443  0.589138  0.809844  1
  Sb  Sb7  1  0.393734  0.893633  0.422635  1
  Sb  Sb8  1  0.140571  0.671581  0.126994  1
  Sb  Sb9  1  0.035740  0.061918  0.000323  1
  Sb  Sb10  1  0.452836  0.995095  0.131400  1
  Sb  Sb11  1  0.800166  0.347010  0.868631  1
  Sb  Sb12  1  0.642181  0.649205  0.241479  1
  Sb  Sb13  1  0.534581  0.927256  0.875032  1
  Sb  Sb14  1  0.837558  0.895039  0.580626  1
  Sb  Sb15  1  0.904046  0.967769  0.333723  1
  Sb  Sb16  1  0.267336  0.969257  0.669627  1
  O  O17  1  0.662069  0.436756  0.235433  1
  O  O18  1  0.223070  0.264256  0.484727  1
  O  O19  1  0.907537  0.400093  0.996915  1
  O  O20  1  0.226755  0.211796  0.996252  1
  O  O21  1  0.958924  0.695927  0.612506  1
  O  O22  1  0.145231  0.691396  0.773715  1
  O  O23  1  0.037691  0.011821  0.612235  1
  O  O24  1  0.979290  0.860577  0.443551  1
  O  O25  1  0.635258  0.870487  0.006435  1
  O  O26  1  0.215008  0.941915  0.103601  1
  O  O27  1  0.146038  0.455395  0.108403  1
  O  O28  1  0.910952  0.677061  0.237748  1
  O  O29  1  0.422218  0.849519  0.556199  1
  O  O30  1  0.834469  0.163568  0.111980  1
  O  O31  1  0.638114  0.617396  0.097802  1
  O  O32  1  0.971651  0.732560  0.034440  1
  O  O33  1  0.383466  0.763211  0.888637  1
  O  O34  1  0.928920  0.154303  0.883767  1
  O  O35  1  0.623789  0.004252  0.397751  1
  O  O36  1  0.007492  0.149915  0.356139  1
  O  O37  1  0.766881  0.853618  0.780877  1
  O  O38  1  0.265472  0.474852  0.920039  1
  O  O39  1  0.390245  0.148417  0.644405  1
  O  O40  1  0.706814  0.272546  0.519232  1
  O  O41  1  0.773012  0.625025  0.906427  1
  O  O42  1  0.511418  0.845063  0.222309  1
  O  O43  1  0.991422  0.421867  0.765488  1
  O  O44  1  0.526474  0.682009  0.375823  1
