# generated using pymatgen
data_MgV2O4
_symmetry_space_group_name_H-M   'P 1'
_cell_length_a   6.05476215
_cell_length_b   6.04590460
_cell_length_c   18.18921502
_cell_angle_alpha   60.09212500
_cell_angle_beta   59.76246964
_cell_angle_gamma   60.00154719
_symmetry_Int_Tables_number   1
_chemical_formula_structural   MgV2O4
_chemical_formula_sum   'Mg6 V12 O24'
_cell_volume   470.30228980
_cell_formula_units_Z   6
loop_
 _symmetry_equiv_pos_site_id
 _symmetry_equiv_pos_as_xyz
  1  'x, y, z'
loop_
 _atom_site_type_symbol
 _atom_site_label
 _atom_site_symmetry_multiplicity
 _atom_site_fract_x
 _atom_site_fract_y
 _atom_site_fract_z
 _atom_site_occupancy
  Mg  Mg0  1  0.133918  0.119569  0.041331  1
  Mg  Mg1  1  0.500392  0.497844  0.333195  1
  Mg  Mg2  1  0.000999  0.497738  0.167482  1
  Mg  Mg3  1  0.497271  0.503919  0.665952  1
  Mg  Mg4  1  0.999426  0.501589  0.499989  1
  Mg  Mg5  1  0.003479  0.498200  0.832708  1
  V  V6  1  0.500059  0.001985  0.166994  1
  V  V7  1  0.130886  0.120640  0.377625  1
  V  V8  1  0.496964  0.497316  0.003101  1
  V  V9  1  0.498859  0.498344  0.167378  1
  V  V10  1  0.500052  0.000040  0.499775  1
  V  V11  1  0.131094  0.119540  0.709061  1
  V  V12  1  0.499780  0.500304  0.499776  1
  V  V13  1  0.497589  0.003051  0.833061  1
  V  V14  1  0.867876  0.881260  0.289746  1
  V  V15  1  0.497938  0.497538  0.833742  1
  V  V16  1  0.866381  0.880533  0.624167  1
  V  V17  1  0.867690  0.875218  0.959891  1
  O  O18  1  0.273645  0.252341  0.085752  1
  O  O19  1  0.259738  0.254744  0.245403  1
  O  O20  1  0.268817  0.716665  0.085102  1
  O  O21  1  0.724400  0.257345  0.088602  1
  O  O22  1  0.259582  0.254708  0.419836  1
  O  O23  1  0.269143  0.746634  0.244829  1
  O  O24  1  0.261187  0.252186  0.576355  1
  O  O25  1  0.742843  0.270607  0.246347  1
  O  O26  1  0.266167  0.724804  0.421331  1
  O  O27  1  0.739321  0.742498  0.090549  1
  O  O28  1  0.730510  0.249118  0.420983  1
  O  O29  1  0.735703  0.752304  0.245433  1
  O  O30  1  0.263030  0.248951  0.752612  1
  O  O31  1  0.267421  0.751972  0.579093  1
  O  O32  1  0.733497  0.276243  0.578665  1
  O  O33  1  0.261694  0.727369  0.754401  1
  O  O34  1  0.263377  0.257496  0.906617  1
  O  O35  1  0.738091  0.746925  0.423366  1
  O  O36  1  0.730518  0.251238  0.754645  1
  O  O37  1  0.739471  0.747071  0.580882  1
  O  O38  1  0.269611  0.744790  0.913558  1
  O  O39  1  0.733264  0.273757  0.915822  1
  O  O40  1  0.740926  0.743313  0.757337  1
  O  O41  1  0.731372  0.745545  0.916035  1
