# generated using pymatgen
data_ZnCo(SiO3)2
_symmetry_space_group_name_H-M   'P 1'
_cell_length_a   5.29198575
_cell_length_b   9.14829891
_cell_length_c   18.50803379
_cell_angle_alpha   90.00000000
_cell_angle_beta   90.00000000
_cell_angle_gamma   90.00000000
_symmetry_Int_Tables_number   1
_chemical_formula_structural   ZnCo(SiO3)2
_chemical_formula_sum   'Zn8 Co8 Si16 O48'
_cell_volume   896.02328537
_cell_formula_units_Z   8
loop_
 _symmetry_equiv_pos_site_id
 _symmetry_equiv_pos_as_xyz
  1  'x, y, z'
loop_
 _atom_site_type_symbol
 _atom_site_label
 _atom_site_symmetry_multiplicity
 _atom_site_fract_x
 _atom_site_fract_y
 _atom_site_fract_z
 _atom_site_occupancy
  Zn  Zn0  1  0.616869  0.149485  0.624349  1
  Zn  Zn1  1  0.383131  0.850515  0.375651  1
  Zn  Zn2  1  0.616869  0.649485  0.875651  1
  Zn  Zn3  1  0.116869  0.850515  0.875651  1
  Zn  Zn4  1  0.883131  0.149485  0.124349  1
  Zn  Zn5  1  0.383131  0.350515  0.124349  1
  Zn  Zn6  1  0.116869  0.350515  0.624349  1
  Zn  Zn7  1  0.883131  0.649485  0.375651  1
  Co  Co8  1  0.376470  0.992184  0.123819  1
  Co  Co9  1  0.623529  0.007816  0.876181  1
  Co  Co10  1  0.876471  0.007816  0.376181  1
  Co  Co11  1  0.123529  0.992184  0.623819  1
  Co  Co12  1  0.376470  0.492184  0.376181  1
  Co  Co13  1  0.623529  0.507816  0.623819  1
  Co  Co14  1  0.876471  0.507816  0.123819  1
  Co  Co15  1  0.123529  0.492184  0.876181  1
  Si  Si16  1  0.566366  0.660831  0.227749  1
  Si  Si17  1  0.714458  0.835399  0.525884  1
  Si  Si18  1  0.785542  0.835399  0.025884  1
  Si  Si19  1  0.933634  0.160831  0.772251  1
  Si  Si20  1  0.066366  0.339169  0.272251  1
  Si  Si21  1  0.433634  0.839169  0.727749  1
  Si  Si22  1  0.214458  0.664601  0.525884  1
  Si  Si23  1  0.714458  0.335399  0.974116  1
  Si  Si24  1  0.785542  0.335399  0.474116  1
  Si  Si25  1  0.933634  0.660831  0.727749  1
  Si  Si26  1  0.433634  0.339169  0.772251  1
  Si  Si27  1  0.566366  0.160831  0.272251  1
  Si  Si28  1  0.285542  0.164601  0.474116  1
  Si  Si29  1  0.066366  0.839169  0.227749  1
  Si  Si30  1  0.285542  0.664601  0.025884  1
  Si  Si31  1  0.214458  0.164601  0.974116  1
  O  O32  1  0.926617  0.501847  0.689145  1
  O  O33  1  0.305398  0.017509  0.932747  1
  O  O34  1  0.073383  0.498153  0.310856  1
  O  O35  1  0.714296  0.341019  0.063032  1
  O  O36  1  0.214296  0.158981  0.063032  1
  O  O37  1  0.919254  0.205178  0.949176  1
  O  O38  1  0.945283  0.660276  0.816240  1
  O  O39  1  0.054717  0.839724  0.316240  1
  O  O40  1  0.714296  0.841019  0.436968  1
  O  O41  1  0.945283  0.160276  0.683760  1
  O  O42  1  0.426617  0.498153  0.810855  1
  O  O43  1  0.785704  0.341019  0.563032  1
  O  O44  1  0.694602  0.982491  0.067253  1
  O  O45  1  0.445283  0.839724  0.816240  1
  O  O46  1  0.573383  0.001847  0.310856  1
  O  O47  1  0.305398  0.517509  0.567253  1
  O  O48  1  0.426617  0.998153  0.689145  1
  O  O49  1  0.164176  0.766696  0.697732  1
  O  O50  1  0.335824  0.766696  0.197732  1
  O  O51  1  0.580746  0.705178  0.050824  1
  O  O52  1  0.785704  0.841019  0.936968  1
  O  O53  1  0.554717  0.660276  0.316240  1
  O  O54  1  0.805398  0.482491  0.932747  1
  O  O55  1  0.164176  0.266696  0.802268  1
  O  O56  1  0.285704  0.158981  0.563032  1
  O  O57  1  0.554717  0.160276  0.183760  1
  O  O58  1  0.694602  0.482491  0.432747  1
  O  O59  1  0.214296  0.658981  0.436968  1
  O  O60  1  0.194602  0.517509  0.067253  1
  O  O61  1  0.664176  0.733304  0.697732  1
  O  O62  1  0.073383  0.998153  0.189144  1
  O  O63  1  0.835824  0.733304  0.197732  1
  O  O64  1  0.835824  0.233304  0.302268  1
  O  O65  1  0.805398  0.982491  0.567253  1
  O  O66  1  0.285704  0.658981  0.936968  1
  O  O67  1  0.194602  0.017509  0.432747  1
  O  O68  1  0.335824  0.266696  0.302268  1
  O  O69  1  0.080746  0.794822  0.050824  1
  O  O70  1  0.419254  0.794822  0.550824  1
  O  O71  1  0.664176  0.233304  0.802268  1
  O  O72  1  0.419254  0.294822  0.949176  1
  O  O73  1  0.580746  0.205178  0.449176  1
  O  O74  1  0.080746  0.294822  0.449176  1
  O  O75  1  0.445283  0.339724  0.683760  1
  O  O76  1  0.573383  0.501847  0.189144  1
  O  O77  1  0.919254  0.705178  0.550824  1
  O  O78  1  0.054717  0.339724  0.183760  1
  O  O79  1  0.926617  0.001847  0.810855  1
