# generated using pymatgen
data_Ba2ZnCuAg2F14
_symmetry_space_group_name_H-M   'P 1'
_cell_length_a   5.40989876
_cell_length_b   7.69323402
_cell_length_c   15.45770638
_cell_angle_alpha   91.69825376
_cell_angle_beta   89.69772650
_cell_angle_gamma   110.65282552
_symmetry_Int_Tables_number   1
_chemical_formula_structural   Ba2ZnCuAg2F14
_chemical_formula_sum   'Ba4 Zn2 Cu2 Ag4 F28'
_cell_volume   601.72553116
_cell_formula_units_Z   2
loop_
 _symmetry_equiv_pos_site_id
 _symmetry_equiv_pos_as_xyz
  1  'x, y, z'
loop_
 _atom_site_type_symbol
 _atom_site_label
 _atom_site_symmetry_multiplicity
 _atom_site_fract_x
 _atom_site_fract_y
 _atom_site_fract_z
 _atom_site_occupancy
  Ba  Ba0  1  0.099831  0.372030  0.624999  1
  Ba  Ba1  1  0.274091  0.372666  0.125092  1
  Ba  Ba2  1  0.900879  0.627481  0.375414  1
  Ba  Ba3  1  0.726618  0.625713  0.874997  1
  Zn  Zn4  1  0.425030  0.998814  0.749271  1
  Zn  Zn5  1  0.573656  0.995980  0.251674  1
  Cu  Cu6  1  0.499406  0.998955  0.999870  1
  Cu  Cu7  1  0.500815  0.999140  0.499750  1
  Ag  Ag8  1  0.089291  0.233177  0.871859  1
  Ag  Ag9  1  0.910595  0.766209  0.127996  1
  Ag  Ag10  1  0.147329  0.234620  0.372279  1
  Ag  Ag11  1  0.855194  0.764800  0.627810  1
  F  F12  1  0.862311  0.970673  0.333993  1
  F  F13  1  0.866102  0.283810  0.458851  1
  F  F14  1  0.136597  0.715810  0.541035  1
  F  F15  1  0.626465  0.488399  0.594600  1
  F  F16  1  0.620190  0.087833  0.611761  1
  F  F17  1  0.533059  0.909423  0.888371  1
  F  F18  1  0.418170  0.284201  0.958524  1
  F  F19  1  0.885732  0.029567  0.167058  1
  F  F20  1  0.371358  0.349383  0.770297  1
  F  F21  1  0.375466  0.511197  0.405846  1
  F  F22  1  0.773507  0.207317  0.777382  1
  F  F23  1  0.136951  0.510037  0.904773  1
  F  F24  1  0.437460  0.208085  0.277345  1
  F  F25  1  0.224359  0.790167  0.222671  1
  F  F26  1  0.465703  0.088370  0.111064  1
  F  F27  1  0.628020  0.651715  0.229721  1
  F  F28  1  0.142024  0.848397  0.008496  1
  F  F29  1  0.140310  0.028594  0.666430  1
  F  F30  1  0.857337  0.149546  0.991074  1
  F  F31  1  0.709198  0.849483  0.508665  1
  F  F32  1  0.581979  0.715168  0.041387  1
  F  F33  1  0.563772  0.789100  0.722807  1
  F  F34  1  0.983881  0.352239  0.271675  1
  F  F35  1  0.293446  0.149692  0.491064  1
  F  F36  1  0.381298  0.910712  0.387720  1
  F  F37  1  0.113193  0.969530  0.833344  1
  F  F38  1  0.020683  0.648633  0.729032  1
  F  F39  1  0.864275  0.489402  0.095088  1
