# generated using pymatgen
data_Li(VS2)2
_symmetry_space_group_name_H-M   'P 1'
_cell_length_a   7.01440784
_cell_length_b   7.01440752
_cell_length_c   7.11497203
_cell_angle_alpha   119.53353535
_cell_angle_beta   119.53353214
_cell_angle_gamma   90.00000253
_symmetry_Int_Tables_number   1
_chemical_formula_structural   Li(VS2)2
_chemical_formula_sum   'Li2 V4 S8'
_cell_volume   250.98702621
_cell_formula_units_Z   2
loop_
 _symmetry_equiv_pos_site_id
 _symmetry_equiv_pos_as_xyz
  1  'x, y, z'
loop_
 _atom_site_type_symbol
 _atom_site_label
 _atom_site_symmetry_multiplicity
 _atom_site_fract_x
 _atom_site_fract_y
 _atom_site_fract_z
 _atom_site_occupancy
  Li  Li0  1  0.375001  0.625001  0.750000  1
  Li  Li1  1  0.624999  0.375000  0.250000  1
  V  V2  1  0.000000  0.500001  0.000001  1
  V  V3  1  0.000001  0.000000  0.500000  1
  V  V4  1  0.500001  0.000000  0.500000  1
  V  V5  1  0.000000  0.000000  0.000000  1
  S  S6  1  0.762338  0.776990  0.524677  1
  S  S7  1  0.752313  0.237663  0.975324  1
  S  S8  1  0.223011  0.237663  0.975324  1
  S  S9  1  0.237662  0.223010  0.475323  1
  S  S10  1  0.237661  0.752312  0.475323  1
  S  S11  1  0.247687  0.762338  0.024677  1
  S  S12  1  0.762338  0.247687  0.524676  1
  S  S13  1  0.776989  0.762338  0.024676  1
