# generated using pymatgen
data_Mg2Ta2MnO8
_symmetry_space_group_name_H-M   'P 1'
_cell_length_a   5.24037414
_cell_length_b   6.04978963
_cell_length_c   10.16835508
_cell_angle_alpha   107.25127795
_cell_angle_beta   90.36067225
_cell_angle_gamma   90.00647188
_symmetry_Int_Tables_number   1
_chemical_formula_structural   Mg2Ta2MnO8
_chemical_formula_sum   'Mg4 Ta4 Mn2 O16'
_cell_volume   307.85993001
_cell_formula_units_Z   2
loop_
 _symmetry_equiv_pos_site_id
 _symmetry_equiv_pos_as_xyz
  1  'x, y, z'
loop_
 _atom_site_type_symbol
 _atom_site_label
 _atom_site_symmetry_multiplicity
 _atom_site_fract_x
 _atom_site_fract_y
 _atom_site_fract_z
 _atom_site_occupancy
  Mg  Mg0  1  0.756503  0.414376  0.545870  1
  Mg  Mg1  1  0.744499  0.869544  0.456387  1
  Mg  Mg2  1  0.244739  0.584993  0.456163  1
  Mg  Mg3  1  0.256394  0.130033  0.546008  1
  Ta  Ta4  1  0.740844  0.281078  0.237305  1
  Ta  Ta5  1  0.760564  0.044468  0.765008  1
  Ta  Ta6  1  0.260341  0.718701  0.764913  1
  Ta  Ta7  1  0.240830  0.956004  0.237483  1
  Mn  Mn8  1  0.750324  0.655291  0.001153  1
  Mn  Mn9  1  0.250399  0.344285  0.001287  1
  O  O10  1  0.072032  0.182300  0.148240  1
  O  O11  1  0.429461  0.033632  0.853979  1
  O  O12  1  0.929727  0.818588  0.854297  1
  O  O13  1  0.571639  0.966355  0.148124  1
  O  O14  1  0.591832  0.431820  0.123239  1
  O  O15  1  0.908956  0.309103  0.879065  1
  O  O16  1  0.408383  0.567912  0.879385  1
  O  O17  1  0.091471  0.691468  0.123365  1
  O  O18  1  0.453509  0.291362  0.375310  1
  O  O19  1  0.047450  0.916841  0.626863  1
  O  O20  1  0.378987  0.838822  0.384853  1
  O  O21  1  0.121837  0.454769  0.617535  1
  O  O22  1  0.621897  0.161144  0.617520  1
  O  O23  1  0.879237  0.545077  0.384682  1
  O  O24  1  0.953762  0.083375  0.375682  1
  O  O25  1  0.547325  0.707973  0.626618  1
