# generated using pymatgen
data_CaFeF6
_symmetry_space_group_name_H-M   'P 1'
_cell_length_a   5.77502456
_cell_length_b   5.77502390
_cell_length_c   5.77502352
_cell_angle_alpha   58.08432891
_cell_angle_beta   58.08432737
_cell_angle_gamma   58.08433268
_symmetry_Int_Tables_number   1
_chemical_formula_structural   CaFeF6
_chemical_formula_sum   'Ca1 Fe1 F6'
_cell_volume   130.20844022
_cell_formula_units_Z   1
loop_
 _symmetry_equiv_pos_site_id
 _symmetry_equiv_pos_as_xyz
  1  'x, y, z'
loop_
 _atom_site_type_symbol
 _atom_site_label
 _atom_site_symmetry_multiplicity
 _atom_site_fract_x
 _atom_site_fract_y
 _atom_site_fract_z
 _atom_site_occupancy
  Ca  Ca0  1  0.500000  0.500000  0.500000  1
  Fe  Fe1  1  0.000000  0.000000  0.000000  1
  F  F2  1  0.316274  0.133264  0.777128  1
  F  F3  1  0.133264  0.777128  0.316274  1
  F  F4  1  0.222872  0.683726  0.866736  1
  F  F5  1  0.866736  0.222872  0.683726  1
  F  F6  1  0.683726  0.866736  0.222872  1
  F  F7  1  0.777128  0.316274  0.133264  1
