# generated using pymatgen
data_BaMgCuF7
_symmetry_space_group_name_H-M   'P 1'
_cell_length_a   5.61262486
_cell_length_b   9.70702018
_cell_length_c   9.94281677
_cell_angle_alpha   90.00000000
_cell_angle_beta   90.00000000
_cell_angle_gamma   93.19876876
_symmetry_Int_Tables_number   1
_chemical_formula_structural   BaMgCuF7
_chemical_formula_sum   'Ba4 Mg4 Cu4 F28'
_cell_volume   540.85918552
_cell_formula_units_Z   4
loop_
 _symmetry_equiv_pos_site_id
 _symmetry_equiv_pos_as_xyz
  1  'x, y, z'
loop_
 _atom_site_type_symbol
 _atom_site_label
 _atom_site_symmetry_multiplicity
 _atom_site_fract_x
 _atom_site_fract_y
 _atom_site_fract_z
 _atom_site_occupancy
  Ba  Ba0  1  0.263024  0.499947  0.319629  1
  Ba  Ba1  1  0.736976  0.000053  0.819629  1
  Ba  Ba2  1  0.736976  0.500053  0.680371  1
  Ba  Ba3  1  0.263024  0.999947  0.180371  1
  Mg  Mg4  1  0.696780  0.809169  0.396341  1
  Mg  Mg5  1  0.303220  0.690831  0.896341  1
  Mg  Mg6  1  0.696780  0.309169  0.103659  1
  Mg  Mg7  1  0.303220  0.190831  0.603659  1
  Cu  Cu8  1  0.193564  0.813490  0.613326  1
  Cu  Cu9  1  0.806436  0.186510  0.386674  1
  Cu  Cu10  1  0.193564  0.313490  0.886674  1
  Cu  Cu11  1  0.806436  0.686510  0.113326  1
  F  F12  1  0.108416  0.125145  0.445821  1
  F  F13  1  0.365819  0.368734  0.047556  1
  F  F14  1  0.469340  0.750564  0.711214  1
  F  F15  1  0.530660  0.249436  0.288786  1
  F  F16  1  0.887132  0.364348  0.456340  1
  F  F17  1  0.259817  0.496833  0.809932  1
  F  F18  1  0.026323  0.752487  0.777447  1
  F  F19  1  0.112868  0.135652  0.956340  1
  F  F20  1  0.365819  0.868734  0.452444  1
  F  F21  1  0.530660  0.749436  0.211214  1
  F  F22  1  0.108416  0.625145  0.054179  1
  F  F23  1  0.891584  0.874855  0.554179  1
  F  F24  1  0.973677  0.747513  0.277447  1
  F  F25  1  0.384118  0.873543  0.957640  1
  F  F26  1  0.112868  0.635652  0.543660  1
  F  F27  1  0.887132  0.864348  0.043660  1
  F  F28  1  0.973677  0.247513  0.222553  1
  F  F29  1  0.891584  0.374855  0.945821  1
  F  F30  1  0.615882  0.626457  0.457640  1
  F  F31  1  0.634181  0.631266  0.952444  1
  F  F32  1  0.615882  0.126457  0.042360  1
  F  F33  1  0.026323  0.252487  0.722553  1
  F  F34  1  0.384118  0.373543  0.542360  1
  F  F35  1  0.740183  0.003167  0.309932  1
  F  F36  1  0.740183  0.503167  0.190068  1
  F  F37  1  0.259817  0.996833  0.690068  1
  F  F38  1  0.634181  0.131266  0.547556  1
  F  F39  1  0.469340  0.250564  0.788786  1
