# generated using pymatgen
data_LaMgVCrO6
_symmetry_space_group_name_H-M   'P 1'
_cell_length_a   5.33278523
_cell_length_b   5.47833753
_cell_length_c   7.74086727
_cell_angle_alpha   90.00000000
_cell_angle_beta   90.55025294
_cell_angle_gamma   90.00000000
_symmetry_Int_Tables_number   1
_chemical_formula_structural   LaMgVCrO6
_chemical_formula_sum   'La2 Mg2 V2 Cr2 O12'
_cell_volume   226.13744045
_cell_formula_units_Z   2
loop_
 _symmetry_equiv_pos_site_id
 _symmetry_equiv_pos_as_xyz
  1  'x, y, z'
loop_
 _atom_site_type_symbol
 _atom_site_label
 _atom_site_symmetry_multiplicity
 _atom_site_fract_x
 _atom_site_fract_y
 _atom_site_fract_z
 _atom_site_occupancy
  La  La0  1  0.005989  0.962761  0.747371  1
  La  La1  1  0.505989  0.537239  0.247371  1
  Mg  Mg2  1  0.482355  0.447285  0.746837  1
  Mg  Mg3  1  0.982355  0.052715  0.246838  1
  V  V4  1  0.498376  0.004185  0.999278  1
  V  V5  1  0.998376  0.495815  0.499278  1
  Cr  Cr6  1  0.498670  0.000421  0.498455  1
  Cr  Cr7  1  0.998670  0.499579  0.998455  1
  O  O8  1  0.079354  0.450555  0.252811  1
  O  O9  1  0.228125  0.214663  0.955615  1
  O  O10  1  0.221073  0.223367  0.557905  1
  O  O11  1  0.313198  0.696277  0.939446  1
  O  O12  1  0.298636  0.689311  0.554183  1
  O  O13  1  0.374221  0.975080  0.248099  1
  O  O14  1  0.579354  0.049445  0.752811  1
  O  O15  1  0.728125  0.285337  0.455615  1
  O  O16  1  0.721073  0.276633  0.057905  1
  O  O17  1  0.813198  0.803723  0.439446  1
  O  O18  1  0.798636  0.810689  0.054183  1
  O  O19  1  0.874221  0.524920  0.748099  1
