# generated using pymatgen
data_AlCu3(AgO3)4
_symmetry_space_group_name_H-M   'P 1'
_cell_length_a   6.67454326
_cell_length_b   6.67388680
_cell_length_c   6.67509228
_cell_angle_alpha   109.50145718
_cell_angle_beta   109.46756706
_cell_angle_gamma   109.45579689
_symmetry_Int_Tables_number   1
_chemical_formula_structural   AlCu3(AgO3)4
_chemical_formula_sum   'Al1 Cu3 Ag4 O12'
_cell_volume   228.86316021
_cell_formula_units_Z   1
loop_
 _symmetry_equiv_pos_site_id
 _symmetry_equiv_pos_as_xyz
  1  'x, y, z'
loop_
 _atom_site_type_symbol
 _atom_site_label
 _atom_site_symmetry_multiplicity
 _atom_site_fract_x
 _atom_site_fract_y
 _atom_site_fract_z
 _atom_site_occupancy
  Al  Al0  1  0.000010  -0.000003  0.999984  1
  Cu  Cu1  1  0.499998  -0.000000  0.500000  1
  Cu  Cu2  1  0.500000  0.500001  0.999999  1
  Cu  Cu3  1  0.999999  0.499998  0.500000  1
  Ag  Ag4  1  0.500001  0.000002  0.000003  1
  Ag  Ag5  1  0.999999  0.999999  0.500001  1
  Ag  Ag6  1  0.000001  0.500001  0.000002  1
  Ag  Ag7  1  0.500000  0.500001  0.500000  1
  O  O8  1  0.844485  0.308820  0.153607  1
  O  O9  1  0.155512  0.691180  0.846389  1
  O  O10  1  0.844494  0.690906  0.535583  1
  O  O11  1  0.308896  0.464305  0.155397  1
  O  O12  1  0.464263  0.155493  0.309181  1
  O  O13  1  0.153618  0.844510  0.308843  1
  O  O14  1  0.691054  0.846547  0.155457  1
  O  O15  1  0.535729  0.844504  0.690813  1
  O  O16  1  0.155515  0.309100  0.464434  1
  O  O17  1  0.691106  0.535693  0.844600  1
  O  O18  1  0.846381  0.155487  0.691160  1
  O  O19  1  0.308942  0.153453  0.844546  1
