# generated using pymatgen
data_Sr4MgFe2(SO3)2
_symmetry_space_group_name_H-M   'P 1'
_cell_length_a   3.95503509
_cell_length_b   3.95506253
_cell_length_c   16.14581613
_cell_angle_alpha   90.00004497
_cell_angle_beta   90.00001391
_cell_angle_gamma   89.99996407
_symmetry_Int_Tables_number   1
_chemical_formula_structural   Sr4MgFe2(SO3)2
_chemical_formula_sum   'Sr4 Mg1 Fe2 S2 O6'
_cell_volume   252.55949328
_cell_formula_units_Z   1
loop_
 _symmetry_equiv_pos_site_id
 _symmetry_equiv_pos_as_xyz
  1  'x, y, z'
loop_
 _atom_site_type_symbol
 _atom_site_label
 _atom_site_symmetry_multiplicity
 _atom_site_fract_x
 _atom_site_fract_y
 _atom_site_fract_z
 _atom_site_occupancy
  Sr  Sr0  1  0.749998  0.749992  0.190351  1
  Sr  Sr1  1  0.250004  0.250003  0.809648  1
  Sr  Sr2  1  0.749992  0.750006  0.414017  1
  Sr  Sr3  1  0.249995  0.249998  0.585984  1
  Mg  Mg4  1  0.250004  0.750001  0.999998  1
  Fe  Fe5  1  0.249998  0.249998  0.312866  1
  Fe  Fe6  1  0.750001  0.750001  0.687137  1
  S  S7  1  0.250003  0.250002  0.095676  1
  S  S8  1  0.750003  0.750002  0.904319  1
  O  O9  1  0.749988  0.249994  0.292347  1
  O  O10  1  0.249997  0.749992  0.291111  1
  O  O11  1  0.250002  0.749999  0.708892  1
  O  O12  1  0.750002  0.250005  0.707651  1
  O  O13  1  0.250003  0.249999  0.432212  1
  O  O14  1  0.750010  0.750006  0.567790  1
