# generated using pymatgen
data_CaNd2Ti2Mn2O12
_symmetry_space_group_name_H-M   'P 1'
_cell_length_a   5.37214019
_cell_length_b   5.43897474
_cell_length_c   7.67297600
_cell_angle_alpha   90.25462921
_cell_angle_beta   90.07313644
_cell_angle_gamma   89.55979433
_symmetry_Int_Tables_number   1
_chemical_formula_structural   CaNd2Ti2Mn2O12
_chemical_formula_sum   'Ca1 Nd2 Ti2 Mn2 O12'
_cell_volume   224.18718149
_cell_formula_units_Z   1
loop_
 _symmetry_equiv_pos_site_id
 _symmetry_equiv_pos_as_xyz
  1  'x, y, z'
loop_
 _atom_site_type_symbol
 _atom_site_label
 _atom_site_symmetry_multiplicity
 _atom_site_fract_x
 _atom_site_fract_y
 _atom_site_fract_z
 _atom_site_occupancy
  Ca  Ca0  1  0.003735  0.036929  0.249623  1
  Nd  Nd1  1  0.989879  0.957288  0.749846  1
  Nd  Nd2  1  0.489205  0.544846  0.250369  1
  Ti  Ti3  1  0.993377  0.491300  0.983896  1
  Ti  Ti4  1  0.499188  0.017953  0.513346  1
  Mn  Mn5  1  0.996202  0.501921  0.499368  1
  Mn  Mn6  1  0.497567  0.005430  0.001116  1
  O  O7  1  0.058732  0.506719  0.746667  1
  O  O8  1  0.220645  0.789336  0.036475  1
  O  O9  1  0.211561  0.783537  0.463833  1
  O  O10  1  0.280860  0.277204  0.046591  1
  O  O11  1  0.277192  0.282135  0.454666  1
  O  O12  1  0.434203  0.015219  0.752695  1
  O  O13  1  0.565052  0.987574  0.246273  1
  O  O14  1  0.726128  0.724198  0.529395  1
  O  O15  1  0.724968  0.726266  0.971677  1
  O  O16  1  0.798693  0.208809  0.525098  1
  O  O17  1  0.792807  0.202824  0.975129  1
  O  O18  1  0.929566  0.490894  0.254231  1
