# generated using pymatgen
data_AsWO5
_symmetry_space_group_name_H-M   'P 1'
_cell_length_a   8.52422042
_cell_length_b   6.16719016
_cell_length_c   8.85607091
_cell_angle_alpha   87.41582772
_cell_angle_beta   90.04932180
_cell_angle_gamma   89.86066584
_symmetry_Int_Tables_number   1
_chemical_formula_structural   AsWO5
_chemical_formula_sum   'As4 W4 O20'
_cell_volume   465.09292451
_cell_formula_units_Z   4
loop_
 _symmetry_equiv_pos_site_id
 _symmetry_equiv_pos_as_xyz
  1  'x, y, z'
loop_
 _atom_site_type_symbol
 _atom_site_label
 _atom_site_symmetry_multiplicity
 _atom_site_fract_x
 _atom_site_fract_y
 _atom_site_fract_z
 _atom_site_occupancy
  As  As0  1  0.598121  0.271107  0.868449  1
  As  As1  1  0.955707  0.880849  0.400281  1
  As  As2  1  0.097623  0.227982  0.131430  1
  As  As3  1  0.455176  0.620073  0.599418  1
  W  W4  1  0.972027  0.490582  0.801693  1
  W  W5  1  0.497015  0.532792  0.191715  1
  W  W6  1  0.471871  0.010460  0.198038  1
  W  W7  1  0.994641  0.968400  0.808367  1
  O  O8  1  0.848921  0.745113  0.869308  1
  O  O9  1  0.610731  0.253145  0.213315  1
  O  O10  1  0.350420  0.755349  0.130155  1
  O  O11  1  0.110095  0.245936  0.787153  1
  O  O12  1  0.811009  0.253023  0.867058  1
  O  O13  1  0.632229  0.764731  0.221712  1
  O  O14  1  0.310395  0.245206  0.131907  1
  O  O15  1  0.130616  0.735329  0.778747  1
  O  O16  1  0.527250  0.313361  0.691667  1
  O  O17  1  0.124482  0.757045  0.423818  1
  O  O18  1  0.027962  0.186801  0.308564  1
  O  O19  1  0.623890  0.743162  0.577376  1
  O  O20  1  0.537457  0.038534  0.960684  1
  O  O21  1  0.928766  0.006988  0.615090  1
  O  O22  1  0.036145  0.460930  0.039411  1
  O  O23  1  0.430013  0.493928  0.384499  1
  O  O24  1  0.553486  0.497443  0.970757  1
  O  O25  1  0.905717  0.503802  0.616701  1
  O  O26  1  0.052114  0.001750  0.029616  1
  O  O27  1  0.406061  0.996238  0.383169  1
