# generated using pymatgen
data_CrO2
_symmetry_space_group_name_H-M   'P 1'
_cell_length_a   5.75849317
_cell_length_b   5.75849283
_cell_length_c   6.14518195
_cell_angle_alpha   57.75263550
_cell_angle_beta   57.75264138
_cell_angle_gamma   60.05216776
_symmetry_Int_Tables_number   1
_chemical_formula_structural   CrO2
_chemical_formula_sum   'Cr4 O8'
_cell_volume   139.05152592
_cell_formula_units_Z   4
loop_
 _symmetry_equiv_pos_site_id
 _symmetry_equiv_pos_as_xyz
  1  'x, y, z'
loop_
 _atom_site_type_symbol
 _atom_site_label
 _atom_site_symmetry_multiplicity
 _atom_site_fract_x
 _atom_site_fract_y
 _atom_site_fract_z
 _atom_site_occupancy
  Cr  Cr0  1  0.006427  0.006427  0.993573  1
  Cr  Cr1  1  0.243573  0.243573  0.256427  1
  Cr  Cr2  1  0.625000  0.625000  0.125000  1
  Cr  Cr3  1  0.625000  0.625000  0.625000  1
  O  O4  1  0.371551  0.371551  0.352827  1
  O  O5  1  0.392903  0.856765  0.375166  1
  O  O6  1  0.371551  0.371551  0.904072  1
  O  O7  1  0.856765  0.392903  0.375166  1
  O  O8  1  0.393235  0.857097  0.874834  1
  O  O9  1  0.857097  0.393235  0.874834  1
  O  O10  1  0.878449  0.878449  0.345928  1
  O  O11  1  0.878449  0.878449  0.897173  1
