# generated using pymatgen
data_Sb3O7
_symmetry_space_group_name_H-M   'P 1'
_cell_length_a   6.60819372
_cell_length_b   11.39531847
_cell_length_c   7.63505895
_cell_angle_alpha   90.00000000
_cell_angle_beta   90.00000000
_cell_angle_gamma   90.00000000
_symmetry_Int_Tables_number   1
_chemical_formula_structural   Sb3O7
_chemical_formula_sum   'Sb12 O28'
_cell_volume   574.93881243
_cell_formula_units_Z   4
loop_
 _symmetry_equiv_pos_site_id
 _symmetry_equiv_pos_as_xyz
  1  'x, y, z'
loop_
 _atom_site_type_symbol
 _atom_site_label
 _atom_site_symmetry_multiplicity
 _atom_site_fract_x
 _atom_site_fract_y
 _atom_site_fract_z
 _atom_site_occupancy
  Sb  Sb0  1  0.248150  0.035440  0.249197  1
  Sb  Sb1  1  0.748150  0.964560  0.250803  1
  Sb  Sb2  1  0.751850  0.535440  0.750803  1
  Sb  Sb3  1  0.251850  0.464560  0.749197  1
  Sb  Sb4  1  0.248745  0.750000  0.253174  1
  Sb  Sb5  1  0.748745  0.250000  0.246826  1
  Sb  Sb6  1  0.751255  0.250000  0.746826  1
  Sb  Sb7  1  0.251255  0.750000  0.753174  1
  Sb  Sb8  1  0.748150  0.535440  0.250803  1
  Sb  Sb9  1  0.248150  0.464560  0.249197  1
  Sb  Sb10  1  0.251850  0.035440  0.749197  1
  Sb  Sb11  1  0.751850  0.964560  0.750803  1
  O  O12  1  0.945981  0.108523  0.725597  1
  O  O13  1  0.445981  0.891477  0.774403  1
  O  O14  1  0.054019  0.608523  0.274403  1
  O  O15  1  0.554019  0.391477  0.225597  1
  O  O16  1  0.054019  0.891477  0.274403  1
  O  O17  1  0.554019  0.108523  0.225597  1
  O  O18  1  0.945981  0.391477  0.725597  1
  O  O19  1  0.445981  0.608523  0.774403  1
  O  O20  1  0.556519  0.108456  0.770890  1
  O  O21  1  0.056519  0.891544  0.729110  1
  O  O22  1  0.443481  0.608456  0.229110  1
  O  O23  1  0.943481  0.391544  0.270890  1
  O  O24  1  0.443481  0.891544  0.229110  1
  O  O25  1  0.943481  0.108456  0.270890  1
  O  O26  1  0.556519  0.391544  0.770890  1
  O  O27  1  0.056519  0.608456  0.729110  1
  O  O28  1  0.305580  0.750000  0.502542  1
  O  O29  1  0.805580  0.250000  0.997458  1
  O  O30  1  0.694420  0.250000  0.497458  1
  O  O31  1  0.194420  0.750000  0.002542  1
  O  O32  1  0.217061  0.425950  0.999029  1
  O  O33  1  0.717061  0.574050  0.500971  1
  O  O34  1  0.782939  0.925950  0.000971  1
  O  O35  1  0.282939  0.074050  0.499029  1
  O  O36  1  0.782939  0.574050  0.000971  1
  O  O37  1  0.282939  0.425950  0.499029  1
  O  O38  1  0.217061  0.074050  0.999029  1
  O  O39  1  0.717061  0.925950  0.500971  1
