# generated using pymatgen
data_Zn(SnO2)4
_symmetry_space_group_name_H-M   'P 1'
_cell_length_a   3.24455425
_cell_length_b   8.06898112
_cell_length_c   8.32046385
_cell_angle_alpha   73.30923401
_cell_angle_beta   78.52029719
_cell_angle_gamma   78.46902304
_symmetry_Int_Tables_number   1
_chemical_formula_structural   Zn(SnO2)4
_chemical_formula_sum   'Zn1 Sn4 O8'
_cell_volume   202.10243260
_cell_formula_units_Z   1
loop_
 _symmetry_equiv_pos_site_id
 _symmetry_equiv_pos_as_xyz
  1  'x, y, z'
loop_
 _atom_site_type_symbol
 _atom_site_label
 _atom_site_symmetry_multiplicity
 _atom_site_fract_x
 _atom_site_fract_y
 _atom_site_fract_z
 _atom_site_occupancy
  Zn  Zn0  1  0.306190  0.194476  0.193482  1
  Sn  Sn1  1  0.642474  0.160468  0.568062  1
  Sn  Sn2  1  0.108031  0.588719  0.212012  1
  Sn  Sn3  1  0.866018  0.441667  0.834945  1
  Sn  Sn4  1  0.344108  0.814528  0.513140  1
  O  O5  1  0.874820  0.656090  0.607218  1
  O  O6  1  0.480714  0.318720  0.730211  1
  O  O7  1  0.497540  0.727241  0.294962  1
  O  O8  1  0.155668  0.289745  0.413944  1
  O  O9  1  0.173991  0.991894  0.672647  1
  O  O10  1  0.843989  0.250254  0.065293  1
  O  O11  1  0.815688  0.990894  0.398931  1
  O  O12  1  0.268931  0.565940  0.903945  1
