# generated using pymatgen
data_SbN
_symmetry_space_group_name_H-M   'P 1'
_cell_length_a   3.32249991
_cell_length_b   3.91013362
_cell_length_c   5.99156479
_cell_angle_alpha   88.69394553
_cell_angle_beta   91.55299682
_cell_angle_gamma   89.78297716
_symmetry_Int_Tables_number   1
_chemical_formula_structural   SbN
_chemical_formula_sum   'Sb2 N2'
_cell_volume   77.78936425
_cell_formula_units_Z   2
loop_
 _symmetry_equiv_pos_site_id
 _symmetry_equiv_pos_as_xyz
  1  'x, y, z'
loop_
 _atom_site_type_symbol
 _atom_site_label
 _atom_site_symmetry_multiplicity
 _atom_site_fract_x
 _atom_site_fract_y
 _atom_site_fract_z
 _atom_site_occupancy
  Sb  Sb0  1  0.361632  0.795770  0.044394  1
  Sb  Sb1  1  0.881756  0.279281  0.458297  1
  N  N2  1  0.378875  0.970441  0.374801  1
  N  N3  1  0.867033  0.480926  0.127808  1
