# generated using pymatgen
data_Li(CoS2)2
_symmetry_space_group_name_H-M   'P 1'
_cell_length_a   6.68885146
_cell_length_b   6.68885171
_cell_length_c   6.72423246
_cell_angle_alpha   120.79214707
_cell_angle_beta   118.69413131
_cell_angle_gamma   90.15434172
_symmetry_Int_Tables_number   1
_chemical_formula_structural   Li(CoS2)2
_chemical_formula_sum   'Li2 Co4 S8'
_cell_volume   214.01901674
_cell_formula_units_Z   2
loop_
 _symmetry_equiv_pos_site_id
 _symmetry_equiv_pos_as_xyz
  1  'x, y, z'
loop_
 _atom_site_type_symbol
 _atom_site_label
 _atom_site_symmetry_multiplicity
 _atom_site_fract_x
 _atom_site_fract_y
 _atom_site_fract_z
 _atom_site_occupancy
  Li  Li0  1  -0.000000  0.500001  0.000001  1
  Li  Li1  1  0.000001  -0.000000  0.500000  1
  Co  Co2  1  0.373857  0.623857  0.750000  1
  Co  Co3  1  0.626144  0.376145  0.250000  1
  Co  Co4  1  0.500001  0.000000  0.500000  1
  Co  Co5  1  -0.000000  0.000000  0.000000  1
  S  S6  1  0.746845  0.767335  0.526156  1
  S  S7  1  0.741181  0.220691  0.973846  1
  S  S8  1  0.246591  0.237359  0.003884  1
  S  S9  1  0.253155  0.232664  0.473845  1
  S  S10  1  0.266525  0.757293  0.503883  1
  S  S11  1  0.258819  0.779310  0.026156  1
  S  S12  1  0.733475  0.242706  0.496116  1
  S  S13  1  0.753409  0.762641  0.996116  1
