# generated using pymatgen
data_ZnCrBiO5
_symmetry_space_group_name_H-M   'P 1'
_cell_length_a   5.31497251
_cell_length_b   10.71219987
_cell_length_c   15.27193267
_cell_angle_alpha   90.00000000
_cell_angle_beta   90.00000000
_cell_angle_gamma   90.00000000
_symmetry_Int_Tables_number   1
_chemical_formula_structural   ZnCrBiO5
_chemical_formula_sum   'Zn8 Cr8 Bi8 O40'
_cell_volume   869.50821703
_cell_formula_units_Z   8
loop_
 _symmetry_equiv_pos_site_id
 _symmetry_equiv_pos_as_xyz
  1  'x, y, z'
loop_
 _atom_site_type_symbol
 _atom_site_label
 _atom_site_symmetry_multiplicity
 _atom_site_fract_x
 _atom_site_fract_y
 _atom_site_fract_z
 _atom_site_occupancy
  Zn  Zn0  1  0.500464  0.359188  0.451123  1
  Zn  Zn1  1  0.000464  0.140812  0.451123  1
  Zn  Zn2  1  0.000464  0.640812  0.048877  1
  Zn  Zn3  1  0.999536  0.359188  0.951123  1
  Zn  Zn4  1  0.499536  0.140812  0.951123  1
  Zn  Zn5  1  0.999536  0.859188  0.548877  1
  Zn  Zn6  1  0.499536  0.640812  0.548877  1
  Zn  Zn7  1  0.500464  0.859188  0.048877  1
  Cr  Cr8  1  0.972259  0.397234  0.590576  1
  Cr  Cr9  1  0.527741  0.897234  0.409424  1
  Cr  Cr10  1  0.027741  0.602766  0.409424  1
  Cr  Cr11  1  0.472259  0.102766  0.590576  1
  Cr  Cr12  1  0.027741  0.102766  0.090576  1
  Cr  Cr13  1  0.972259  0.897234  0.909424  1
  Cr  Cr14  1  0.527741  0.397234  0.090576  1
  Cr  Cr15  1  0.472259  0.602766  0.909424  1
  Bi  Bi16  1  0.977141  0.854517  0.227892  1
  Bi  Bi17  1  0.022859  0.145483  0.772108  1
  Bi  Bi18  1  0.522859  0.354517  0.772108  1
  Bi  Bi19  1  0.022859  0.645483  0.727892  1
  Bi  Bi20  1  0.477141  0.145483  0.272108  1
  Bi  Bi21  1  0.477141  0.645483  0.227892  1
  Bi  Bi22  1  0.522859  0.854517  0.727892  1
  Bi  Bi23  1  0.977141  0.354517  0.272108  1
  O  O24  1  0.924084  0.333115  0.696483  1
  O  O25  1  0.312396  0.041951  0.056865  1
  O  O26  1  0.187604  0.541951  0.943135  1
  O  O27  1  0.286031  0.778853  0.145180  1
  O  O28  1  0.213969  0.278853  0.854820  1
  O  O29  1  0.924084  0.833115  0.803517  1
  O  O30  1  0.213969  0.778853  0.645180  1
  O  O31  1  0.575916  0.833115  0.303517  1
  O  O32  1  0.312396  0.541951  0.443135  1
  O  O33  1  0.075916  0.666885  0.303517  1
  O  O34  1  0.575916  0.333115  0.196483  1
  O  O35  1  0.643093  0.200615  0.526613  1
  O  O36  1  0.812396  0.958049  0.443135  1
  O  O37  1  0.713969  0.721147  0.645180  1
  O  O38  1  0.171491  0.023604  0.882567  1
  O  O39  1  0.812396  0.458049  0.056865  1
  O  O40  1  0.075916  0.166885  0.196483  1
  O  O41  1  0.786031  0.221147  0.354820  1
  O  O42  1  0.143093  0.799385  0.973387  1
  O  O43  1  0.187604  0.041951  0.556865  1
  O  O44  1  0.356907  0.799385  0.473388  1
  O  O45  1  0.828509  0.976396  0.117433  1
  O  O46  1  0.713969  0.221147  0.854820  1
  O  O47  1  0.671491  0.976396  0.617433  1
  O  O48  1  0.356907  0.299385  0.026613  1
  O  O49  1  0.143093  0.299385  0.526613  1
  O  O50  1  0.687604  0.458049  0.556865  1
  O  O51  1  0.687604  0.958049  0.943135  1
  O  O52  1  0.671491  0.476396  0.882567  1
  O  O53  1  0.856907  0.700615  0.473388  1
  O  O54  1  0.856907  0.200615  0.026613  1
  O  O55  1  0.643093  0.700615  0.973387  1
  O  O56  1  0.828509  0.476396  0.382567  1
  O  O57  1  0.786031  0.721147  0.145180  1
  O  O58  1  0.286031  0.278853  0.354820  1
  O  O59  1  0.171491  0.523604  0.617433  1
  O  O60  1  0.328509  0.523604  0.117433  1
  O  O61  1  0.424084  0.166885  0.696483  1
  O  O62  1  0.328509  0.023604  0.382567  1
  O  O63  1  0.424084  0.666885  0.803517  1
