# generated using pymatgen
data_CaAs2WO7
_symmetry_space_group_name_H-M   'P 1'
_cell_length_a   9.61859592
_cell_length_b   8.29612765
_cell_length_c   11.48318346
_cell_angle_alpha   90.00000000
_cell_angle_beta   125.81944483
_cell_angle_gamma   90.00000000
_symmetry_Int_Tables_number   1
_chemical_formula_structural   CaAs2WO7
_chemical_formula_sum   'Ca4 As8 W4 O28'
_cell_volume   743.01588568
_cell_formula_units_Z   4
loop_
 _symmetry_equiv_pos_site_id
 _symmetry_equiv_pos_as_xyz
  1  'x, y, z'
loop_
 _atom_site_type_symbol
 _atom_site_label
 _atom_site_symmetry_multiplicity
 _atom_site_fract_x
 _atom_site_fract_y
 _atom_site_fract_z
 _atom_site_occupancy
  Ca  Ca0  1  0.281190  0.927437  0.879973  1
  Ca  Ca1  1  0.718810  0.427437  0.620027  1
  Ca  Ca2  1  0.718810  0.072563  0.120027  1
  Ca  Ca3  1  0.281190  0.572563  0.379973  1
  As  As4  1  0.457489  0.265994  0.786490  1
  As  As5  1  0.542511  0.765994  0.713510  1
  As  As6  1  0.542511  0.734006  0.213510  1
  As  As7  1  0.457489  0.234006  0.286489  1
  As  As8  1  0.069828  0.275226  0.977534  1
  As  As9  1  0.930171  0.775226  0.522466  1
  As  As10  1  0.930171  0.724774  0.022466  1
  As  As11  1  0.069828  0.224774  0.477534  1
  W  W12  1  0.829482  0.050238  0.703913  1
  W  W13  1  0.170518  0.550238  0.796087  1
  W  W14  1  0.170518  0.949762  0.296087  1
  W  W15  1  0.829482  0.449762  0.203913  1
  O  O16  1  0.757861  0.331239  0.047374  1
  O  O17  1  0.242139  0.831239  0.452626  1
  O  O18  1  0.242139  0.668761  0.952626  1
  O  O19  1  0.757861  0.168761  0.547374  1
  O  O20  1  0.295638  0.368371  0.814216  1
  O  O21  1  0.704362  0.868371  0.685784  1
  O  O22  1  0.704362  0.631629  0.185784  1
  O  O23  1  0.295638  0.131629  0.314216  1
  O  O24  1  0.473182  0.090144  0.876821  1
  O  O25  1  0.526818  0.590144  0.623179  1
  O  O26  1  0.526818  0.909856  0.123179  1
  O  O27  1  0.473182  0.409856  0.376821  1
  O  O28  1  0.299918  0.204430  0.594629  1
  O  O29  1  0.700082  0.704430  0.905371  1
  O  O30  1  0.700082  0.795570  0.405371  1
  O  O31  1  0.299918  0.295570  0.094629  1
  O  O32  1  0.019999  0.089673  0.334731  1
  O  O33  1  0.980001  0.589673  0.165269  1
  O  O34  1  0.980001  0.910327  0.665269  1
  O  O35  1  0.019999  0.410327  0.834731  1
  O  O36  1  0.749773  0.305377  0.271485  1
  O  O37  1  0.250227  0.805377  0.228515  1
  O  O38  1  0.250227  0.694623  0.728515  1
  O  O39  1  0.749773  0.194623  0.771485  1
  O  O40  1  0.063973  0.412535  0.378049  1
  O  O41  1  0.936027  0.912535  0.121951  1
  O  O42  1  0.936027  0.587465  0.621951  1
  O  O43  1  0.063973  0.087465  0.878049  1
