# generated using pymatgen
data_ZnFeO2
_symmetry_space_group_name_H-M   'P 1'
_cell_length_a   2.98745570
_cell_length_b   8.50572388
_cell_length_c   8.48607592
_cell_angle_alpha   84.96811596
_cell_angle_beta   79.75665715
_cell_angle_gamma   79.87779914
_symmetry_Int_Tables_number   1
_chemical_formula_structural   ZnFeO2
_chemical_formula_sum   'Zn4 Fe4 O8'
_cell_volume   208.54039608
_cell_formula_units_Z   4
loop_
 _symmetry_equiv_pos_site_id
 _symmetry_equiv_pos_as_xyz
  1  'x, y, z'
loop_
 _atom_site_type_symbol
 _atom_site_label
 _atom_site_symmetry_multiplicity
 _atom_site_fract_x
 _atom_site_fract_y
 _atom_site_fract_z
 _atom_site_occupancy
  Zn  Zn0  1  0.357489  0.061099  0.233035  1
  Zn  Zn1  1  0.638420  0.918811  0.795194  1
  Zn  Zn2  1  0.078573  0.712960  0.131394  1
  Zn  Zn3  1  0.917595  0.266755  0.896793  1
  Fe  Fe4  1  0.619835  0.187016  0.570467  1
  Fe  Fe5  1  0.200817  0.381364  0.219392  1
  Fe  Fe6  1  0.795174  0.598326  0.808946  1
  Fe  Fe7  1  0.376170  0.793030  0.457794  1
  O  O8  1  0.816768  0.754734  0.612780  1
  O  O9  1  0.369448  0.423057  0.837948  1
  O  O10  1  0.626741  0.556840  0.190199  1
  O  O11  1  0.179151  0.225531  0.415469  1
  O  O12  1  0.079906  0.097864  0.736005  1
  O  O13  1  0.842579  0.199726  0.123622  1
  O  O14  1  0.916232  0.882147  0.292147  1
  O  O15  1  0.153377  0.780077  0.904429  1
