# generated using pymatgen
data_CuW2O7
_symmetry_space_group_name_H-M   'P 1'
_cell_length_a   9.32502507
_cell_length_b   11.81728930
_cell_length_c   10.68663777
_cell_angle_alpha   93.14632133
_cell_angle_beta   90.00000000
_cell_angle_gamma   90.00000000
_symmetry_Int_Tables_number   1
_chemical_formula_structural   CuW2O7
_chemical_formula_sum   'Cu6 W12 O42'
_cell_volume   1175.85514974
_cell_formula_units_Z   6
loop_
 _symmetry_equiv_pos_site_id
 _symmetry_equiv_pos_as_xyz
  1  'x, y, z'
loop_
 _atom_site_type_symbol
 _atom_site_label
 _atom_site_symmetry_multiplicity
 _atom_site_fract_x
 _atom_site_fract_y
 _atom_site_fract_z
 _atom_site_occupancy
  Cu  Cu0  1  0.932158  0.804874  0.412073  1
  Cu  Cu1  1  0.067842  0.195126  0.587927  1
  Cu  Cu2  1  0.430292  0.500000  0.250000  1
  Cu  Cu3  1  0.932158  0.195126  0.087927  1
  Cu  Cu4  1  0.569708  0.500000  0.750000  1
  Cu  Cu5  1  0.067842  0.804874  0.912073  1
  W  W6  1  0.208618  0.159028  0.290828  1
  W  W7  1  0.752123  0.168346  0.381077  1
  W  W8  1  0.247877  0.168346  0.881077  1
  W  W9  1  0.791382  0.159028  0.790828  1
  W  W10  1  0.297027  0.468393  0.961368  1
  W  W11  1  0.752123  0.831654  0.118923  1
  W  W12  1  0.702973  0.468393  0.461368  1
  W  W13  1  0.247877  0.831654  0.618923  1
  W  W14  1  0.297027  0.531607  0.538632  1
  W  W15  1  0.702973  0.531607  0.038632  1
  W  W16  1  0.791382  0.840972  0.709172  1
  W  W17  1  0.208618  0.840972  0.209172  1
  O  O18  1  0.792327  0.196692  0.957797  1
  O  O19  1  0.791399  0.833486  0.284984  1
  O  O20  1  0.820042  0.000000  0.750000  1
  O  O21  1  0.869631  0.502208  0.102460  1
  O  O22  1  0.360832  0.944717  0.589653  1
  O  O23  1  0.928630  0.238395  0.712791  1
  O  O24  1  0.334388  0.309568  0.937710  1
  O  O25  1  0.130369  0.502208  0.602460  1
  O  O26  1  0.713575  0.483338  0.874589  1
  O  O27  1  0.360832  0.055283  0.910347  1
  O  O28  1  0.713575  0.516662  0.625411  1
  O  O29  1  0.433065  0.546699  0.877980  1
  O  O30  1  0.917633  0.849596  0.031845  1
  O  O31  1  0.071370  0.238395  0.212791  1
  O  O32  1  0.665612  0.690432  0.062290  1
  O  O33  1  0.334388  0.690432  0.562290  1
  O  O34  1  0.928630  0.761605  0.787209  1
  O  O35  1  0.639168  0.055283  0.410347  1
  O  O36  1  0.207673  0.196692  0.457797  1
  O  O37  1  0.566935  0.453301  0.122020  1
  O  O38  1  0.374283  0.798418  0.267039  1
  O  O39  1  0.286425  0.516662  0.125411  1
  O  O40  1  0.082367  0.849596  0.531845  1
  O  O41  1  0.286425  0.483338  0.374589  1
  O  O42  1  0.869631  0.497792  0.397540  1
  O  O43  1  0.566935  0.546699  0.377980  1
  O  O44  1  0.130369  0.497792  0.897540  1
  O  O45  1  0.625717  0.798418  0.767039  1
  O  O46  1  0.625717  0.201582  0.732961  1
  O  O47  1  0.082367  0.150404  0.968155  1
  O  O48  1  0.071370  0.761605  0.287209  1
  O  O49  1  0.792327  0.803308  0.542203  1
  O  O50  1  0.179958  0.000000  0.250000  1
  O  O51  1  0.208601  0.833486  0.784984  1
  O  O52  1  0.639168  0.944717  0.089653  1
  O  O53  1  0.917633  0.150404  0.468155  1
  O  O54  1  0.207673  0.803308  0.042203  1
  O  O55  1  0.791399  0.166514  0.215016  1
  O  O56  1  0.433065  0.453301  0.622020  1
  O  O57  1  0.665612  0.309568  0.437710  1
  O  O58  1  0.208601  0.166514  0.715016  1
  O  O59  1  0.374283  0.201582  0.232961  1
