# generated using pymatgen
data_Mg(AgO2)2
_symmetry_space_group_name_H-M   'P 1'
_cell_length_a   3.12761472
_cell_length_b   9.54401573
_cell_length_c   11.02997693
_cell_angle_alpha   90.04941490
_cell_angle_beta   90.00003465
_cell_angle_gamma   90.00101041
_symmetry_Int_Tables_number   1
_chemical_formula_structural   Mg(AgO2)2
_chemical_formula_sum   'Mg4 Ag8 O16'
_cell_volume   329.24473377
_cell_formula_units_Z   4
loop_
 _symmetry_equiv_pos_site_id
 _symmetry_equiv_pos_as_xyz
  1  'x, y, z'
loop_
 _atom_site_type_symbol
 _atom_site_label
 _atom_site_symmetry_multiplicity
 _atom_site_fract_x
 _atom_site_fract_y
 _atom_site_fract_z
 _atom_site_occupancy
  Mg  Mg0  1  0.749997  0.250344  0.341584  1
  Mg  Mg1  1  0.250004  0.749580  0.658374  1
  Mg  Mg2  1  0.749998  0.749947  0.158536  1
  Mg  Mg3  1  0.249994  0.249961  0.841466  1
  Ag  Ag4  1  0.249998  0.414019  0.107126  1
  Ag  Ag5  1  0.749998  0.085984  0.607275  1
  Ag  Ag6  1  0.249995  0.914066  0.392839  1
  Ag  Ag7  1  0.750006  0.585969  0.892858  1
  Ag  Ag8  1  0.749996  0.566739  0.389171  1
  Ag  Ag9  1  0.250001  0.433254  0.610756  1
  Ag  Ag10  1  0.750000  0.066470  0.110828  1
  Ag  Ag11  1  0.250010  0.933472  0.889167  1
  O  O12  1  0.250011  0.873363  0.072430  1
  O  O13  1  0.749980  0.126635  0.927695  1
  O  O14  1  0.250005  0.373285  0.427304  1
  O  O15  1  0.749998  0.626629  0.572759  1
  O  O16  1  0.249999  0.023536  0.723726  1
  O  O17  1  0.750008  0.976747  0.276266  1
  O  O18  1  0.250003  0.523230  0.776398  1
  O  O19  1  0.749998  0.476775  0.223480  1
  O  O20  1  0.250003  0.622354  0.039515  1
  O  O21  1  0.750000  0.377492  0.960512  1
  O  O22  1  0.249997  0.122381  0.460585  1
  O  O23  1  0.749987  0.877800  0.539607  1
  O  O24  1  0.750014  0.777254  0.795820  1
  O  O25  1  0.249991  0.222763  0.204060  1
  O  O26  1  0.249994  0.722833  0.295684  1
  O  O27  1  0.750003  0.277115  0.704180  1
