# generated using pymatgen
data_Al(CuS2)3
_symmetry_space_group_name_H-M   'P 1'
_cell_length_a   5.15623461
_cell_length_b   5.15623402
_cell_length_c   18.69771817
_cell_angle_alpha   114.43446973
_cell_angle_beta   114.43446699
_cell_angle_gamma   89.99999473
_symmetry_Int_Tables_number   1
_chemical_formula_structural   Al(CuS2)3
_chemical_formula_sum   'Al2 Cu6 S12'
_cell_volume   403.17673412
_cell_formula_units_Z   2
loop_
 _symmetry_equiv_pos_site_id
 _symmetry_equiv_pos_as_xyz
  1  'x, y, z'
loop_
 _atom_site_type_symbol
 _atom_site_label
 _atom_site_symmetry_multiplicity
 _atom_site_fract_x
 _atom_site_fract_y
 _atom_site_fract_z
 _atom_site_occupancy
  Al  Al0  1  0.500000  0.500000  0.333333  1
  Al  Al1  1  0.750000  0.250000  0.833333  1
  Cu  Cu2  1  0.244152  0.744152  0.162768  1
  Cu  Cu3  1  0.255848  0.755848  0.503899  1
  Cu  Cu4  1  0.250000  0.750000  0.833333  1
  Cu  Cu5  1  0.005848  0.005848  0.003899  1
  Cu  Cu6  1  0.000000  0.000000  0.333333  1
  Cu  Cu7  1  0.994152  0.994152  0.662768  1
  S  S8  1  0.882256  0.875000  0.083333  1
  S  S9  1  0.875685  0.889964  0.421053  1
  S  S10  1  0.862527  0.860036  0.745614  1
  S  S11  1  0.626806  0.124315  0.245614  1
  S  S12  1  0.625000  0.117744  0.583333  1
  S  S13  1  0.623194  0.137473  0.921053  1
  S  S14  1  0.367744  0.375000  0.083333  1
  S  S15  1  0.387473  0.373194  0.421053  1
  S  S16  1  0.374315  0.376806  0.745614  1
  S  S17  1  0.110036  0.612527  0.245614  1
  S  S18  1  0.125000  0.632256  0.583333  1
  S  S19  1  0.139964  0.625685  0.921053  1
