# generated using pymatgen
data_CaSnP2O7
_symmetry_space_group_name_H-M   'P 1'
_cell_length_a   7.60959479
_cell_length_b   9.73415787
_cell_length_c   9.58592098
_cell_angle_alpha   90.00000000
_cell_angle_beta   113.27734046
_cell_angle_gamma   90.00000000
_symmetry_Int_Tables_number   1
_chemical_formula_structural   CaSnP2O7
_chemical_formula_sum   'Ca4 Sn4 P8 O28'
_cell_volume   652.26112986
_cell_formula_units_Z   4
loop_
 _symmetry_equiv_pos_site_id
 _symmetry_equiv_pos_as_xyz
  1  'x, y, z'
loop_
 _atom_site_type_symbol
 _atom_site_label
 _atom_site_symmetry_multiplicity
 _atom_site_fract_x
 _atom_site_fract_y
 _atom_site_fract_z
 _atom_site_occupancy
  Ca  Ca0  1  0.110455  0.948003  0.821911  1
  Ca  Ca1  1  0.389545  0.448003  0.678089  1
  Ca  Ca2  1  0.610455  0.551997  0.321911  1
  Ca  Ca3  1  0.889545  0.051997  0.178089  1
  Sn  Sn4  1  0.374072  0.081504  0.608450  1
  Sn  Sn5  1  0.625928  0.918496  0.391550  1
  Sn  Sn6  1  0.125928  0.581504  0.891550  1
  Sn  Sn7  1  0.874072  0.418496  0.108450  1
  P  P8  1  0.185752  0.739168  0.255227  1
  P  P9  1  0.441964  0.223078  0.973318  1
  P  P10  1  0.685752  0.760832  0.755227  1
  P  P11  1  0.941964  0.276922  0.473318  1
  P  P12  1  0.314248  0.239168  0.244773  1
  P  P13  1  0.058036  0.723078  0.526682  1
  P  P14  1  0.558036  0.776922  0.026682  1
  P  P15  1  0.814248  0.260832  0.744773  1
  O  O16  1  0.350430  0.191155  0.096273  1
  O  O17  1  0.593708  0.622191  0.700387  1
  O  O18  1  0.093708  0.877809  0.200387  1
  O  O19  1  0.381072  0.364866  0.902358  1
  O  O20  1  0.649570  0.808845  0.903727  1
  O  O21  1  0.390250  0.120290  0.357856  1
  O  O22  1  0.618928  0.635134  0.097642  1
  O  O23  1  0.360378  0.103413  0.860554  1
  O  O24  1  0.161484  0.285018  0.557048  1
  O  O25  1  0.609750  0.879710  0.642144  1
  O  O26  1  0.890250  0.379710  0.857856  1
  O  O27  1  0.908469  0.756942  0.813208  1
  O  O28  1  0.591531  0.256942  0.686792  1
  O  O29  1  0.850430  0.308845  0.596273  1
  O  O30  1  0.109750  0.620290  0.142144  1
  O  O31  1  0.906292  0.122191  0.799613  1
  O  O32  1  0.091531  0.243058  0.186792  1
  O  O33  1  0.639622  0.896587  0.139446  1
  O  O34  1  0.661484  0.214982  0.057048  1
  O  O35  1  0.338516  0.785018  0.942952  1
  O  O36  1  0.118928  0.864866  0.597642  1
  O  O37  1  0.860378  0.396587  0.360554  1
  O  O38  1  0.139622  0.603413  0.639446  1
  O  O39  1  0.406292  0.377809  0.299613  1
  O  O40  1  0.408469  0.743058  0.313208  1
  O  O41  1  0.881072  0.135134  0.402358  1
  O  O42  1  0.838516  0.714982  0.442952  1
  O  O43  1  0.149570  0.691155  0.403727  1
