# generated using pymatgen
data_BaCa(SnO2)4
_symmetry_space_group_name_H-M   'P 1'
_cell_length_a   6.12574700
_cell_length_b   6.12574673
_cell_length_c   7.06289093
_cell_angle_alpha   90.00000000
_cell_angle_beta   90.00000000
_cell_angle_gamma   119.99999634
_symmetry_Int_Tables_number   1
_chemical_formula_structural   BaCa(SnO2)4
_chemical_formula_sum   'Ba1 Ca1 Sn4 O8'
_cell_volume   229.52565771
_cell_formula_units_Z   1
loop_
 _symmetry_equiv_pos_site_id
 _symmetry_equiv_pos_as_xyz
  1  'x, y, z'
loop_
 _atom_site_type_symbol
 _atom_site_label
 _atom_site_symmetry_multiplicity
 _atom_site_fract_x
 _atom_site_fract_y
 _atom_site_fract_z
 _atom_site_occupancy
  Ba  Ba0  1  -0.000000  -0.000000  -0.000000  1
  Ca  Ca1  1  -0.000000  -0.000000  0.500000  1
  Sn  Sn2  1  0.333333  0.666667  0.714356  1
  Sn  Sn3  1  0.666667  0.333333  0.714356  1
  Sn  Sn4  1  0.333333  0.666667  0.285644  1
  Sn  Sn5  1  0.666667  0.333333  0.285644  1
  O  O6  1  0.305352  0.305352  0.708421  1
  O  O7  1  0.694648  0.000000  0.708421  1
  O  O8  1  0.000000  0.694648  0.708421  1
  O  O9  1  0.694648  0.694648  0.291579  1
  O  O10  1  1.000000  0.305352  0.291579  1
  O  O11  1  0.305352  1.000000  0.291579  1
  O  O12  1  0.333333  0.666667  -0.000000  1
  O  O13  1  0.666667  0.333333  0.000000  1
