# generated using pymatgen
data_Mg(MoO2)2
_symmetry_space_group_name_H-M   'P 1'
_cell_length_a   6.39424172
_cell_length_b   6.33981141
_cell_length_c   19.12792103
_cell_angle_alpha   59.44662826
_cell_angle_beta   58.66822463
_cell_angle_gamma   60.64613552
_symmetry_Int_Tables_number   1
_chemical_formula_structural   Mg(MoO2)2
_chemical_formula_sum   'Mg6 Mo12 O24'
_cell_volume   542.81840199
_cell_formula_units_Z   6
loop_
 _symmetry_equiv_pos_site_id
 _symmetry_equiv_pos_as_xyz
  1  'x, y, z'
loop_
 _atom_site_type_symbol
 _atom_site_label
 _atom_site_symmetry_multiplicity
 _atom_site_fract_x
 _atom_site_fract_y
 _atom_site_fract_z
 _atom_site_occupancy
  Mg  Mg0  1  0.113893  0.126968  0.045586  1
  Mg  Mg1  1  0.127244  0.121379  0.378118  1
  Mg  Mg2  1  0.498386  0.498465  0.335963  1
  Mg  Mg3  1  0.128607  0.120625  0.707754  1
  Mg  Mg4  1  0.491212  0.498496  0.004970  1
  Mg  Mg5  1  0.882628  0.873788  0.621969  1
  Mo  Mo6  1  0.492074  0.509803  0.165612  1
  Mo  Mo7  1  0.490069  0.011897  0.167485  1
  Mo  Mo8  1  0.509046  0.497595  0.497014  1
  Mo  Mo9  1  0.994503  0.507563  0.167053  1
  Mo  Mo10  1  0.509013  0.001526  0.497055  1
  Mo  Mo11  1  0.504153  0.496815  0.665396  1
  Mo  Mo12  1  0.884289  0.882943  0.285958  1
  Mo  Mo13  1  0.498068  0.494315  0.834102  1
  Mo  Mo14  1  0.014154  0.494593  0.498602  1
  Mo  Mo15  1  0.498730  0.993372  0.833696  1
  Mo  Mo16  1  0.997263  0.494527  0.833886  1
  Mo  Mo17  1  0.878219  0.882219  0.953378  1
  O  O18  1  0.247452  0.260831  0.088310  1
  O  O19  1  0.243609  0.267097  0.243317  1
  O  O20  1  0.257089  0.735001  0.084499  1
  O  O21  1  0.719677  0.273208  0.083750  1
  O  O22  1  0.266722  0.249905  0.419782  1
  O  O23  1  0.280200  0.727719  0.254971  1
  O  O24  1  0.262393  0.251470  0.575505  1
  O  O25  1  0.721873  0.286466  0.244853  1
  O  O26  1  0.741527  0.755511  0.093582  1
  O  O27  1  0.270834  0.726516  0.418069  1
  O  O28  1  0.734729  0.264712  0.413962  1
  O  O29  1  0.727388  0.763050  0.244340  1
  O  O30  1  0.256223  0.245627  0.755170  1
  O  O31  1  0.278868  0.733786  0.581832  1
  O  O32  1  0.742825  0.268093  0.580751  1
  O  O33  1  0.249288  0.251333  0.910732  1
  O  O34  1  0.767544  0.733693  0.423569  1
  O  O35  1  0.260791  0.722421  0.754012  1
  O  O36  1  0.729602  0.254166  0.752528  1
  O  O37  1  0.747781  0.743629  0.579159  1
  O  O38  1  0.272321  0.726186  0.917541  1
  O  O39  1  0.722837  0.275901  0.918444  1
  O  O40  1  0.747880  0.737146  0.757429  1
  O  O41  1  0.738997  0.739644  0.910295  1
