# generated using pymatgen
data_MgBiPO6
_symmetry_space_group_name_H-M   'P 1'
_cell_length_a   5.32498444
_cell_length_b   8.21957433
_cell_length_c   6.56298760
_cell_angle_alpha   117.02755738
_cell_angle_beta   90.00000000
_cell_angle_gamma   90.00000000
_symmetry_Int_Tables_number   1
_chemical_formula_structural   MgBiPO6
_chemical_formula_sum   'Mg2 Bi2 P2 O12'
_cell_volume   255.88430238
_cell_formula_units_Z   2
loop_
 _symmetry_equiv_pos_site_id
 _symmetry_equiv_pos_as_xyz
  1  'x, y, z'
loop_
 _atom_site_type_symbol
 _atom_site_label
 _atom_site_symmetry_multiplicity
 _atom_site_fract_x
 _atom_site_fract_y
 _atom_site_fract_z
 _atom_site_occupancy
  Mg  Mg0  1  0.250000  0.916371  0.768907  1
  Mg  Mg1  1  0.750000  0.083629  0.231093  1
  Bi  Bi2  1  0.750000  0.542371  0.345351  1
  Bi  Bi3  1  0.250000  0.457629  0.654649  1
  P  P4  1  0.250000  0.823837  0.196500  1
  P  P5  1  0.750000  0.176163  0.803500  1
  O  O6  1  0.980210  0.321788  0.352144  1
  O  O7  1  0.519278  0.110060  0.888757  1
  O  O8  1  0.250000  0.897679  0.454737  1
  O  O9  1  0.750000  0.102321  0.545263  1
  O  O10  1  0.519790  0.321788  0.352144  1
  O  O11  1  0.250000  0.610534  0.084735  1
  O  O12  1  0.019790  0.678212  0.647856  1
  O  O13  1  0.480210  0.678212  0.647856  1
  O  O14  1  0.019278  0.889941  0.111244  1
  O  O15  1  0.750000  0.389466  0.915265  1
  O  O16  1  0.980722  0.110060  0.888757  1
  O  O17  1  0.480722  0.889941  0.111244  1
