# generated using pymatgen
data_CaSbO3
_symmetry_space_group_name_H-M   'P 1'
_cell_length_a   5.72396207
_cell_length_b   5.92450337
_cell_length_c   8.15645184
_cell_angle_alpha   90.00000000
_cell_angle_beta   90.00000000
_cell_angle_gamma   89.74868206
_symmetry_Int_Tables_number   1
_chemical_formula_structural   CaSbO3
_chemical_formula_sum   'Ca4 Sb4 O12'
_cell_volume   276.59593725
_cell_formula_units_Z   4
loop_
 _symmetry_equiv_pos_site_id
 _symmetry_equiv_pos_as_xyz
  1  'x, y, z'
loop_
 _atom_site_type_symbol
 _atom_site_label
 _atom_site_symmetry_multiplicity
 _atom_site_fract_x
 _atom_site_fract_y
 _atom_site_fract_z
 _atom_site_occupancy
  Ca  Ca0  1  0.514811  0.557561  0.750000  1
  Ca  Ca1  1  0.485189  0.442439  0.250000  1
  Ca  Ca2  1  0.994539  0.050582  0.750000  1
  Ca  Ca3  1  0.005461  0.949418  0.250000  1
  Sb  Sb4  1  0.500000  0.000000  0.500000  1
  Sb  Sb5  1  0.500000  0.000000  0.000000  1
  Sb  Sb6  1  0.000000  0.500000  0.500000  1
  Sb  Sb7  1  0.000000  0.500000  0.000000  1
  O  O8  1  0.288486  0.677186  0.442135  1
  O  O9  1  0.171462  0.212711  0.057303  1
  O  O10  1  0.711514  0.322814  0.942135  1
  O  O11  1  0.828538  0.787289  0.557303  1
  O  O12  1  0.171462  0.212711  0.442697  1
  O  O13  1  0.828538  0.787289  0.942697  1
  O  O14  1  0.884411  0.549552  0.250000  1
  O  O15  1  0.288486  0.677186  0.057865  1
  O  O16  1  0.380476  0.944620  0.750000  1
  O  O17  1  0.711514  0.322814  0.557865  1
  O  O18  1  0.115589  0.450448  0.750000  1
  O  O19  1  0.619524  0.055380  0.250000  1
