# generated using pymatgen
data_ZnCu3(NiO3)4
_symmetry_space_group_name_H-M   'P 1'
_cell_length_a   6.27179101
_cell_length_b   6.27210423
_cell_length_c   6.27282338
_cell_angle_alpha   109.45106270
_cell_angle_beta   109.46343807
_cell_angle_gamma   109.49770944
_symmetry_Int_Tables_number   1
_chemical_formula_structural   ZnCu3(NiO3)4
_chemical_formula_sum   'Zn1 Cu3 Ni4 O12'
_cell_volume   189.95631540
_cell_formula_units_Z   1
loop_
 _symmetry_equiv_pos_site_id
 _symmetry_equiv_pos_as_xyz
  1  'x, y, z'
loop_
 _atom_site_type_symbol
 _atom_site_label
 _atom_site_symmetry_multiplicity
 _atom_site_fract_x
 _atom_site_fract_y
 _atom_site_fract_z
 _atom_site_occupancy
  Zn  Zn0  1  0.000037  0.000027  0.000092  1
  Cu  Cu1  1  0.500016  0.500013  0.000006  1
  Cu  Cu2  1  0.000013  0.499902  0.499910  1
  Cu  Cu3  1  0.499893  0.000006  0.499903  1
  Ni  Ni4  1  0.000001  -0.000018  0.499996  1
  Ni  Ni5  1  -0.000016  0.499989  0.000006  1
  Ni  Ni6  1  0.500012  0.499992  0.500005  1
  Ni  Ni7  1  0.500018  0.000014  0.000008  1
  O  O8  1  0.830712  0.307716  0.138330  1
  O  O9  1  0.169120  0.692327  0.861550  1
  O  O10  1  0.830721  0.692284  0.522944  1
  O  O11  1  0.307496  0.476930  0.169314  1
  O  O12  1  0.477161  0.169455  0.307584  1
  O  O13  1  0.138140  0.830597  0.307650  1
  O  O14  1  0.692442  0.861788  0.169246  1
  O  O15  1  0.522902  0.830603  0.692408  1
  O  O16  1  0.169442  0.307724  0.477244  1
  O  O17  1  0.692532  0.523135  0.830739  1
  O  O18  1  0.861784  0.169330  0.692336  1
  O  O19  1  0.307573  0.138187  0.830731  1
