# generated using pymatgen
data_Ca2TaMoO6
_symmetry_space_group_name_H-M   'P 1'
_cell_length_a   5.57451801
_cell_length_b   5.75188739
_cell_length_c   7.95891654
_cell_angle_alpha   90.00000000
_cell_angle_beta   90.00000000
_cell_angle_gamma   89.62921065
_symmetry_Int_Tables_number   1
_chemical_formula_structural   Ca2TaMoO6
_chemical_formula_sum   'Ca4 Ta2 Mo2 O12'
_cell_volume   255.18935494
_cell_formula_units_Z   2
loop_
 _symmetry_equiv_pos_site_id
 _symmetry_equiv_pos_as_xyz
  1  'x, y, z'
loop_
 _atom_site_type_symbol
 _atom_site_label
 _atom_site_symmetry_multiplicity
 _atom_site_fract_x
 _atom_site_fract_y
 _atom_site_fract_z
 _atom_site_occupancy
  Ca  Ca0  1  0.009801  0.956185  0.250000  1
  Ca  Ca1  1  0.490413  0.437908  0.250000  1
  Ca  Ca2  1  0.509587  0.562092  0.750000  1
  Ca  Ca3  1  0.990199  0.043815  0.750000  1
  Ta  Ta4  1  0.000000  0.500000  0.000000  1
  Ta  Ta5  1  0.000000  0.500000  0.500000  1
  Mo  Mo6  1  0.500000  0.000000  0.000000  1
  Mo  Mo7  1  0.500000  0.000000  0.500000  1
  O  O8  1  0.813170  0.785815  0.552360  1
  O  O9  1  0.289654  0.688277  0.450304  1
  O  O10  1  0.186830  0.214185  0.447640  1
  O  O11  1  0.710346  0.311723  0.950304  1
  O  O12  1  0.093052  0.466865  0.750000  1
  O  O13  1  0.710346  0.311723  0.549696  1
  O  O14  1  0.289654  0.688277  0.049696  1
  O  O15  1  0.813170  0.785815  0.947640  1
  O  O16  1  0.617964  0.048341  0.250000  1
  O  O17  1  0.186830  0.214185  0.052360  1
  O  O18  1  0.382036  0.951659  0.750000  1
  O  O19  1  0.906948  0.533135  0.250000  1
