# generated using pymatgen
data_Sr2AlV2GaO7
_symmetry_space_group_name_H-M   'P 1'
_cell_length_a   5.58243349
_cell_length_b   5.87515471
_cell_length_c   11.76045597
_cell_angle_alpha   104.71301725
_cell_angle_beta   104.01116755
_cell_angle_gamma   88.87332528
_symmetry_Int_Tables_number   1
_chemical_formula_structural   Sr2AlV2GaO7
_chemical_formula_sum   'Sr4 Al2 V4 Ga2 O14'
_cell_volume   361.60881966
_cell_formula_units_Z   2
loop_
 _symmetry_equiv_pos_site_id
 _symmetry_equiv_pos_as_xyz
  1  'x, y, z'
loop_
 _atom_site_type_symbol
 _atom_site_label
 _atom_site_symmetry_multiplicity
 _atom_site_fract_x
 _atom_site_fract_y
 _atom_site_fract_z
 _atom_site_occupancy
  Sr  Sr0  1  0.140502  0.190795  0.296563  1
  Sr  Sr1  1  0.843407  0.811613  0.690069  1
  Sr  Sr2  1  0.653811  0.621695  0.309984  1
  Sr  Sr3  1  0.343793  0.393890  0.703477  1
  Al  Al4  1  0.589430  0.435018  0.036616  1
  Al  Al5  1  0.053056  0.898015  0.963386  1
  V  V6  1  0.439236  0.946475  0.868684  1
  V  V7  1  0.070522  0.578234  0.131506  1
  V  V8  1  0.921242  0.416079  0.859115  1
  V  V9  1  0.561909  0.057146  0.140896  1
  Ga  Ga10  1  0.221986  0.837276  0.500051  1
  Ga  Ga11  1  0.711037  0.177527  0.499997  1
  O  O12  1  0.845090  0.294418  0.125332  1
  O  O13  1  0.880105  0.893312  0.500042  1
  O  O14  1  0.369475  0.383474  0.118123  1
  O  O15  1  0.849041  0.373478  0.653493  1
  O  O16  1  0.584216  0.271170  0.883535  1
  O  O17  1  0.099349  0.097602  0.875517  1
  O  O18  1  0.372610  0.126175  0.500057  1
  O  O19  1  0.220110  0.668604  0.874886  1
  O  O20  1  0.751759  0.765103  0.881954  1
  O  O21  1  0.359116  0.785155  0.651330  1
  O  O22  1  0.207093  0.633833  0.348744  1
  O  O23  1  0.695154  0.219653  0.346377  1
  O  O24  1  0.723573  0.722333  0.124435  1
  O  O25  1  0.200953  0.887964  0.116660  1
