# generated using pymatgen
data_Mg3Ti2O7
_symmetry_space_group_name_H-M   'P 1'
_cell_length_a   5.36285747
_cell_length_b   5.19922819
_cell_length_c   9.31494535
_cell_angle_alpha   106.20529375
_cell_angle_beta   90.00000000
_cell_angle_gamma   90.00000000
_symmetry_Int_Tables_number   1
_chemical_formula_structural   Mg3Ti2O7
_chemical_formula_sum   'Mg6 Ti4 O14'
_cell_volume   249.40655171
_cell_formula_units_Z   2
loop_
 _symmetry_equiv_pos_site_id
 _symmetry_equiv_pos_as_xyz
  1  'x, y, z'
loop_
 _atom_site_type_symbol
 _atom_site_label
 _atom_site_symmetry_multiplicity
 _atom_site_fract_x
 _atom_site_fract_y
 _atom_site_fract_z
 _atom_site_occupancy
  Mg  Mg0  1  0.704366  0.746343  1.000000  1
  Mg  Mg1  1  0.204366  0.253657  0.000000  1
  Mg  Mg2  1  0.814961  0.576097  0.611641  1
  Mg  Mg3  1  0.314961  0.423903  0.388359  1
  Mg  Mg4  1  0.814961  0.964455  0.388359  1
  Mg  Mg5  1  0.314961  0.035545  0.611641  1
  Ti  Ti6  1  0.764187  0.352958  0.211024  1
  Ti  Ti7  1  0.264187  0.647042  0.788976  1
  Ti  Ti8  1  0.264187  0.858066  0.211024  1
  Ti  Ti9  1  0.764187  0.141934  0.788976  1
  O  O10  1  0.692634  0.933982  0.587139  1
  O  O11  1  0.192634  0.066018  0.412861  1
  O  O12  1  0.192634  0.653156  0.587139  1
  O  O13  1  0.692634  0.346844  0.412861  1
  O  O14  1  0.058913  0.300432  0.740905  1
  O  O15  1  0.558913  0.699568  0.259095  1
  O  O16  1  0.558913  0.440473  0.740905  1
  O  O17  1  0.058913  0.559527  0.259095  1
  O  O18  1  0.923723  0.846526  0.839789  1
  O  O19  1  0.423723  0.153474  0.160211  1
  O  O20  1  0.806801  0.366750  0.000000  1
  O  O21  1  0.306801  0.633250  1.000000  1
  O  O22  1  0.923723  0.006737  0.160211  1
  O  O23  1  0.423723  0.993263  0.839789  1
