# generated using pymatgen
data_Ba2CaFe2CuF14
_symmetry_space_group_name_H-M   'P 1'
_cell_length_a   5.44640160
_cell_length_b   7.54125264
_cell_length_c   15.06135935
_cell_angle_alpha   91.38612796
_cell_angle_beta   90.00000000
_cell_angle_gamma   111.16820997
_symmetry_Int_Tables_number   1
_chemical_formula_structural   Ba2CaFe2CuF14
_chemical_formula_sum   'Ba4 Ca2 Fe4 Cu2 F28'
_cell_volume   576.67524828
_cell_formula_units_Z   2
loop_
 _symmetry_equiv_pos_site_id
 _symmetry_equiv_pos_as_xyz
  1  'x, y, z'
loop_
 _atom_site_type_symbol
 _atom_site_label
 _atom_site_symmetry_multiplicity
 _atom_site_fract_x
 _atom_site_fract_y
 _atom_site_fract_z
 _atom_site_occupancy
  Ba  Ba0  1  0.118215  0.376847  0.622358  1
  Ba  Ba1  1  0.258632  0.376847  0.122358  1
  Ba  Ba2  1  0.881785  0.623153  0.377642  1
  Ba  Ba3  1  0.741368  0.623153  0.877642  1
  Ca  Ca4  1  0.420070  0.000000  0.750000  1
  Ca  Ca5  1  0.579930  0.000000  0.250000  1
  Fe  Fe6  1  0.094335  0.240967  0.875525  1
  Fe  Fe7  1  0.905665  0.759033  0.124475  1
  Fe  Fe8  1  0.146631  0.240967  0.375525  1
  Fe  Fe9  1  0.853369  0.759033  0.624475  1
  Cu  Cu10  1  0.500000  0.000000  0.000000  1
  Cu  Cu11  1  0.500000  0.000000  0.500000  1
  F  F12  1  0.916172  0.983819  0.344869  1
  F  F13  1  0.878991  0.278850  0.454853  1
  F  F14  1  0.121009  0.721150  0.545147  1
  F  F15  1  0.650270  0.495954  0.596950  1
  F  F16  1  0.615788  0.104126  0.615348  1
  F  F17  1  0.511662  0.895874  0.884652  1
  F  F18  1  0.399859  0.278850  0.954853  1
  F  F19  1  0.932353  0.016181  0.155131  1
  F  F20  1  0.357756  0.319838  0.778061  1
  F  F21  1  0.349730  0.504046  0.403050  1
  F  F22  1  0.823896  0.239645  0.790208  1
  F  F23  1  0.154316  0.504046  0.903050  1
  F  F24  1  0.415749  0.239645  0.290208  1
  F  F25  1  0.176104  0.760355  0.209792  1
  F  F26  1  0.488338  0.104126  0.115348  1
  F  F27  1  0.642244  0.680162  0.221939  1
  F  F28  1  0.127254  0.833244  0.017226  1
  F  F29  1  0.083828  0.016181  0.655131  1
  F  F30  1  0.872746  0.166756  0.982774  1
  F  F31  1  0.705990  0.833244  0.517226  1
  F  F32  1  0.600141  0.721150  0.045147  1
  F  F33  1  0.584251  0.760355  0.709792  1
  F  F34  1  0.962081  0.319838  0.278061  1
  F  F35  1  0.294010  0.166756  0.482774  1
  F  F36  1  0.384212  0.895874  0.384652  1
  F  F37  1  0.067647  0.983819  0.844869  1
  F  F38  1  0.037919  0.680162  0.721939  1
  F  F39  1  0.845684  0.495954  0.096950  1
