# generated using pymatgen
data_Mn4(SiO3)5
_symmetry_space_group_name_H-M   'P 1'
_cell_length_a   6.57846007
_cell_length_b   7.58082065
_cell_length_c   12.12292213
_cell_angle_alpha   105.95567877
_cell_angle_beta   94.66870417
_cell_angle_gamma   93.32642010
_symmetry_Int_Tables_number   1
_chemical_formula_structural   Mn4(SiO3)5
_chemical_formula_sum   'Mn8 Si10 O30'
_cell_volume   577.30897284
_cell_formula_units_Z   2
loop_
 _symmetry_equiv_pos_site_id
 _symmetry_equiv_pos_as_xyz
  1  'x, y, z'
loop_
 _atom_site_type_symbol
 _atom_site_label
 _atom_site_symmetry_multiplicity
 _atom_site_fract_x
 _atom_site_fract_y
 _atom_site_fract_z
 _atom_site_occupancy
  Mn  Mn0  1  0.041263  0.108042  0.165564  1
  Mn  Mn1  1  0.122421  0.318473  0.447014  1
  Mn  Mn2  1  0.765620  0.273153  0.970938  1
  Mn  Mn3  1  0.234380  0.726847  0.029062  1
  Mn  Mn4  1  0.813874  0.503745  0.270509  1
  Mn  Mn5  1  0.958737  0.891957  0.834436  1
  Mn  Mn6  1  0.877579  0.681527  0.552986  1
  Mn  Mn7  1  0.186126  0.496255  0.729491  1
  Si  Si8  1  0.292494  0.539151  0.254861  1
  Si  Si9  1  0.492757  0.209097  0.121163  1
  Si  Si10  1  0.835016  0.935978  0.351088  1
  Si  Si11  1  0.164984  0.064022  0.648912  1
  Si  Si12  1  0.765297  0.733008  0.090182  1
  Si  Si13  1  0.507243  0.790903  0.878837  1
  Si  Si14  1  0.234703  0.266992  0.909818  1
  Si  Si15  1  0.626447  0.271790  0.482343  1
  Si  Si16  1  0.707506  0.460849  0.745139  1
  Si  Si17  1  0.373553  0.728210  0.517657  1
  O  O18  1  0.318479  0.940813  0.566994  1
  O  O19  1  0.888257  0.757536  0.394611  1
  O  O20  1  0.100956  0.397549  0.264596  1
  O  O21  1  0.244748  0.646051  0.159817  1
  O  O22  1  0.260479  0.815475  0.888326  1
  O  O23  1  0.281016  0.145508  0.781657  1
  O  O24  1  0.633501  0.315262  0.621898  1
  O  O25  1  0.973123  0.923339  0.662485  1
  O  O26  1  0.111743  0.242464  0.605389  1
  O  O27  1  0.405056  0.305453  0.427821  1
  O  O28  1  0.040473  0.168656  0.954349  1
  O  O29  1  0.718984  0.854492  0.218343  1
  O  O30  1  0.821718  0.403707  0.450785  1
  O  O31  1  0.899044  0.602451  0.735404  1
  O  O32  1  0.026877  0.076661  0.337515  1
  O  O33  1  0.959527  0.831344  0.045651  1
  O  O34  1  0.178282  0.596293  0.549215  1
  O  O35  1  0.594944  0.694547  0.572179  1
  O  O36  1  0.797893  0.525721  0.093858  1
  O  O37  1  0.443334  0.260617  0.995708  1
  O  O38  1  0.556666  0.739383  0.004292  1
  O  O39  1  0.202107  0.474279  0.906142  1
  O  O40  1  0.508989  0.590430  0.777735  1
  O  O41  1  0.755252  0.353949  0.840183  1
  O  O42  1  0.681521  0.059187  0.433006  1
  O  O43  1  0.662310  0.949579  0.864878  1
  O  O44  1  0.366499  0.684738  0.378102  1
  O  O45  1  0.491011  0.409570  0.222265  1
  O  O46  1  0.739521  0.184525  0.111674  1
  O  O47  1  0.337690  0.050421  0.135122  1
