# generated using pymatgen
data_Zn(W2O3)2
_symmetry_space_group_name_H-M   'P 1'
_cell_length_a   3.25659680
_cell_length_b   5.67953118
_cell_length_c   16.54218637
_cell_angle_alpha   90.00000000
_cell_angle_beta   90.00000000
_cell_angle_gamma   106.66024840
_symmetry_Int_Tables_number   1
_chemical_formula_structural   Zn(W2O3)2
_chemical_formula_sum   'Zn2 W8 O12'
_cell_volume   293.11949626
_cell_formula_units_Z   2
loop_
 _symmetry_equiv_pos_site_id
 _symmetry_equiv_pos_as_xyz
  1  'x, y, z'
loop_
 _atom_site_type_symbol
 _atom_site_label
 _atom_site_symmetry_multiplicity
 _atom_site_fract_x
 _atom_site_fract_y
 _atom_site_fract_z
 _atom_site_occupancy
  Zn  Zn0  1  0.692126  0.384254  0.750000  1
  Zn  Zn1  1  0.307874  0.615746  0.250000  1
  W  W2  1  0.861722  0.723447  0.049730  1
  W  W3  1  0.386303  0.772607  0.633434  1
  W  W4  1  0.138276  0.276552  0.950270  1
  W  W5  1  0.613697  0.227393  0.366567  1
  W  W6  1  0.861722  0.723447  0.450270  1
  W  W7  1  0.138276  0.276552  0.549730  1
  W  W8  1  0.613697  0.227393  0.133433  1
  W  W9  1  0.386303  0.772607  0.866566  1
  O  O10  1  0.499999  0.000000  0.500000  1
  O  O11  1  0.499999  0.000000  0.000000  1
  O  O12  1  0.007873  0.015744  0.856104  1
  O  O13  1  0.992127  0.984256  0.143897  1
  O  O14  1  0.992127  0.984256  0.356103  1
  O  O15  1  0.007873  0.015744  0.643897  1
  O  O16  1  0.731633  0.463270  0.876166  1
  O  O17  1  0.268366  0.536731  0.123834  1
  O  O18  1  0.268366  0.536731  0.376166  1
  O  O19  1  0.731633  0.463270  0.623834  1
  O  O20  1  0.306826  0.613654  0.750000  1
  O  O21  1  0.693172  0.386345  0.250000  1
