# generated using pymatgen
data_AlSb(WO4)2
_symmetry_space_group_name_H-M   'P 1'
_cell_length_a   5.06853169
_cell_length_b   5.37947216
_cell_length_c   6.85901913
_cell_angle_alpha   117.68814184
_cell_angle_beta   119.46621160
_cell_angle_gamma   82.09804839
_symmetry_Int_Tables_number   1
_chemical_formula_structural   AlSb(WO4)2
_chemical_formula_sum   'Al1 Sb1 W2 O8'
_cell_volume   143.17133459
_cell_formula_units_Z   1
loop_
 _symmetry_equiv_pos_site_id
 _symmetry_equiv_pos_as_xyz
  1  'x, y, z'
loop_
 _atom_site_type_symbol
 _atom_site_label
 _atom_site_symmetry_multiplicity
 _atom_site_fract_x
 _atom_site_fract_y
 _atom_site_fract_z
 _atom_site_occupancy
  Al  Al0  1  0.631493  0.772631  0.056581  1
  Sb  Sb1  1  0.138112  0.290129  0.143785  1
  W  W2  1  0.895245  0.400518  0.630158  1
  W  W3  1  0.404318  0.985995  0.573517  1
  O  O4  1  0.216630  0.680070  0.891141  1
  O  O5  1  0.559206  0.599030  0.443252  1
  O  O6  1  0.143197  0.121309  0.734913  1
  O  O7  1  0.573495  0.046184  0.345985  1
  O  O8  1  0.663975  0.941226  0.891768  1
  O  O9  1  0.010142  0.708011  0.267705  1
  O  O10  1  0.099316  0.249541  0.415031  1
  O  O11  1  0.660868  0.383856  0.802262  1
