# generated using pymatgen
data_Ca2MnWO6
_symmetry_space_group_name_H-M   'P 1'
_cell_length_a   5.73151070
_cell_length_b   5.73486498
_cell_length_c   8.03400124
_cell_angle_alpha   88.54083941
_cell_angle_beta   135.51470803
_cell_angle_gamma   121.19114587
_symmetry_Int_Tables_number   1
_chemical_formula_structural   Ca2MnWO6
_chemical_formula_sum   'Ca2 Mn1 W1 O6'
_cell_volume   129.63029846
_cell_formula_units_Z   1
loop_
 _symmetry_equiv_pos_site_id
 _symmetry_equiv_pos_as_xyz
  1  'x, y, z'
loop_
 _atom_site_type_symbol
 _atom_site_label
 _atom_site_symmetry_multiplicity
 _atom_site_fract_x
 _atom_site_fract_y
 _atom_site_fract_z
 _atom_site_occupancy
  Ca  Ca0  1  0.996605  0.535987  0.276208  1
  Ca  Ca1  1  0.998783  0.534923  0.775462  1
  Mn  Mn2  1  0.997514  0.993310  0.504928  1
  W  W3  1  0.997306  0.979049  0.997439  1
  O  O4  1  0.182653  0.054482  0.321785  1
  O  O5  1  0.800336  0.853801  0.662057  1
  O  O6  1  0.388913  0.442532  0.136874  1
  O  O7  1  0.424690  0.871138  0.747520  1
  O  O8  1  0.542658  0.049905  0.208661  1
  O  O9  1  0.643649  0.505085  0.858145  1
