# generated using pymatgen
data_Re2O7
_symmetry_space_group_name_H-M   'P 1'
_cell_length_a   6.95144242
_cell_length_b   7.11435648
_cell_length_c   9.18732493
_cell_angle_alpha   112.77933867
_cell_angle_beta   90.00000000
_cell_angle_gamma   90.00000000
_symmetry_Int_Tables_number   1
_chemical_formula_structural   Re2O7
_chemical_formula_sum   'Re4 O14'
_cell_volume   418.92076164
_cell_formula_units_Z   2
loop_
 _symmetry_equiv_pos_site_id
 _symmetry_equiv_pos_as_xyz
  1  'x, y, z'
loop_
 _atom_site_type_symbol
 _atom_site_label
 _atom_site_symmetry_multiplicity
 _atom_site_fract_x
 _atom_site_fract_y
 _atom_site_fract_z
 _atom_site_occupancy
  Re  Re0  1  0.842924  0.322734  0.199651  1
  Re  Re1  1  0.342924  0.677266  0.800349  1
  Re  Re2  1  0.342924  0.876917  0.199651  1
  Re  Re3  1  0.842924  0.123083  0.800349  1
  O  O4  1  0.700073  0.077440  0.637282  1
  O  O5  1  0.200073  0.922560  0.362718  1
  O  O6  1  0.200073  0.559842  0.637282  1
  O  O7  1  0.700073  0.440158  0.362718  1
  O  O8  1  0.052346  0.238076  0.775924  1
  O  O9  1  0.552346  0.761924  0.224076  1
  O  O10  1  0.552346  0.537848  0.775924  1
  O  O11  1  0.052346  0.462151  0.224076  1
  O  O12  1  0.906481  0.892756  0.809052  1
  O  O13  1  0.406481  0.107244  0.190948  1
  O  O14  1  0.732819  0.288044  0.000000  1
  O  O15  1  0.232819  0.711956  1.000000  1
  O  O16  1  0.906481  0.083703  0.190948  1
  O  O17  1  0.406481  0.916297  0.809052  1
