# generated using pymatgen
data_Ti4ZnO6
_symmetry_space_group_name_H-M   'P 1'
_cell_length_a   2.95058078
_cell_length_b   5.15774783
_cell_length_c   15.10189325
_cell_angle_alpha   90.00000000
_cell_angle_beta   90.00000000
_cell_angle_gamma   106.62065007
_symmetry_Int_Tables_number   1
_chemical_formula_structural   Ti4ZnO6
_chemical_formula_sum   'Ti8 Zn2 O12'
_cell_volume   220.22369046
_cell_formula_units_Z   2
loop_
 _symmetry_equiv_pos_site_id
 _symmetry_equiv_pos_as_xyz
  1  'x, y, z'
loop_
 _atom_site_type_symbol
 _atom_site_label
 _atom_site_symmetry_multiplicity
 _atom_site_fract_x
 _atom_site_fract_y
 _atom_site_fract_z
 _atom_site_occupancy
  Ti  Ti0  1  0.853430  0.706864  0.039734  1
  Ti  Ti1  1  0.401341  0.802681  0.629696  1
  Ti  Ti2  1  0.146568  0.293135  0.960266  1
  Ti  Ti3  1  0.598659  0.197319  0.370305  1
  Ti  Ti4  1  0.853430  0.706864  0.460266  1
  Ti  Ti5  1  0.146568  0.293135  0.539734  1
  Ti  Ti6  1  0.598659  0.197319  0.129695  1
  Ti  Ti7  1  0.401341  0.802681  0.870304  1
  Zn  Zn8  1  0.656873  0.313748  0.750000  1
  Zn  Zn9  1  0.343127  0.686252  0.250000  1
  O  O10  1  0.499999  0.000000  0.500000  1
  O  O11  1  0.499999  0.000000  0.000000  1
  O  O12  1  0.041758  0.083515  0.840641  1
  O  O13  1  0.958242  0.916485  0.159360  1
  O  O14  1  0.958242  0.916485  0.340640  1
  O  O15  1  0.041758  0.083515  0.659360  1
  O  O16  1  0.765897  0.531795  0.906127  1
  O  O17  1  0.234102  0.468206  0.093873  1
  O  O18  1  0.234102  0.468206  0.406127  1
  O  O19  1  0.765897  0.531795  0.593873  1
  O  O20  1  0.309563  0.619128  0.750000  1
  O  O21  1  0.690435  0.380871  0.250000  1
