# generated using pymatgen
data_Ba2CaCo2CuF14
_symmetry_space_group_name_H-M   'P 1'
_cell_length_a   5.43985996
_cell_length_b   7.46855769
_cell_length_c   14.92827393
_cell_angle_alpha   91.94763714
_cell_angle_beta   89.51491560
_cell_angle_gamma   111.23504426
_symmetry_Int_Tables_number   1
_chemical_formula_structural   Ba2CaCo2CuF14
_chemical_formula_sum   'Ba4 Ca2 Co4 Cu2 F28'
_cell_volume   564.99296880
_cell_formula_units_Z   2
loop_
 _symmetry_equiv_pos_site_id
 _symmetry_equiv_pos_as_xyz
  1  'x, y, z'
loop_
 _atom_site_type_symbol
 _atom_site_label
 _atom_site_symmetry_multiplicity
 _atom_site_fract_x
 _atom_site_fract_y
 _atom_site_fract_z
 _atom_site_occupancy
  Ba  Ba0  1  0.118032  0.376953  0.622982  1
  Ba  Ba1  1  0.261518  0.384226  0.122655  1
  Ba  Ba2  1  0.885325  0.620456  0.376258  1
  Ba  Ba3  1  0.734320  0.615944  0.878181  1
  Ca  Ca4  1  0.416994  0.002744  0.750233  1
  Ca  Ca5  1  0.577632  0.999187  0.249998  1
  Co  Co6  1  0.092260  0.241089  0.876006  1
  Co  Co7  1  0.904050  0.757789  0.124815  1
  Co  Co8  1  0.147631  0.241766  0.375820  1
  Co  Co9  1  0.852174  0.757468  0.624766  1
  Cu  Cu10  1  0.498980  0.996231  0.001156  1
  Cu  Cu11  1  0.502961  0.002940  0.500834  1
  F  F12  1  0.922662  0.988731  0.346829  1
  F  F13  1  0.877569  0.276050  0.456011  1
  F  F14  1  0.118296  0.726518  0.546437  1
  F  F15  1  0.650827  0.495708  0.597657  1
  F  F16  1  0.613749  0.109166  0.617612  1
  F  F17  1  0.498301  0.889833  0.884034  1
  F  F18  1  0.394184  0.273926  0.955256  1
  F  F19  1  0.939430  0.009947  0.153631  1
  F  F20  1  0.355940  0.317883  0.777355  1
  F  F21  1  0.345257  0.500558  0.401849  1
  F  F22  1  0.822085  0.243400  0.792744  1
  F  F23  1  0.151677  0.499632  0.903142  1
  F  F24  1  0.422882  0.245454  0.290726  1
  F  F25  1  0.181127  0.755189  0.212125  1
  F  F26  1  0.499961  0.110582  0.115955  1
  F  F27  1  0.655569  0.684015  0.219282  1
  F  F28  1  0.126920  0.829638  0.023663  1
  F  F29  1  0.080246  0.014267  0.654811  1
  F  F30  1  0.867761  0.167377  0.983504  1
  F  F31  1  0.698111  0.828376  0.518443  1
  F  F32  1  0.591534  0.720351  0.042431  1
  F  F33  1  0.585013  0.757866  0.708550  1
  F  F34  1  0.962941  0.316675  0.277120  1
  F  F35  1  0.296725  0.170099  0.482573  1
  F  F36  1  0.388648  0.892346  0.385702  1
  F  F37  1  0.062754  0.987895  0.848175  1
  F  F38  1  0.040016  0.682888  0.723214  1
  F  F39  1  0.843423  0.503252  0.096225  1
