# generated using pymatgen
data_CaCoSb2O7
_symmetry_space_group_name_H-M   'P 1'
_cell_length_a   7.37914714
_cell_length_b   11.57658753
_cell_length_c   15.02376297
_cell_angle_alpha   90.00000000
_cell_angle_beta   90.00000000
_cell_angle_gamma   103.91707479
_symmetry_Int_Tables_number   1
_chemical_formula_structural   CaCoSb2O7
_chemical_formula_sum   'Ca8 Co8 Sb16 O56'
_cell_volume   1245.73540270
_cell_formula_units_Z   8
loop_
 _symmetry_equiv_pos_site_id
 _symmetry_equiv_pos_as_xyz
  1  'x, y, z'
loop_
 _atom_site_type_symbol
 _atom_site_label
 _atom_site_symmetry_multiplicity
 _atom_site_fract_x
 _atom_site_fract_y
 _atom_site_fract_z
 _atom_site_occupancy
  Ca  Ca0  1  0.060032  0.737176  0.507319  1
  Ca  Ca1  1  0.319971  0.969136  0.876459  1
  Ca  Ca2  1  0.680029  0.530864  0.376459  1
  Ca  Ca3  1  0.680029  0.030864  0.123541  1
  Ca  Ca4  1  0.319971  0.469136  0.623541  1
  Ca  Ca5  1  0.060032  0.237176  0.992681  1
  Ca  Ca6  1  0.939968  0.262824  0.492681  1
  Ca  Ca7  1  0.939968  0.762824  0.007319  1
  Co  Co8  1  0.649121  0.081323  0.657186  1
  Co  Co9  1  0.350879  0.418677  0.157186  1
  Co  Co10  1  0.350879  0.918677  0.342814  1
  Co  Co11  1  0.649121  0.581323  0.842814  1
  Co  Co12  1  0.992514  0.253584  0.753746  1
  Co  Co13  1  0.007486  0.246416  0.253746  1
  Co  Co14  1  0.007486  0.746416  0.246254  1
  Co  Co15  1  0.992514  0.753584  0.746254  1
  Sb  Sb16  1  0.839565  0.978207  0.875372  1
  Sb  Sb17  1  0.421397  0.698749  0.021542  1
  Sb  Sb18  1  0.421397  0.198749  0.478458  1
  Sb  Sb19  1  0.578602  0.301251  0.978458  1
  Sb  Sb20  1  0.494903  0.777490  0.727083  1
  Sb  Sb21  1  0.505097  0.722510  0.227083  1
  Sb  Sb22  1  0.505097  0.222510  0.272917  1
  Sb  Sb23  1  0.494903  0.277490  0.772917  1
  Sb  Sb24  1  0.578602  0.801251  0.521542  1
  Sb  Sb25  1  0.861455  0.467661  0.142488  1
  Sb  Sb26  1  0.138545  0.032339  0.642488  1
  Sb  Sb27  1  0.138545  0.532339  0.857512  1
  Sb  Sb28  1  0.160435  0.521793  0.375372  1
  Sb  Sb29  1  0.839565  0.478207  0.624628  1
  Sb  Sb30  1  0.160435  0.021793  0.124628  1
  Sb  Sb31  1  0.861455  0.967661  0.357512  1
  O  O32  1  0.786456  0.945997  0.996096  1
  O  O33  1  0.213544  0.554003  0.496096  1
  O  O34  1  0.213544  0.054003  0.003904  1
  O  O35  1  0.786456  0.445997  0.503904  1
  O  O36  1  0.002409  0.877022  0.851692  1
  O  O37  1  0.997591  0.622978  0.351692  1
  O  O38  1  0.997591  0.122978  0.148308  1
  O  O39  1  0.002409  0.377022  0.648308  1
  O  O40  1  0.991954  0.132648  0.855394  1
  O  O41  1  0.008046  0.367352  0.355394  1
  O  O42  1  0.008046  0.867352  0.144606  1
  O  O43  1  0.991954  0.632648  0.644606  1
  O  O44  1  0.644066  0.922987  0.282430  1
  O  O45  1  0.355934  0.577013  0.782430  1
  O  O46  1  0.355934  0.077013  0.717570  1
  O  O47  1  0.644066  0.422987  0.217570  1
  O  O48  1  0.968513  0.132835  0.364127  1
  O  O49  1  0.031487  0.367165  0.864127  1
  O  O50  1  0.031487  0.867165  0.635873  1
  O  O51  1  0.968513  0.632835  0.135873  1
  O  O52  1  0.052870  0.882136  0.345521  1
  O  O53  1  0.369777  0.820258  0.451839  1
  O  O54  1  0.947130  0.617864  0.845521  1
  O  O55  1  0.052870  0.382136  0.154479  1
  O  O56  1  0.725627  0.695584  0.483681  1
  O  O57  1  0.274373  0.804416  0.983681  1
  O  O58  1  0.274373  0.304416  0.516319  1
  O  O59  1  0.725627  0.195584  0.016319  1
  O  O60  1  0.767979  0.945622  0.477485  1
  O  O61  1  0.232021  0.554378  0.977485  1
  O  O62  1  0.232021  0.054378  0.522515  1
  O  O63  1  0.767979  0.445622  0.022515  1
  O  O64  1  0.436178  0.185943  0.885992  1
  O  O65  1  0.563822  0.314057  0.385992  1
  O  O66  1  0.563822  0.814057  0.114008  1
  O  O67  1  0.436178  0.685943  0.614008  1
  O  O68  1  0.704030  0.213386  0.743292  1
  O  O69  1  0.295970  0.286614  0.243292  1
  O  O70  1  0.295970  0.786614  0.256708  1
  O  O71  1  0.704030  0.713386  0.756708  1
  O  O72  1  0.611376  0.438820  0.693014  1
  O  O73  1  0.388624  0.061180  0.193014  1
  O  O74  1  0.388624  0.561180  0.306986  1
  O  O75  1  0.611376  0.938820  0.806986  1
  O  O76  1  0.272417  0.304991  0.725443  1
  O  O77  1  0.727583  0.195009  0.225443  1
  O  O78  1  0.727583  0.695009  0.274557  1
  O  O79  1  0.272417  0.804991  0.774557  1
  O  O80  1  0.587451  0.403450  0.868194  1
  O  O81  1  0.412549  0.096550  0.368194  1
  O  O82  1  0.412549  0.596550  0.131806  1
  O  O83  1  0.587451  0.903450  0.631806  1
  O  O84  1  0.369777  0.320258  0.048161  1
  O  O85  1  0.630223  0.179742  0.548161  1
  O  O86  1  0.630223  0.679742  0.951839  1
  O  O87  1  0.947130  0.117864  0.654479  1
