# generated using pymatgen
data_SbO2
_symmetry_space_group_name_H-M   'P 1'
_cell_length_a   3.41243108
_cell_length_b   3.41316273
_cell_length_c   10.50920375
_cell_angle_alpha   89.23726100
_cell_angle_beta   90.44151528
_cell_angle_gamma   120.01004842
_symmetry_Int_Tables_number   1
_chemical_formula_structural   SbO2
_chemical_formula_sum   'Sb2 O4'
_cell_volume   105.98356966
_cell_formula_units_Z   2
loop_
 _symmetry_equiv_pos_site_id
 _symmetry_equiv_pos_as_xyz
  1  'x, y, z'
loop_
 _atom_site_type_symbol
 _atom_site_label
 _atom_site_symmetry_multiplicity
 _atom_site_fract_x
 _atom_site_fract_y
 _atom_site_fract_z
 _atom_site_occupancy
  Sb  Sb0  1  0.997304  0.999678  0.501889  1
  Sb  Sb1  1  0.997350  0.999673  0.002321  1
  O  O2  1  0.665047  0.334918  0.411245  1
  O  O3  1  0.664617  0.330915  0.092855  1
  O  O4  1  0.330974  0.664603  0.592487  1
  O  O5  1  0.331384  0.668653  0.911660  1
