# generated using pymatgen
data_BaCaFeF7
_symmetry_space_group_name_H-M   'P 1'
_cell_length_a   5.70578175
_cell_length_b   9.94739685
_cell_length_c   10.69977190
_cell_angle_alpha   90.00000000
_cell_angle_beta   90.00000000
_cell_angle_gamma   91.52205037
_symmetry_Int_Tables_number   1
_chemical_formula_structural   BaCaFeF7
_chemical_formula_sum   'Ba4 Ca4 Fe4 F28'
_cell_volume   607.07991246
_cell_formula_units_Z   4
loop_
 _symmetry_equiv_pos_site_id
 _symmetry_equiv_pos_as_xyz
  1  'x, y, z'
loop_
 _atom_site_type_symbol
 _atom_site_label
 _atom_site_symmetry_multiplicity
 _atom_site_fract_x
 _atom_site_fract_y
 _atom_site_fract_z
 _atom_site_occupancy
  Ba  Ba0  1  0.266225  0.507680  0.335118  1
  Ba  Ba1  1  0.733775  0.992320  0.835118  1
  Ba  Ba2  1  0.733775  0.492320  0.664882  1
  Ba  Ba3  1  0.266225  0.007680  0.164882  1
  Ca  Ca4  1  0.715970  0.827767  0.414329  1
  Ca  Ca5  1  0.284030  0.672233  0.914329  1
  Ca  Ca6  1  0.715970  0.327767  0.085671  1
  Ca  Ca7  1  0.284030  0.172233  0.585671  1
  Fe  Fe8  1  0.193067  0.805342  0.626466  1
  Fe  Fe9  1  0.806933  0.194658  0.373534  1
  Fe  Fe10  1  0.193067  0.305342  0.873534  1
  Fe  Fe11  1  0.806933  0.694658  0.126466  1
  F  F12  1  0.100906  0.101371  0.409763  1
  F  F13  1  0.344251  0.368542  0.025613  1
  F  F14  1  0.463626  0.728802  0.712082  1
  F  F15  1  0.536374  0.271198  0.287918  1
  F  F16  1  0.923444  0.353335  0.461500  1
  F  F17  1  0.293324  0.477614  0.795605  1
  F  F18  1  0.007584  0.741755  0.775428  1
  F  F19  1  0.076556  0.146665  0.961500  1
  F  F20  1  0.344251  0.868542  0.474387  1
  F  F21  1  0.536374  0.771198  0.212082  1
  F  F22  1  0.100906  0.601371  0.090237  1
  F  F23  1  0.899094  0.898629  0.590237  1
  F  F24  1  0.992416  0.758245  0.275428  1
  F  F25  1  0.398020  0.877506  0.961380  1
  F  F26  1  0.076556  0.646665  0.538500  1
  F  F27  1  0.923444  0.853335  0.038500  1
  F  F28  1  0.992416  0.258245  0.224572  1
  F  F29  1  0.899094  0.398629  0.909763  1
  F  F30  1  0.601980  0.622494  0.461380  1
  F  F31  1  0.655749  0.631458  0.974387  1
  F  F32  1  0.601980  0.122494  0.038620  1
  F  F33  1  0.007584  0.241755  0.724572  1
  F  F34  1  0.398020  0.377506  0.538620  1
  F  F35  1  0.706676  0.022386  0.295605  1
  F  F36  1  0.706676  0.522386  0.204395  1
  F  F37  1  0.293324  0.977614  0.704395  1
  F  F38  1  0.655749  0.131458  0.525613  1
  F  F39  1  0.463626  0.228802  0.787918  1
