# generated using pymatgen
data_Pr(SnO3)2
_symmetry_space_group_name_H-M   'P 1'
_cell_length_a   5.63309836
_cell_length_b   5.90428195
_cell_length_c   8.01789269
_cell_angle_alpha   89.98719434
_cell_angle_beta   89.92678263
_cell_angle_gamma   90.02165695
_symmetry_Int_Tables_number   1
_chemical_formula_structural   Pr(SnO3)2
_chemical_formula_sum   'Pr2 Sn4 O12'
_cell_volume   266.67006460
_cell_formula_units_Z   2
loop_
 _symmetry_equiv_pos_site_id
 _symmetry_equiv_pos_as_xyz
  1  'x, y, z'
loop_
 _atom_site_type_symbol
 _atom_site_label
 _atom_site_symmetry_multiplicity
 _atom_site_fract_x
 _atom_site_fract_y
 _atom_site_fract_z
 _atom_site_occupancy
  Pr  Pr0  1  0.015858  0.931162  0.750032  1
  Pr  Pr1  1  0.515783  0.568790  0.249843  1
  Sn  Sn2  1  0.005196  0.475680  0.001812  1
  Sn  Sn3  1  0.005504  0.475576  0.498271  1
  Sn  Sn4  1  0.505010  0.024406  0.501809  1
  Sn  Sn5  1  0.505486  0.024323  0.998240  1
  O  O6  1  0.106022  0.483577  0.250019  1
  O  O7  1  0.194941  0.192377  0.945445  1
  O  O8  1  0.194975  0.192241  0.554637  1
  O  O9  1  0.272047  0.731999  0.529289  1
  O  O10  1  0.272098  0.731936  0.970811  1
  O  O11  1  0.443911  0.972188  0.250026  1
  O  O12  1  0.606037  0.016464  0.750040  1
  O  O13  1  0.695026  0.307617  0.054550  1
  O  O14  1  0.694908  0.307819  0.445333  1
  O  O15  1  0.772038  0.768078  0.029179  1
  O  O16  1  0.772134  0.767976  0.470724  1
  O  O17  1  0.943896  0.527792  0.749939  1
