# generated using pymatgen
data_CrF5
_symmetry_space_group_name_H-M   'P 1'
_cell_length_a   5.34848438
_cell_length_b   7.39271615
_cell_length_c   9.77039310
_cell_angle_alpha   90.00000000
_cell_angle_beta   90.00000000
_cell_angle_gamma   110.11811033
_symmetry_Int_Tables_number   1
_chemical_formula_structural   CrF5
_chemical_formula_sum   'Cr4 F20'
_cell_volume   362.74858213
_cell_formula_units_Z   4
loop_
 _symmetry_equiv_pos_site_id
 _symmetry_equiv_pos_as_xyz
  1  'x, y, z'
loop_
 _atom_site_type_symbol
 _atom_site_label
 _atom_site_symmetry_multiplicity
 _atom_site_fract_x
 _atom_site_fract_y
 _atom_site_fract_z
 _atom_site_occupancy
  Cr  Cr0  1  0.881606  0.596605  0.751672  1
  Cr  Cr1  1  0.118394  0.903395  0.251672  1
  Cr  Cr2  1  0.118394  0.403395  0.248328  1
  Cr  Cr3  1  0.881606  0.096605  0.748328  1
  F  F4  1  0.613799  0.569591  0.863968  1
  F  F5  1  0.386201  0.930409  0.363968  1
  F  F6  1  0.386201  0.430409  0.136032  1
  F  F7  1  0.613799  0.069591  0.636032  1
  F  F8  1  0.652028  0.492532  0.621566  1
  F  F9  1  0.347972  0.007468  0.121566  1
  F  F10  1  0.347972  0.507468  0.378434  1
  F  F11  1  0.652028  0.992532  0.878434  1
  F  F12  1  0.890900  0.801650  0.384130  1
  F  F13  1  0.109100  0.698350  0.884130  1
  F  F14  1  0.109100  0.198350  0.615870  1
  F  F15  1  0.890900  0.301650  0.115870  1
  F  F16  1  0.848122  0.874096  0.140621  1
  F  F17  1  0.151878  0.625904  0.640621  1
  F  F18  1  0.151878  0.125904  0.859379  1
  F  F19  1  0.848122  0.374096  0.359379  1
  F  F20  1  0.882888  0.846387  0.695242  1
  F  F21  1  0.117112  0.653613  0.195242  1
  F  F22  1  0.117112  0.153613  0.304758  1
  F  F23  1  0.882888  0.346387  0.804758  1
