# generated using pymatgen
data_CaCo2O5
_symmetry_space_group_name_H-M   'P 1'
_cell_length_a   3.47398369
_cell_length_b   5.07440797
_cell_length_c   11.26992939
_cell_angle_alpha   89.99245751
_cell_angle_beta   90.00002420
_cell_angle_gamma   90.00000106
_symmetry_Int_Tables_number   1
_chemical_formula_structural   CaCo2O5
_chemical_formula_sum   'Ca2 Co4 O10'
_cell_volume   198.67094009
_cell_formula_units_Z   2
loop_
 _symmetry_equiv_pos_site_id
 _symmetry_equiv_pos_as_xyz
  1  'x, y, z'
loop_
 _atom_site_type_symbol
 _atom_site_label
 _atom_site_symmetry_multiplicity
 _atom_site_fract_x
 _atom_site_fract_y
 _atom_site_fract_z
 _atom_site_occupancy
  Ca  Ca0  1  0.749999  0.877551  0.249915  1
  Ca  Ca1  1  0.250001  0.122601  0.749897  1
  Co  Co2  1  0.250000  0.408222  0.096987  1
  Co  Co3  1  0.749999  0.591797  0.903019  1
  Co  Co4  1  0.749999  0.591863  0.596967  1
  Co  Co5  1  0.249999  0.408080  0.403036  1
  O  O6  1  0.749999  0.451677  0.750000  1
  O  O7  1  0.249999  0.548252  0.250010  1
  O  O8  1  0.750000  0.584391  0.070213  1
  O  O9  1  0.249999  0.415717  0.929812  1
  O  O10  1  0.749999  0.584226  0.429786  1
  O  O11  1  0.250000  0.415711  0.570222  1
  O  O12  1  0.249999  0.083809  0.370547  1
  O  O13  1  0.749999  0.916142  0.629549  1
  O  O14  1  0.750000  0.916022  0.870442  1
  O  O15  1  0.249999  0.083941  0.129600  1
