# generated using pymatgen
data_Ta2Zn2CrO8
_symmetry_space_group_name_H-M   'P 1'
_cell_length_a   5.29808263
_cell_length_b   5.99921823
_cell_length_c   10.23003147
_cell_angle_alpha   106.56518633
_cell_angle_beta   91.40432909
_cell_angle_gamma   90.26351778
_symmetry_Int_Tables_number   1
_chemical_formula_structural   Ta2Zn2CrO8
_chemical_formula_sum   'Ta4 Zn4 Cr2 O16'
_cell_volume   311.54331697
_cell_formula_units_Z   2
loop_
 _symmetry_equiv_pos_site_id
 _symmetry_equiv_pos_as_xyz
  1  'x, y, z'
loop_
 _atom_site_type_symbol
 _atom_site_label
 _atom_site_symmetry_multiplicity
 _atom_site_fract_x
 _atom_site_fract_y
 _atom_site_fract_z
 _atom_site_occupancy
  Ta  Ta0  1  0.727486  0.271969  0.234221  1
  Ta  Ta1  1  0.769405  0.036552  0.766252  1
  Ta  Ta2  1  0.268617  0.725191  0.766148  1
  Ta  Ta3  1  0.226804  0.961410  0.234167  1
  Zn  Zn4  1  0.765431  0.434347  0.563078  1
  Zn  Zn5  1  0.730191  0.870652  0.437360  1
  Zn  Zn6  1  0.230650  0.562784  0.437080  1
  Zn  Zn7  1  0.265951  0.126671  0.562695  1
  Cr  Cr8  1  0.745984  0.649146  0.000028  1
  Cr  Cr9  1  0.245859  0.349316  0.001094  1
  O  O10  1  0.057906  0.188939  0.145619  1
  O  O11  1  0.440340  0.034921  0.853462  1
  O  O12  1  0.938879  0.810614  0.854317  1
  O  O13  1  0.556345  0.960356  0.146437  1
  O  O14  1  0.577245  0.422495  0.117316  1
  O  O15  1  0.917848  0.302706  0.882626  1
  O  O16  1  0.414147  0.572380  0.883929  1
  O  O17  1  0.073265  0.698530  0.118273  1
  O  O18  1  0.428857  0.282317  0.358485  1
  O  O19  1  0.067256  0.922918  0.641920  1
  O  O20  1  0.356295  0.840379  0.388094  1
  O  O21  1  0.139450  0.451903  0.612086  1
  O  O22  1  0.639642  0.156278  0.611704  1
  O  O23  1  0.856435  0.545557  0.387993  1
  O  O24  1  0.928830  0.075015  0.358262  1
  O  O25  1  0.567059  0.714272  0.641769  1
