# generated using pymatgen
data_CaFe(GeO3)2
_symmetry_space_group_name_H-M   'P 1'
_cell_length_a   5.51250313
_cell_length_b   6.91334591
_cell_length_c   6.91334673
_cell_angle_alpha   83.47964877
_cell_angle_beta   79.23516814
_cell_angle_gamma   79.23516130
_symmetry_Int_Tables_number   1
_chemical_formula_structural   CaFe(GeO3)2
_chemical_formula_sum   'Ca2 Fe2 Ge4 O12'
_cell_volume   253.42903434
_cell_formula_units_Z   2
loop_
 _symmetry_equiv_pos_site_id
 _symmetry_equiv_pos_as_xyz
  1  'x, y, z'
loop_
 _atom_site_type_symbol
 _atom_site_label
 _atom_site_symmetry_multiplicity
 _atom_site_fract_x
 _atom_site_fract_y
 _atom_site_fract_z
 _atom_site_occupancy
  Ca  Ca0  1  0.750000  0.302796  0.697204  1
  Ca  Ca1  1  0.250000  0.697204  0.302796  1
  Fe  Fe2  1  0.750000  0.910969  0.089031  1
  Fe  Fe3  1  0.250000  0.089031  0.910969  1
  Ge  Ge4  1  0.774830  0.384283  0.187549  1
  Ge  Ge5  1  0.725170  0.812451  0.615717  1
  Ge  Ge6  1  0.225170  0.615717  0.812451  1
  Ge  Ge7  1  0.274830  0.187549  0.384283  1
  O  O8  1  0.523423  0.325496  0.388941  1
  O  O9  1  0.976577  0.611059  0.674504  1
  O  O10  1  0.476577  0.674504  0.611059  1
  O  O11  1  0.023423  0.388941  0.325496  1
  O  O12  1  0.155400  0.112399  0.625148  1
  O  O13  1  0.344600  0.374852  0.887601  1
  O  O14  1  0.844600  0.887601  0.374852  1
  O  O15  1  0.655400  0.625148  0.112399  1
  O  O16  1  0.859111  0.205555  0.016498  1
  O  O17  1  0.640889  0.983502  0.794445  1
  O  O18  1  0.140889  0.794445  0.983502  1
  O  O19  1  0.359111  0.016498  0.205555  1
