# generated using pymatgen
data_Ba2Fe3O7
_symmetry_space_group_name_H-M   'P 1'
_cell_length_a   3.76883999
_cell_length_b   3.81260519
_cell_length_c   12.68318973
_cell_angle_alpha   89.80967025
_cell_angle_beta   90.17076014
_cell_angle_gamma   90.10313858
_symmetry_Int_Tables_number   1
_chemical_formula_structural   Ba2Fe3O7
_chemical_formula_sum   'Ba2 Fe3 O7'
_cell_volume   182.24390058
_cell_formula_units_Z   1
loop_
 _symmetry_equiv_pos_site_id
 _symmetry_equiv_pos_as_xyz
  1  'x, y, z'
loop_
 _atom_site_type_symbol
 _atom_site_label
 _atom_site_symmetry_multiplicity
 _atom_site_fract_x
 _atom_site_fract_y
 _atom_site_fract_z
 _atom_site_occupancy
  Ba  Ba0  1  0.498429  0.500702  0.800107  1
  Ba  Ba1  1  0.499670  0.496523  0.200760  1
  Fe  Fe2  1  0.994518  0.001809  0.612691  1
  Fe  Fe3  1  0.999493  0.994003  0.389158  1
  Fe  Fe4  1  0.994005  0.999111  0.000927  1
  O  O5  1  0.979233  0.499063  0.001091  1
  O  O6  1  0.494584  0.001786  0.638389  1
  O  O7  1  0.499415  0.994275  0.362873  1
  O  O8  1  0.994511  0.501898  0.635680  1
  O  O9  1  0.999270  0.494068  0.364936  1
  O  O10  1  0.001462  0.000525  0.856283  1
  O  O11  1  0.001244  0.997437  0.145540  1
