# generated using pymatgen
data_Y(FeS2)2
_symmetry_space_group_name_H-M   'P 1'
_cell_length_a   7.26905211
_cell_length_b   7.26905237
_cell_length_c   7.26429908
_cell_angle_alpha   118.00503598
_cell_angle_beta   120.32597953
_cell_angle_gamma   91.49954714
_symmetry_Int_Tables_number   1
_chemical_formula_structural   Y(FeS2)2
_chemical_formula_sum   'Y2 Fe4 S8'
_cell_volume   274.51531603
_cell_formula_units_Z   2
loop_
 _symmetry_equiv_pos_site_id
 _symmetry_equiv_pos_as_xyz
  1  'x, y, z'
loop_
 _atom_site_type_symbol
 _atom_site_label
 _atom_site_symmetry_multiplicity
 _atom_site_fract_x
 _atom_site_fract_y
 _atom_site_fract_z
 _atom_site_occupancy
  Y  Y0  1  0.000000  0.500001  0.000001  1
  Y  Y1  1  0.000001  0.000000  0.500000  1
  Fe  Fe2  1  0.372085  0.622085  0.750000  1
  Fe  Fe3  1  0.627915  0.377916  0.250000  1
  Fe  Fe4  1  0.500001  0.000000  0.500000  1
  Fe  Fe5  1  0.000000  0.000000  0.000000  1
  S  S6  1  0.738531  0.763116  0.528798  1
  S  S7  1  0.734319  0.209735  0.971204  1
  S  S8  1  0.244904  0.230483  0.013663  1
  S  S9  1  0.261469  0.236884  0.471203  1
  S  S10  1  0.283180  0.768759  0.513662  1
  S  S11  1  0.265681  0.790266  0.028798  1
  S  S12  1  0.716819  0.231240  0.486337  1
  S  S13  1  0.755096  0.769518  0.986337  1
