# generated using pymatgen
data_Ca(AgO2)2
_symmetry_space_group_name_H-M   'P 1'
_cell_length_a   3.49488880
_cell_length_b   9.95370285
_cell_length_c   11.00812190
_cell_angle_alpha   90.00000000
_cell_angle_beta   90.00000000
_cell_angle_gamma   90.00000000
_symmetry_Int_Tables_number   1
_chemical_formula_structural   Ca(AgO2)2
_chemical_formula_sum   'Ca4 Ag8 O16'
_cell_volume   382.94046792
_cell_formula_units_Z   4
loop_
 _symmetry_equiv_pos_site_id
 _symmetry_equiv_pos_as_xyz
  1  'x, y, z'
loop_
 _atom_site_type_symbol
 _atom_site_label
 _atom_site_symmetry_multiplicity
 _atom_site_fract_x
 _atom_site_fract_y
 _atom_site_fract_z
 _atom_site_occupancy
  Ca  Ca0  1  0.372979  0.750000  0.149560  1
  Ca  Ca1  1  0.372979  0.250000  0.350440  1
  Ca  Ca2  1  0.627021  0.750000  0.649560  1
  Ca  Ca3  1  0.627021  0.250000  0.850440  1
  Ag  Ag4  1  0.846506  0.569938  0.385680  1
  Ag  Ag5  1  0.846506  0.069938  0.114320  1
  Ag  Ag6  1  0.153494  0.069938  0.614320  1
  Ag  Ag7  1  0.846506  0.430062  0.114320  1
  Ag  Ag8  1  0.153494  0.430062  0.614320  1
  Ag  Ag9  1  0.846506  0.930062  0.385680  1
  Ag  Ag10  1  0.153494  0.930062  0.885680  1
  Ag  Ag11  1  0.153494  0.569938  0.885680  1
  O  O12  1  0.135074  0.880761  0.543294  1
  O  O13  1  0.864926  0.119239  0.456706  1
  O  O14  1  0.507542  0.000000  0.250000  1
  O  O15  1  0.864926  0.880761  0.043294  1
  O  O16  1  0.864926  0.619239  0.043294  1
  O  O17  1  0.865725  0.250000  0.202366  1
  O  O18  1  0.135074  0.119239  0.956706  1
  O  O19  1  0.134275  0.250000  0.702366  1
  O  O20  1  0.507542  0.500000  0.250000  1
  O  O21  1  0.492458  -0.000000  0.750000  1
  O  O22  1  0.135074  0.619239  0.543294  1
  O  O23  1  0.134275  0.750000  0.797634  1
  O  O24  1  0.865725  0.750000  0.297634  1
  O  O25  1  0.492458  0.500000  0.750000  1
  O  O26  1  0.135074  0.380761  0.956706  1
  O  O27  1  0.864926  0.380761  0.456706  1
