# generated using pymatgen
data_CaSb2(PO5)2
_symmetry_space_group_name_H-M   'P 1'
_cell_length_a   7.38752949
_cell_length_b   7.38752904
_cell_length_c   9.12022057
_cell_angle_alpha   103.05579161
_cell_angle_beta   103.05579719
_cell_angle_gamma   116.24652181
_symmetry_Int_Tables_number   1
_chemical_formula_structural   CaSb2(PO5)2
_chemical_formula_sum   'Ca2 Sb4 P4 O20'
_cell_volume   403.51831314
_cell_formula_units_Z   2
loop_
 _symmetry_equiv_pos_site_id
 _symmetry_equiv_pos_as_xyz
  1  'x, y, z'
loop_
 _atom_site_type_symbol
 _atom_site_label
 _atom_site_symmetry_multiplicity
 _atom_site_fract_x
 _atom_site_fract_y
 _atom_site_fract_z
 _atom_site_occupancy
  Ca  Ca0  1  0.498163  0.998163  0.500000  1
  Ca  Ca1  1  0.248163  0.248163  1.000000  1
  Sb  Sb2  1  0.873342  0.617295  0.252647  1
  Sb  Sb3  1  0.364647  0.620695  0.747353  1
  Sb  Sb4  1  0.870695  0.114647  0.247353  1
  Sb  Sb5  1  0.867295  0.623342  0.752647  1
  P  P6  1  0.043898  0.043826  0.597563  1
  P  P7  1  0.696334  0.196263  0.902437  1
  P  P8  1  0.446263  0.446334  0.402437  1
  P  P9  1  0.293826  0.793898  0.097563  1
  O  O10  1  0.559697  0.528656  0.286584  1
  O  O11  1  0.656780  0.664822  0.832177  1
  O  O12  1  0.308756  0.610191  0.986060  1
  O  O13  1  0.778656  0.309697  0.786584  1
  O  O14  1  0.219960  0.245000  0.283741  1
  O  O15  1  0.425066  0.628428  0.509308  1
  O  O16  1  0.074601  0.582645  0.667823  1
  O  O17  1  0.832645  0.824601  0.167823  1
  O  O18  1  0.914822  0.406780  0.332177  1
  O  O19  1  0.186218  0.711259  0.216259  1
  O  O20  1  0.242072  0.273114  0.713416  1
  O  O21  1  0.495000  0.969960  0.783741  1
  O  O22  1  0.961259  0.936218  0.716259  1
  O  O23  1  0.165759  0.869121  0.990692  1
  O  O24  1  0.119121  0.915759  0.490692  1
  O  O25  1  0.878428  0.175066  0.009308  1
  O  O26  1  0.860191  0.058756  0.486060  1
  O  O27  1  0.624132  0.322697  0.013940  1
  O  O28  1  0.523114  0.992072  0.213416  1
  O  O29  1  0.572697  0.374132  0.513940  1
