# generated using pymatgen
data_V2CoO7
_symmetry_space_group_name_H-M   'P 1'
_cell_length_a   6.57497605
_cell_length_b   11.10782129
_cell_length_c   15.01250165
_cell_angle_alpha   90.00000000
_cell_angle_beta   90.00000000
_cell_angle_gamma   102.31795132
_symmetry_Int_Tables_number   1
_chemical_formula_structural   V2CoO7
_chemical_formula_sum   'V16 Co8 O56'
_cell_volume   1071.17705054
_cell_formula_units_Z   8
loop_
 _symmetry_equiv_pos_site_id
 _symmetry_equiv_pos_as_xyz
  1  'x, y, z'
loop_
 _atom_site_type_symbol
 _atom_site_label
 _atom_site_symmetry_multiplicity
 _atom_site_fract_x
 _atom_site_fract_y
 _atom_site_fract_z
 _atom_site_occupancy
  V  V0  1  0.853895  0.982735  0.857949  1
  V  V1  1  0.426643  0.679677  0.004048  1
  V  V2  1  0.426643  0.179677  0.495952  1
  V  V3  1  0.573357  0.320323  0.995952  1
  V  V4  1  0.506895  0.801365  0.701802  1
  V  V5  1  0.493105  0.698635  0.201802  1
  V  V6  1  0.493105  0.198635  0.298198  1
  V  V7  1  0.506895  0.301365  0.798198  1
  V  V8  1  0.573357  0.820323  0.504048  1
  V  V9  1  0.874857  0.481386  0.138829  1
  V  V10  1  0.125143  0.018614  0.638829  1
  V  V11  1  0.125143  0.518614  0.861171  1
  V  V12  1  0.146105  0.517265  0.357949  1
  V  V13  1  0.853895  0.482735  0.642051  1
  V  V14  1  0.146105  0.017265  0.142051  1
  V  V15  1  0.874857  0.981386  0.361171  1
  Co  Co16  1  0.636834  0.075436  0.677380  1
  Co  Co17  1  0.363166  0.424564  0.177380  1
  Co  Co18  1  0.363166  0.924564  0.322620  1
  Co  Co19  1  0.636834  0.575436  0.822620  1
  Co  Co20  1  0.988746  0.249619  0.753536  1
  Co  Co21  1  0.011254  0.250381  0.253536  1
  Co  Co22  1  0.011254  0.750381  0.246464  1
  Co  Co23  1  0.988746  0.749619  0.746464  1
  O  O24  1  0.768598  0.963747  0.960271  1
  O  O25  1  0.231402  0.536253  0.460271  1
  O  O26  1  0.231402  0.036253  0.039729  1
  O  O27  1  0.768598  0.463747  0.539729  1
  O  O28  1  0.993093  0.866841  0.830322  1
  O  O29  1  0.006907  0.633159  0.330322  1
  O  O30  1  0.006907  0.133159  0.169678  1
  O  O31  1  0.993093  0.366841  0.669678  1
  O  O32  1  0.992211  0.136292  0.840916  1
  O  O33  1  0.007789  0.363708  0.340916  1
  O  O34  1  0.007789  0.863708  0.159084  1
  O  O35  1  0.992211  0.636292  0.659084  1
  O  O36  1  0.651987  0.948744  0.298507  1
  O  O37  1  0.348013  0.551256  0.798507  1
  O  O38  1  0.348013  0.051256  0.701493  1
  O  O39  1  0.651987  0.448744  0.201493  1
  O  O40  1  0.998973  0.132963  0.345469  1
  O  O41  1  0.001027  0.367037  0.845469  1
  O  O42  1  0.001027  0.867037  0.654531  1
  O  O43  1  0.998973  0.632963  0.154531  1
  O  O44  1  0.061691  0.884319  0.331931  1
  O  O45  1  0.385216  0.837778  0.423255  1
  O  O46  1  0.938309  0.615681  0.831931  1
  O  O47  1  0.061691  0.384319  0.168069  1
  O  O48  1  0.699754  0.719727  0.468062  1
  O  O49  1  0.300246  0.780273  0.968062  1
  O  O50  1  0.300246  0.280273  0.531938  1
  O  O51  1  0.699754  0.219727  0.031938  1
  O  O52  1  0.783557  0.961977  0.470131  1
  O  O53  1  0.216443  0.538023  0.970131  1
  O  O54  1  0.216443  0.038023  0.529869  1
  O  O55  1  0.783557  0.461977  0.029869  1
  O  O56  1  0.438899  0.221301  0.898180  1
  O  O57  1  0.561101  0.278699  0.398180  1
  O  O58  1  0.561101  0.778699  0.101820  1
  O  O59  1  0.438899  0.721301  0.601820  1
  O  O60  1  0.691879  0.213287  0.751432  1
  O  O61  1  0.308121  0.286713  0.251432  1
  O  O62  1  0.308121  0.786713  0.248568  1
  O  O63  1  0.691879  0.713287  0.748568  1
  O  O64  1  0.644997  0.459591  0.727378  1
  O  O65  1  0.355003  0.040409  0.227378  1
  O  O66  1  0.355003  0.540409  0.272622  1
  O  O67  1  0.644997  0.959591  0.772622  1
  O  O68  1  0.278073  0.279169  0.742796  1
  O  O69  1  0.721927  0.220831  0.242796  1
  O  O70  1  0.721927  0.720831  0.257204  1
  O  O71  1  0.278073  0.779169  0.757204  1
  O  O72  1  0.583582  0.427338  0.882567  1
  O  O73  1  0.416418  0.072662  0.382567  1
  O  O74  1  0.416418  0.572662  0.117433  1
  O  O75  1  0.583582  0.927338  0.617433  1
  O  O76  1  0.385216  0.337778  0.076745  1
  O  O77  1  0.614784  0.162222  0.576745  1
  O  O78  1  0.614784  0.662222  0.923255  1
  O  O79  1  0.938309  0.115681  0.668069  1
