# generated using pymatgen
data_CaMn2O4
_symmetry_space_group_name_H-M   'P 1'
_cell_length_a   3.14068130
_cell_length_b   9.22177624
_cell_length_c   10.70463789
_cell_angle_alpha   89.99737096
_cell_angle_beta   90.00085477
_cell_angle_gamma   90.00028538
_symmetry_Int_Tables_number   1
_chemical_formula_structural   CaMn2O4
_chemical_formula_sum   'Ca4 Mn8 O16'
_cell_volume   310.03478948
_cell_formula_units_Z   4
loop_
 _symmetry_equiv_pos_site_id
 _symmetry_equiv_pos_as_xyz
  1  'x, y, z'
loop_
 _atom_site_type_symbol
 _atom_site_label
 _atom_site_symmetry_multiplicity
 _atom_site_fract_x
 _atom_site_fract_y
 _atom_site_fract_z
 _atom_site_occupancy
  Ca  Ca0  1  0.750003  0.243310  0.343149  1
  Ca  Ca1  1  0.250001  0.756714  0.656885  1
  Ca  Ca2  1  0.749999  0.743301  0.156837  1
  Ca  Ca3  1  0.249996  0.256707  0.843120  1
  Mn  Mn4  1  0.250001  0.419469  0.104743  1
  Mn  Mn5  1  0.750006  0.080557  0.604716  1
  Mn  Mn6  1  0.249994  0.919457  0.395260  1
  Mn  Mn7  1  0.750005  0.580477  0.895271  1
  Mn  Mn8  1  0.749990  0.563919  0.388997  1
  Mn  Mn9  1  0.250011  0.436094  0.610996  1
  Mn  Mn10  1  0.749991  0.063938  0.111024  1
  Mn  Mn11  1  0.249994  0.936095  0.888998  1
  O  O12  1  0.250000  0.912788  0.070139  1
  O  O13  1  0.749997  0.087227  0.929875  1
  O  O14  1  0.250006  0.412786  0.429886  1
  O  O15  1  0.750003  0.587260  0.570114  1
  O  O16  1  0.249999  0.019031  0.720890  1
  O  O17  1  0.749994  0.981003  0.279128  1
  O  O18  1  0.250015  0.518895  0.779108  1
  O  O19  1  0.749997  0.481019  0.220903  1
  O  O20  1  0.249980  0.613203  0.029095  1
  O  O21  1  0.750007  0.386727  0.970922  1
  O  O22  1  0.249999  0.113219  0.470884  1
  O  O23  1  0.749998  0.886808  0.529102  1
  O  O24  1  0.750003  0.782563  0.835561  1
  O  O25  1  0.249999  0.217399  0.164460  1
  O  O26  1  0.250001  0.717355  0.335579  1
  O  O27  1  0.749999  0.282676  0.664358  1
