# generated using pymatgen
data_BaCaTiF7
_symmetry_space_group_name_H-M   'P 1'
_cell_length_a   5.91487212
_cell_length_b   10.09196116
_cell_length_c   10.40383477
_cell_angle_alpha   90.00000000
_cell_angle_beta   90.00000000
_cell_angle_gamma   92.74145745
_symmetry_Int_Tables_number   1
_chemical_formula_structural   BaCaTiF7
_chemical_formula_sum   'Ba4 Ca4 Ti4 F28'
_cell_volume   620.32181484
_cell_formula_units_Z   4
loop_
 _symmetry_equiv_pos_site_id
 _symmetry_equiv_pos_as_xyz
  1  'x, y, z'
loop_
 _atom_site_type_symbol
 _atom_site_label
 _atom_site_symmetry_multiplicity
 _atom_site_fract_x
 _atom_site_fract_y
 _atom_site_fract_z
 _atom_site_occupancy
  Ba  Ba0  1  0.271163  0.503018  0.325284  1
  Ba  Ba1  1  0.728837  0.996982  0.825284  1
  Ba  Ba2  1  0.728837  0.496982  0.674716  1
  Ba  Ba3  1  0.271163  0.003018  0.174716  1
  Ca  Ca4  1  0.699782  0.818004  0.405775  1
  Ca  Ca5  1  0.300218  0.681996  0.905775  1
  Ca  Ca6  1  0.699782  0.318004  0.094225  1
  Ca  Ca7  1  0.300218  0.181996  0.594225  1
  Ti  Ti8  1  0.190042  0.808392  0.617295  1
  Ti  Ti9  1  0.809958  0.191608  0.382705  1
  Ti  Ti10  1  0.190042  0.308392  0.882705  1
  Ti  Ti11  1  0.809958  0.691608  0.117295  1
  F  F12  1  0.104573  0.109049  0.424389  1
  F  F13  1  0.345194  0.371290  0.046520  1
  F  F14  1  0.476256  0.743781  0.705429  1
  F  F15  1  0.523744  0.256219  0.294571  1
  F  F16  1  0.904472  0.358545  0.459751  1
  F  F17  1  0.273956  0.479517  0.800060  1
  F  F18  1  0.011774  0.746053  0.776367  1
  F  F19  1  0.095528  0.141455  0.959751  1
  F  F20  1  0.345194  0.871290  0.453480  1
  F  F21  1  0.523744  0.756219  0.205429  1
  F  F22  1  0.104573  0.609049  0.075611  1
  F  F23  1  0.895427  0.890951  0.575611  1
  F  F24  1  0.988226  0.753947  0.276367  1
  F  F25  1  0.395729  0.884839  0.960983  1
  F  F26  1  0.095528  0.641455  0.540249  1
  F  F27  1  0.904472  0.858545  0.040249  1
  F  F28  1  0.988226  0.253947  0.223633  1
  F  F29  1  0.895427  0.390951  0.924389  1
  F  F30  1  0.604271  0.615161  0.460983  1
  F  F31  1  0.654806  0.628710  0.953480  1
  F  F32  1  0.604271  0.115161  0.039017  1
  F  F33  1  0.011774  0.246053  0.723633  1
  F  F34  1  0.395729  0.384839  0.539017  1
  F  F35  1  0.726044  0.020483  0.300060  1
  F  F36  1  0.726044  0.520483  0.199940  1
  F  F37  1  0.273956  0.979517  0.699940  1
  F  F38  1  0.654806  0.128710  0.546520  1
  F  F39  1  0.476256  0.243781  0.794571  1
