# generated using pymatgen
data_Zn2Bi3O8
_symmetry_space_group_name_H-M   'P 1'
_cell_length_a   6.77903126
_cell_length_b   6.77903016
_cell_length_c   9.61355236
_cell_angle_alpha   90.00000000
_cell_angle_beta   90.00000000
_cell_angle_gamma   120.00000050
_symmetry_Int_Tables_number   1
_chemical_formula_structural   Zn2Bi3O8
_chemical_formula_sum   'Zn4 Bi6 O16'
_cell_volume   382.60419551
_cell_formula_units_Z   2
loop_
 _symmetry_equiv_pos_site_id
 _symmetry_equiv_pos_as_xyz
  1  'x, y, z'
loop_
 _atom_site_type_symbol
 _atom_site_label
 _atom_site_symmetry_multiplicity
 _atom_site_fract_x
 _atom_site_fract_y
 _atom_site_fract_z
 _atom_site_occupancy
  Zn  Zn0  1  0.666667  0.333334  0.040386  1
  Zn  Zn1  1  0.333333  0.666666  0.540387  1
  Zn  Zn2  1  0.666667  0.333334  0.402033  1
  Zn  Zn3  1  0.333333  0.666666  0.902034  1
  Bi  Bi4  1  0.668213  0.834107  0.242138  1
  Bi  Bi5  1  0.834108  0.165894  0.742138  1
  Bi  Bi6  1  0.165894  0.331788  0.242138  1
  Bi  Bi7  1  0.834106  0.668213  0.742138  1
  Bi  Bi8  1  0.331788  0.165894  0.742138  1
  Bi  Bi9  1  0.165894  0.834107  0.242138  1
  O  O10  1  0.825961  0.174040  0.138389  1
  O  O11  1  0.651922  0.825961  0.638388  1
  O  O12  1  0.174040  0.348079  0.638388  1
  O  O13  1  0.825960  0.651922  0.138389  1
  O  O14  1  0.348078  0.174040  0.138389  1
  O  O15  1  0.174040  0.825961  0.638388  1
  O  O16  1  0.513297  0.486702  0.881020  1
  O  O17  1  0.026596  0.513297  0.381019  1
  O  O18  1  0.486703  0.973405  0.381019  1
  O  O19  1  0.513297  0.026596  0.881020  1
  O  O20  1  -0.000000  -0.000000  0.354200  1
  O  O21  1  -0.000000  -0.000000  0.854200  1
  O  O22  1  0.333333  0.666666  0.112247  1
  O  O23  1  0.973403  0.486702  0.881020  1
  O  O24  1  0.486702  0.513297  0.381019  1
  O  O25  1  0.666667  0.333334  0.612247  1
