# generated using pymatgen
data_Ta2Zn2FeO8
_symmetry_space_group_name_H-M   'P 1'
_cell_length_a   5.31511895
_cell_length_b   5.94795316
_cell_length_c   10.19180378
_cell_angle_alpha   106.95022759
_cell_angle_beta   89.68273817
_cell_angle_gamma   89.93361150
_symmetry_Int_Tables_number   1
_chemical_formula_structural   Ta2Zn2FeO8
_chemical_formula_sum   'Ta4 Zn4 Fe2 O16'
_cell_volume   308.20137907
_cell_formula_units_Z   2
loop_
 _symmetry_equiv_pos_site_id
 _symmetry_equiv_pos_as_xyz
  1  'x, y, z'
loop_
 _atom_site_type_symbol
 _atom_site_label
 _atom_site_symmetry_multiplicity
 _atom_site_fract_x
 _atom_site_fract_y
 _atom_site_fract_z
 _atom_site_occupancy
  Ta  Ta0  1  0.733852  0.271610  0.231076  1
  Ta  Ta1  1  0.767036  0.038276  0.768219  1
  Ta  Ta2  1  0.265790  0.727253  0.768912  1
  Ta  Ta3  1  0.232346  0.960201  0.230733  1
  Zn  Zn4  1  0.769872  0.434711  0.563559  1
  Zn  Zn5  1  0.728574  0.870323  0.434930  1
  Zn  Zn6  1  0.229289  0.563656  0.436069  1
  Zn  Zn7  1  0.270751  0.128307  0.563744  1
  Fe  Fe8  1  0.749441  0.644422  0.999389  1
  Fe  Fe9  1  0.248412  0.355133  0.000063  1
  O  O10  1  0.072133  0.186332  0.139814  1
  O  O11  1  0.429126  0.041003  0.858666  1
  O  O12  1  0.930231  0.816876  0.858971  1
  O  O13  1  0.570973  0.956395  0.140154  1
  O  O14  1  0.594248  0.429843  0.118364  1
  O  O15  1  0.903395  0.314091  0.879490  1
  O  O16  1  0.401432  0.564936  0.881660  1
  O  O17  1  0.092279  0.689061  0.118832  1
  O  O18  1  0.430340  0.282276  0.354310  1
  O  O19  1  0.069608  0.925592  0.644824  1
  O  O20  1  0.357198  0.843490  0.387026  1
  O  O21  1  0.141286  0.455652  0.612506  1
  O  O22  1  0.642145  0.153218  0.611063  1
  O  O23  1  0.858084  0.543661  0.387055  1
  O  O24  1  0.930706  0.073500  0.354277  1
  O  O25  1  0.569196  0.716367  0.645165  1
