# generated using pymatgen
data_YTi3Se2ClO8
_symmetry_space_group_name_H-M   'P 1'
_cell_length_a   7.18591069
_cell_length_b   6.91564326
_cell_length_c   10.48892134
_cell_angle_alpha   84.30041079
_cell_angle_beta   94.76232950
_cell_angle_gamma   98.34783129
_symmetry_Int_Tables_number   1
_chemical_formula_structural   YTi3Se2ClO8
_chemical_formula_sum   'Y2 Ti6 Se4 Cl2 O16'
_cell_volume   511.92926525
_cell_formula_units_Z   2
loop_
 _symmetry_equiv_pos_site_id
 _symmetry_equiv_pos_as_xyz
  1  'x, y, z'
loop_
 _atom_site_type_symbol
 _atom_site_label
 _atom_site_symmetry_multiplicity
 _atom_site_fract_x
 _atom_site_fract_y
 _atom_site_fract_z
 _atom_site_occupancy
  Y  Y0  1  0.262448  0.242639  0.235212  1
  Y  Y1  1  0.759972  0.732281  0.738341  1
  Ti  Ti2  1  0.495889  0.947932  0.054528  1
  Ti  Ti3  1  0.489950  0.990269  0.503326  1
  Ti  Ti4  1  0.926510  0.962449  0.009461  1
  Ti  Ti5  1  0.651297  0.295170  0.823646  1
  Ti  Ti6  1  0.225178  0.695418  0.285701  1
  Ti  Ti7  1  0.982308  0.923072  0.461817  1
  Se  Se8  1  0.722551  0.632052  0.121400  1
  Se  Se9  1  0.176788  0.590542  0.948503  1
  Se  Se10  1  0.871263  0.616232  0.335650  1
  Se  Se11  1  0.209737  0.619826  0.661137  1
  Cl  Cl12  1  0.409960  0.204230  0.657458  1
  Cl  Cl13  1  0.765845  0.090248  0.178763  1
  O  O14  1  0.327453  0.923835  0.178427  1
  O  O15  1  0.174444  0.546762  0.119808  1
  O  O16  1  0.820712  0.424991  0.719428  1
  O  O17  1  0.474076  0.170000  0.969754  1
  O  O18  1  0.440751  0.753609  0.648962  1
  O  O19  1  0.056483  0.813594  0.638167  1
  O  O20  1  0.758067  0.026279  0.878044  1
  O  O21  1  0.098365  0.156000  0.040887  1
  O  O22  1  0.058538  0.151041  0.385959  1
  O  O23  1  0.009651  0.758935  0.912938  1
  O  O24  1  0.250006  0.852866  0.427835  1
  O  O25  1  0.740093  0.927049  0.532803  1
  O  O26  1  0.374586  0.762843  0.938777  1
  O  O27  1  0.502536  0.160086  0.372325  1
  O  O28  1  0.611984  0.518502  0.878042  1
  O  O29  1  0.352560  0.511249  0.342901  1
