# generated using pymatgen
data_Ca2MnNb2O8
_symmetry_space_group_name_H-M   'P 1'
_cell_length_a   5.53661910
_cell_length_b   6.36225014
_cell_length_c   10.19883124
_cell_angle_alpha   108.20347377
_cell_angle_beta   91.82972339
_cell_angle_gamma   89.95788621
_symmetry_Int_Tables_number   1
_chemical_formula_structural   Ca2MnNb2O8
_chemical_formula_sum   'Ca4 Mn2 Nb4 O16'
_cell_volume   341.08758224
_cell_formula_units_Z   2
loop_
 _symmetry_equiv_pos_site_id
 _symmetry_equiv_pos_as_xyz
  1  'x, y, z'
loop_
 _atom_site_type_symbol
 _atom_site_label
 _atom_site_symmetry_multiplicity
 _atom_site_fract_x
 _atom_site_fract_y
 _atom_site_fract_z
 _atom_site_occupancy
  Ca  Ca0  1  0.758846  0.478040  0.587735  1
  Ca  Ca1  1  0.743557  0.890983  0.417495  1
  Ca  Ca2  1  0.244931  0.527587  0.423419  1
  Ca  Ca3  1  0.257245  0.106228  0.578733  1
  Mn  Mn4  1  0.751829  0.653132  0.001222  1
  Mn  Mn5  1  0.250849  0.352332  0.002221  1
  Nb  Nb6  1  0.755604  0.267500  0.229532  1
  Nb  Nb7  1  0.746192  0.042171  0.773964  1
  Nb  Nb8  1  0.246707  0.736913  0.775621  1
  Nb  Nb9  1  0.256142  0.960444  0.227040  1
  O  O10  1  0.085954  0.196280  0.145955  1
  O  O11  1  0.415960  0.054159  0.857113  1
  O  O12  1  0.913518  0.804938  0.855485  1
  O  O13  1  0.589066  0.948830  0.147085  1
  O  O14  1  0.591994  0.409311  0.118527  1
  O  O15  1  0.910007  0.294951  0.885003  1
  O  O16  1  0.412231  0.596409  0.886876  1
  O  O17  1  0.092393  0.707523  0.115023  1
  O  O18  1  0.504544  0.245024  0.368179  1
  O  O19  1  0.996345  0.880496  0.634519  1
  O  O20  1  0.346459  0.830411  0.369415  1
  O  O21  1  0.156558  0.464014  0.633240  1
  O  O22  1  0.654813  0.165227  0.628897  1
  O  O23  1  0.846595  0.535773  0.374971  1
  O  O24  1  0.007922  0.119215  0.367965  1
  O  O25  1  0.493794  0.755586  0.634507  1
