# generated using pymatgen
data_Sr2YTi2GaO7
_symmetry_space_group_name_H-M   'P 1'
_cell_length_a   5.52472466
_cell_length_b   5.63607951
_cell_length_c   12.30624795
_cell_angle_alpha   103.23784821
_cell_angle_beta   102.92623163
_cell_angle_gamma   89.97964307
_symmetry_Int_Tables_number   1
_chemical_formula_structural   Sr2YTi2GaO7
_chemical_formula_sum   'Sr4 Y2 Ti4 Ga2 O14'
_cell_volume   363.03179873
_cell_formula_units_Z   2
loop_
 _symmetry_equiv_pos_site_id
 _symmetry_equiv_pos_as_xyz
  1  'x, y, z'
loop_
 _atom_site_type_symbol
 _atom_site_label
 _atom_site_symmetry_multiplicity
 _atom_site_fract_x
 _atom_site_fract_y
 _atom_site_fract_z
 _atom_site_occupancy
  Sr  Sr0  1  0.147765  0.177593  0.309148  1
  Sr  Sr1  1  0.837931  0.820976  0.690256  1
  Sr  Sr2  1  0.647956  0.631452  0.309110  1
  Sr  Sr3  1  0.338650  0.367459  0.690390  1
  Y  Y4  1  0.501009  0.499075  0.999768  1
  Y  Y5  1  0.001050  0.999016  0.999755  1
  Ti  Ti6  1  0.439782  0.939075  0.878783  1
  Ti  Ti7  1  0.061678  0.561527  0.121632  1
  Ti  Ti8  1  0.939257  0.436676  0.877981  1
  Ti  Ti9  1  0.561251  0.059195  0.120902  1
  Ga  Ga10  1  0.211686  0.818805  0.499161  1
  Ga  Ga11  1  0.711924  0.179958  0.500053  1
  O  O12  1  0.814933  0.317919  0.133104  1
  O  O13  1  0.865334  0.873408  0.499790  1
  O  O14  1  0.314976  0.313778  0.133171  1
  O  O15  1  0.846929  0.369620  0.645625  1
  O  O16  1  0.685193  0.178988  0.864029  1
  O  O17  1  0.185190  0.183266  0.864090  1
  O  O18  1  0.365204  0.125581  0.499669  1
  O  O19  1  0.181082  0.685495  0.866411  1
  O  O20  1  0.681056  0.679236  0.866495  1
  O  O21  1  0.348526  0.772065  0.643926  1
  O  O22  1  0.200510  0.629373  0.353483  1
  O  O23  1  0.702146  0.226111  0.354974  1
  O  O24  1  0.819525  0.818093  0.135644  1
  O  O25  1  0.319507  0.816144  0.135580  1
