# generated using pymatgen
data_Ca2TiIrO6
_symmetry_space_group_name_H-M   'P 1'
_cell_length_a   5.40240772
_cell_length_b   5.57839192
_cell_length_c   7.71870951
_cell_angle_alpha   90.00000000
_cell_angle_beta   89.88082660
_cell_angle_gamma   90.00000000
_symmetry_Int_Tables_number   1
_chemical_formula_structural   Ca2TiIrO6
_chemical_formula_sum   'Ca4 Ti2 Ir2 O12'
_cell_volume   232.61629709
_cell_formula_units_Z   2
loop_
 _symmetry_equiv_pos_site_id
 _symmetry_equiv_pos_as_xyz
  1  'x, y, z'
loop_
 _atom_site_type_symbol
 _atom_site_label
 _atom_site_symmetry_multiplicity
 _atom_site_fract_x
 _atom_site_fract_y
 _atom_site_fract_z
 _atom_site_occupancy
  Ca  Ca0  1  0.014101  0.945567  0.250022  1
  Ca  Ca1  1  0.485899  0.445567  0.249978  1
  Ca  Ca2  1  0.514101  0.554433  0.750022  1
  Ca  Ca3  1  0.985899  0.054433  0.749978  1
  Ti  Ti4  1  0.000000  0.500000  0.000000  1
  Ti  Ti5  1  0.500000  0.000000  0.500000  1
  Ir  Ir6  1  0.000000  0.500000  0.500000  1
  Ir  Ir7  1  0.500000  0.000000  0.000000  1
  O  O8  1  0.086596  0.476379  0.752432  1
  O  O9  1  0.200199  0.210102  0.046271  1
  O  O10  1  0.204790  0.202744  0.455704  1
  O  O11  1  0.295210  0.702744  0.044296  1
  O  O12  1  0.299801  0.710102  0.453729  1
  O  O13  1  0.413404  0.976379  0.747568  1
  O  O14  1  0.586596  0.023621  0.252432  1
  O  O15  1  0.700199  0.289898  0.546271  1
  O  O16  1  0.704790  0.297256  0.955704  1
  O  O17  1  0.799801  0.789898  0.953729  1
  O  O18  1  0.795210  0.797256  0.544296  1
  O  O19  1  0.913404  0.523621  0.247568  1
