# generated using pymatgen
data_Mn2Nb2O9
_symmetry_space_group_name_H-M   'P 1'
_cell_length_a   4.96344019
_cell_length_b   4.96344011
_cell_length_c   14.34221216
_cell_angle_alpha   90.00000000
_cell_angle_beta   90.00000000
_cell_angle_gamma   120.00000060
_symmetry_Int_Tables_number   1
_chemical_formula_structural   Mn2Nb2O9
_chemical_formula_sum   'Mn4 Nb4 O18'
_cell_volume   305.99360530
_cell_formula_units_Z   2
loop_
 _symmetry_equiv_pos_site_id
 _symmetry_equiv_pos_as_xyz
  1  'x, y, z'
loop_
 _atom_site_type_symbol
 _atom_site_label
 _atom_site_symmetry_multiplicity
 _atom_site_fract_x
 _atom_site_fract_y
 _atom_site_fract_z
 _atom_site_occupancy
  Mn  Mn0  1  0.333333  0.666667  0.002847  1
  Mn  Mn1  1  0.333333  0.666667  0.502847  1
  Mn  Mn2  1  0.666667  0.333333  0.002847  1
  Mn  Mn3  1  0.666667  0.333333  0.502847  1
  Nb  Nb4  1  0.000000  0.000000  0.660202  1
  Nb  Nb5  1  0.000000  0.000000  0.160202  1
  Nb  Nb6  1  0.000000  0.000000  0.845586  1
  Nb  Nb7  1  0.000000  0.000000  0.345586  1
  O  O8  1  0.651218  0.651213  0.575789  1
  O  O9  1  0.000329  0.706726  0.752854  1
  O  O10  1  0.651228  0.999992  0.429875  1
  O  O11  1  0.348764  0.348772  0.429875  1
  O  O12  1  -0.000004  0.348782  0.575789  1
  O  O13  1  0.706398  0.706726  0.252854  1
  O  O14  1  0.000008  0.348772  0.929875  1
  O  O15  1  0.348787  0.000004  0.575789  1
  O  O16  1  0.348787  0.348782  0.075789  1
  O  O17  1  0.000008  0.651236  0.429875  1
  O  O18  1  0.651228  0.651236  0.929875  1
  O  O19  1  0.651218  0.000004  0.075789  1
  O  O20  1  0.706398  0.999671  0.752854  1
  O  O21  1  0.293274  0.293602  0.752854  1
  O  O22  1  0.293274  0.999671  0.252854  1
  O  O23  1  -0.000004  0.651213  0.075789  1
  O  O24  1  0.000329  0.293602  0.252854  1
  O  O25  1  0.348764  0.999992  0.929875  1
