# generated using pymatgen
data_MgSnF4
_symmetry_space_group_name_H-M   'P 1'
_cell_length_a   5.08475364
_cell_length_b   5.53141775
_cell_length_c   7.40873424
_cell_angle_alpha   111.42732239
_cell_angle_beta   113.62609015
_cell_angle_gamma   89.82950839
_symmetry_Int_Tables_number   1
_chemical_formula_structural   MgSnF4
_chemical_formula_sum   'Mg2 Sn2 F8'
_cell_volume   175.18441766
_cell_formula_units_Z   2
loop_
 _symmetry_equiv_pos_site_id
 _symmetry_equiv_pos_as_xyz
  1  'x, y, z'
loop_
 _atom_site_type_symbol
 _atom_site_label
 _atom_site_symmetry_multiplicity
 _atom_site_fract_x
 _atom_site_fract_y
 _atom_site_fract_z
 _atom_site_occupancy
  Mg  Mg0  1  0.248931  0.184774  0.497899  1
  Mg  Mg1  1  0.750390  0.651177  0.498942  1
  Sn  Sn2  1  0.062103  0.569920  0.089592  1
  Sn  Sn3  1  0.441572  0.977836  0.909508  1
  F  F4  1  0.787254  0.487730  0.222852  1
  F  F5  1  0.575228  0.244892  0.794619  1
  F  F6  1  0.092791  0.494636  0.630278  1
  F  F7  1  0.062672  -0.035987  0.603351  1
  F  F8  1  0.439121  0.859411  0.391943  1
  F  F9  1  0.402028  0.368047  0.365833  1
  F  F10  1  0.926454  0.955709  0.199762  1
  F  F11  1  0.708770  0.754752  0.773076  1
