# generated using pymatgen
data_TiSiO4
_symmetry_space_group_name_H-M   'P 1'
_cell_length_a   9.75154792
_cell_length_b   9.75154750
_cell_length_c   9.75154763
_cell_angle_alpha   109.47122287
_cell_angle_beta   109.47122204
_cell_angle_gamma   109.47122013
_symmetry_Int_Tables_number   1
_chemical_formula_structural   TiSiO4
_chemical_formula_sum   'Ti12 Si12 O48'
_cell_volume   713.83648054
_cell_formula_units_Z   12
loop_
 _symmetry_equiv_pos_site_id
 _symmetry_equiv_pos_as_xyz
  1  'x, y, z'
loop_
 _atom_site_type_symbol
 _atom_site_label
 _atom_site_symmetry_multiplicity
 _atom_site_fract_x
 _atom_site_fract_y
 _atom_site_fract_z
 _atom_site_occupancy
  Ti  Ti0  1  0.250000  0.875001  0.625000  1
  Ti  Ti1  1  0.875000  0.625000  0.250000  1
  Ti  Ti2  1  0.625001  0.875001  0.750001  1
  Ti  Ti3  1  0.875001  0.750001  0.625001  1
  Ti  Ti4  1  0.625000  0.250000  0.875000  1
  Ti  Ti5  1  0.750000  0.625000  0.875000  1
  Ti  Ti6  1  0.750000  0.125000  0.375000  1
  Ti  Ti7  1  0.125000  0.375000  0.750000  1
  Ti  Ti8  1  0.375000  0.125000  0.250000  1
  Ti  Ti9  1  0.125000  0.250000  0.375000  1
  Ti  Ti10  1  0.375000  0.750001  0.125000  1
  Ti  Ti11  1  0.250000  0.375000  0.125000  1
  Si  Si12  1  0.250000  0.125000  0.875000  1
  Si  Si13  1  0.875000  0.250000  0.125000  1
  Si  Si14  1  0.625000  0.750001  0.375000  1
  Si  Si15  1  0.250000  0.625000  0.375001  1
  Si  Si16  1  0.375000  0.625000  0.750000  1
  Si  Si17  1  0.750000  0.375000  0.625000  1
  Si  Si18  1  0.875000  0.125000  0.750000  1
  Si  Si19  1  0.125000  0.750001  0.875000  1
  Si  Si20  1  0.125000  0.875001  0.250000  1
  Si  Si21  1  0.625000  0.375000  0.250000  1
  Si  Si22  1  0.375000  0.250000  0.625000  1
  Si  Si23  1  0.750000  0.875001  0.125000  1
  O  O24  1  0.273915  0.464683  0.369717  1
  O  O25  1  0.035317  0.309232  0.905035  1
  O  O26  1  0.130283  0.594965  0.904197  1
  O  O27  1  0.226084  0.595803  0.190768  1
  O  O28  1  0.226084  0.130282  0.035316  1
  O  O29  1  0.595802  0.190767  0.226084  1
  O  O30  1  0.594964  0.190767  0.464683  1
  O  O31  1  0.190768  0.226084  0.595804  1
  O  O32  1  0.905036  0.369717  0.595803  1
  O  O33  1  0.309233  0.904197  0.273916  1
  O  O34  1  0.904197  0.273916  0.309233  1
  O  O35  1  0.035317  0.226084  0.130282  1
  O  O36  1  0.190768  0.464683  0.594965  1
  O  O37  1  0.595803  0.905036  0.369718  1
  O  O38  1  0.130282  0.035316  0.226084  1
  O  O39  1  0.464683  0.594965  0.190767  1
  O  O40  1  0.369717  0.595803  0.905035  1
  O  O41  1  0.905035  0.035316  0.309232  1
  O  O42  1  0.594964  0.904197  0.130283  1
  O  O43  1  0.094964  0.630282  0.404197  1
  O  O44  1  0.464683  0.369717  0.273915  1
  O  O45  1  0.369717  0.273916  0.464683  1
  O  O46  1  0.309233  0.905036  0.035317  1
  O  O47  1  0.273915  0.309232  0.904196  1
  O  O48  1  0.726084  0.535316  0.630282  1
  O  O49  1  0.964683  0.690767  0.094964  1
  O  O50  1  0.869718  0.405036  0.095803  1
  O  O51  1  0.773916  0.404197  0.809233  1
  O  O52  1  0.773915  0.869718  0.964684  1
  O  O53  1  0.404197  0.809232  0.773915  1
  O  O54  1  0.405036  0.809232  0.535316  1
  O  O55  1  0.809233  0.773916  0.404197  1
  O  O56  1  0.726084  0.690767  0.095803  1
  O  O57  1  0.690768  0.094965  0.964683  1
  O  O58  1  0.630282  0.726085  0.535317  1
  O  O59  1  0.535317  0.630282  0.726084  1
  O  O60  1  0.095803  0.869718  0.405035  1
  O  O61  1  0.405035  0.095802  0.869717  1
  O  O62  1  0.094965  0.964683  0.690767  1
  O  O63  1  0.630283  0.404197  0.094964  1
  O  O64  1  0.535317  0.405036  0.809233  1
  O  O65  1  0.869718  0.964683  0.773916  1
  O  O66  1  0.404197  0.094965  0.630283  1
  O  O67  1  0.809232  0.535316  0.405036  1
  O  O68  1  0.964683  0.773916  0.869718  1
  O  O69  1  0.095803  0.726085  0.690768  1
  O  O70  1  0.690767  0.095802  0.726084  1
  O  O71  1  0.904197  0.130282  0.594964  1
