# generated using pymatgen
data_SnAs2O7
_symmetry_space_group_name_H-M   'P 1'
_cell_length_a   7.27874933
_cell_length_b   9.32139190
_cell_length_c   9.74738758
_cell_angle_alpha   90.00000000
_cell_angle_beta   106.35077348
_cell_angle_gamma   90.00000000
_symmetry_Int_Tables_number   1
_chemical_formula_structural   SnAs2O7
_chemical_formula_sum   'Sn4 As8 O28'
_cell_volume   634.59432074
_cell_formula_units_Z   4
loop_
 _symmetry_equiv_pos_site_id
 _symmetry_equiv_pos_as_xyz
  1  'x, y, z'
loop_
 _atom_site_type_symbol
 _atom_site_label
 _atom_site_symmetry_multiplicity
 _atom_site_fract_x
 _atom_site_fract_y
 _atom_site_fract_z
 _atom_site_occupancy
  Sn  Sn0  1  0.811120  0.070734  0.712957  1
  Sn  Sn1  1  0.188880  0.570734  0.787043  1
  Sn  Sn2  1  0.188880  0.929266  0.287043  1
  Sn  Sn3  1  0.811120  0.429266  0.212957  1
  As  As4  1  0.413681  0.249798  0.753675  1
  As  As5  1  0.586319  0.749798  0.746325  1
  As  As6  1  0.586319  0.750202  0.246325  1
  As  As7  1  0.413681  0.250202  0.253675  1
  As  As8  1  0.036182  0.292901  0.967106  1
  As  As9  1  0.963818  0.792901  0.532894  1
  As  As10  1  0.963818  0.707099  0.032894  1
  As  As11  1  0.036182  0.207099  0.467107  1
  O  O12  1  0.851680  0.318199  0.043042  1
  O  O13  1  0.148320  0.818199  0.456958  1
  O  O14  1  0.148320  0.681801  0.956958  1
  O  O15  1  0.851680  0.181801  0.543042  1
  O  O16  1  0.372055  0.434213  0.732963  1
  O  O17  1  0.627945  0.934213  0.767037  1
  O  O18  1  0.627945  0.565787  0.267037  1
  O  O19  1  0.372055  0.065787  0.232963  1
  O  O20  1  0.381069  0.172772  0.896319  1
  O  O21  1  0.618931  0.672772  0.603681  1
  O  O22  1  0.618931  0.827228  0.103681  1
  O  O23  1  0.381069  0.327228  0.396319  1
  O  O24  1  0.250354  0.165324  0.594237  1
  O  O25  1  0.749646  0.665324  0.905763  1
  O  O26  1  0.749646  0.834676  0.405763  1
  O  O27  1  0.250354  0.334676  0.094237  1
  O  O28  1  0.018913  0.092630  0.326118  1
  O  O29  1  0.981087  0.592630  0.173882  1
  O  O30  1  0.981087  0.907370  0.673882  1
  O  O31  1  0.018913  0.407370  0.826118  1
  O  O32  1  0.628972  0.264081  0.213091  1
  O  O33  1  0.371028  0.764081  0.286909  1
  O  O34  1  0.371028  0.735919  0.786909  1
  O  O35  1  0.628972  0.235919  0.713091  1
  O  O36  1  0.003825  0.379336  0.401803  1
  O  O37  1  0.996175  0.879336  0.098197  1
  O  O38  1  0.996175  0.620664  0.598197  1
  O  O39  1  0.003825  0.120664  0.901803  1
