# generated using pymatgen
data_Ca2Co3O8
_symmetry_space_group_name_H-M   'P 1'
_cell_length_a   4.94176250
_cell_length_b   5.81651799
_cell_length_c   6.21560521
_cell_angle_alpha   117.89783183
_cell_angle_beta   107.40213546
_cell_angle_gamma   89.99999711
_symmetry_Int_Tables_number   1
_chemical_formula_structural   Ca2Co3O8
_chemical_formula_sum   'Ca2 Co3 O8'
_cell_volume   148.58129079
_cell_formula_units_Z   1
loop_
 _symmetry_equiv_pos_site_id
 _symmetry_equiv_pos_as_xyz
  1  'x, y, z'
loop_
 _atom_site_type_symbol
 _atom_site_label
 _atom_site_symmetry_multiplicity
 _atom_site_fract_x
 _atom_site_fract_y
 _atom_site_fract_z
 _atom_site_occupancy
  Ca  Ca0  1  0.669157  0.723709  0.447417  1
  Ca  Ca1  1  0.330842  0.276292  0.552583  1
  Co  Co2  1  0.500000  0.999999  0.000000  1
  Co  Co3  1  0.999999  0.744044  0.000000  1
  Co  Co4  1  0.999999  0.255956  0.000000  1
  O  O5  1  0.037305  0.396988  0.793976  1
  O  O6  1  0.962695  0.603011  0.206024  1
  O  O7  1  0.096042  0.903544  0.807088  1
  O  O8  1  0.903958  0.096455  0.192911  1
  O  O9  1  0.387802  0.317395  0.195917  1
  O  O10  1  0.387802  0.878522  0.195917  1
  O  O11  1  0.612199  0.121477  0.804083  1
  O  O12  1  0.612199  0.682605  0.804083  1
