# generated using pymatgen
data_Ti4ZnO8
_symmetry_space_group_name_H-M   'P 1'
_cell_length_a   6.09526882
_cell_length_b   6.09526867
_cell_length_c   6.09526941
_cell_angle_alpha   58.68064270
_cell_angle_beta   58.68063826
_cell_angle_gamma   58.68064337
_symmetry_Int_Tables_number   1
_chemical_formula_structural   Ti4ZnO8
_chemical_formula_sum   'Ti4 Zn1 O8'
_cell_volume   155.29872928
_cell_formula_units_Z   1
loop_
 _symmetry_equiv_pos_site_id
 _symmetry_equiv_pos_as_xyz
  1  'x, y, z'
loop_
 _atom_site_type_symbol
 _atom_site_label
 _atom_site_symmetry_multiplicity
 _atom_site_fract_x
 _atom_site_fract_y
 _atom_site_fract_z
 _atom_site_occupancy
  Ti  Ti0  1  0.500001  0.999999  0.500001  1
  Ti  Ti1  1  0.999999  0.500000  0.500001  1
  Ti  Ti2  1  0.500000  0.500000  0.000000  1
  Ti  Ti3  1  0.000000  0.000000  0.000000  1
  Zn  Zn4  1  0.500000  0.500001  0.499999  1
  O  O5  1  0.755370  0.272517  0.755370  1
  O  O6  1  0.244629  0.244630  0.727483  1
  O  O7  1  0.244629  0.727484  0.244629  1
  O  O8  1  0.727482  0.244630  0.244630  1
  O  O9  1  0.268375  0.268376  0.268375  1
  O  O10  1  0.731625  0.731625  0.731625  1
  O  O11  1  0.272518  0.755371  0.755370  1
  O  O12  1  0.755371  0.755371  0.272517  1
