# generated using pymatgen
data_Ca(SnO2)2
_symmetry_space_group_name_H-M   'P 1'
_cell_length_a   6.90732297
_cell_length_b   6.90746122
_cell_length_c   20.72491028
_cell_angle_alpha   59.47625937
_cell_angle_beta   59.47826791
_cell_angle_gamma   56.98103176
_symmetry_Int_Tables_number   1
_chemical_formula_structural   Ca(SnO2)2
_chemical_formula_sum   'Ca6 Sn12 O24'
_cell_volume   676.67601850
_cell_formula_units_Z   6
loop_
 _symmetry_equiv_pos_site_id
 _symmetry_equiv_pos_as_xyz
  1  'x, y, z'
loop_
 _atom_site_type_symbol
 _atom_site_label
 _atom_site_symmetry_multiplicity
 _atom_site_fract_x
 _atom_site_fract_y
 _atom_site_fract_z
 _atom_site_occupancy
  Ca  Ca0  1  0.125159  0.125187  0.044031  1
  Ca  Ca1  1  0.102204  0.102236  0.383851  1
  Ca  Ca2  1  0.489608  0.489561  0.996402  1
  Ca  Ca3  1  0.134628  0.134654  0.699441  1
  Ca  Ca4  1  0.886132  0.886052  0.290399  1
  Ca  Ca5  1  0.875005  0.874922  0.629222  1
  Sn  Sn6  1  0.004380  0.499118  0.167773  1
  Sn  Sn7  1  0.498835  0.498801  0.160274  1
  Sn  Sn8  1  0.990795  0.493606  0.502352  1
  Sn  Sn9  1  0.499177  0.004342  0.167753  1
  Sn  Sn10  1  0.505603  0.505582  0.324255  1
  Sn  Sn11  1  0.479818  0.479817  0.503266  1
  Sn  Sn12  1  0.998989  0.481620  0.831364  1
  Sn  Sn13  1  0.493597  0.990811  0.502343  1
  Sn  Sn14  1  0.481693  0.998876  0.831366  1
  Sn  Sn15  1  0.508536  0.508571  0.665437  1
  Sn  Sn16  1  0.497934  0.497944  0.828933  1
  Sn  Sn17  1  0.866300  0.866248  0.949723  1
  O  O18  1  0.250493  0.250551  0.100009  1
  O  O19  1  0.249798  0.249677  0.238577  1
  O  O20  1  0.223616  0.703944  0.093210  1
  O  O21  1  0.703994  0.223518  0.093174  1
  O  O22  1  0.287290  0.793638  0.243018  1
  O  O23  1  0.219651  0.219705  0.443211  1
  O  O24  1  0.793724  0.287189  0.243129  1
  O  O25  1  0.741470  0.741387  0.110164  1
  O  O26  1  0.200022  0.702387  0.443685  1
  O  O27  1  0.260891  0.260848  0.563597  1
  O  O28  1  0.741676  0.741573  0.244933  1
  O  O29  1  0.702303  0.200167  0.443597  1
  O  O30  1  0.286597  0.788691  0.591437  1
  O  O31  1  0.312988  0.313253  0.701824  1
  O  O32  1  0.788702  0.286562  0.591474  1
  O  O33  1  0.765610  0.765601  0.428342  1
  O  O34  1  0.293799  0.294045  0.917451  1
  O  O35  1  0.311281  0.719816  0.743430  1
  O  O36  1  0.731788  0.731858  0.578422  1
  O  O37  1  0.719826  0.311415  0.743412  1
  O  O38  1  0.279352  0.746219  0.897009  1
  O  O39  1  0.718449  0.718550  0.764210  1
  O  O40  1  0.746173  0.279290  0.897019  1
  O  O41  1  0.732115  0.732169  0.907481  1
