# generated using pymatgen
data_Mg2NiSbO6
_symmetry_space_group_name_H-M   'P 1'
_cell_length_a   5.22755228
_cell_length_b   5.32095524
_cell_length_c   7.49876107
_cell_angle_alpha   90.00000000
_cell_angle_beta   90.00000000
_cell_angle_gamma   93.55799949
_symmetry_Int_Tables_number   1
_chemical_formula_structural   Mg2NiSbO6
_chemical_formula_sum   'Mg4 Ni2 Sb2 O12'
_cell_volume   208.18028123
_cell_formula_units_Z   2
loop_
 _symmetry_equiv_pos_site_id
 _symmetry_equiv_pos_as_xyz
  1  'x, y, z'
loop_
 _atom_site_type_symbol
 _atom_site_label
 _atom_site_symmetry_multiplicity
 _atom_site_fract_x
 _atom_site_fract_y
 _atom_site_fract_z
 _atom_site_occupancy
  Mg  Mg0  1  0.524792  0.572311  0.750000  1
  Mg  Mg1  1  0.475208  0.427689  0.250000  1
  Mg  Mg2  1  0.016403  0.033930  0.750000  1
  Mg  Mg3  1  0.983597  0.966070  0.250000  1
  Ni  Ni4  1  0.500000  0.000000  0.500000  1
  Ni  Ni5  1  0.500000  0.000000  0.000000  1
  Sb  Sb6  1  0.000000  0.500000  0.500000  1
  Sb  Sb7  1  0.000000  0.500000  0.000000  1
  O  O8  1  0.328377  0.683053  0.433918  1
  O  O9  1  0.168439  0.195665  0.070583  1
  O  O10  1  0.671623  0.316947  0.933918  1
  O  O11  1  0.831561  0.804334  0.570583  1
  O  O12  1  0.168439  0.195665  0.429417  1
  O  O13  1  0.831561  0.804334  0.929417  1
  O  O14  1  0.863364  0.578174  0.250000  1
  O  O15  1  0.328377  0.683053  0.066082  1
  O  O16  1  0.381088  0.925086  0.750000  1
  O  O17  1  0.671623  0.316947  0.566082  1
  O  O18  1  0.136636  0.421826  0.750000  1
  O  O19  1  0.618912  0.074914  0.250000  1
