# generated using pymatgen
data_MgP2WO7
_symmetry_space_group_name_H-M   'P 1'
_cell_length_a   6.84291748
_cell_length_b   6.45992643
_cell_length_c   7.31416754
_cell_angle_alpha   67.41284164
_cell_angle_beta   72.99829915
_cell_angle_gamma   84.40476975
_symmetry_Int_Tables_number   1
_chemical_formula_structural   MgP2WO7
_chemical_formula_sum   'Mg2 P4 W2 O14'
_cell_volume   285.43431265
_cell_formula_units_Z   2
loop_
 _symmetry_equiv_pos_site_id
 _symmetry_equiv_pos_as_xyz
  1  'x, y, z'
loop_
 _atom_site_type_symbol
 _atom_site_label
 _atom_site_symmetry_multiplicity
 _atom_site_fract_x
 _atom_site_fract_y
 _atom_site_fract_z
 _atom_site_occupancy
  Mg  Mg0  1  0.802037  0.329951  0.094654  1
  Mg  Mg1  1  0.197963  0.670049  0.905346  1
  P  P2  1  0.129603  0.227282  0.749650  1
  P  P3  1  0.870397  0.772718  0.250350  1
  P  P4  1  0.632366  0.633038  0.683153  1
  P  P5  1  0.367634  0.366962  0.316847  1
  W  W6  1  0.619085  0.104371  0.786204  1
  W  W7  1  0.380915  0.895629  0.213796  1
  O  O8  1  0.779843  0.591251  0.481840  1
  O  O9  1  0.220157  0.408749  0.518160  1
  O  O10  1  0.942690  0.112432  0.760063  1
  O  O11  1  0.057310  0.887568  0.239937  1
  O  O12  1  0.581821  0.325843  0.342207  1
  O  O13  1  0.418179  0.674157  0.657793  1
  O  O14  1  0.353929  0.595345  0.139672  1
  O  O15  1  0.646071  0.404655  0.860327  1
  O  O16  1  0.918910  0.629467  0.114242  1
  O  O17  1  0.081090  0.370533  0.885758  1
  O  O18  1  0.702847  0.950682  0.209946  1
  O  O19  1  0.297154  0.049318  0.790054  1
  O  O20  1  0.275473  0.176556  0.295327  1
  O  O21  1  0.724527  0.823444  0.704673  1
