# generated using pymatgen
data_CaLaTaFeO6
_symmetry_space_group_name_H-M   'P 1'
_cell_length_a   5.80518323
_cell_length_b   5.62839127
_cell_length_c   7.91405546
_cell_angle_alpha   89.26630366
_cell_angle_beta   90.00000000
_cell_angle_gamma   90.00000000
_symmetry_Int_Tables_number   1
_chemical_formula_structural   CaLaTaFeO6
_chemical_formula_sum   'Ca2 La2 Ta2 Fe2 O12'
_cell_volume   258.56140200
_cell_formula_units_Z   2
loop_
 _symmetry_equiv_pos_site_id
 _symmetry_equiv_pos_as_xyz
  1  'x, y, z'
loop_
 _atom_site_type_symbol
 _atom_site_label
 _atom_site_symmetry_multiplicity
 _atom_site_fract_x
 _atom_site_fract_y
 _atom_site_fract_z
 _atom_site_occupancy
  Ca  Ca0  1  0.550061  0.516429  0.250536  1
  Ca  Ca1  1  0.949939  0.016429  0.750536  1
  La  La2  1  0.044428  0.986224  0.248327  1
  La  La3  1  0.455572  0.486224  0.748327  1
  Ta  Ta4  1  0.502737  0.000669  0.498502  1
  Ta  Ta5  1  0.997263  0.500669  0.998502  1
  Fe  Fe6  1  0.501413  0.000327  -0.000261  1
  Fe  Fe7  1  -0.001413  0.500327  0.499739  1
  O  O8  1  0.033371  0.602495  0.755988  1
  O  O9  1  0.190802  0.214334  0.951414  1
  O  O10  1  0.219792  0.188748  0.557354  1
  O  O11  1  0.280208  0.688748  0.057354  1
  O  O12  1  0.309198  0.714334  0.451414  1
  O  O13  1  0.466629  0.102495  0.255987  1
  O  O14  1  0.537848  0.901748  0.744229  1
  O  O15  1  0.697790  0.281773  0.548876  1
  O  O16  1  0.717151  0.307250  0.945034  1
  O  O17  1  0.782849  0.807250  0.445034  1
  O  O18  1  0.802210  0.781773  0.048876  1
  O  O19  1  0.962152  0.401748  0.244229  1
