# generated using pymatgen
data_Ca(WO2)4
_symmetry_space_group_name_H-M   'P 1'
_cell_length_a   3.34475724
_cell_length_b   7.37214305
_cell_length_c   7.33001604
_cell_angle_alpha   86.70608630
_cell_angle_beta   78.96164821
_cell_angle_gamma   75.35097398
_symmetry_Int_Tables_number   1
_chemical_formula_structural   Ca(WO2)4
_chemical_formula_sum   'Ca1 W4 O8'
_cell_volume   171.62536474
_cell_formula_units_Z   1
loop_
 _symmetry_equiv_pos_site_id
 _symmetry_equiv_pos_as_xyz
  1  'x, y, z'
loop_
 _atom_site_type_symbol
 _atom_site_label
 _atom_site_symmetry_multiplicity
 _atom_site_fract_x
 _atom_site_fract_y
 _atom_site_fract_z
 _atom_site_occupancy
  Ca  Ca0  1  0.492762  0.986089  0.023377  1
  W  W1  1  0.654951  0.176396  0.561017  1
  W  W2  1  0.144520  0.472677  0.209926  1
  W  W3  1  0.819737  0.527055  0.856784  1
  W  W4  1  0.312893  0.823696  0.502527  1
  O  O5  1  0.807855  0.713162  0.633971  1
  O  O6  1  0.446363  0.381869  0.759159  1
  O  O7  1  0.512773  0.609536  0.318199  1
  O  O8  1  0.156585  0.288020  0.421691  1
  O  O9  1  0.162350  0.035919  0.714064  1
  O  O10  1  0.800048  0.321283  0.086553  1
  O  O11  1  0.824222  0.951867  0.348338  1
  O  O12  1  0.162424  0.688537  0.995039  1
