# generated using pymatgen
data_Ca4Cr5(TeO6)3
_symmetry_space_group_name_H-M   'P 1'
_cell_length_a   9.06030659
_cell_length_b   9.06030669
_cell_length_c   10.92120673
_cell_angle_alpha   82.20669289
_cell_angle_beta   82.20669202
_cell_angle_gamma   67.41320992
_symmetry_Int_Tables_number   1
_chemical_formula_structural   Ca4Cr5(TeO6)3
_chemical_formula_sum   'Ca8 Cr10 Te6 O36'
_cell_volume   816.67849996
_cell_formula_units_Z   2
loop_
 _symmetry_equiv_pos_site_id
 _symmetry_equiv_pos_as_xyz
  1  'x, y, z'
loop_
 _atom_site_type_symbol
 _atom_site_label
 _atom_site_symmetry_multiplicity
 _atom_site_fract_x
 _atom_site_fract_y
 _atom_site_fract_z
 _atom_site_occupancy
  Ca  Ca0  1  0.862045  0.575697  0.388181  1
  Ca  Ca1  1  0.518891  0.552555  0.239491  1
  Ca  Ca2  1  0.424303  0.137955  0.611819  1
  Ca  Ca3  1  0.447445  0.481109  0.760509  1
  Ca  Ca4  1  0.180319  0.891013  0.744142  1
  Ca  Ca5  1  0.159977  0.249672  0.895362  1
  Ca  Ca6  1  0.750328  0.840023  0.104638  1
  Ca  Ca7  1  0.108987  0.819681  0.255858  1
  Cr  Cr8  1  0.792335  0.480719  0.954719  1
  Cr  Cr9  1  0.108779  0.173856  0.465626  1
  Cr  Cr10  1  0.329795  0.336160  0.307963  1
  Cr  Cr11  1  0.934619  0.736600  0.811247  1
  Cr  Cr12  1  0.663840  0.670205  0.692037  1
  Cr  Cr13  1  0.950933  0.049067  0.000000  1
  Cr  Cr14  1  0.656442  0.343558  0.500000  1
  Cr  Cr15  1  0.263400  0.065382  0.188753  1
  Cr  Cr16  1  0.826144  0.891221  0.534374  1
  Cr  Cr17  1  0.519281  0.207665  0.045281  1
  Te  Te18  1  0.467000  0.855950  0.920578  1
  Te  Te19  1  0.823633  0.187951  0.259639  1
  Te  Te20  1  0.812049  0.176367  0.740361  1
  Te  Te21  1  0.459791  0.857952  0.419911  1
  Te  Te22  1  0.142048  0.540209  0.580089  1
  Te  Te23  1  0.144050  0.533000  0.079422  1
  O  O24  1  0.383654  0.046082  0.816879  1
  O  O25  1  0.713440  0.469802  0.811057  1
  O  O26  1  0.608285  0.563438  0.565388  1
  O  O27  1  0.750963  0.110673  0.427322  1
  O  O28  1  0.530198  0.286560  0.188943  1
  O  O29  1  0.889327  0.249037  0.572678  1
  O  O30  1  0.349652  0.834504  0.276463  1
  O  O31  1  0.019717  0.115940  0.824196  1
  O  O32  1  0.588033  0.252021  0.660357  1
  O  O33  1  0.119977  0.385923  0.427658  1
  O  O34  1  0.653334  0.606742  0.061930  1
  O  O35  1  0.473522  0.024056  0.086414  1
  O  O36  1  0.890523  0.949736  0.693370  1
  O  O37  1  0.691048  0.789963  0.839060  1
  O  O38  1  0.393258  0.346666  0.938070  1
  O  O39  1  0.265144  0.560257  0.210665  1
  O  O40  1  0.973977  0.764859  0.423685  1
  O  O41  1  0.210037  0.308952  0.160940  1
  O  O42  1  0.436562  0.391715  0.434612  1
  O  O43  1  0.235141  0.026023  0.576315  1
  O  O44  1  0.651188  0.799492  0.314020  1
  O  O45  1  0.899994  0.651242  0.645635  1
  O  O46  1  0.884060  0.980283  0.175804  1
  O  O47  1  0.439743  0.734856  0.789335  1
  O  O48  1  0.994571  0.821406  0.947500  1
  O  O49  1  0.718377  0.096908  0.972625  1
  O  O50  1  0.975944  0.526478  0.913586  1
  O  O51  1  0.165496  0.650348  0.723537  1
  O  O52  1  0.050264  0.109477  0.306630  1
  O  O53  1  0.348758  0.100006  0.354365  1
  O  O54  1  0.200508  0.348812  0.685980  1
  O  O55  1  0.903092  0.281623  0.027375  1
  O  O56  1  0.747979  0.411967  0.339643  1
  O  O57  1  0.614077  0.880023  0.572342  1
  O  O58  1  0.178594  0.005429  0.052500  1
  O  O59  1  0.953918  0.616346  0.183121  1
