# generated using pymatgen
data_Ti3ZnP3O13
_symmetry_space_group_name_H-M   'P 1'
_cell_length_a   6.40904430
_cell_length_b   7.71910514
_cell_length_c   10.54209040
_cell_angle_alpha   99.80736294
_cell_angle_beta   90.00000000
_cell_angle_gamma   90.00000000
_symmetry_Int_Tables_number   1
_chemical_formula_structural   Ti3ZnP3O13
_chemical_formula_sum   'Ti6 Zn2 P6 O26'
_cell_volume   513.91744610
_cell_formula_units_Z   2
loop_
 _symmetry_equiv_pos_site_id
 _symmetry_equiv_pos_as_xyz
  1  'x, y, z'
loop_
 _atom_site_type_symbol
 _atom_site_label
 _atom_site_symmetry_multiplicity
 _atom_site_fract_x
 _atom_site_fract_y
 _atom_site_fract_z
 _atom_site_occupancy
  Ti  Ti0  1  0.250000  0.352575  0.200365  1
  Ti  Ti1  1  0.750000  0.647425  0.799635  1
  Ti  Ti2  1  0.250000  0.789046  0.440265  1
  Ti  Ti3  1  0.500000  0.000000  0.000000  1
  Ti  Ti4  1  0.750000  0.210954  0.559735  1
  Ti  Ti5  1  0.000000  0.000000  0.000000  1
  Zn  Zn6  1  0.750000  0.618700  0.151076  1
  Zn  Zn7  1  0.250000  0.381300  0.848924  1
  P  P8  1  0.250000  0.219330  0.486933  1
  P  P9  1  0.750000  0.780670  0.513067  1
  P  P10  1  0.250000  0.735295  0.762512  1
  P  P11  1  0.750000  0.264705  0.237488  1
  P  P12  1  0.750000  0.312297  0.881474  1
  P  P13  1  0.250000  0.687703  0.118526  1
  O  O14  1  0.750000  0.351302  0.741217  1
  O  O15  1  0.554619  0.746651  0.427845  1
  O  O16  1  0.250000  0.780931  0.626755  1
  O  O17  1  0.549247  0.212849  0.908176  1
  O  O18  1  0.750000  0.664510  0.617344  1
  O  O19  1  0.750000  0.866760  0.903310  1
  O  O20  1  0.250000  0.335490  0.382656  1
  O  O21  1  0.049247  0.787151  0.091824  1
  O  O22  1  0.250000  0.020913  0.417718  1
  O  O23  1  0.750000  0.979087  0.582282  1
  O  O24  1  0.060838  0.620924  0.788530  1
  O  O25  1  0.250000  0.133240  0.096690  1
  O  O26  1  0.560838  0.379076  0.211470  1
  O  O27  1  0.750000  0.505486  0.957451  1
  O  O28  1  0.750000  0.219069  0.373245  1
  O  O29  1  0.450753  0.787151  0.091824  1
  O  O30  1  0.945381  0.746651  0.427845  1
  O  O31  1  0.445381  0.253349  0.572155  1
  O  O32  1  0.439162  0.620924  0.788530  1
  O  O33  1  0.250000  0.648698  0.258783  1
  O  O34  1  0.750000  0.091422  0.133931  1
  O  O35  1  0.250000  0.908578  0.866069  1
  O  O36  1  0.939162  0.379076  0.211470  1
  O  O37  1  0.950753  0.212849  0.908176  1
  O  O38  1  0.054619  0.253349  0.572155  1
  O  O39  1  0.250000  0.494514  0.042549  1
