# generated using pymatgen
data_MnZnF5
_symmetry_space_group_name_H-M   'P 1'
_cell_length_a   5.16530912
_cell_length_b   7.84872319
_cell_length_c   9.65681403
_cell_angle_alpha   90.00000000
_cell_angle_beta   90.00000000
_cell_angle_gamma   111.51230612
_symmetry_Int_Tables_number   1
_chemical_formula_structural   MnZnF5
_chemical_formula_sum   'Mn4 Zn4 F20'
_cell_volume   364.22549686
_cell_formula_units_Z   4
loop_
 _symmetry_equiv_pos_site_id
 _symmetry_equiv_pos_as_xyz
  1  'x, y, z'
loop_
 _atom_site_type_symbol
 _atom_site_label
 _atom_site_symmetry_multiplicity
 _atom_site_fract_x
 _atom_site_fract_y
 _atom_site_fract_z
 _atom_site_occupancy
  Mn  Mn0  1  0.889071  0.602061  0.752231  1
  Mn  Mn1  1  0.110929  0.897939  0.252231  1
  Mn  Mn2  1  0.110929  0.397939  0.247769  1
  Mn  Mn3  1  0.889071  0.102061  0.747769  1
  Zn  Zn4  1  0.475287  0.746750  0.009465  1
  Zn  Zn5  1  0.524713  0.753250  0.509465  1
  Zn  Zn6  1  0.524713  0.253250  0.990535  1
  Zn  Zn7  1  0.475287  0.246750  0.490535  1
  F  F8  1  0.591393  0.581636  0.881547  1
  F  F9  1  0.408607  0.918364  0.381547  1
  F  F10  1  0.408607  0.418364  0.118453  1
  F  F11  1  0.591393  0.081636  0.618453  1
  F  F12  1  0.641987  0.484469  0.608382  1
  F  F13  1  0.358013  0.015531  0.108382  1
  F  F14  1  0.358013  0.515531  0.391618  1
  F  F15  1  0.641987  0.984469  0.891618  1
  F  F16  1  0.865801  0.789499  0.394936  1
  F  F17  1  0.134199  0.710501  0.894936  1
  F  F18  1  0.134199  0.210501  0.605064  1
  F  F19  1  0.865801  0.289499  0.105064  1
  F  F20  1  0.803671  0.853681  0.131944  1
  F  F21  1  0.196329  0.646319  0.631944  1
  F  F22  1  0.196329  0.146319  0.868056  1
  F  F23  1  0.803671  0.353681  0.368056  1
  F  F24  1  0.809176  0.833414  0.668292  1
  F  F25  1  0.190824  0.666586  0.168292  1
  F  F26  1  0.190824  0.166586  0.331708  1
  F  F27  1  0.809176  0.333414  0.831708  1
