# generated using pymatgen
data_MgNiAsO5
_symmetry_space_group_name_H-M   'P 1'
_cell_length_a   7.48795001
_cell_length_b   5.80486961
_cell_length_c   8.38538896
_cell_angle_alpha   89.99955730
_cell_angle_beta   90.02157771
_cell_angle_gamma   89.99360258
_symmetry_Int_Tables_number   1
_chemical_formula_structural   MgNiAsO5
_chemical_formula_sum   'Mg4 Ni4 As4 O20'
_cell_volume   364.48409694
_cell_formula_units_Z   4
loop_
 _symmetry_equiv_pos_site_id
 _symmetry_equiv_pos_as_xyz
  1  'x, y, z'
loop_
 _atom_site_type_symbol
 _atom_site_label
 _atom_site_symmetry_multiplicity
 _atom_site_fract_x
 _atom_site_fract_y
 _atom_site_fract_z
 _atom_site_occupancy
  Mg  Mg0  1  0.916418  0.722862  0.070674  1
  Mg  Mg1  1  0.583774  0.277131  0.570796  1
  Mg  Mg2  1  0.416288  0.777379  0.929287  1
  Mg  Mg3  1  0.083377  0.223009  0.429305  1
  Ni  Ni4  1  0.994279  0.493233  0.751467  1
  Ni  Ni5  1  0.505849  0.506702  0.251481  1
  Ni  Ni6  1  0.494219  0.006718  0.248584  1
  Ni  Ni7  1  0.005739  0.993285  0.748518  1
  As  As8  1  0.638987  0.272105  0.929440  1
  As  As9  1  0.861086  0.727912  0.429391  1
  As  As10  1  0.138972  0.227823  0.070606  1
  As  As11  1  0.361001  0.772112  0.570557  1
  O  O12  1  0.828803  0.235752  0.815974  1
  O  O13  1  0.671102  0.764230  0.316083  1
  O  O14  1  0.328929  0.264276  0.183942  1
  O  O15  1  0.171074  0.735798  0.683868  1
  O  O16  1  0.481658  0.344379  0.792928  1
  O  O17  1  0.018304  0.655672  0.292892  1
  O  O18  1  0.981677  0.155622  0.207039  1
  O  O19  1  0.518275  0.844409  0.707107  1
  O  O20  1  0.603184  0.015706  0.027693  1
  O  O21  1  0.896741  0.984339  0.527629  1
  O  O22  1  0.103091  0.484245  0.972386  1
  O  O23  1  0.396912  0.515694  0.472360  1
  O  O24  1  0.659752  0.508795  0.052873  1
  O  O25  1  0.840514  0.491049  0.552710  1
  O  O26  1  0.159640  0.991090  0.947209  1
  O  O27  1  0.340253  0.008820  0.447131  1
  O  O28  1  0.877436  0.750684  0.833718  1
  O  O29  1  0.622613  0.249262  0.333833  1
  O  O30  1  0.377472  0.749364  0.166246  1
  O  O31  1  0.122579  0.250545  0.666271  1
