# generated using pymatgen
data_LaMnCrO6
_symmetry_space_group_name_H-M   'P 1'
_cell_length_a   5.37366123
_cell_length_b   5.48889430
_cell_length_c   5.26783466
_cell_angle_alpha   61.84562074
_cell_angle_beta   119.62836307
_cell_angle_gamma   87.51886241
_symmetry_Int_Tables_number   1
_chemical_formula_structural   LaMnCrO6
_chemical_formula_sum   'La1 Mn1 Cr1 O6'
_cell_volume   111.05763881
_cell_formula_units_Z   1
loop_
 _symmetry_equiv_pos_site_id
 _symmetry_equiv_pos_as_xyz
  1  'x, y, z'
loop_
 _atom_site_type_symbol
 _atom_site_label
 _atom_site_symmetry_multiplicity
 _atom_site_fract_x
 _atom_site_fract_y
 _atom_site_fract_z
 _atom_site_occupancy
  La  La0  1  0.748789  0.283939  0.488943  1
  Mn  Mn1  1  0.499424  0.040218  0.981882  1
  Cr  Cr2  1  0.992543  0.555678  0.972293  1
  O  O3  1  0.298536  0.241820  0.497566  1
  O  O4  1  0.224314  0.270634  0.966280  1
  O  O5  1  0.776490  0.716264  0.059562  1
  O  O6  1  0.227012  0.767652  0.967971  1
  O  O7  1  0.779078  0.221702  0.054699  1
  O  O8  1  0.714051  0.743505  0.511216  1
