# generated using pymatgen
data_Mg(FeS2)4
_symmetry_space_group_name_H-M   'P 1'
_cell_length_a   6.77277858
_cell_length_b   6.73979838
_cell_length_c   6.73979906
_cell_angle_alpha   60.00000092
_cell_angle_beta   60.16094916
_cell_angle_gamma   60.16094398
_symmetry_Int_Tables_number   1
_chemical_formula_structural   Mg(FeS2)4
_chemical_formula_sum   'Mg1 Fe4 S8'
_cell_volume   218.07102986
_cell_formula_units_Z   1
loop_
 _symmetry_equiv_pos_site_id
 _symmetry_equiv_pos_as_xyz
  1  'x, y, z'
loop_
 _atom_site_type_symbol
 _atom_site_label
 _atom_site_symmetry_multiplicity
 _atom_site_fract_x
 _atom_site_fract_y
 _atom_site_fract_z
 _atom_site_occupancy
  Mg  Mg0  1  0.500000  0.000000  0.000000  1
  Fe  Fe1  1  0.000000  0.500000  0.500000  1
  Fe  Fe2  1  0.500000  0.500000  0.000000  1
  Fe  Fe3  1  0.500000  0.500000  0.500000  1
  Fe  Fe4  1  0.500000  0.000000  0.500000  1
  S  S5  1  0.258000  0.262224  0.262224  1
  S  S6  1  0.258000  0.262224  0.717552  1
  S  S7  1  0.258000  0.717552  0.262224  1
  S  S8  1  0.721950  0.259350  0.259350  1
  S  S9  1  0.278050  0.740650  0.740650  1
  S  S10  1  0.742000  0.737776  0.282448  1
  S  S11  1  0.742000  0.282448  0.737776  1
  S  S12  1  0.742000  0.737776  0.737776  1
