# generated using pymatgen
data_Zn3Cu10(TeO6)6
_symmetry_space_group_name_H-M   'P 1'
_cell_length_a   8.50331849
_cell_length_b   8.46322511
_cell_length_c   10.47338360
_cell_angle_alpha   82.60637549
_cell_angle_beta   83.71785757
_cell_angle_gamma   61.18815993
_symmetry_Int_Tables_number   1
_chemical_formula_structural   Zn3Cu10(TeO6)6
_chemical_formula_sum   'Zn3 Cu10 Te6 O36'
_cell_volume   653.95032523
_cell_formula_units_Z   1
loop_
 _symmetry_equiv_pos_site_id
 _symmetry_equiv_pos_as_xyz
  1  'x, y, z'
loop_
 _atom_site_type_symbol
 _atom_site_label
 _atom_site_symmetry_multiplicity
 _atom_site_fract_x
 _atom_site_fract_y
 _atom_site_fract_z
 _atom_site_occupancy
  Zn  Zn0  1  0.854375  0.556894  0.315580  1
  Zn  Zn1  1  0.433434  0.526103  0.778767  1
  Zn  Zn2  1  0.141288  0.818972  0.279175  1
  Cu  Cu3  1  0.793404  0.526979  0.985699  1
  Cu  Cu4  1  0.132952  0.188106  0.495436  1
  Cu  Cu5  1  0.336052  0.355227  0.292494  1
  Cu  Cu6  1  0.968451  0.724110  0.795783  1
  Cu  Cu7  1  0.649333  0.676484  0.704482  1
  Cu  Cu8  1  0.967986  0.035716  0.000211  1
  Cu  Cu9  1  0.641032  0.357381  0.500983  1
  Cu  Cu10  1  0.282458  0.042878  0.203795  1
  Cu  Cu11  1  0.807961  0.872823  0.515267  1
  Cu  Cu12  1  0.478898  0.191562  0.009325  1
  Te  Te13  1  0.448791  0.867334  0.951288  1
  Te  Te14  1  0.799440  0.197231  0.247970  1
  Te  Te15  1  0.812256  0.187842  0.749731  1
  Te  Te16  1  0.469925  0.848760  0.455896  1
  Te  Te17  1  0.159112  0.517346  0.550665  1
  Te  Te18  1  0.131953  0.545357  0.046708  1
  O  O19  1  0.412571  0.098223  0.870685  1
  O  O20  1  0.705846  0.442199  0.804324  1
  O  O21  1  0.568144  0.611864  0.558295  1
  O  O22  1  0.733944  0.114178  0.423488  1
  O  O23  1  0.564955  0.266408  0.191741  1
  O  O24  1  0.889153  0.261078  0.576151  1
  O  O25  1  0.387193  0.791377  0.311583  1
  O  O26  1  0.028207  0.110652  0.836547  1
  O  O27  1  0.578878  0.290219  0.671118  1
  O  O28  1  0.081690  0.425325  0.407681  1
  O  O29  1  0.556647  0.635627  0.053969  1
  O  O30  1  0.516569  0.967048  0.093174  1
  O  O31  1  0.877328  0.951618  0.695053  1
  O  O32  1  0.706071  0.740104  0.867492  1
  O  O33  1  0.365598  0.440880  0.948549  1
  O  O34  1  0.219111  0.600804  0.187245  1
  O  O35  1  0.049007  0.753659  0.447351  1
  O  O36  1  0.259204  0.292512  0.136495  1
  O  O37  1  0.382192  0.439872  0.442454  1
  O  O38  1  0.245636  0.945017  0.558245  1
  O  O39  1  0.698283  0.798653  0.368008  1
  O  O40  1  0.903681  0.653717  0.636126  1
  O  O41  1  0.906166  0.965328  0.171393  1
  O  O42  1  0.394052  0.783761  0.807572  1
  O  O43  1  0.046633  0.777355  0.942888  1
  O  O44  1  0.729206  0.124796  0.926521  1
  O  O45  1  0.027152  0.491477  0.905345  1
  O  O46  1  0.217773  0.607449  0.684403  1
  O  O47  1  0.049644  0.102336  0.306627  1
  O  O48  1  0.348179  0.104986  0.369959  1
  O  O49  1  0.197963  0.290090  0.633571  1
  O  O50  1  0.870886  0.285715  0.078673  1
  O  O51  1  0.720032  0.419052  0.332638  1
  O  O52  1  0.578980  0.909879  0.592827  1
  O  O53  1  0.220510  0.952385  0.057799  1
  O  O54  1  0.907398  0.589891  0.133529  1
