# generated using pymatgen
data_Ca(WO2)2
_symmetry_space_group_name_H-M   'P 1'
_cell_length_a   6.68633555
_cell_length_b   6.66342603
_cell_length_c   19.79330816
_cell_angle_alpha   60.10217610
_cell_angle_beta   60.05938481
_cell_angle_gamma   58.92199374
_symmetry_Int_Tables_number   1
_chemical_formula_structural   Ca(WO2)2
_chemical_formula_sum   'Ca6 W12 O24'
_cell_volume   619.07921078
_cell_formula_units_Z   6
loop_
 _symmetry_equiv_pos_site_id
 _symmetry_equiv_pos_as_xyz
  1  'x, y, z'
loop_
 _atom_site_type_symbol
 _atom_site_label
 _atom_site_symmetry_multiplicity
 _atom_site_fract_x
 _atom_site_fract_y
 _atom_site_fract_z
 _atom_site_occupancy
  Ca  Ca0  1  0.124697  0.122260  0.043081  1
  Ca  Ca1  1  0.120599  0.121622  0.375849  1
  Ca  Ca2  1  0.502751  0.496406  0.002127  1
  Ca  Ca3  1  0.126168  0.121550  0.712274  1
  Ca  Ca4  1  0.875234  0.874429  0.289103  1
  Ca  Ca5  1  0.876062  0.876828  0.622257  1
  W  W6  1  0.000385  0.496320  0.167959  1
  W  W7  1  0.495621  0.495190  0.168157  1
  W  W8  1  0.997531  0.497447  0.500149  1
  W  W9  1  0.495959  0.000326  0.168052  1
  W  W10  1  0.497209  0.497146  0.333932  1
  W  W11  1  0.496318  0.497179  0.500824  1
  W  W12  1  0.004763  0.504388  0.831254  1
  W  W13  1  0.496656  0.997927  0.500360  1
  W  W14  1  0.506231  0.004345  0.830927  1
  W  W15  1  0.502706  0.499889  0.666057  1
  W  W16  1  0.503027  0.502615  0.831899  1
  W  W17  1  0.893162  0.891883  0.974754  1
  O  O18  1  0.257285  0.256751  0.091752  1
  O  O19  1  0.264152  0.265359  0.236128  1
  O  O20  1  0.245018  0.708002  0.096876  1
  O  O21  1  0.709832  0.243957  0.096451  1
  O  O22  1  0.295913  0.737660  0.244974  1
  O  O23  1  0.265011  0.264286  0.420890  1
  O  O24  1  0.737950  0.295980  0.244603  1
  O  O25  1  0.727810  0.728214  0.097483  1
  O  O26  1  0.255835  0.698807  0.424611  1
  O  O27  1  0.263476  0.265719  0.569497  1
  O  O28  1  0.726183  0.727495  0.248295  1
  O  O29  1  0.698285  0.256233  0.424371  1
  O  O30  1  0.296457  0.735723  0.578708  1
  O  O31  1  0.280893  0.263230  0.753715  1
  O  O32  1  0.736923  0.295969  0.577490  1
  O  O33  1  0.728182  0.727768  0.432835  1
  O  O34  1  0.277802  0.269924  0.896597  1
  O  O35  1  0.266732  0.704205  0.754779  1
  O  O36  1  0.729593  0.730888  0.579993  1
  O  O37  1  0.702456  0.252137  0.757600  1
  O  O38  1  0.282068  0.797843  0.891102  1
  O  O39  1  0.732822  0.736855  0.763721  1
  O  O40  1  0.775742  0.278097  0.898270  1
  O  O41  1  0.728499  0.761146  0.900243  1
