# generated using pymatgen
data_NiTeP2O9
_symmetry_space_group_name_H-M   'P 1'
_cell_length_a   6.39109235
_cell_length_b   7.84561637
_cell_length_c   14.04867190
_cell_angle_alpha   89.98517859
_cell_angle_beta   89.99977004
_cell_angle_gamma   90.00176837
_symmetry_Int_Tables_number   1
_chemical_formula_structural   NiTeP2O9
_chemical_formula_sum   'Ni4 Te4 P8 O36'
_cell_volume   704.42930841
_cell_formula_units_Z   4
loop_
 _symmetry_equiv_pos_site_id
 _symmetry_equiv_pos_as_xyz
  1  'x, y, z'
loop_
 _atom_site_type_symbol
 _atom_site_label
 _atom_site_symmetry_multiplicity
 _atom_site_fract_x
 _atom_site_fract_y
 _atom_site_fract_z
 _atom_site_occupancy
  Ni  Ni0  1  0.499645  0.000312  0.000042  1
  Ni  Ni1  1  0.500232  0.499925  0.499997  1
  Ni  Ni2  1  0.000390  0.500333  0.500090  1
  Ni  Ni3  1  0.000417  0.999872  0.000169  1
  Te  Te4  1  0.750023  0.347913  0.874218  1
  Te  Te5  1  0.249962  0.652043  0.125763  1
  Te  Te6  1  0.249986  0.848073  0.625885  1
  Te  Te7  1  0.749987  0.151931  0.374121  1
  P  P8  1  0.250012  0.345121  0.941517  1
  P  P9  1  0.749959  0.654940  0.058431  1
  P  P10  1  0.749990  0.845007  0.558514  1
  P  P11  1  0.249967  0.154978  0.441484  1
  P  P12  1  0.750053  0.388028  0.683786  1
  P  P13  1  0.249960  0.611942  0.316197  1
  P  P14  1  0.250010  0.888595  0.816310  1
  P  P15  1  0.749967  0.111377  0.183699  1
  O  O16  1  0.047893  0.597405  0.369704  1
  O  O17  1  0.547915  0.402516  0.630277  1
  O  O18  1  0.952127  0.097153  0.130219  1
  O  O19  1  0.452247  0.902843  0.869790  1
  O  O20  1  0.952067  0.402571  0.630250  1
  O  O21  1  0.452045  0.597447  0.369742  1
  O  O22  1  0.047856  0.902871  0.869803  1
  O  O23  1  0.547714  0.097170  0.130237  1
  O  O24  1  0.249986  0.332985  0.482079  1
  O  O25  1  0.750000  0.667008  0.517892  1
  O  O26  1  0.749975  0.833008  0.017790  1
  O  O27  1  0.249957  0.167078  0.982210  1
  O  O28  1  0.750008  0.158636  0.951240  1
  O  O29  1  0.249950  0.841348  0.048744  1
  O  O30  1  0.249991  0.659013  0.548864  1
  O  O31  1  0.749985  0.340974  0.451128  1
  O  O32  1  0.750054  0.221111  0.753230  1
  O  O33  1  0.249883  0.778875  0.246718  1
  O  O34  1  0.249965  0.721510  0.746942  1
  O  O35  1  0.750025  0.278444  0.253047  1
  O  O36  1  0.439478  0.125369  0.373351  1
  O  O37  1  0.939486  0.874563  0.626671  1
  O  O38  1  0.560453  0.625633  0.126594  1
  O  O39  1  0.060508  0.374358  0.873388  1
  O  O40  1  0.560485  0.874567  0.626655  1
  O  O41  1  0.060480  0.125358  0.373326  1
  O  O42  1  0.439509  0.374290  0.873379  1
  O  O43  1  0.939479  0.625565  0.126580  1
  O  O44  1  0.749935  0.976511  0.276997  1
  O  O45  1  0.250050  0.023454  0.722991  1
  O  O46  1  0.249955  0.476990  0.222950  1
  O  O47  1  0.750000  0.522979  0.777009  1
  O  O48  1  0.750053  0.984654  0.480729  1
  O  O49  1  0.249941  0.015348  0.519295  1
  O  O50  1  0.250036  0.484824  0.019195  1
  O  O51  1  0.749953  0.515181  0.980763  1
