# generated using pymatgen
data_MgMn2(PO5)2
_symmetry_space_group_name_H-M   'P 1'
_cell_length_a   6.63688382
_cell_length_b   6.63688325
_cell_length_c   8.98748841
_cell_angle_alpha   102.40351993
_cell_angle_beta   102.40351665
_cell_angle_gamma   114.72478758
_symmetry_Int_Tables_number   1
_chemical_formula_structural   MgMn2(PO5)2
_chemical_formula_sum   'Mg2 Mn4 P4 O20'
_cell_volume   329.84194842
_cell_formula_units_Z   2
loop_
 _symmetry_equiv_pos_site_id
 _symmetry_equiv_pos_as_xyz
  1  'x, y, z'
loop_
 _atom_site_type_symbol
 _atom_site_label
 _atom_site_symmetry_multiplicity
 _atom_site_fract_x
 _atom_site_fract_y
 _atom_site_fract_z
 _atom_site_occupancy
  Mg  Mg0  1  0.494911  0.994911  0.500000  1
  Mg  Mg1  1  0.244911  0.244911  1.000000  1
  Mn  Mn2  1  0.872289  0.618716  0.251196  1
  Mn  Mn3  1  0.367520  0.621092  0.748804  1
  Mn  Mn4  1  0.871092  0.117520  0.248804  1
  Mn  Mn5  1  0.868716  0.622289  0.751196  1
  P  P6  1  0.036796  0.037810  0.584966  1
  P  P7  1  0.701829  0.202844  0.915034  1
  P  P8  1  0.452844  0.451829  0.415034  1
  P  P9  1  0.287810  0.786796  0.084966  1
  O  O10  1  0.581058  0.553104  0.302014  1
  O  O11  1  0.662365  0.666875  0.839335  1
  O  O12  1  0.308815  0.585068  0.975380  1
  O  O13  1  0.803104  0.331058  0.802014  1
  O  O14  1  0.214253  0.237560  0.297390  1
  O  O15  1  0.427305  0.651886  0.522730  1
  O  O16  1  0.073030  0.577540  0.660665  1
  O  O17  1  0.827540  0.823030  0.160665  1
  O  O18  1  0.916875  0.412365  0.339335  1
  O  O19  1  0.166862  0.690170  0.202610  1
  O  O20  1  0.251092  0.279047  0.697986  1
  O  O21  1  0.487560  0.964253  0.797390  1
  O  O22  1  0.940170  0.916862  0.702610  1
  O  O23  1  0.154576  0.879156  0.977270  1
  O  O24  1  0.129156  0.904576  0.477270  1
  O  O25  1  0.901886  0.177305  0.022730  1
  O  O26  1  0.835068  0.058815  0.475380  1
  O  O27  1  0.609688  0.333434  0.024620  1
  O  O28  1  0.529047  0.001092  0.197986  1
  O  O29  1  0.583434  0.359688  0.524620  1
