# generated using pymatgen
data_Te3Mo5O18
_symmetry_space_group_name_H-M   'P 1'
_cell_length_a   8.86371446
_cell_length_b   8.86371471
_cell_length_c   11.49560436
_cell_angle_alpha   81.36290210
_cell_angle_beta   81.36289923
_cell_angle_gamma   65.10384685
_symmetry_Int_Tables_number   1
_chemical_formula_structural   Te3Mo5O18
_chemical_formula_sum   'Te6 Mo10 O36'
_cell_volume   806.12177283
_cell_formula_units_Z   2
loop_
 _symmetry_equiv_pos_site_id
 _symmetry_equiv_pos_as_xyz
  1  'x, y, z'
loop_
 _atom_site_type_symbol
 _atom_site_label
 _atom_site_symmetry_multiplicity
 _atom_site_fract_x
 _atom_site_fract_y
 _atom_site_fract_z
 _atom_site_occupancy
  Te  Te0  1  0.358512  0.968438  0.948343  1
  Te  Te1  1  0.800740  0.181127  0.263509  1
  Te  Te2  1  0.818873  0.199260  0.736491  1
  Te  Te3  1  0.527816  0.817772  0.461065  1
  Te  Te4  1  0.182228  0.472184  0.538935  1
  Te  Te5  1  0.031562  0.641488  0.051657  1
  Mo  Mo6  1  0.773605  0.513235  0.973431  1
  Mo  Mo7  1  0.125236  0.163729  0.478462  1
  Mo  Mo8  1  0.342586  0.362742  0.282388  1
  Mo  Mo9  1  0.969088  0.722239  0.775274  1
  Mo  Mo10  1  0.637258  0.657414  0.717612  1
  Mo  Mo11  1  0.952104  0.047896  0.000000  1
  Mo  Mo12  1  0.647198  0.352802  0.500000  1
  Mo  Mo13  1  0.277761  0.030911  0.224726  1
  Mo  Mo14  1  0.836271  0.874764  0.521538  1
  Mo  Mo15  1  0.486765  0.226395  0.026569  1
  O  O16  1  0.384184  0.168810  0.894433  1
  O  O17  1  0.765276  0.429677  0.808680  1
  O  O18  1  0.607767  0.592840  0.554340  1
  O  O19  1  0.730172  0.110682  0.438576  1
  O  O20  1  0.570323  0.234724  0.191320  1
  O  O21  1  0.889318  0.269828  0.561424  1
  O  O22  1  0.358960  0.825871  0.286941  1
  O  O23  1  0.120190  0.055061  0.878924  1
  O  O24  1  0.605485  0.291362  0.686188  1
  O  O25  1  0.117053  0.418154  0.399106  1
  O  O26  1  0.571770  0.590895  0.035121  1
  O  O27  1  0.473033  0.987312  0.088036  1
  O  O28  1  0.856143  0.947583  0.677916  1
  O  O29  1  0.723677  0.724898  0.847019  1
  O  O30  1  0.409105  0.428230  0.964879  1
  O  O31  1  0.282753  0.564479  0.220701  1
  O  O32  1  0.035512  0.800238  0.450244  1
  O  O33  1  0.275102  0.276323  0.152981  1
  O  O34  1  0.407160  0.392233  0.445660  1
  O  O35  1  0.199762  0.964488  0.549756  1
  O  O36  1  0.736373  0.812367  0.390839  1
  O  O37  1  0.888673  0.652546  0.634458  1
  O  O38  1  0.944939  0.879810  0.121076  1
  O  O39  1  0.435521  0.717247  0.779299  1
  O  O40  1  0.988143  0.823700  0.915776  1
  O  O41  1  0.731058  0.131886  0.935146  1
  O  O42  1  0.012688  0.526967  0.911964  1
  O  O43  1  0.174129  0.641040  0.713059  1
  O  O44  1  0.052417  0.143857  0.322084  1
  O  O45  1  0.347454  0.111327  0.365542  1
  O  O46  1  0.187633  0.263627  0.609161  1
  O  O47  1  0.868114  0.268942  0.064854  1
  O  O48  1  0.708638  0.394515  0.313812  1
  O  O49  1  0.581846  0.882947  0.600894  1
  O  O50  1  0.176300  0.011857  0.084224  1
  O  O51  1  0.831190  0.615816  0.105567  1
