# generated using pymatgen
data_Ca2CuIrO6
_symmetry_space_group_name_H-M   'P 1'
_cell_length_a   5.42089743
_cell_length_b   5.63420673
_cell_length_c   7.69455571
_cell_angle_alpha   90.00000000
_cell_angle_beta   89.85149880
_cell_angle_gamma   90.00000000
_symmetry_Int_Tables_number   1
_chemical_formula_structural   Ca2CuIrO6
_chemical_formula_sum   'Ca4 Cu2 Ir2 O12'
_cell_volume   235.00984592
_cell_formula_units_Z   2
loop_
 _symmetry_equiv_pos_site_id
 _symmetry_equiv_pos_as_xyz
  1  'x, y, z'
loop_
 _atom_site_type_symbol
 _atom_site_label
 _atom_site_symmetry_multiplicity
 _atom_site_fract_x
 _atom_site_fract_y
 _atom_site_fract_z
 _atom_site_occupancy
  Ca  Ca0  1  0.014802  0.939533  0.250020  1
  Ca  Ca1  1  0.485198  0.439533  0.249980  1
  Ca  Ca2  1  0.514802  0.560467  0.750020  1
  Ca  Ca3  1  0.985198  0.060467  0.749980  1
  Cu  Cu4  1  0.000000  0.500000  0.000000  1
  Cu  Cu5  1  0.500000  0.000000  0.500000  1
  Ir  Ir6  1  0.000000  0.500000  0.500000  1
  Ir  Ir7  1  0.500000  0.000000  0.000000  1
  O  O8  1  0.100111  0.465901  0.742718  1
  O  O9  1  0.207423  0.191672  0.050719  1
  O  O10  1  0.186242  0.209538  0.446966  1
  O  O11  1  0.313758  0.709538  0.053034  1
  O  O12  1  0.292577  0.691672  0.449281  1
  O  O13  1  0.399890  0.965901  0.757282  1
  O  O14  1  0.600110  0.034099  0.242718  1
  O  O15  1  0.707423  0.308328  0.550719  1
  O  O16  1  0.686242  0.290462  0.946966  1
  O  O17  1  0.792577  0.808328  0.949281  1
  O  O18  1  0.813758  0.790462  0.553034  1
  O  O19  1  0.899890  0.534099  0.257282  1
