# generated using pymatgen
data_Mg2Co3O8
_symmetry_space_group_name_H-M   'P 1'
_cell_length_a   5.83728773
_cell_length_b   5.83728733
_cell_length_c   9.44950723
_cell_angle_alpha   90.00000000
_cell_angle_beta   90.00000000
_cell_angle_gamma   120.00000223
_symmetry_Int_Tables_number   1
_chemical_formula_structural   Mg2Co3O8
_chemical_formula_sum   'Mg4 Co6 O16'
_cell_volume   278.84441825
_cell_formula_units_Z   2
loop_
 _symmetry_equiv_pos_site_id
 _symmetry_equiv_pos_as_xyz
  1  'x, y, z'
loop_
 _atom_site_type_symbol
 _atom_site_label
 _atom_site_symmetry_multiplicity
 _atom_site_fract_x
 _atom_site_fract_y
 _atom_site_fract_z
 _atom_site_occupancy
  Mg  Mg0  1  0.666667  0.333334  0.021460  1
  Mg  Mg1  1  0.333333  0.666666  0.521461  1
  Mg  Mg2  1  0.666667  0.333334  0.423060  1
  Mg  Mg3  1  0.333333  0.666666  0.923061  1
  Co  Co4  1  0.672808  0.836404  0.244511  1
  Co  Co5  1  0.836405  0.163597  0.744511  1
  Co  Co6  1  0.163597  0.327193  0.244511  1
  Co  Co7  1  0.836403  0.672808  0.744511  1
  Co  Co8  1  0.327193  0.163597  0.744511  1
  Co  Co9  1  0.163597  0.836404  0.244511  1
  O  O10  1  0.839947  0.160054  0.146305  1
  O  O11  1  0.679892  0.839947  0.646304  1
  O  O12  1  0.160054  0.320109  0.646304  1
  O  O13  1  0.839946  0.679892  0.146305  1
  O  O14  1  0.320108  0.160054  0.146305  1
  O  O15  1  0.160054  0.839947  0.646304  1
  O  O16  1  0.518581  0.481418  0.862464  1
  O  O17  1  0.037163  0.518581  0.362463  1
  O  O18  1  0.481419  0.962838  0.362463  1
  O  O19  1  0.518581  0.037163  0.862464  1
  O  O20  1  0.000000  -0.000000  0.357188  1
  O  O21  1  0.000000  -0.000000  0.857188  1
  O  O22  1  0.333333  0.666666  0.131951  1
  O  O23  1  0.962836  0.481418  0.862464  1
  O  O24  1  0.481418  0.518581  0.362463  1
  O  O25  1  0.666667  0.333334  0.631951  1
