# generated using pymatgen
data_ZnSi2NiO6
_symmetry_space_group_name_H-M   'P 1'
_cell_length_a   5.30896117
_cell_length_b   6.69337455
_cell_length_c   6.69337479
_cell_angle_alpha   85.47501500
_cell_angle_beta   75.30218419
_cell_angle_gamma   75.30218832
_symmetry_Int_Tables_number   1
_chemical_formula_structural   ZnSi2NiO6
_chemical_formula_sum   'Zn2 Si4 Ni2 O12'
_cell_volume   222.51005102
_cell_formula_units_Z   2
loop_
 _symmetry_equiv_pos_site_id
 _symmetry_equiv_pos_as_xyz
  1  'x, y, z'
loop_
 _atom_site_type_symbol
 _atom_site_label
 _atom_site_symmetry_multiplicity
 _atom_site_fract_x
 _atom_site_fract_y
 _atom_site_fract_z
 _atom_site_occupancy
  Zn  Zn0  1  0.750000  0.242851  0.757149  1
  Zn  Zn1  1  0.250001  0.757149  0.242852  1
  Si  Si2  1  0.241518  0.213898  0.386433  1
  Si  Si3  1  0.258481  0.613567  0.786102  1
  Si  Si4  1  0.741518  0.386433  0.213898  1
  Si  Si5  1  0.758482  0.786102  0.613567  1
  Ni  Ni6  1  0.249999  0.097789  0.902212  1
  Ni  Ni7  1  0.749999  0.902213  0.097788  1
  O  O8  1  0.489083  0.321104  0.384402  1
  O  O9  1  0.010917  0.615597  0.678897  1
  O  O10  1  0.510918  0.678897  0.615598  1
  O  O11  1  0.989082  0.384403  0.321103  1
  O  O12  1  0.128037  0.137546  0.621351  1
  O  O13  1  0.371963  0.378648  0.862453  1
  O  O14  1  0.871963  0.862454  0.378649  1
  O  O15  1  0.628036  0.621351  0.137547  1
  O  O16  1  0.854918  0.207439  0.035943  1
  O  O17  1  0.645082  0.964057  0.792560  1
  O  O18  1  0.354917  0.035943  0.207440  1
  O  O19  1  0.145083  0.792561  0.964057  1
