# generated using pymatgen
data_CaAgF5
_symmetry_space_group_name_H-M   'P 1'
_cell_length_a   5.71095786
_cell_length_b   8.21944722
_cell_length_c   10.44572458
_cell_angle_alpha   90.00000000
_cell_angle_beta   90.00000000
_cell_angle_gamma   110.62660460
_symmetry_Int_Tables_number   1
_chemical_formula_structural   CaAgF5
_chemical_formula_sum   'Ca4 Ag4 F20'
_cell_volume   458.89968200
_cell_formula_units_Z   4
loop_
 _symmetry_equiv_pos_site_id
 _symmetry_equiv_pos_as_xyz
  1  'x, y, z'
loop_
 _atom_site_type_symbol
 _atom_site_label
 _atom_site_symmetry_multiplicity
 _atom_site_fract_x
 _atom_site_fract_y
 _atom_site_fract_z
 _atom_site_occupancy
  Ca  Ca0  1  0.469158  0.743896  0.019823  1
  Ca  Ca1  1  0.530842  0.756104  0.519823  1
  Ca  Ca2  1  0.530842  0.256104  0.980177  1
  Ca  Ca3  1  0.469158  0.243896  0.480177  1
  Ag  Ag4  1  0.885673  0.597641  0.753419  1
  Ag  Ag5  1  0.114327  0.902359  0.253419  1
  Ag  Ag6  1  0.114327  0.402359  0.246581  1
  Ag  Ag7  1  0.885673  0.097641  0.746581  1
  F  F8  1  0.596937  0.549271  0.890513  1
  F  F9  1  0.403063  0.950729  0.390513  1
  F  F10  1  0.403063  0.450729  0.109487  1
  F  F11  1  0.596937  0.049271  0.609487  1
  F  F12  1  0.629778  0.505823  0.604020  1
  F  F13  1  0.370222  0.994177  0.104020  1
  F  F14  1  0.370222  0.494177  0.395980  1
  F  F15  1  0.629778  0.005823  0.895980  1
  F  F16  1  0.871627  0.807289  0.401821  1
  F  F17  1  0.128373  0.692711  0.901821  1
  F  F18  1  0.128373  0.192711  0.598179  1
  F  F19  1  0.871627  0.307289  0.098179  1
  F  F20  1  0.816932  0.858006  0.130849  1
  F  F21  1  0.183068  0.641994  0.630849  1
  F  F22  1  0.183068  0.141994  0.869151  1
  F  F23  1  0.816932  0.358006  0.369151  1
  F  F24  1  0.847682  0.837344  0.695676  1
  F  F25  1  0.152318  0.662656  0.195676  1
  F  F26  1  0.152318  0.162656  0.304324  1
  F  F27  1  0.847682  0.337344  0.804324  1
