# generated using pymatgen
data_Zn(SnO2)2
_symmetry_space_group_name_H-M   'P 1'
_cell_length_a   6.52024451
_cell_length_b   6.52024353
_cell_length_c   6.36743735
_cell_angle_alpha   60.77226315
_cell_angle_beta   60.77227227
_cell_angle_gamma   66.62718365
_symmetry_Int_Tables_number   1
_chemical_formula_structural   Zn(SnO2)2
_chemical_formula_sum   'Zn2 Sn4 O8'
_cell_volume   201.65948032
_cell_formula_units_Z   2
loop_
 _symmetry_equiv_pos_site_id
 _symmetry_equiv_pos_as_xyz
  1  'x, y, z'
loop_
 _atom_site_type_symbol
 _atom_site_label
 _atom_site_symmetry_multiplicity
 _atom_site_fract_x
 _atom_site_fract_y
 _atom_site_fract_z
 _atom_site_occupancy
  Zn  Zn0  1  0.125000  0.625000  0.625000  1
  Zn  Zn1  1  0.625000  0.125000  0.625000  1
  Sn  Sn2  1  0.013794  0.013794  0.986206  1
  Sn  Sn3  1  0.236206  0.236206  0.263794  1
  Sn  Sn4  1  0.625000  0.625000  0.125000  1
  Sn  Sn5  1  0.625000  0.625000  0.625000  1
  O  O6  1  0.390062  0.390062  0.377205  1
  O  O7  1  0.414919  0.804893  0.390094  1
  O  O8  1  0.390062  0.390062  0.842673  1
  O  O9  1  0.804893  0.414919  0.390094  1
  O  O10  1  0.445107  0.835081  0.859906  1
  O  O11  1  0.835081  0.445107  0.859906  1
  O  O12  1  0.859938  0.859938  0.407327  1
  O  O13  1  0.859938  0.859938  0.872795  1
