# generated using pymatgen
data_CaTa2CuO7
_symmetry_space_group_name_H-M   'P 1'
_cell_length_a   8.98814075
_cell_length_b   10.92658111
_cell_length_c   10.83360202
_cell_angle_alpha   93.81437824
_cell_angle_beta   90.00000000
_cell_angle_gamma   90.00000000
_symmetry_Int_Tables_number   1
_chemical_formula_structural   CaTa2CuO7
_chemical_formula_sum   'Ca6 Ta12 Cu6 O42'
_cell_volume   1061.60736392
_cell_formula_units_Z   6
loop_
 _symmetry_equiv_pos_site_id
 _symmetry_equiv_pos_as_xyz
  1  'x, y, z'
loop_
 _atom_site_type_symbol
 _atom_site_label
 _atom_site_symmetry_multiplicity
 _atom_site_fract_x
 _atom_site_fract_y
 _atom_site_fract_z
 _atom_site_occupancy
  Ca  Ca0  1  0.442548  0.159957  0.573598  1
  Ca  Ca1  1  0.945817  0.500000  0.750000  1
  Ca  Ca2  1  0.442548  0.840043  0.926402  1
  Ca  Ca3  1  0.054183  0.500000  0.250000  1
  Ca  Ca4  1  0.557452  0.840043  0.426402  1
  Ca  Ca5  1  0.557452  0.159957  0.073598  1
  Ta  Ta6  1  0.197723  0.168288  0.290181  1
  Ta  Ta7  1  0.751375  0.161185  0.381667  1
  Ta  Ta8  1  0.248625  0.161185  0.881667  1
  Ta  Ta9  1  0.802277  0.168288  0.790181  1
  Ta  Ta10  1  0.304657  0.475170  0.966219  1
  Ta  Ta11  1  0.751375  0.838815  0.118333  1
  Ta  Ta12  1  0.695343  0.475170  0.466219  1
  Ta  Ta13  1  0.248625  0.838815  0.618333  1
  Ta  Ta14  1  0.304657  0.524830  0.533781  1
  Ta  Ta15  1  0.695343  0.524830  0.033781  1
  Ta  Ta16  1  0.802277  0.831712  0.709819  1
  Ta  Ta17  1  0.197723  0.831712  0.209819  1
  Cu  Cu18  1  0.925061  0.800487  0.410732  1
  Cu  Cu19  1  0.074939  0.199513  0.589268  1
  Cu  Cu20  1  0.428366  0.500000  0.250000  1
  Cu  Cu21  1  0.925061  0.199513  0.089268  1
  Cu  Cu22  1  0.571634  0.500000  0.750000  1
  Cu  Cu23  1  0.074939  0.800487  0.910732  1
  O  O24  1  0.770886  0.201083  0.961283  1
  O  O25  1  0.770322  0.836222  0.290670  1
  O  O26  1  0.855669  0.000000  0.750000  1
  O  O27  1  0.873779  0.511132  0.106103  1
  O  O28  1  0.382823  0.952974  0.570685  1
  O  O29  1  0.936930  0.272035  0.714760  1
  O  O30  1  0.355935  0.303289  0.943110  1
  O  O31  1  0.126221  0.511132  0.606103  1
  O  O32  1  0.728629  0.471603  0.867985  1
  O  O33  1  0.382823  0.047026  0.929315  1
  O  O34  1  0.728629  0.528397  0.632015  1
  O  O35  1  0.443609  0.569351  0.884444  1
  O  O36  1  0.929921  0.845846  0.036348  1
  O  O37  1  0.063070  0.272035  0.214760  1
  O  O38  1  0.644065  0.696711  0.056890  1
  O  O39  1  0.355935  0.696711  0.556890  1
  O  O40  1  0.936930  0.727965  0.785240  1
  O  O41  1  0.617177  0.047026  0.429315  1
  O  O42  1  0.229114  0.201083  0.461283  1
  O  O43  1  0.556391  0.430649  0.115556  1
  O  O44  1  0.378750  0.812767  0.278531  1
  O  O45  1  0.271371  0.528397  0.132015  1
  O  O46  1  0.070079  0.845846  0.536348  1
  O  O47  1  0.271371  0.471603  0.367985  1
  O  O48  1  0.873779  0.488868  0.393897  1
  O  O49  1  0.556391  0.569351  0.384444  1
  O  O50  1  0.126221  0.488868  0.893897  1
  O  O51  1  0.621250  0.812767  0.778531  1
  O  O52  1  0.621250  0.187233  0.721469  1
  O  O53  1  0.070079  0.154154  0.963652  1
  O  O54  1  0.063070  0.727965  0.285240  1
  O  O55  1  0.770886  0.798917  0.538717  1
  O  O56  1  0.144331  0.000000  0.250000  1
  O  O57  1  0.229678  0.836222  0.790670  1
  O  O58  1  0.617177  0.952974  0.070685  1
  O  O59  1  0.929921  0.154154  0.463652  1
  O  O60  1  0.229114  0.798917  0.038717  1
  O  O61  1  0.770322  0.163778  0.209330  1
  O  O62  1  0.443609  0.430649  0.615556  1
  O  O63  1  0.644065  0.303289  0.443110  1
  O  O64  1  0.229678  0.163778  0.709330  1
  O  O65  1  0.378750  0.187233  0.221469  1
