# generated using pymatgen
data_Zn2Ni3O8
_symmetry_space_group_name_H-M   'P 1'
_cell_length_a   5.75358124
_cell_length_b   5.75358048
_cell_length_c   9.18848899
_cell_angle_alpha   90.00000000
_cell_angle_beta   90.00000000
_cell_angle_gamma   120.00000436
_symmetry_Int_Tables_number   1
_chemical_formula_structural   Zn2Ni3O8
_chemical_formula_sum   'Zn4 Ni6 O16'
_cell_volume   263.42146087
_cell_formula_units_Z   2
loop_
 _symmetry_equiv_pos_site_id
 _symmetry_equiv_pos_as_xyz
  1  'x, y, z'
loop_
 _atom_site_type_symbol
 _atom_site_label
 _atom_site_symmetry_multiplicity
 _atom_site_fract_x
 _atom_site_fract_y
 _atom_site_fract_z
 _atom_site_occupancy
  Zn  Zn0  1  0.666667  0.333334  0.034781  1
  Zn  Zn1  1  0.333333  0.666666  0.534782  1
  Zn  Zn2  1  0.666667  0.333334  0.414263  1
  Zn  Zn3  1  0.333333  0.666666  0.914264  1
  Ni  Ni4  1  0.667763  0.833882  0.246628  1
  Ni  Ni5  1  0.833883  0.166119  0.746628  1
  Ni  Ni6  1  0.166119  0.332238  0.246628  1
  Ni  Ni7  1  0.833881  0.667763  0.746628  1
  Ni  Ni8  1  0.332238  0.166119  0.746628  1
  Ni  Ni9  1  0.166119  0.833882  0.246628  1
  O  O10  1  0.843868  0.156133  0.141784  1
  O  O11  1  0.687736  0.843868  0.641783  1
  O  O12  1  0.156133  0.312265  0.641783  1
  O  O13  1  0.843867  0.687736  0.141784  1
  O  O14  1  0.312264  0.156133  0.141784  1
  O  O15  1  0.156133  0.843868  0.641783  1
  O  O16  1  0.519608  0.480391  0.863915  1
  O  O17  1  0.039217  0.519608  0.363914  1
  O  O18  1  0.480392  0.960784  0.363914  1
  O  O19  1  0.519608  0.039217  0.863915  1
  O  O20  1  -0.000000  -0.000000  0.348305  1
  O  O21  1  -0.000000  -0.000000  0.848305  1
  O  O22  1  0.333333  0.666666  0.139171  1
  O  O23  1  0.960782  0.480391  0.863915  1
  O  O24  1  0.480391  0.519608  0.363914  1
  O  O25  1  0.666667  0.333334  0.639171  1
