# generated using pymatgen
data_Nb2Zn2CrO8
_symmetry_space_group_name_H-M   'P 1'
_cell_length_a   5.28711948
_cell_length_b   5.99633901
_cell_length_c   10.22717005
_cell_angle_alpha   106.99100718
_cell_angle_beta   90.80480146
_cell_angle_gamma   90.01035562
_symmetry_Int_Tables_number   1
_chemical_formula_structural   Nb2Zn2CrO8
_chemical_formula_sum   'Nb4 Zn4 Cr2 O16'
_cell_volume   310.04927761
_cell_formula_units_Z   2
loop_
 _symmetry_equiv_pos_site_id
 _symmetry_equiv_pos_as_xyz
  1  'x, y, z'
loop_
 _atom_site_type_symbol
 _atom_site_label
 _atom_site_symmetry_multiplicity
 _atom_site_fract_x
 _atom_site_fract_y
 _atom_site_fract_z
 _atom_site_occupancy
  Nb  Nb0  1  0.732164  0.274881  0.231244  1
  Nb  Nb1  1  0.759846  0.041886  0.767440  1
  Nb  Nb2  1  0.259882  0.724496  0.767283  1
  Nb  Nb3  1  0.232259  0.953544  0.231460  1
  Zn  Zn4  1  0.762461  0.436105  0.561311  1
  Zn  Zn5  1  0.734587  0.872561  0.439903  1
  Zn  Zn6  1  0.234343  0.563706  0.438769  1
  Zn  Zn7  1  0.262531  0.124046  0.560885  1
  Cr  Cr8  1  0.756692  0.647864  0.998366  1
  Cr  Cr9  1  0.256775  0.348529  0.998442  1
  O  O10  1  0.064471  0.179362  0.144223  1
  O  O11  1  0.427357  0.050040  0.858933  1
  O  O12  1  0.927615  0.807533  0.858969  1
  O  O13  1  0.564275  0.962494  0.143958  1
  O  O14  1  0.593382  0.433279  0.113013  1
  O  O15  1  0.925683  0.298554  0.882995  1
  O  O16  1  0.425486  0.582649  0.882721  1
  O  O17  1  0.093334  0.677368  0.113033  1
  O  O18  1  0.435008  0.284394  0.358902  1
  O  O19  1  0.061936  0.923677  0.642133  1
  O  O20  1  0.363429  0.839655  0.389124  1
  O  O21  1  0.135116  0.449856  0.612182  1
  O  O22  1  0.634660  0.161938  0.612491  1
  O  O23  1  0.862891  0.546343  0.389058  1
  O  O24  1  0.935069  0.070927  0.358854  1
  O  O25  1  0.562622  0.718085  0.642315  1
