# generated using pymatgen
data_Al(FeO2)2
_symmetry_space_group_name_H-M   'P 1'
_cell_length_a   5.32310560
_cell_length_b   5.32277913
_cell_length_c   6.44430577
_cell_angle_alpha   114.47898041
_cell_angle_beta   114.48056208
_cell_angle_gamma   89.80906985
_symmetry_Int_Tables_number   1
_chemical_formula_structural   Al(FeO2)2
_chemical_formula_sum   'Al2 Fe4 O8'
_cell_volume   148.08185672
_cell_formula_units_Z   2
loop_
 _symmetry_equiv_pos_site_id
 _symmetry_equiv_pos_as_xyz
  1  'x, y, z'
loop_
 _atom_site_type_symbol
 _atom_site_label
 _atom_site_symmetry_multiplicity
 _atom_site_fract_x
 _atom_site_fract_y
 _atom_site_fract_z
 _atom_site_occupancy
  Al  Al0  1  0.873560  0.123560  0.747122  1
  Al  Al1  1  0.126440  0.876440  0.252878  1
  Fe  Fe2  1  0.500000  0.000000  0.000000  1
  Fe  Fe3  1  0.500000  0.500000  0.000000  1
  Fe  Fe4  1  0.000000  0.500000  0.500000  1
  Fe  Fe5  1  0.500000  0.500000  0.500000  1
  O  O6  1  0.722362  0.451195  0.814712  1
  O  O7  1  0.092351  0.863517  0.814712  1
  O  O8  1  0.277638  0.548805  0.185288  1
  O  O9  1  0.907649  0.136483  0.185288  1
  O  O10  1  0.451852  0.092365  0.315781  1
  O  O11  1  0.863929  0.723416  0.315781  1
  O  O12  1  0.136071  0.276584  0.684219  1
  O  O13  1  0.548148  0.907635  0.684219  1
