# generated using pymatgen
data_Ca(W2O3)2
_symmetry_space_group_name_H-M   'P 1'
_cell_length_a   3.24902963
_cell_length_b   5.61787470
_cell_length_c   16.37596013
_cell_angle_alpha   90.00000000
_cell_angle_beta   90.00000000
_cell_angle_gamma   106.80820756
_symmetry_Int_Tables_number   1
_chemical_formula_structural   Ca(W2O3)2
_chemical_formula_sum   'Ca2 W8 O12'
_cell_volume   286.13475310
_cell_formula_units_Z   2
loop_
 _symmetry_equiv_pos_site_id
 _symmetry_equiv_pos_as_xyz
  1  'x, y, z'
loop_
 _atom_site_type_symbol
 _atom_site_label
 _atom_site_symmetry_multiplicity
 _atom_site_fract_x
 _atom_site_fract_y
 _atom_site_fract_z
 _atom_site_occupancy
  Ca  Ca0  1  0.674278  0.348558  0.750000  1
  Ca  Ca1  1  0.325722  0.651442  0.250000  1
  W  W2  1  0.851836  0.703675  0.040286  1
  W  W3  1  0.414780  0.829560  0.635377  1
  W  W4  1  0.148162  0.296324  0.959714  1
  W  W5  1  0.585220  0.170440  0.364624  1
  W  W6  1  0.851836  0.703675  0.459714  1
  W  W7  1  0.148162  0.296324  0.540286  1
  W  W8  1  0.585220  0.170440  0.135376  1
  W  W9  1  0.414780  0.829560  0.864623  1
  O  O10  1  0.499999  0.000000  0.500000  1
  O  O11  1  0.499999  0.000000  0.000000  1
  O  O12  1  0.049546  0.099090  0.843133  1
  O  O13  1  0.950454  0.900910  0.156868  1
  O  O14  1  0.950454  0.900910  0.343132  1
  O  O15  1  0.049546  0.099090  0.656868  1
  O  O16  1  0.780249  0.560501  0.896056  1
  O  O17  1  0.219750  0.439500  0.103944  1
  O  O18  1  0.219750  0.439500  0.396056  1
  O  O19  1  0.780249  0.560501  0.603944  1
  O  O20  1  0.325173  0.650346  0.750000  1
  O  O21  1  0.674825  0.349653  0.250000  1
