# generated using pymatgen
data_ZnNi3O7
_symmetry_space_group_name_H-M   'P 1'
_cell_length_a   5.27804692
_cell_length_b   10.09439152
_cell_length_c   10.27090408
_cell_angle_alpha   90.00000000
_cell_angle_beta   90.00000000
_cell_angle_gamma   90.00000000
_symmetry_Int_Tables_number   1
_chemical_formula_structural   ZnNi3O7
_chemical_formula_sum   'Zn4 Ni12 O28'
_cell_volume   547.22013036
_cell_formula_units_Z   4
loop_
 _symmetry_equiv_pos_site_id
 _symmetry_equiv_pos_as_xyz
  1  'x, y, z'
loop_
 _atom_site_type_symbol
 _atom_site_label
 _atom_site_symmetry_multiplicity
 _atom_site_fract_x
 _atom_site_fract_y
 _atom_site_fract_z
 _atom_site_occupancy
  Zn  Zn0  1  0.643455  0.750000  0.919885  1
  Zn  Zn1  1  0.143455  0.250000  0.580115  1
  Zn  Zn2  1  0.356545  0.250000  0.080115  1
  Zn  Zn3  1  0.856545  0.750000  0.419885  1
  Ni  Ni4  1  0.294007  0.025031  0.304949  1
  Ni  Ni5  1  0.794007  0.974969  0.195051  1
  Ni  Ni6  1  0.705993  0.525031  0.695051  1
  Ni  Ni7  1  0.205993  0.474969  0.804949  1
  Ni  Ni8  1  0.309919  0.750000  0.243363  1
  Ni  Ni9  1  0.809919  0.250000  0.256637  1
  Ni  Ni10  1  0.690081  0.250000  0.756637  1
  Ni  Ni11  1  0.190081  0.750000  0.743363  1
  Ni  Ni12  1  0.794007  0.525031  0.195051  1
  Ni  Ni13  1  0.294007  0.474969  0.304949  1
  Ni  Ni14  1  0.205993  0.025031  0.804949  1
  Ni  Ni15  1  0.705993  0.974969  0.695051  1
  O  O16  1  0.943653  0.123270  0.713046  1
  O  O17  1  0.443653  0.876730  0.786954  1
  O  O18  1  0.056347  0.623270  0.286954  1
  O  O19  1  0.556347  0.376730  0.213046  1
  O  O20  1  0.056347  0.876730  0.286954  1
  O  O21  1  0.556347  0.123270  0.213046  1
  O  O22  1  0.943653  0.376730  0.713046  1
  O  O23  1  0.443653  0.623270  0.786954  1
  O  O24  1  0.458699  0.120242  0.705929  1
  O  O25  1  0.958699  0.879758  0.794071  1
  O  O26  1  0.541301  0.620242  0.294071  1
  O  O27  1  0.041301  0.379758  0.205929  1
  O  O28  1  0.541301  0.879758  0.294071  1
  O  O29  1  0.041301  0.120242  0.205929  1
  O  O30  1  0.458699  0.379758  0.705929  1
  O  O31  1  0.958699  0.620242  0.794071  1
  O  O32  1  0.144214  0.750000  0.559031  1
  O  O33  1  0.644214  0.250000  0.940969  1
  O  O34  1  0.855786  0.250000  0.440969  1
  O  O35  1  0.355786  0.750000  0.059031  1
  O  O36  1  0.250526  0.399500  0.965130  1
  O  O37  1  0.750526  0.600500  0.534870  1
  O  O38  1  0.749474  0.899500  0.034870  1
  O  O39  1  0.249474  0.100500  0.465130  1
  O  O40  1  0.749474  0.600500  0.034870  1
  O  O41  1  0.249474  0.399500  0.465130  1
  O  O42  1  0.250526  0.100500  0.965130  1
  O  O43  1  0.750526  0.899500  0.534870  1
