# generated using pymatgen
data_CaFeO2
_symmetry_space_group_name_H-M   'P 1'
_cell_length_a   3.13458554
_cell_length_b   9.26747358
_cell_length_c   8.93095959
_cell_angle_alpha   86.17540754
_cell_angle_beta   78.99697360
_cell_angle_gamma   81.34693980
_symmetry_Int_Tables_number   1
_chemical_formula_structural   CaFeO2
_chemical_formula_sum   'Ca4 Fe4 O8'
_cell_volume   251.58053010
_cell_formula_units_Z   4
loop_
 _symmetry_equiv_pos_site_id
 _symmetry_equiv_pos_as_xyz
  1  'x, y, z'
loop_
 _atom_site_type_symbol
 _atom_site_label
 _atom_site_symmetry_multiplicity
 _atom_site_fract_x
 _atom_site_fract_y
 _atom_site_fract_z
 _atom_site_occupancy
  Ca  Ca0  1  0.358707  0.058712  0.247762  1
  Ca  Ca1  1  0.636301  0.921217  0.780457  1
  Ca  Ca2  1  0.098043  0.679388  0.137372  1
  Ca  Ca3  1  0.898957  0.300511  0.890814  1
  Fe  Fe4  1  0.618080  0.193697  0.564076  1
  Fe  Fe5  1  0.198687  0.365184  0.222842  1
  Fe  Fe6  1  0.798178  0.614724  0.805359  1
  Fe  Fe7  1  0.378029  0.786239  0.464137  1
  O  O8  1  0.821940  0.746822  0.601825  1
  O  O9  1  0.354877  0.466594  0.832416  1
  O  O10  1  0.642198  0.513281  0.195758  1
  O  O11  1  0.174194  0.233160  0.426403  1
  O  O12  1  0.079126  0.114546  0.719574  1
  O  O13  1  0.855280  0.207354  0.129484  1
  O  O14  1  0.915911  0.865343  0.308584  1
  O  O15  1  0.139766  0.772563  0.898753  1
