# generated using pymatgen
data_CaLaCrCuO6
_symmetry_space_group_name_H-M   'P 1'
_cell_length_a   5.47237532
_cell_length_b   5.55197728
_cell_length_c   7.68244939
_cell_angle_alpha   90.00000000
_cell_angle_beta   90.06918664
_cell_angle_gamma   90.00000000
_symmetry_Int_Tables_number   1
_chemical_formula_structural   CaLaCrCuO6
_chemical_formula_sum   'Ca2 La2 Cr2 Cu2 O12'
_cell_volume   233.41187481
_cell_formula_units_Z   2
loop_
 _symmetry_equiv_pos_site_id
 _symmetry_equiv_pos_as_xyz
  1  'x, y, z'
loop_
 _atom_site_type_symbol
 _atom_site_label
 _atom_site_symmetry_multiplicity
 _atom_site_fract_x
 _atom_site_fract_y
 _atom_site_fract_z
 _atom_site_occupancy
  Ca  Ca0  1  0.489416  0.449368  0.749422  1
  Ca  Ca1  1  0.989416  0.050632  0.249422  1
  La  La2  1  0.007212  0.962479  0.750047  1
  La  La3  1  0.507212  0.537521  0.250047  1
  Cr  Cr4  1  0.501037  0.000897  0.498979  1
  Cr  Cr5  1  0.001037  0.499103  0.998979  1
  Cu  Cu6  1  0.500919  0.998549  0.000554  1
  Cu  Cu7  1  0.000919  0.501451  0.500554  1
  O  O8  1  0.073258  0.479593  0.243699  1
  O  O9  1  0.210822  0.214398  0.958344  1
  O  O10  1  0.220242  0.208290  0.537984  1
  O  O11  1  0.286474  0.698192  0.957868  1
  O  O12  1  0.295819  0.711858  0.547457  1
  O  O13  1  0.414800  0.982984  0.255644  1
  O  O14  1  0.573258  0.020407  0.743699  1
  O  O15  1  0.710822  0.285602  0.458344  1
  O  O16  1  0.720242  0.291710  0.037984  1
  O  O17  1  0.786474  0.801808  0.457868  1
  O  O18  1  0.795819  0.788142  0.047457  1
  O  O19  1  0.914800  0.517016  0.755644  1
