# generated using pymatgen
data_V2ZnO5
_symmetry_space_group_name_H-M   'P 1'
_cell_length_a   3.69093488
_cell_length_b   5.42622735
_cell_length_c   11.41175582
_cell_angle_alpha   90.00000000
_cell_angle_beta   90.00000000
_cell_angle_gamma   109.88058200
_symmetry_Int_Tables_number   1
_chemical_formula_structural   V2ZnO5
_chemical_formula_sum   'V4 Zn2 O10'
_cell_volume   214.93198215
_cell_formula_units_Z   2
loop_
 _symmetry_equiv_pos_site_id
 _symmetry_equiv_pos_as_xyz
  1  'x, y, z'
loop_
 _atom_site_type_symbol
 _atom_site_label
 _atom_site_symmetry_multiplicity
 _atom_site_fract_x
 _atom_site_fract_y
 _atom_site_fract_z
 _atom_site_occupancy
  V  V0  1  0.202560  0.405139  0.597632  1
  V  V1  1  0.797441  0.594862  0.402368  1
  V  V2  1  0.797441  0.594862  0.097632  1
  V  V3  1  0.202560  0.405139  0.902368  1
  Zn  Zn4  1  0.897967  0.795954  0.750000  1
  Zn  Zn5  1  0.102034  0.204047  0.250000  1
  O  O6  1  0.695825  0.391644  0.250000  1
  O  O7  1  0.304176  0.608357  0.750000  1
  O  O8  1  0.235894  0.471722  0.074265  1
  O  O9  1  0.764108  0.528279  0.925735  1
  O  O10  1  0.764108  0.528279  0.574265  1
  O  O11  1  0.235894  0.471722  0.425734  1
  O  O12  1  0.042684  0.085323  0.629107  1
  O  O13  1  0.957316  0.914676  0.370893  1
  O  O14  1  0.042684  0.085323  0.870893  1
  O  O15  1  0.957316  0.914676  0.129108  1
