# generated using pymatgen
data_MgTiO2
_symmetry_space_group_name_H-M   'P 1'
_cell_length_a   2.88568654
_cell_length_b   7.89759855
_cell_length_c   8.40479330
_cell_angle_alpha   86.81628465
_cell_angle_beta   80.36633963
_cell_angle_gamma   79.49236128
_symmetry_Int_Tables_number   1
_chemical_formula_structural   MgTiO2
_chemical_formula_sum   'Mg4 Ti4 O8'
_cell_volume   185.61534270
_cell_formula_units_Z   4
loop_
 _symmetry_equiv_pos_site_id
 _symmetry_equiv_pos_as_xyz
  1  'x, y, z'
loop_
 _atom_site_type_symbol
 _atom_site_label
 _atom_site_symmetry_multiplicity
 _atom_site_fract_x
 _atom_site_fract_y
 _atom_site_fract_z
 _atom_site_occupancy
  Mg  Mg0  1  0.337708  0.048891  0.259624  1
  Mg  Mg1  1  0.658267  0.931016  0.768177  1
  Mg  Mg2  1  0.092398  0.715747  0.088925  1
  Mg  Mg3  1  0.903687  0.264250  0.939327  1
  Ti  Ti4  1  0.555179  0.285891  0.604700  1
  Ti  Ti5  1  0.148468  0.401777  0.294352  1
  Ti  Ti6  1  0.847628  0.578244  0.734003  1
  Ti  Ti7  1  0.441237  0.693758  0.423241  1
  O  O8  1  0.829204  0.770177  0.576886  1
  O  O9  1  0.380631  0.409339  0.838327  1
  O  O10  1  0.615039  0.570916  0.190525  1
  O  O11  1  0.167387  0.209215  0.451074  1
  O  O12  1  0.074845  0.117375  0.746137  1
  O  O13  1  0.789521  0.230727  0.173981  1
  O  O14  1  0.920686  0.862564  0.282302  1
  O  O15  1  0.206388  0.749447  0.854035  1
