# generated using pymatgen
data_CaCo2S5
_symmetry_space_group_name_H-M   'P 1'
_cell_length_a   4.19230097
_cell_length_b   5.84401287
_cell_length_c   13.11868068
_cell_angle_alpha   89.96555844
_cell_angle_beta   89.99999724
_cell_angle_gamma   90.00009253
_symmetry_Int_Tables_number   1
_chemical_formula_structural   CaCo2S5
_chemical_formula_sum   'Ca2 Co4 S10'
_cell_volume   321.40579282
_cell_formula_units_Z   2
loop_
 _symmetry_equiv_pos_site_id
 _symmetry_equiv_pos_as_xyz
  1  'x, y, z'
loop_
 _atom_site_type_symbol
 _atom_site_label
 _atom_site_symmetry_multiplicity
 _atom_site_fract_x
 _atom_site_fract_y
 _atom_site_fract_z
 _atom_site_occupancy
  Ca  Ca0  1  0.750000  0.880735  0.250098  1
  Ca  Ca1  1  0.249999  0.119227  0.750082  1
  Co  Co2  1  0.249999  0.408614  0.096140  1
  Co  Co3  1  0.750000  0.591234  0.903748  1
  Co  Co4  1  0.749999  0.591673  0.596135  1
  Co  Co5  1  0.250000  0.408540  0.403784  1
  S  S6  1  0.750000  0.455153  0.749916  1
  S  S7  1  0.249999  0.544897  0.249973  1
  S  S8  1  0.749998  0.529885  0.069044  1
  S  S9  1  0.250000  0.470012  0.930976  1
  S  S10  1  0.750000  0.529653  0.431026  1
  S  S11  1  0.250000  0.470572  0.568989  1
  S  S12  1  0.249999  0.056729  0.370942  1
  S  S13  1  0.749999  0.943537  0.629158  1
  S  S14  1  0.750000  0.942940  0.870886  1
  S  S15  1  0.250001  0.056599  0.129100  1
