# generated using pymatgen
data_Zn(NiO2)2
_symmetry_space_group_name_H-M   'P 1'
_cell_length_a   5.90552945
_cell_length_b   5.88095990
_cell_length_c   5.88095926
_cell_angle_alpha   59.99999281
_cell_angle_beta   60.13752918
_cell_angle_gamma   60.13752899
_symmetry_Int_Tables_number   1
_chemical_formula_structural   Zn(NiO2)2
_chemical_formula_sum   'Zn2 Ni4 O8'
_cell_volume   144.72377339
_cell_formula_units_Z   2
loop_
 _symmetry_equiv_pos_site_id
 _symmetry_equiv_pos_as_xyz
  1  'x, y, z'
loop_
 _atom_site_type_symbol
 _atom_site_label
 _atom_site_symmetry_multiplicity
 _atom_site_fract_x
 _atom_site_fract_y
 _atom_site_fract_z
 _atom_site_occupancy
  Zn  Zn0  1  0.987991  0.004003  0.004003  1
  Zn  Zn1  1  0.126833  0.624388  0.624388  1
  Ni  Ni2  1  0.259271  0.246910  0.246910  1
  Ni  Ni3  1  0.624522  0.120530  0.627474  1
  Ni  Ni4  1  0.624522  0.627474  0.120530  1
  Ni  Ni5  1  0.624522  0.627474  0.627474  1
  O  O6  1  0.400759  0.374627  0.374627  1
  O  O7  1  0.400759  0.374627  0.849986  1
  O  O8  1  0.400759  0.849986  0.374627  1
  O  O9  1  0.874426  0.375191  0.375191  1
  O  O10  1  0.388996  0.870334  0.870334  1
  O  O11  1  0.845547  0.412798  0.870828  1
  O  O12  1  0.845547  0.870828  0.412798  1
  O  O13  1  0.845547  0.870828  0.870828  1
