# generated using pymatgen
data_V2ZnO4
_symmetry_space_group_name_H-M   'P 1'
_cell_length_a   5.18847939
_cell_length_b   5.97828475
_cell_length_c   10.30826550
_cell_angle_alpha   89.95102101
_cell_angle_beta   90.01671838
_cell_angle_gamma   89.98608090
_symmetry_Int_Tables_number   1
_chemical_formula_structural   V2ZnO4
_chemical_formula_sum   'V8 Zn4 O16'
_cell_volume   319.74377511
_cell_formula_units_Z   4
loop_
 _symmetry_equiv_pos_site_id
 _symmetry_equiv_pos_as_xyz
  1  'x, y, z'
loop_
 _atom_site_type_symbol
 _atom_site_label
 _atom_site_symmetry_multiplicity
 _atom_site_fract_x
 _atom_site_fract_y
 _atom_site_fract_z
 _atom_site_occupancy
  V  V0  1  0.512748  0.750008  0.484291  1
  V  V1  1  0.512761  0.749978  0.015717  1
  V  V2  1  0.487250  0.249992  0.515707  1
  V  V3  1  0.487269  0.250022  0.984278  1
  V  V4  1  -0.000000  0.499993  0.500001  1
  V  V5  1  0.000011  -0.000003  0.000002  1
  V  V6  1  -0.000010  0.000010  0.500002  1
  V  V7  1  0.000013  0.500002  -0.000001  1
  Zn  Zn8  1  0.850542  0.250076  0.749971  1
  Zn  Zn9  1  0.149450  0.749936  0.250045  1
  Zn  Zn10  1  0.535845  0.250019  0.249976  1
  Zn  Zn11  1  0.464076  0.749968  0.750014  1
  O  O12  1  0.856546  0.750102  0.391116  1
  O  O13  1  0.856727  0.749842  0.108897  1
  O  O14  1  0.143454  0.249895  0.608904  1
  O  O15  1  0.143291  0.250154  0.891113  1
  O  O16  1  0.192710  0.749850  0.598518  1
  O  O17  1  0.192628  0.750069  0.901488  1
  O  O18  1  0.807284  0.250152  0.401473  1
  O  O19  1  0.807395  0.249936  0.098509  1
  O  O20  1  0.665492  0.502055  0.613022  1
  O  O21  1  0.665408  0.997999  0.887007  1
  O  O22  1  0.334470  0.002392  0.387013  1
  O  O23  1  0.334730  0.497465  0.112991  1
  O  O24  1  0.334497  0.497934  0.386976  1
  O  O25  1  0.334607  0.002000  0.112992  1
  O  O26  1  0.665505  0.997618  0.612981  1
  O  O27  1  0.665303  0.502537  0.886998  1
