# generated using pymatgen
data_CaVF4
_symmetry_space_group_name_H-M   'P 1'
_cell_length_a   5.47213536
_cell_length_b   5.41032557
_cell_length_c   6.51925708
_cell_angle_alpha   114.52176687
_cell_angle_beta   110.76237497
_cell_angle_gamma   89.99383005
_symmetry_Int_Tables_number   1
_chemical_formula_structural   CaVF4
_chemical_formula_sum   'Ca2 V2 F8'
_cell_volume   161.72629471
_cell_formula_units_Z   2
loop_
 _symmetry_equiv_pos_site_id
 _symmetry_equiv_pos_as_xyz
  1  'x, y, z'
loop_
 _atom_site_type_symbol
 _atom_site_label
 _atom_site_symmetry_multiplicity
 _atom_site_fract_x
 _atom_site_fract_y
 _atom_site_fract_z
 _atom_site_occupancy
  Ca  Ca0  1  0.248740  0.250596  0.500596  1
  Ca  Ca1  1  0.748885  0.751399  0.501037  1
  V  V2  1  0.998874  0.501095  0.000680  1
  V  V3  1  0.498802  0.000781  0.000731  1
  F  F4  1  0.975959  0.448535  0.285996  1
  F  F5  1  0.640796  0.176799  0.789198  1
  F  F6  1  0.021926  0.553742  0.715651  1
  F  F7  1  0.140826  0.113351  0.789436  1
  F  F8  1  0.356814  0.824809  0.212305  1
  F  F9  1  0.476192  0.338826  0.286086  1
  F  F10  1  0.856993  0.888752  0.212240  1
  F  F11  1  0.522007  0.662753  0.715871  1
