# generated using pymatgen
data_Ba2MgCr2CuF14
_symmetry_space_group_name_H-M   'P 1'
_cell_length_a   5.24402889
_cell_length_b   7.45361064
_cell_length_c   14.60776755
_cell_angle_alpha   91.72845075
_cell_angle_beta   89.98393624
_cell_angle_gamma   110.57256807
_symmetry_Int_Tables_number   1
_chemical_formula_structural   Ba2MgCr2CuF14
_chemical_formula_sum   'Ba4 Mg2 Cr4 Cu2 F28'
_cell_volume   534.28520598
_cell_formula_units_Z   2
loop_
 _symmetry_equiv_pos_site_id
 _symmetry_equiv_pos_as_xyz
  1  'x, y, z'
loop_
 _atom_site_type_symbol
 _atom_site_label
 _atom_site_symmetry_multiplicity
 _atom_site_fract_x
 _atom_site_fract_y
 _atom_site_fract_z
 _atom_site_occupancy
  Ba  Ba0  1  0.112135  0.373737  0.623307  1
  Ba  Ba1  1  0.262846  0.372616  0.123660  1
  Ba  Ba2  1  0.891413  0.627116  0.376781  1
  Ba  Ba3  1  0.737807  0.627668  0.876544  1
  Mg  Mg4  1  0.433083  0.002595  0.749873  1
  Mg  Mg5  1  0.569162  0.999913  0.250273  1
  Cr  Cr6  1  0.099102  0.238445  0.873097  1
  Cr  Cr7  1  0.901957  0.762001  0.126978  1
  Cr  Cr8  1  0.139940  0.237634  0.373299  1
  Cr  Cr9  1  0.861534  0.762304  0.626577  1
  Cu  Cu10  1  0.500116  0.000027  0.999782  1
  Cu  Cu11  1  0.501276  0.000816  0.500248  1
  F  F12  1  0.891737  0.984411  0.339234  1
  F  F13  1  0.869579  0.277431  0.454978  1
  F  F14  1  0.133978  0.723745  0.545258  1
  F  F15  1  0.650572  0.499012  0.596550  1
  F  F16  1  0.609413  0.097421  0.623056  1
  F  F17  1  0.510827  0.904682  0.876703  1
  F  F18  1  0.409163  0.277405  0.954746  1
  F  F19  1  0.907386  0.014872  0.162058  1
  F  F20  1  0.362471  0.322817  0.775103  1
  F  F21  1  0.351550  0.501665  0.401550  1
  F  F22  1  0.801463  0.222513  0.788757  1
  F  F23  1  0.153426  0.502814  0.901489  1
  F  F24  1  0.419788  0.220233  0.288322  1
  F  F25  1  0.200303  0.777919  0.211292  1
  F  F26  1  0.489530  0.095415  0.122807  1
  F  F27  1  0.639560  0.675202  0.224892  1
  F  F28  1  0.122015  0.835263  0.016230  1
  F  F29  1  0.110314  0.014896  0.661488  1
  F  F30  1  0.877623  0.166391  0.983516  1
  F  F31  1  0.715074  0.836534  0.516187  1
  F  F32  1  0.591288  0.723857  0.045607  1
  F  F33  1  0.579394  0.779129  0.710801  1
  F  F34  1  0.961243  0.322822  0.275547  1
  F  F35  1  0.289644  0.166430  0.483891  1
  F  F36  1  0.393325  0.904781  0.377309  1
  F  F37  1  0.092486  0.985062  0.838608  1
  F  F38  1  0.035582  0.674103  0.724403  1
  F  F39  1  0.848626  0.498189  0.097566  1
