# generated using pymatgen
data_CaMoO3
_symmetry_space_group_name_H-M   'P 1'
_cell_length_a   5.50477493
_cell_length_b   5.73031566
_cell_length_c   7.98621950
_cell_angle_alpha   90.19704850
_cell_angle_beta   89.89011805
_cell_angle_gamma   90.72721625
_symmetry_Int_Tables_number   1
_chemical_formula_structural   CaMoO3
_chemical_formula_sum   'Ca4 Mo4 O12'
_cell_volume   251.89586705
_cell_formula_units_Z   4
loop_
 _symmetry_equiv_pos_site_id
 _symmetry_equiv_pos_as_xyz
  1  'x, y, z'
loop_
 _atom_site_type_symbol
 _atom_site_label
 _atom_site_symmetry_multiplicity
 _atom_site_fract_x
 _atom_site_fract_y
 _atom_site_fract_z
 _atom_site_occupancy
  Ca  Ca0  1  0.990100  0.048193  0.248256  1
  Ca  Ca1  1  0.486183  0.444207  0.750613  1
  Ca  Ca2  1  0.513817  0.555793  0.249387  1
  Ca  Ca3  1  0.009900  0.951807  0.751744  1
  Mo  Mo4  1  0.500000  0.000000  -0.000000  1
  Mo  Mo5  1  0.000000  0.500000  -0.000000  1
  Mo  Mo6  1  0.000000  0.500000  0.500000  1
  Mo  Mo7  1  0.500000  0.000000  0.500000  1
  O  O8  1  0.711527  0.309735  0.452247  1
  O  O9  1  0.189926  0.208994  0.556814  1
  O  O10  1  0.806608  0.793779  0.052402  1
  O  O11  1  0.301522  0.699899  0.943874  1
  O  O12  1  0.288473  0.690264  0.547753  1
  O  O13  1  0.810074  0.791006  0.443186  1
  O  O14  1  0.193392  0.206221  0.947598  1
  O  O15  1  0.698478  0.300101  0.056126  1
  O  O16  1  0.101954  0.458261  0.255287  1
  O  O17  1  0.601578  0.039868  0.757036  1
  O  O18  1  0.398422  0.960132  0.242964  1
  O  O19  1  0.898046  0.541739  0.744713  1
