# generated using pymatgen
data_Zn(Mo4O5)2
_symmetry_space_group_name_H-M   'P 1'
_cell_length_a   6.44574918
_cell_length_b   6.44574868
_cell_length_c   13.70295485
_cell_angle_alpha   103.60315028
_cell_angle_beta   103.60314953
_cell_angle_gamma   89.99999749
_symmetry_Int_Tables_number   1
_chemical_formula_structural   Zn(Mo4O5)2
_chemical_formula_sum   'Zn2 Mo16 O20'
_cell_volume   536.90974526
_cell_formula_units_Z   2
loop_
 _symmetry_equiv_pos_site_id
 _symmetry_equiv_pos_as_xyz
  1  'x, y, z'
loop_
 _atom_site_type_symbol
 _atom_site_label
 _atom_site_symmetry_multiplicity
 _atom_site_fract_x
 _atom_site_fract_y
 _atom_site_fract_z
 _atom_site_occupancy
  Zn  Zn0  1  0.627163  0.627162  0.254323  1
  Zn  Zn1  1  0.377163  0.877163  0.754324  1
  Mo  Mo2  1  0.426105  0.169521  0.339044  1
  Mo  Mo3  1  0.919521  0.676106  0.839044  1
  Mo  Mo4  1  0.919521  0.162936  0.839044  1
  Mo  Mo5  1  0.912937  0.169521  0.339044  1
  Mo  Mo6  1  0.578235  0.334808  0.669615  1
  Mo  Mo7  1  0.084808  0.828235  0.169616  1
  Mo  Mo8  1  0.084808  0.341382  0.169615  1
  Mo  Mo9  1  0.091381  0.334808  0.669615  1
  Mo  Mo10  1  0.267220  0.500775  0.001550  1
  Mo  Mo11  1  0.250774  0.517221  0.501550  1
  Mo  Mo12  1  0.250775  0.984330  0.501550  1
  Mo  Mo13  1  0.734330  0.500775  0.001550  1
  Mo  Mo14  1  0.270002  0.003571  0.007142  1
  Mo  Mo15  1  0.753571  0.520004  0.507142  1
  Mo  Mo16  1  0.753571  0.987140  0.507142  1
  Mo  Mo17  1  0.737138  0.003571  0.007142  1
  O  O18  1  0.502218  0.752198  0.504396  1
  O  O19  1  0.848917  0.583346  0.166692  1
  O  O20  1  0.700289  0.417644  0.835287  1
  O  O21  1  0.167643  0.950289  0.335286  1
  O  O22  1  0.167642  0.384997  0.335286  1
  O  O23  1  0.134997  0.417644  0.835287  1
  O  O24  1  0.304062  0.086697  0.173394  1
  O  O25  1  0.836698  0.554062  0.673394  1
  O  O26  1  0.836697  0.119331  0.673394  1
  O  O27  1  0.869332  0.086697  0.173395  1
  O  O28  1  0.333346  0.098917  0.666692  1
  O  O29  1  0.670999  0.936558  0.341999  1
  O  O30  1  0.670998  0.405439  0.341998  1
  O  O31  1  0.155440  0.920999  0.841998  1
  O  O32  1  0.317775  0.583346  0.166692  1
  O  O33  1  0.333346  0.567774  0.666692  1
  O  O34  1  0.002178  0.752198  0.504396  1
  O  O35  1  0.502198  0.252178  0.004396  1
  O  O36  1  0.502198  0.752219  0.004396  1
  O  O37  1  0.686558  0.920999  0.841998  1
