# generated using pymatgen
data_V3Zn2O8
_symmetry_space_group_name_H-M   'P 1'
_cell_length_a   5.91441312
_cell_length_b   5.91441226
_cell_length_c   9.57730330
_cell_angle_alpha   90.00000000
_cell_angle_beta   90.00000000
_cell_angle_gamma   119.99999974
_symmetry_Int_Tables_number   1
_chemical_formula_structural   V3Zn2O8
_chemical_formula_sum   'V6 Zn4 O16'
_cell_volume   290.13299694
_cell_formula_units_Z   2
loop_
 _symmetry_equiv_pos_site_id
 _symmetry_equiv_pos_as_xyz
  1  'x, y, z'
loop_
 _atom_site_type_symbol
 _atom_site_label
 _atom_site_symmetry_multiplicity
 _atom_site_fract_x
 _atom_site_fract_y
 _atom_site_fract_z
 _atom_site_occupancy
  V  V0  1  0.675802  0.837901  0.243326  1
  V  V1  1  0.837902  0.162100  0.743326  1
  V  V2  1  0.162100  0.324199  0.243326  1
  V  V3  1  0.837900  0.675802  0.743326  1
  V  V4  1  0.324199  0.162100  0.743326  1
  V  V5  1  0.162100  0.837901  0.243326  1
  Zn  Zn6  1  0.666667  0.333334  0.026040  1
  Zn  Zn7  1  0.333333  0.666666  0.526041  1
  Zn  Zn8  1  0.666667  0.333334  0.424446  1
  Zn  Zn9  1  0.333333  0.666666  0.924447  1
  O  O10  1  0.836726  0.163275  0.146630  1
  O  O11  1  0.673450  0.836726  0.646629  1
  O  O12  1  0.163275  0.326551  0.646629  1
  O  O13  1  0.836725  0.673450  0.146630  1
  O  O14  1  0.326550  0.163275  0.146630  1
  O  O15  1  0.163275  0.836726  0.646629  1
  O  O16  1  0.516942  0.483057  0.862184  1
  O  O17  1  0.033885  0.516942  0.362183  1
  O  O18  1  0.483058  0.966116  0.362183  1
  O  O19  1  0.516942  0.033885  0.862184  1
  O  O20  1  -0.000000  -0.000000  0.353179  1
  O  O21  1  -0.000000  -0.000000  0.853179  1
  O  O22  1  0.333333  0.666666  0.133422  1
  O  O23  1  0.966114  0.483057  0.862184  1
  O  O24  1  0.483057  0.516942  0.362183  1
  O  O25  1  0.666667  0.333334  0.633422  1
