# generated using pymatgen
data_Ca2SbWO6
_symmetry_space_group_name_H-M   'P 1'
_cell_length_a   5.63869070
_cell_length_b   5.91166463
_cell_length_c   8.20782851
_cell_angle_alpha   90.00000000
_cell_angle_beta   89.45867651
_cell_angle_gamma   90.00000000
_symmetry_Int_Tables_number   1
_chemical_formula_structural   Ca2SbWO6
_chemical_formula_sum   'Ca4 Sb2 W2 O12'
_cell_volume   273.58794152
_cell_formula_units_Z   2
loop_
 _symmetry_equiv_pos_site_id
 _symmetry_equiv_pos_as_xyz
  1  'x, y, z'
loop_
 _atom_site_type_symbol
 _atom_site_label
 _atom_site_symmetry_multiplicity
 _atom_site_fract_x
 _atom_site_fract_y
 _atom_site_fract_z
 _atom_site_occupancy
  Ca  Ca0  1  0.987345  0.057466  0.251267  1
  Ca  Ca1  1  0.512655  0.557467  0.248733  1
  Ca  Ca2  1  0.012656  0.942535  0.748733  1
  Ca  Ca3  1  0.487344  0.442534  0.751267  1
  Sb  Sb4  1  0.500000  0.000000  0.000000  1
  Sb  Sb5  1  0.000001  0.499999  0.500000  1
  W  W6  1  0.500000  0.000000  0.499999  1
  W  W7  1  0.000000  0.499999  0.000000  1
  O  O8  1  0.674788  0.290692  0.429972  1
  O  O9  1  0.825212  0.790693  0.070028  1
  O  O10  1  0.325211  0.709308  0.570028  1
  O  O11  1  0.174789  0.209307  0.929972  1
  O  O12  1  0.213586  0.174616  0.553953  1
  O  O13  1  0.286414  0.674615  0.946047  1
  O  O14  1  0.786415  0.825384  0.446047  1
  O  O15  1  0.713585  0.325385  0.053953  1
  O  O16  1  0.119529  0.442907  0.233003  1
  O  O17  1  0.380472  0.942908  0.266996  1
  O  O18  1  0.619529  0.057092  0.733004  1
  O  O19  1  0.880472  0.557093  0.766997  1
