# generated using pymatgen
data_BaW4O7
_symmetry_space_group_name_H-M   'P 1'
_cell_length_a   6.83538474
_cell_length_b   6.83538433
_cell_length_c   11.07694927
_cell_angle_alpha   90.00000000
_cell_angle_beta   90.00000000
_cell_angle_gamma   120.00000197
_symmetry_Int_Tables_number   1
_chemical_formula_structural   BaW4O7
_chemical_formula_sum   'Ba2 W8 O14'
_cell_volume   448.20499585
_cell_formula_units_Z   2
loop_
 _symmetry_equiv_pos_site_id
 _symmetry_equiv_pos_as_xyz
  1  'x, y, z'
loop_
 _atom_site_type_symbol
 _atom_site_label
 _atom_site_symmetry_multiplicity
 _atom_site_fract_x
 _atom_site_fract_y
 _atom_site_fract_z
 _atom_site_occupancy
  Ba  Ba0  1  0.666667  0.333333  0.541685  1
  Ba  Ba1  1  0.333333  0.666667  0.041685  1
  W  W2  1  0.807200  0.192801  0.195286  1
  W  W3  1  0.614398  0.807199  0.695287  1
  W  W4  1  0.192801  0.385602  0.695287  1
  W  W5  1  0.807200  0.614398  0.195286  1
  W  W6  1  0.385601  0.192801  0.195286  1
  W  W7  1  0.192801  0.807199  0.695287  1
  W  W8  1  -0.000000  0.000000  0.419245  1
  W  W9  1  -0.000000  0.000000  0.919245  1
  O  O10  1  0.862943  0.137058  0.032397  1
  O  O11  1  0.725886  0.862942  0.532396  1
  O  O12  1  0.137057  0.274113  0.532396  1
  O  O13  1  0.862944  0.725887  0.032397  1
  O  O14  1  0.274113  0.137058  0.032397  1
  O  O15  1  0.137057  0.862942  0.532396  1
  O  O16  1  -0.000000  0.000000  0.742157  1
  O  O17  1  -0.000000  0.000000  0.242158  1
  O  O18  1  0.479843  0.520159  0.222639  1
  O  O19  1  0.959684  0.479843  0.722639  1
  O  O20  1  0.520158  0.040316  0.722639  1
  O  O21  1  0.479843  0.959684  0.222639  1
  O  O22  1  0.520159  0.479843  0.722639  1
  O  O23  1  0.040316  0.520159  0.222639  1
