# generated using pymatgen
data_Ti2ZnN2
_symmetry_space_group_name_H-M   'P 1'
_cell_length_a   3.13854675
_cell_length_b   3.13945978
_cell_length_c   7.63119489
_cell_angle_alpha   90.04591380
_cell_angle_beta   90.01533787
_cell_angle_gamma   89.99957164
_symmetry_Int_Tables_number   1
_chemical_formula_structural   Ti2ZnN2
_chemical_formula_sum   'Ti2 Zn1 N2'
_cell_volume   75.19274094
_cell_formula_units_Z   1
loop_
 _symmetry_equiv_pos_site_id
 _symmetry_equiv_pos_as_xyz
  1  'x, y, z'
loop_
 _atom_site_type_symbol
 _atom_site_label
 _atom_site_symmetry_multiplicity
 _atom_site_fract_x
 _atom_site_fract_y
 _atom_site_fract_z
 _atom_site_occupancy
  Ti  Ti0  1  0.499826  0.499570  0.939285  1
  Ti  Ti1  1  0.500207  0.500413  0.560650  1
  Zn  Zn2  1  0.999981  0.000081  0.250050  1
  N  N3  1  0.500056  0.000141  0.420738  1
  N  N4  1  0.999931  0.499795  0.079277  1
