# generated using pymatgen
data_Ca2Cr2(SiO4)3
_symmetry_space_group_name_H-M   'P 1'
_cell_length_a   10.39382561
_cell_length_b   10.39382545
_cell_length_c   10.39382570
_cell_angle_alpha   109.07252909
_cell_angle_beta   109.07252882
_cell_angle_gamma   110.27158349
_symmetry_Int_Tables_number   1
_chemical_formula_structural   Ca2Cr2(SiO4)3
_chemical_formula_sum   'Ca8 Cr8 Si12 O48'
_cell_volume   864.25261845
_cell_formula_units_Z   4
loop_
 _symmetry_equiv_pos_site_id
 _symmetry_equiv_pos_as_xyz
  1  'x, y, z'
loop_
 _atom_site_type_symbol
 _atom_site_label
 _atom_site_symmetry_multiplicity
 _atom_site_fract_x
 _atom_site_fract_y
 _atom_site_fract_z
 _atom_site_occupancy
  Ca  Ca0  1  0.371980  0.750000  0.121981  1
  Ca  Ca1  1  0.128020  0.250000  0.378020  1
  Ca  Ca2  1  0.871980  0.750000  0.621980  1
  Ca  Ca3  1  0.750000  0.128020  0.378020  1
  Ca  Ca4  1  0.750000  0.628020  0.878020  1
  Ca  Ca5  1  0.628020  0.250000  0.878020  1
  Ca  Ca6  1  0.250000  0.871980  0.621980  1
  Ca  Ca7  1  0.250000  0.371980  0.121980  1
  Cr  Cr8  1  0.000000  0.000000  0.000000  1
  Cr  Cr9  1  0.000000  0.499999  0.000000  1
  Cr  Cr10  1  0.000000  0.000000  0.500000  1
  Cr  Cr11  1  0.000000  0.499999  0.499999  1
  Cr  Cr12  1  0.500000  0.000000  0.500000  1
  Cr  Cr13  1  0.500000  0.499999  0.000000  1
  Cr  Cr14  1  0.500000  0.499999  0.500000  1
  Cr  Cr15  1  0.500000  0.000000  0.000000  1
  Si  Si16  1  0.250000  0.123956  0.873956  1
  Si  Si17  1  0.750000  0.876044  0.126044  1
  Si  Si18  1  0.376044  0.250000  0.626044  1
  Si  Si19  1  0.625000  0.375000  0.250000  1
  Si  Si20  1  0.123956  0.750000  0.873956  1
  Si  Si21  1  0.875000  0.125000  0.750000  1
  Si  Si22  1  0.750001  0.376044  0.626044  1
  Si  Si23  1  0.375000  0.625000  0.750000  1
  Si  Si24  1  0.124999  0.875000  0.250000  1
  Si  Si25  1  0.876044  0.250000  0.126044  1
  Si  Si26  1  0.623956  0.750000  0.373956  1
  Si  Si27  1  0.250000  0.623956  0.373956  1
  O  O28  1  0.298861  0.490336  0.383591  1
  O  O29  1  0.004115  0.309709  0.896790  1
  O  O30  1  0.111613  0.609403  0.918018  1
  O  O31  1  0.201139  0.584730  0.191475  1
  O  O32  1  0.193594  0.111613  0.002210  1
  O  O33  1  0.587082  0.190292  0.194406  1
  O  O34  1  0.609402  0.191385  0.497790  1
  O  O35  1  0.191385  0.193593  0.581982  1
  O  O36  1  0.890598  0.388388  0.581983  1
  O  O37  1  0.309709  0.912918  0.305595  1
  O  O38  1  0.915269  0.298860  0.308525  1
  O  O39  1  0.009664  0.201139  0.116409  1
  O  O40  1  0.190291  0.495886  0.603210  1
  O  O41  1  0.584731  0.893255  0.383591  1
  O  O42  1  0.107324  0.004115  0.194406  1
  O  O43  1  0.490336  0.606746  0.191475  1
  O  O44  1  0.392677  0.587082  0.896790  1
  O  O45  1  0.893255  0.009665  0.308525  1
  O  O46  1  0.606745  0.915270  0.116410  1
  O  O47  1  0.109402  0.611612  0.418018  1
  O  O48  1  0.495885  0.392677  0.305595  1
  O  O49  1  0.388387  0.306406  0.497790  1
  O  O50  1  0.308616  0.890598  0.002209  1
  O  O51  1  0.306406  0.308616  0.918018  1
  O  O52  1  0.701139  0.509664  0.616410  1
  O  O53  1  0.995886  0.690291  0.103210  1
  O  O54  1  0.888387  0.390598  0.081982  1
  O  O55  1  0.798860  0.415270  0.808525  1
  O  O56  1  0.806406  0.888387  0.997791  1
  O  O57  1  0.412918  0.809708  0.805595  1
  O  O58  1  0.390597  0.808615  0.502209  1
  O  O59  1  0.808616  0.806407  0.418018  1
  O  O60  1  0.693594  0.691384  0.081982  1
  O  O61  1  0.691384  0.109402  0.997790  1
  O  O62  1  0.611613  0.693594  0.502210  1
  O  O63  1  0.504114  0.607323  0.694405  1
  O  O64  1  0.087082  0.892676  0.396790  1
  O  O65  1  0.393255  0.084730  0.883590  1
  O  O66  1  0.106745  0.990335  0.691475  1
  O  O67  1  0.607323  0.412918  0.103210  1
  O  O68  1  0.509665  0.393255  0.808524  1
  O  O69  1  0.892677  0.995885  0.805595  1
  O  O70  1  0.415270  0.106745  0.616409  1
  O  O71  1  0.809708  0.504114  0.396790  1
  O  O72  1  0.990335  0.798861  0.883590  1
  O  O73  1  0.084730  0.701140  0.691476  1
  O  O74  1  0.690291  0.087082  0.694405  1
  O  O75  1  0.912918  0.107324  0.603210  1
