# generated using pymatgen
data_BaCaMnF7
_symmetry_space_group_name_H-M   'P 1'
_cell_length_a   5.89036597
_cell_length_b   9.89806702
_cell_length_c   10.53821648
_cell_angle_alpha   90.00000000
_cell_angle_beta   90.00000000
_cell_angle_gamma   92.77816379
_symmetry_Int_Tables_number   1
_chemical_formula_structural   BaCaMnF7
_chemical_formula_sum   'Ba4 Ca4 Mn4 F28'
_cell_volume   613.69000497
_cell_formula_units_Z   4
loop_
 _symmetry_equiv_pos_site_id
 _symmetry_equiv_pos_as_xyz
  1  'x, y, z'
loop_
 _atom_site_type_symbol
 _atom_site_label
 _atom_site_symmetry_multiplicity
 _atom_site_fract_x
 _atom_site_fract_y
 _atom_site_fract_z
 _atom_site_occupancy
  Ba  Ba0  1  0.279406  0.506945  0.326626  1
  Ba  Ba1  1  0.720594  0.993055  0.826626  1
  Ba  Ba2  1  0.720594  0.493055  0.673374  1
  Ba  Ba3  1  0.279406  0.006945  0.173374  1
  Ca  Ca4  1  0.705849  0.823920  0.413644  1
  Ca  Ca5  1  0.294151  0.676080  0.913644  1
  Ca  Ca6  1  0.705849  0.323920  0.086356  1
  Ca  Ca7  1  0.294151  0.176080  0.586356  1
  Mn  Mn8  1  0.191159  0.803569  0.621233  1
  Mn  Mn9  1  0.808841  0.196431  0.378767  1
  Mn  Mn10  1  0.191159  0.303569  0.878767  1
  Mn  Mn11  1  0.808841  0.696431  0.121233  1
  F  F12  1  0.117991  0.102931  0.411656  1
  F  F13  1  0.339868  0.363385  0.030050  1
  F  F14  1  0.480892  0.728648  0.719140  1
  F  F15  1  0.519108  0.271352  0.280860  1
  F  F16  1  0.911347  0.355607  0.461736  1
  F  F17  1  0.286866  0.471797  0.802333  1
  F  F18  1  0.024863  0.740088  0.770922  1
  F  F19  1  0.088653  0.144393  0.961736  1
  F  F20  1  0.339868  0.863385  0.469950  1
  F  F21  1  0.519108  0.771352  0.219140  1
  F  F22  1  0.117991  0.602931  0.088344  1
  F  F23  1  0.882009  0.897069  0.588344  1
  F  F24  1  0.975137  0.759912  0.270922  1
  F  F25  1  0.387199  0.884369  0.960793  1
  F  F26  1  0.088653  0.644393  0.538264  1
  F  F27  1  0.911347  0.855607  0.038264  1
  F  F28  1  0.975137  0.259912  0.229078  1
  F  F29  1  0.882009  0.397069  0.911656  1
  F  F30  1  0.612801  0.615631  0.460793  1
  F  F31  1  0.660132  0.636615  0.969950  1
  F  F32  1  0.612801  0.115631  0.039207  1
  F  F33  1  0.024863  0.240088  0.729078  1
  F  F34  1  0.387199  0.384369  0.539207  1
  F  F35  1  0.713134  0.028203  0.302333  1
  F  F36  1  0.713134  0.528203  0.197667  1
  F  F37  1  0.286866  0.971797  0.697667  1
  F  F38  1  0.660132  0.136615  0.530050  1
  F  F39  1  0.480892  0.228648  0.780860  1
