# generated using pymatgen
data_Ca(WO2)2
_symmetry_space_group_name_H-M   'P 1'
_cell_length_a   3.28420808
_cell_length_b   9.60282172
_cell_length_c   11.47242249
_cell_angle_alpha   89.99977970
_cell_angle_beta   89.99997092
_cell_angle_gamma   90.00018332
_symmetry_Int_Tables_number   1
_chemical_formula_structural   Ca(WO2)2
_chemical_formula_sum   'Ca4 W8 O16'
_cell_volume   361.81341381
_cell_formula_units_Z   4
loop_
 _symmetry_equiv_pos_site_id
 _symmetry_equiv_pos_as_xyz
  1  'x, y, z'
loop_
 _atom_site_type_symbol
 _atom_site_label
 _atom_site_symmetry_multiplicity
 _atom_site_fract_x
 _atom_site_fract_y
 _atom_site_fract_z
 _atom_site_occupancy
  Ca  Ca0  1  0.750008  0.238518  0.345107  1
  Ca  Ca1  1  0.249997  0.761435  0.654775  1
  Ca  Ca2  1  0.750002  0.738989  0.155045  1
  Ca  Ca3  1  0.249995  0.261283  0.845133  1
  W  W4  1  0.250002  0.410954  0.101647  1
  W  W5  1  0.749997  0.089255  0.601507  1
  W  W6  1  0.250000  0.910426  0.398255  1
  W  W7  1  0.749998  0.589441  0.898416  1
  W  W8  1  0.750006  0.558557  0.382804  1
  W  W9  1  0.249998  0.441095  0.617427  1
  W  W10  1  0.750003  0.059147  0.117233  1
  W  W11  1  0.249989  0.941187  0.882702  1
  O  O12  1  0.249997  0.914893  0.074442  1
  O  O13  1  0.749995  0.085592  0.925521  1
  O  O14  1  0.250004  0.414129  0.425741  1
  O  O15  1  0.750001  0.585476  0.574531  1
  O  O16  1  0.250000  0.033792  0.712386  1
  O  O17  1  0.750002  0.965855  0.287310  1
  O  O18  1  0.249993  0.533388  0.787786  1
  O  O19  1  0.750005  0.466540  0.212403  1
  O  O20  1  0.250000  0.621924  0.027734  1
  O  O21  1  0.750002  0.378631  0.972365  1
  O  O22  1  0.250001  0.121182  0.472118  1
  O  O23  1  0.749998  0.878406  0.527565  1
  O  O24  1  0.749992  0.802124  0.823318  1
  O  O25  1  0.250002  0.198253  0.176657  1
  O  O26  1  0.250009  0.697622  0.323502  1
  O  O27  1  0.749993  0.301904  0.676566  1
