# generated using pymatgen
data_Sr2YMn2O7
_symmetry_space_group_name_H-M   'P 1'
_cell_length_a   13.31716484
_cell_length_b   13.31716484
_cell_length_c   13.31716484
_cell_angle_alpha   32.61523483
_cell_angle_beta   157.19654009
_cell_angle_gamma   156.99479592
_symmetry_Int_Tables_number   1
_chemical_formula_structural   Sr2YMn2O7
_chemical_formula_sum   'Sr4 Y2 Mn4 O14'
_cell_volume   357.43064463
_cell_formula_units_Z   2
loop_
 _symmetry_equiv_pos_site_id
 _symmetry_equiv_pos_as_xyz
  1  'x, y, z'
loop_
 _atom_site_type_symbol
 _atom_site_label
 _atom_site_symmetry_multiplicity
 _atom_site_fract_x
 _atom_site_fract_y
 _atom_site_fract_z
 _atom_site_occupancy
  Sr  Sr0  1  0.968314  0.833032  0.777820  1
  Sr  Sr1  1  0.055212  0.190493  0.222180  1
  Sr  Sr2  1  0.968314  0.690493  0.635281  1
  Sr  Sr3  1  0.055212  0.333032  0.364719  1
  Y  Y4  1  0.015696  0.515696  0.500000  1
  Y  Y5  1  0.015696  0.015696  0.000000  1
  Mn  Mn6  1  0.520291  0.436735  0.926138  1
  Mn  Mn7  1  0.510596  0.594153  0.073862  1
  Mn  Mn8  1  0.520291  0.094153  0.583558  1
  Mn  Mn9  1  0.510596  0.936735  0.416442  1
  O  O10  1  0.013494  0.012203  0.501288  1
  O  O11  1  0.510915  0.512203  0.498712  1
  O  O12  1  0.515543  0.211765  0.196160  1
  O  O13  1  0.015605  0.319384  0.803840  1
  O  O14  1  0.515543  0.819383  0.803777  1
  O  O15  1  0.015605  0.711765  0.196223  1
  O  O16  1  0.515982  0.708167  0.692610  1
  O  O17  1  0.015557  0.823370  0.307390  1
  O  O18  1  0.515982  0.323370  0.307816  1
  O  O19  1  0.015557  0.208167  0.692184  1
  O  O20  1  0.500008  0.862251  0.332491  1
  O  O21  1  0.529760  0.167514  0.667509  1
  O  O22  1  0.500008  0.667514  0.137756  1
  O  O23  1  0.529760  0.362251  0.862244  1
