# generated using pymatgen
data_Li(CrS2)2
_symmetry_space_group_name_H-M   'P 1'
_cell_length_a   7.02093413
_cell_length_b   6.97084625
_cell_length_c   6.97772019
_cell_angle_alpha   89.88484009
_cell_angle_beta   120.17923283
_cell_angle_gamma   120.30145991
_symmetry_Int_Tables_number   1
_chemical_formula_structural   Li(CrS2)2
_chemical_formula_sum   'Li2 Cr4 S8'
_cell_volume   239.96022572
_cell_formula_units_Z   2
loop_
 _symmetry_equiv_pos_site_id
 _symmetry_equiv_pos_as_xyz
  1  'x, y, z'
loop_
 _atom_site_type_symbol
 _atom_site_label
 _atom_site_symmetry_multiplicity
 _atom_site_fract_x
 _atom_site_fract_y
 _atom_site_fract_z
 _atom_site_occupancy
  Li  Li0  1  0.000032  0.000079  0.999928  1
  Li  Li1  1  0.500035  0.000079  0.999984  1
  Cr  Cr2  1  0.498855  0.998791  0.499053  1
  Cr  Cr3  1  0.500132  0.500019  0.500079  1
  Cr  Cr4  1  0.001123  0.500948  0.001212  1
  Cr  Cr5  1  0.999952  0.500005  0.500013  1
  S  S6  1  0.014275  0.741407  0.257923  1
  S  S7  1  0.484985  0.741080  0.728795  1
  S  S8  1  0.485407  0.741765  0.258252  1
  S  S9  1  0.984931  0.728396  0.741175  1
  S  S10  1  0.515716  0.258317  0.741571  1
  S  S11  1  0.514948  0.258718  0.271239  1
  S  S12  1  0.015268  0.271646  0.259063  1
  S  S13  1  0.984390  0.258715  0.741756  1
