# generated using pymatgen
data_CaVP2O7
_symmetry_space_group_name_H-M   'P 1'
_cell_length_a   7.42539588
_cell_length_b   8.90577787
_cell_length_c   9.05435340
_cell_angle_alpha   90.00000000
_cell_angle_beta   112.04352444
_cell_angle_gamma   90.00000000
_symmetry_Int_Tables_number   1
_chemical_formula_structural   CaVP2O7
_chemical_formula_sum   'Ca4 V4 P8 O28'
_cell_volume   554.98511525
_cell_formula_units_Z   4
loop_
 _symmetry_equiv_pos_site_id
 _symmetry_equiv_pos_as_xyz
  1  'x, y, z'
loop_
 _atom_site_type_symbol
 _atom_site_label
 _atom_site_symmetry_multiplicity
 _atom_site_fract_x
 _atom_site_fract_y
 _atom_site_fract_z
 _atom_site_occupancy
  Ca  Ca0  1  0.139222  0.950425  0.853844  1
  Ca  Ca1  1  0.360778  0.450425  0.646156  1
  Ca  Ca2  1  0.639222  0.549575  0.353844  1
  Ca  Ca3  1  0.860778  0.049575  0.146156  1
  V  V4  1  0.385440  0.075027  0.613506  1
  V  V5  1  0.614560  0.924973  0.386494  1
  V  V6  1  0.114560  0.575027  0.886494  1
  V  V7  1  0.885440  0.424973  0.113506  1
  P  P8  1  0.185593  0.724068  0.240689  1
  P  P9  1  0.434612  0.242263  0.970338  1
  P  P10  1  0.685593  0.775932  0.740689  1
  P  P11  1  0.934612  0.257737  0.470338  1
  P  P12  1  0.314407  0.224068  0.259311  1
  P  P13  1  0.065388  0.742263  0.529662  1
  P  P14  1  0.565388  0.757737  0.029662  1
  P  P15  1  0.814407  0.275932  0.759311  1
  O  O16  1  0.360916  0.175430  0.104069  1
  O  O17  1  0.580408  0.631726  0.669097  1
  O  O18  1  0.080408  0.868274  0.169097  1
  O  O19  1  0.330394  0.389535  0.901608  1
  O  O20  1  0.639084  0.824570  0.895931  1
  O  O21  1  0.386478  0.086787  0.369761  1
  O  O22  1  0.669606  0.610465  0.098392  1
  O  O23  1  0.379225  0.111000  0.851489  1
  O  O24  1  0.156024  0.241232  0.550449  1
  O  O25  1  0.613522  0.913213  0.630239  1
  O  O26  1  0.886478  0.413213  0.869761  1
  O  O27  1  0.908335  0.762805  0.806457  1
  O  O28  1  0.591665  0.262805  0.693543  1
  O  O29  1  0.860916  0.324570  0.604069  1
  O  O30  1  0.113522  0.586787  0.130239  1
  O  O31  1  0.919592  0.131725  0.830903  1
  O  O32  1  0.091665  0.237195  0.193543  1
  O  O33  1  0.620775  0.889000  0.148511  1
  O  O34  1  0.656024  0.258768  0.050449  1
  O  O35  1  0.343976  0.741232  0.949551  1
  O  O36  1  0.169606  0.889535  0.598392  1
  O  O37  1  0.879225  0.389000  0.351489  1
  O  O38  1  0.120775  0.611000  0.648511  1
  O  O39  1  0.419592  0.368275  0.330903  1
  O  O40  1  0.408335  0.737195  0.306457  1
  O  O41  1  0.830394  0.110465  0.401608  1
  O  O42  1  0.843976  0.758768  0.449551  1
  O  O43  1  0.139084  0.675430  0.395931  1
