# generated using pymatgen
data_Mg2Mn3O8
_symmetry_space_group_name_H-M   'P 1'
_cell_length_a   5.84912938
_cell_length_b   5.84912896
_cell_length_c   9.39133291
_cell_angle_alpha   90.00000000
_cell_angle_beta   90.00000000
_cell_angle_gamma   120.00000237
_symmetry_Int_Tables_number   1
_chemical_formula_structural   Mg2Mn3O8
_chemical_formula_sum   'Mg4 Mn6 O16'
_cell_volume   278.25327330
_cell_formula_units_Z   2
loop_
 _symmetry_equiv_pos_site_id
 _symmetry_equiv_pos_as_xyz
  1  'x, y, z'
loop_
 _atom_site_type_symbol
 _atom_site_label
 _atom_site_symmetry_multiplicity
 _atom_site_fract_x
 _atom_site_fract_y
 _atom_site_fract_z
 _atom_site_occupancy
  Mg  Mg0  1  0.666667  0.333334  0.025179  1
  Mg  Mg1  1  0.333333  0.666666  0.525180  1
  Mg  Mg2  1  0.666667  0.333334  0.418777  1
  Mg  Mg3  1  0.333333  0.666666  0.918778  1
  Mn  Mn4  1  0.670967  0.835484  0.245500  1
  Mn  Mn5  1  0.835484  0.164518  0.745500  1
  Mn  Mn6  1  0.164518  0.329034  0.245500  1
  Mn  Mn7  1  0.835483  0.670967  0.745500  1
  Mn  Mn8  1  0.329034  0.164518  0.745500  1
  Mn  Mn9  1  0.164518  0.835484  0.245500  1
  O  O10  1  0.839966  0.160034  0.144349  1
  O  O11  1  0.679932  0.839966  0.644348  1
  O  O12  1  0.160034  0.320069  0.644348  1
  O  O13  1  0.839966  0.679932  0.144349  1
  O  O14  1  0.320068  0.160034  0.144349  1
  O  O15  1  0.160034  0.839966  0.644348  1
  O  O16  1  0.518643  0.481356  0.864205  1
  O  O17  1  0.037288  0.518643  0.364204  1
  O  O18  1  0.481357  0.962713  0.364204  1
  O  O19  1  0.518643  0.037288  0.864205  1
  O  O20  1  -0.000000  0.000000  0.350993  1
  O  O21  1  -0.000000  0.000000  0.850993  1
  O  O22  1  0.333333  0.666666  0.136389  1
  O  O23  1  0.962711  0.481356  0.864205  1
  O  O24  1  0.481356  0.518643  0.364204  1
  O  O25  1  0.666667  0.333334  0.636389  1
