# generated using pymatgen
data_Zn(MoO2)2
_symmetry_space_group_name_H-M   'P 1'
_cell_length_a   3.13110112
_cell_length_b   5.40086026
_cell_length_c   10.41297799
_cell_angle_alpha   90.00000000
_cell_angle_beta   90.00000000
_cell_angle_gamma   106.85021654
_symmetry_Int_Tables_number   1
_chemical_formula_structural   Zn(MoO2)2
_chemical_formula_sum   'Zn2 Mo4 O8'
_cell_volume   168.52983132
_cell_formula_units_Z   2
loop_
 _symmetry_equiv_pos_site_id
 _symmetry_equiv_pos_as_xyz
  1  'x, y, z'
loop_
 _atom_site_type_symbol
 _atom_site_label
 _atom_site_symmetry_multiplicity
 _atom_site_fract_x
 _atom_site_fract_y
 _atom_site_fract_z
 _atom_site_occupancy
  Zn  Zn0  1  0.394771  0.789544  0.750000  1
  Zn  Zn1  1  0.605229  0.210456  0.250000  1
  Mo  Mo2  1  0.867597  0.735194  0.072661  1
  Mo  Mo3  1  0.132403  0.264806  0.927339  1
  Mo  Mo4  1  0.867597  0.735194  0.427339  1
  Mo  Mo5  1  0.132403  0.264806  0.572661  1
  O  O6  1  0.230169  0.460338  0.386821  1
  O  O7  1  0.769831  0.539662  0.613179  1
  O  O8  1  0.769831  0.539662  0.886821  1
  O  O9  1  0.230169  0.460338  0.113179  1
  O  O10  1  0.977794  0.955588  0.250000  1
  O  O11  1  0.022206  0.044412  0.750000  1
  O  O12  1  0.500000  -0.000000  -0.000000  1
  O  O13  1  0.500000  -0.000000  0.500000  1
