# generated using pymatgen
data_AlNi(WO4)2
_symmetry_space_group_name_H-M   'P 1'
_cell_length_a   5.00507826
_cell_length_b   5.67476477
_cell_length_c   9.14681702
_cell_angle_alpha   89.99993662
_cell_angle_beta   90.99892887
_cell_angle_gamma   89.98256237
_symmetry_Int_Tables_number   1
_chemical_formula_structural   AlNi(WO4)2
_chemical_formula_sum   'Al2 Ni2 W4 O16'
_cell_volume   259.75427184
_cell_formula_units_Z   2
loop_
 _symmetry_equiv_pos_site_id
 _symmetry_equiv_pos_as_xyz
  1  'x, y, z'
loop_
 _atom_site_type_symbol
 _atom_site_label
 _atom_site_symmetry_multiplicity
 _atom_site_fract_x
 _atom_site_fract_y
 _atom_site_fract_z
 _atom_site_occupancy
  Al  Al0  1  0.249948  0.653001  0.250127  1
  Al  Al1  1  0.750051  0.346998  0.749873  1
  Ni  Ni2  1  0.749959  0.353158  0.250070  1
  Ni  Ni3  1  0.250041  0.646841  0.749930  1
  W  W4  1  0.255680  0.171533  0.497799  1
  W  W5  1  0.244173  0.171585  0.002379  1
  W  W6  1  0.744320  0.828467  0.502201  1
  W  W7  1  0.755827  0.828415  0.997622  1
  O  O8  1  0.386121  0.397983  0.129652  1
  O  O9  1  0.113958  0.397961  0.370244  1
  O  O10  1  0.613879  0.602016  0.870348  1
  O  O11  1  0.886041  0.602038  0.629756  1
  O  O12  1  0.432016  0.888043  0.614159  1
  O  O13  1  0.067846  0.887998  0.885770  1
  O  O14  1  0.567984  0.111957  0.385841  1
  O  O15  1  0.932154  0.112002  0.114230  1
  O  O16  1  0.929485  0.640038  0.136338  1
  O  O17  1  0.570654  0.639820  0.363541  1
  O  O18  1  0.070515  0.359963  0.863662  1
  O  O19  1  0.429346  0.360181  0.636459  1
  O  O20  1  0.419898  0.881257  0.112949  1
  O  O21  1  0.580102  0.118744  0.887051  1
  O  O22  1  0.080109  0.881253  0.386908  1
  O  O23  1  0.919891  0.118748  0.613092  1
