# generated using pymatgen
data_Ca2Bi3O8
_symmetry_space_group_name_H-M   'P 1'
_cell_length_a   5.81278957
_cell_length_b   6.80154118
_cell_length_c   6.82089407
_cell_angle_alpha   119.90618906
_cell_angle_beta   108.39679370
_cell_angle_gamma   89.99999616
_symmetry_Int_Tables_number   1
_chemical_formula_structural   Ca2Bi3O8
_chemical_formula_sum   'Ca2 Bi3 O8'
_cell_volume   217.71867949
_cell_formula_units_Z   1
loop_
 _symmetry_equiv_pos_site_id
 _symmetry_equiv_pos_as_xyz
  1  'x, y, z'
loop_
 _atom_site_type_symbol
 _atom_site_label
 _atom_site_symmetry_multiplicity
 _atom_site_fract_x
 _atom_site_fract_y
 _atom_site_fract_z
 _atom_site_occupancy
  Ca  Ca0  1  0.644379  0.720777  0.441554  1
  Ca  Ca1  1  0.355620  0.279224  0.558446  1
  Bi  Bi2  1  0.500000  0.999999  0.000000  1
  Bi  Bi3  1  0.999999  0.737443  0.000000  1
  Bi  Bi4  1  0.999999  0.262557  1.000000  1
  O  O5  1  0.086298  0.395869  0.791738  1
  O  O6  1  0.913702  0.604130  0.208262  1
  O  O7  1  0.058779  0.891376  0.782753  1
  O  O8  1  0.941221  0.108623  0.217246  1
  O  O9  1  0.386522  0.354470  0.241591  1
  O  O10  1  0.386522  0.887121  0.241591  1
  O  O11  1  0.613479  0.112878  0.758409  1
  O  O12  1  0.613479  0.645530  0.758409  1
