# generated using pymatgen
data_ZnCrP2O7
_symmetry_space_group_name_H-M   'P 1'
_cell_length_a   6.48695986
_cell_length_b   6.40703845
_cell_length_c   7.09189499
_cell_angle_alpha   68.16887910
_cell_angle_beta   76.67178758
_cell_angle_gamma   80.14251382
_symmetry_Int_Tables_number   1
_chemical_formula_structural   ZnCrP2O7
_chemical_formula_sum   'Zn2 Cr2 P4 O14'
_cell_volume   265.05181700
_cell_formula_units_Z   2
loop_
 _symmetry_equiv_pos_site_id
 _symmetry_equiv_pos_as_xyz
  1  'x, y, z'
loop_
 _atom_site_type_symbol
 _atom_site_label
 _atom_site_symmetry_multiplicity
 _atom_site_fract_x
 _atom_site_fract_y
 _atom_site_fract_z
 _atom_site_occupancy
  Zn  Zn0  1  0.877278  0.289426  0.158655  1
  Zn  Zn1  1  0.122722  0.710574  0.841345  1
  Cr  Cr2  1  0.674300  0.100304  0.775622  1
  Cr  Cr3  1  0.325700  0.899696  0.224378  1
  P  P4  1  0.163637  0.221855  0.753190  1
  P  P5  1  0.836363  0.778145  0.246810  1
  P  P6  1  0.616188  0.636841  0.691502  1
  P  P7  1  0.383812  0.363159  0.308498  1
  O  O8  1  0.763715  0.612826  0.475960  1
  O  O9  1  0.236285  0.387174  0.524040  1
  O  O10  1  0.007500  0.061924  0.754551  1
  O  O11  1  0.992500  0.938076  0.245449  1
  O  O12  1  0.608341  0.269326  0.358804  1
  O  O13  1  0.391659  0.730674  0.641196  1
  O  O14  1  0.372644  0.605766  0.160474  1
  O  O15  1  0.627356  0.394234  0.839525  1
  O  O16  1  0.946815  0.614634  0.131230  1
  O  O17  1  0.053185  0.385366  0.868770  1
  O  O18  1  0.646867  0.924069  0.158487  1
  O  O19  1  0.353133  0.075931  0.841513  1
  O  O20  1  0.270382  0.209215  0.254893  1
  O  O21  1  0.729618  0.790785  0.745107  1
