# generated using pymatgen
data_CaTi2P2O9
_symmetry_space_group_name_H-M   'P 1'
_cell_length_a   6.54618025
_cell_length_b   7.55637402
_cell_length_c   14.46136721
_cell_angle_alpha   89.98049175
_cell_angle_beta   90.02345527
_cell_angle_gamma   90.00982728
_symmetry_Int_Tables_number   1
_chemical_formula_structural   CaTi2P2O9
_chemical_formula_sum   'Ca4 Ti8 P8 O36'
_cell_volume   715.33700459
_cell_formula_units_Z   4
loop_
 _symmetry_equiv_pos_site_id
 _symmetry_equiv_pos_as_xyz
  1  'x, y, z'
loop_
 _atom_site_type_symbol
 _atom_site_label
 _atom_site_symmetry_multiplicity
 _atom_site_fract_x
 _atom_site_fract_y
 _atom_site_fract_z
 _atom_site_occupancy
  Ca  Ca0  1  0.749987  0.892770  0.778600  1
  Ca  Ca1  1  0.749951  0.607303  0.278587  1
  Ca  Ca2  1  0.250052  0.392474  0.721415  1
  Ca  Ca3  1  0.250014  0.107352  0.221469  1
  Ti  Ti4  1  0.750062  0.344969  0.882922  1
  Ti  Ti5  1  0.249948  0.655053  0.117044  1
  Ti  Ti6  1  0.250019  0.845072  0.617098  1
  Ti  Ti7  1  0.749994  0.155001  0.382997  1
  Ti  Ti8  1  0.499990  -0.000029  0.000003  1
  Ti  Ti9  1  0.499822  0.500082  0.499999  1
  Ti  Ti10  1  0.000163  0.500054  0.499994  1
  Ti  Ti11  1  0.000010  -0.000016  0.000001  1
  P  P12  1  0.250089  0.359852  0.933564  1
  P  P13  1  0.749917  0.640250  0.066451  1
  P  P14  1  0.749992  0.859858  0.566338  1
  P  P15  1  0.250019  0.139960  0.433763  1
  P  P16  1  0.749992  0.388492  0.692663  1
  P  P17  1  0.749989  0.111463  0.192741  1
  P  P18  1  0.250010  0.888663  0.807234  1
  P  P19  1  0.250010  0.611493  0.307286  1
  O  O20  1  0.054700  0.603670  0.368606  1
  O  O21  1  0.554581  0.396514  0.631356  1
  O  O22  1  0.945309  0.103541  0.131407  1
  O  O23  1  0.445413  0.896583  0.868582  1
  O  O24  1  0.945332  0.396417  0.631371  1
  O  O25  1  0.445379  0.603585  0.368627  1
  O  O26  1  0.054705  0.896410  0.868559  1
  O  O27  1  0.554564  0.103354  0.131387  1
  O  O28  1  0.250120  0.325269  0.482545  1
  O  O29  1  0.749884  0.674515  0.517580  1
  O  O30  1  0.749787  0.825474  0.017628  1
  O  O31  1  0.250214  0.174544  0.982338  1
  O  O32  1  0.750056  0.128712  0.941279  1
  O  O33  1  0.249915  0.871279  0.058634  1
  O  O34  1  0.249813  0.628810  0.558791  1
  O  O35  1  0.750137  0.371426  0.441163  1
  O  O36  1  0.749965  0.215244  0.751149  1
  O  O37  1  0.250045  0.784654  0.248731  1
  O  O38  1  0.250048  0.715338  0.748731  1
  O  O39  1  0.749958  0.284834  0.251147  1
  O  O40  1  0.436875  0.129364  0.367961  1
  O  O41  1  0.936843  0.870429  0.632155  1
  O  O42  1  0.563100  0.629525  0.132125  1
  O  O43  1  0.063256  0.370504  0.867841  1
  O  O44  1  0.563164  0.870437  0.632109  1
  O  O45  1  0.063128  0.129367  0.367919  1
  O  O46  1  0.436844  0.370532  0.867871  1
  O  O47  1  0.936813  0.629566  0.132155  1
  O  O48  1  0.749985  0.499181  0.991939  1
  O  O49  1  0.250029  0.039358  0.734049  1
  O  O50  1  0.249993  0.460544  0.234162  1
  O  O51  1  0.750017  0.539334  0.765869  1
  O  O52  1  0.750024  0.000708  0.492003  1
  O  O53  1  0.249987  0.999184  0.508049  1
  O  O54  1  0.250019  0.500822  0.008048  1
  O  O55  1  0.749979  0.960852  0.265967  1
