# generated using pymatgen
data_Ba2AlCr2F11
_symmetry_space_group_name_H-M   'P 1'
_cell_length_a   7.50318075
_cell_length_b   7.50272317
_cell_length_c   14.62894668
_cell_angle_alpha   90.00195450
_cell_angle_beta   89.99567094
_cell_angle_gamma   119.99680110
_symmetry_Int_Tables_number   1
_chemical_formula_structural   Ba2AlCr2F11
_chemical_formula_sum   'Ba6 Al3 Cr6 F33'
_cell_volume   713.21754287
_cell_formula_units_Z   3
loop_
 _symmetry_equiv_pos_site_id
 _symmetry_equiv_pos_as_xyz
  1  'x, y, z'
loop_
 _atom_site_type_symbol
 _atom_site_label
 _atom_site_symmetry_multiplicity
 _atom_site_fract_x
 _atom_site_fract_y
 _atom_site_fract_z
 _atom_site_occupancy
  Ba  Ba0  1  0.530773  0.186540  0.665256  1
  Ba  Ba1  1  0.172081  0.487517  0.799844  1
  Ba  Ba2  1  0.655797  0.469333  0.998621  1
  Ba  Ba3  1  0.512472  0.684422  0.466537  1
  Ba  Ba4  1  0.315497  0.827965  0.133211  1
  Ba  Ba5  1  0.813419  0.344218  0.331937  1
  Al  Al6  1  0.169897  0.010094  0.871434  1
  Al  Al7  1  0.840130  0.830058  0.204746  1
  Al  Al8  1  0.989912  0.159821  0.538089  1
  Cr  Cr9  1  0.638287  0.995581  0.890318  1
  Cr  Cr10  1  0.788683  0.764419  0.725662  1
  Cr  Cr11  1  0.235496  0.023887  0.392232  1
  Cr  Cr12  1  0.356567  0.361233  0.223571  1
  Cr  Cr13  1  0.975860  0.211402  0.058808  1
  Cr  Cr14  1  0.004939  0.643644  0.557116  1
  F  F15  1  0.673197  0.089765  0.024595  1
  F  F16  1  0.499215  0.696771  0.925483  1
  F  F17  1  0.416409  0.326685  0.357845  1
  F  F18  1  0.096188  0.414257  0.484561  1
  F  F19  1  0.527295  0.237562  0.183138  1
  F  F20  1  0.898433  0.624168  0.179880  1
  F  F21  1  0.585700  0.681886  0.151222  1
  F  F22  1  0.375817  0.274242  0.846577  1
  F  F23  1  0.710258  0.472604  0.516524  1
  F  F24  1  0.273878  0.345030  0.089943  1
  F  F25  1  0.318059  0.903790  0.817888  1
  F  F26  1  0.910351  0.583549  0.691295  1
  F  F27  1  0.288275  0.020842  0.979507  1
  F  F28  1  0.029035  0.491080  0.022529  1
  F  F29  1  0.732572  0.711690  0.312849  1
  F  F30  1  0.303426  0.802574  0.592215  1
  F  F31  1  0.016750  0.126663  0.909641  1
  F  F32  1  0.071202  0.726076  0.423396  1
  F  F33  1  0.991375  0.066342  0.420181  1
  F  F34  1  0.979118  0.267380  0.646170  1
  F  F35  1  0.075237  0.008791  0.753508  1
  F  F36  1  0.509030  0.538029  0.689282  1
  F  F37  1  0.462124  0.970820  0.355855  1
  F  F38  1  0.109888  0.983187  0.242981  1
  F  F39  1  0.655001  0.928922  0.756726  1
  F  F40  1  0.762434  0.289992  0.849832  1
  F  F41  1  0.197322  0.500834  0.258809  1
  F  F42  1  0.949671  0.753827  0.885889  1
  F  F43  1  0.804145  0.050318  0.219221  1
  F  F44  1  0.933573  0.924842  0.086825  1
  F  F45  1  0.725714  0.101484  0.513226  1
  F  F46  1  0.873328  0.890081  0.576347  1
  F  F47  1  0.246173  0.195781  0.552582  1
