# generated using pymatgen
data_Ti(ZnN)2
_symmetry_space_group_name_H-M   'P 1'
_cell_length_a   4.32657105
_cell_length_b   5.60695690
_cell_length_c   6.35233209
_cell_angle_alpha   61.27342313
_cell_angle_beta   70.08962723
_cell_angle_gamma   67.30524228
_symmetry_Int_Tables_number   1
_chemical_formula_structural   Ti(ZnN)2
_chemical_formula_sum   'Ti2 Zn4 N4'
_cell_volume   122.35852021
_cell_formula_units_Z   2
loop_
 _symmetry_equiv_pos_site_id
 _symmetry_equiv_pos_as_xyz
  1  'x, y, z'
loop_
 _atom_site_type_symbol
 _atom_site_label
 _atom_site_symmetry_multiplicity
 _atom_site_fract_x
 _atom_site_fract_y
 _atom_site_fract_z
 _atom_site_occupancy
  Ti  Ti0  1  0.344940  0.194814  0.115306  1
  Ti  Ti1  1  0.655060  0.805186  0.884694  1
  Zn  Zn2  1  0.675497  0.254917  0.394090  1
  Zn  Zn3  1  0.324503  0.745083  0.605910  1
  Zn  Zn4  1  0.018719  0.718264  0.244297  1
  Zn  Zn5  1  0.981281  0.281736  0.755703  1
  N  N6  1  0.164218  0.270443  0.401122  1
  N  N7  1  0.835782  0.729557  0.598878  1
  N  N8  1  0.513035  0.209922  0.764008  1
  N  N9  1  0.486965  0.790078  0.235992  1
