# generated using pymatgen
data_Ca3Si3(BiO6)2
_symmetry_space_group_name_H-M   'P 1'
_cell_length_a   11.11820526
_cell_length_b   11.11820559
_cell_length_c   11.11820519
_cell_angle_alpha   109.47122197
_cell_angle_beta   109.47122260
_cell_angle_gamma   109.47121806
_symmetry_Int_Tables_number   1
_chemical_formula_structural   Ca3Si3(BiO6)2
_chemical_formula_sum   'Ca12 Si12 Bi8 O48'
_cell_volume   1057.99149870
_cell_formula_units_Z   4
loop_
 _symmetry_equiv_pos_site_id
 _symmetry_equiv_pos_as_xyz
  1  'x, y, z'
loop_
 _atom_site_type_symbol
 _atom_site_label
 _atom_site_symmetry_multiplicity
 _atom_site_fract_x
 _atom_site_fract_y
 _atom_site_fract_z
 _atom_site_occupancy
  Ca  Ca0  1  0.375000  0.750000  0.125000  1
  Ca  Ca1  1  0.125000  0.250000  0.375000  1
  Ca  Ca2  1  0.375000  0.125000  0.250000  1
  Ca  Ca3  1  0.125000  0.375000  0.750000  1
  Ca  Ca4  1  0.875000  0.750000  0.625000  1
  Ca  Ca5  1  0.750000  0.125000  0.375000  1
  Ca  Ca6  1  0.750000  0.625000  0.875000  1
  Ca  Ca7  1  0.625000  0.250000  0.875000  1
  Ca  Ca8  1  0.250000  0.875000  0.625000  1
  Ca  Ca9  1  0.875000  0.625000  0.250000  1
  Ca  Ca10  1  0.625000  0.875000  0.750000  1
  Ca  Ca11  1  0.250000  0.375000  0.125000  1
  Si  Si12  1  0.250000  0.125000  0.875000  1
  Si  Si13  1  0.750000  0.875000  0.125000  1
  Si  Si14  1  0.375000  0.250000  0.625000  1
  Si  Si15  1  0.625000  0.375000  0.250000  1
  Si  Si16  1  0.125000  0.750000  0.875000  1
  Si  Si17  1  0.875000  0.125000  0.750000  1
  Si  Si18  1  0.750000  0.375000  0.625000  1
  Si  Si19  1  0.375000  0.625000  0.750000  1
  Si  Si20  1  0.125000  0.875000  0.250000  1
  Si  Si21  1  0.875000  0.250000  0.125000  1
  Si  Si22  1  0.625000  0.750000  0.375000  1
  Si  Si23  1  0.250000  0.625000  0.375000  1
  Bi  Bi24  1  0.000000  0.000000  0.000000  1
  Bi  Bi25  1  0.000000  0.500000  0.000000  1
  Bi  Bi26  1  0.000000  0.000000  0.500000  1
  Bi  Bi27  1  0.000000  0.500000  0.500000  1
  Bi  Bi28  1  0.500000  0.000000  0.500000  1
  Bi  Bi29  1  0.500000  0.500000  0.000000  1
  Bi  Bi30  1  0.500000  0.500000  0.500000  1
  Bi  Bi31  1  0.500000  0.000000  0.000000  1
  O  O32  1  0.273150  0.483558  0.373226  1
  O  O33  1  0.016442  0.289591  0.889668  1
  O  O34  1  0.126774  0.610332  0.899923  1
  O  O35  1  0.226850  0.600077  0.210409  1
  O  O36  1  0.226850  0.126774  0.016442  1
  O  O37  1  0.600077  0.210409  0.226850  1
  O  O38  1  0.610332  0.210409  0.483558  1
  O  O39  1  0.210409  0.226850  0.600077  1
  O  O40  1  0.889668  0.373226  0.600077  1
  O  O41  1  0.289591  0.899923  0.273150  1
  O  O42  1  0.899923  0.273150  0.289591  1
  O  O43  1  0.016442  0.226850  0.126774  1
  O  O44  1  0.210409  0.483558  0.610332  1
  O  O45  1  0.600077  0.889668  0.373226  1
  O  O46  1  0.126774  0.016442  0.226850  1
  O  O47  1  0.483558  0.610332  0.210409  1
  O  O48  1  0.373226  0.600077  0.889668  1
  O  O49  1  0.889668  0.016442  0.289591  1
  O  O50  1  0.610332  0.899923  0.126774  1
  O  O51  1  0.110332  0.626774  0.399923  1
  O  O52  1  0.899923  0.126774  0.610332  1
  O  O53  1  0.373226  0.273150  0.483558  1
  O  O54  1  0.289591  0.889668  0.016442  1
  O  O55  1  0.273150  0.289591  0.899923  1
  O  O56  1  0.726850  0.516442  0.626774  1
  O  O57  1  0.983558  0.710409  0.110332  1
  O  O58  1  0.873226  0.389668  0.100077  1
  O  O59  1  0.773150  0.399923  0.789591  1
  O  O60  1  0.773150  0.873226  0.983558  1
  O  O61  1  0.399923  0.789591  0.773150  1
  O  O62  1  0.389668  0.789591  0.516442  1
  O  O63  1  0.789591  0.773150  0.399923  1
  O  O64  1  0.726850  0.710409  0.100077  1
  O  O65  1  0.710409  0.110332  0.983558  1
  O  O66  1  0.626774  0.726850  0.516442  1
  O  O67  1  0.516442  0.626774  0.726850  1
  O  O68  1  0.100077  0.873226  0.389668  1
  O  O69  1  0.389668  0.100077  0.873226  1
  O  O70  1  0.110332  0.983558  0.710409  1
  O  O71  1  0.626774  0.399923  0.110332  1
  O  O72  1  0.516442  0.389668  0.789591  1
  O  O73  1  0.873226  0.983558  0.773150  1
  O  O74  1  0.399923  0.110332  0.626774  1
  O  O75  1  0.789591  0.516442  0.389668  1
  O  O76  1  0.983558  0.773150  0.873226  1
  O  O77  1  0.100077  0.726850  0.710409  1
  O  O78  1  0.710409  0.100077  0.726850  1
  O  O79  1  0.483558  0.373226  0.273150  1
