# generated using pymatgen
data_LaMgFeNiO6
_symmetry_space_group_name_H-M   'P 1'
_cell_length_a   5.44941094
_cell_length_b   5.32298055
_cell_length_c   7.61682940
_cell_angle_alpha   89.76811242
_cell_angle_beta   90.00000000
_cell_angle_gamma   90.00000000
_symmetry_Int_Tables_number   1
_chemical_formula_structural   LaMgFeNiO6
_chemical_formula_sum   'La2 Mg2 Fe2 Ni2 O12'
_cell_volume   220.94038677
_cell_formula_units_Z   2
loop_
 _symmetry_equiv_pos_site_id
 _symmetry_equiv_pos_as_xyz
  1  'x, y, z'
loop_
 _atom_site_type_symbol
 _atom_site_label
 _atom_site_symmetry_multiplicity
 _atom_site_fract_x
 _atom_site_fract_y
 _atom_site_fract_z
 _atom_site_occupancy
  La  La0  1  0.034758  0.992628  0.249769  1
  La  La1  1  0.465242  0.492628  0.749769  1
  Mg  Mg2  1  0.557012  0.527530  0.248323  1
  Mg  Mg3  1  0.942988  0.027530  0.748323  1
  Fe  Fe4  1  0.501538  0.000911  0.002190  1
  Fe  Fe5  1  0.998462  0.500911  0.502190  1
  Ni  Ni6  1  0.497317  0.000650  0.498282  1
  Ni  Ni7  1  0.002683  0.500650  0.998282  1
  O  O8  1  0.020047  0.629663  0.744233  1
  O  O9  1  0.204653  0.187393  0.941254  1
  O  O10  1  0.195240  0.197846  0.557012  1
  O  O11  1  0.304760  0.697846  0.057012  1
  O  O12  1  0.295347  0.687393  0.441254  1
  O  O13  1  0.479953  0.129663  0.244232  1
  O  O14  1  0.548546  0.928273  0.754276  1
  O  O15  1  0.737611  0.270071  0.556059  1
  O  O16  1  0.734438  0.265036  0.948600  1
  O  O17  1  0.765562  0.765036  0.448600  1
  O  O18  1  0.762389  0.770071  0.056059  1
  O  O19  1  0.951454  0.428273  0.254276  1
