# generated using pymatgen
data_Mg(AgO2)2
_symmetry_space_group_name_H-M   'P 1'
_cell_length_a   3.18526601
_cell_length_b   9.82492056
_cell_length_c   10.82439925
_cell_angle_alpha   90.00000000
_cell_angle_beta   90.00000000
_cell_angle_gamma   90.00000000
_symmetry_Int_Tables_number   1
_chemical_formula_structural   Mg(AgO2)2
_chemical_formula_sum   'Mg4 Ag8 O16'
_cell_volume   338.74941769
_cell_formula_units_Z   4
loop_
 _symmetry_equiv_pos_site_id
 _symmetry_equiv_pos_as_xyz
  1  'x, y, z'
loop_
 _atom_site_type_symbol
 _atom_site_label
 _atom_site_symmetry_multiplicity
 _atom_site_fract_x
 _atom_site_fract_y
 _atom_site_fract_z
 _atom_site_occupancy
  Mg  Mg0  1  0.344158  0.750000  0.148584  1
  Mg  Mg1  1  0.344158  0.250000  0.351416  1
  Mg  Mg2  1  0.655842  0.750000  0.648584  1
  Mg  Mg3  1  0.655842  0.250000  0.851416  1
  Ag  Ag4  1  0.834510  0.571516  0.384622  1
  Ag  Ag5  1  0.834510  0.071516  0.115378  1
  Ag  Ag6  1  0.165490  0.071516  0.615378  1
  Ag  Ag7  1  0.834510  0.428484  0.115378  1
  Ag  Ag8  1  0.165490  0.428484  0.615378  1
  Ag  Ag9  1  0.834510  0.928484  0.384622  1
  Ag  Ag10  1  0.165490  0.928484  0.884622  1
  Ag  Ag11  1  0.165490  0.571516  0.884622  1
  O  O12  1  0.132737  0.874966  0.549767  1
  O  O13  1  0.867263  0.125034  0.450233  1
  O  O14  1  0.463591  -0.000000  0.250000  1
  O  O15  1  0.867263  0.874966  0.049767  1
  O  O16  1  0.867263  0.625034  0.049767  1
  O  O17  1  0.836096  0.250000  0.215218  1
  O  O18  1  0.132737  0.125034  0.950233  1
  O  O19  1  0.163904  0.250000  0.715218  1
  O  O20  1  0.463591  0.500000  0.250000  1
  O  O21  1  0.536409  -0.000000  0.750000  1
  O  O22  1  0.132737  0.625034  0.549767  1
  O  O23  1  0.163904  0.750000  0.784782  1
  O  O24  1  0.836096  0.750000  0.284782  1
  O  O25  1  0.536409  0.500000  0.750000  1
  O  O26  1  0.132737  0.374966  0.950233  1
  O  O27  1  0.867263  0.374966  0.450233  1
