# generated using pymatgen
data_Sr2YAlW2O7
_symmetry_space_group_name_H-M   'P 1'
_cell_length_a   12.23772845
_cell_length_b   12.23772843
_cell_length_c   12.23772843
_cell_angle_alpha   38.64147677
_cell_angle_beta   152.48803300
_cell_angle_gamma   153.40000337
_symmetry_Int_Tables_number   1
_chemical_formula_structural   Sr2YAlW2O7
_chemical_formula_sum   'Sr4 Y2 Al2 W4 O14'
_cell_volume   378.44097622
_cell_formula_units_Z   2
loop_
 _symmetry_equiv_pos_site_id
 _symmetry_equiv_pos_as_xyz
  1  'x, y, z'
loop_
 _atom_site_type_symbol
 _atom_site_label
 _atom_site_symmetry_multiplicity
 _atom_site_fract_x
 _atom_site_fract_y
 _atom_site_fract_z
 _atom_site_occupancy
  Sr  Sr0  1  0.030344  0.837170  0.870640  1
  Sr  Sr1  1  0.966532  0.159706  0.129361  1
  Sr  Sr2  1  0.030344  0.659706  0.693174  1
  Sr  Sr3  1  0.966532  0.337170  0.306827  1
  Y  Y4  1  0.021344  0.521344  0.500000  1
  Y  Y5  1  0.021344  0.021344  1.000000  1
  Al  Al6  1  0.568984  0.742413  0.326572  1
  Al  Al7  1  0.415841  0.242413  0.673429  1
  W  W8  1  0.520402  0.466221  0.943818  1
  W  W9  1  0.522404  0.576585  0.056181  1
  W  W10  1  0.520402  0.076584  0.554181  1
  W  W11  1  0.522404  0.966225  0.445820  1
  O  O12  1  0.013685  0.932000  0.581685  1
  O  O13  1  0.350315  0.432000  0.418315  1
  O  O14  1  0.409875  0.140850  0.121173  1
  O  O15  1  0.019684  0.288704  0.878831  1
  O  O16  1  0.409875  0.788703  0.769026  1
  O  O17  1  0.019684  0.640852  0.230979  1
  O  O18  1  0.636723  0.755561  0.731412  1
  O  O19  1  0.024139  0.905307  0.268583  1
  O  O20  1  0.636723  0.405313  0.381164  1
  O  O21  1  0.024139  0.255555  0.618831  1
  O  O22  1  0.486086  0.863764  0.255709  1
  O  O23  1  0.608055  0.230376  0.744291  1
  O  O24  1  0.486086  0.730376  0.122322  1
  O  O25  1  0.608055  0.363764  0.877678  1
