# generated using pymatgen
data_ZnNiAsO5
_symmetry_space_group_name_H-M   'P 1'
_cell_length_a   7.89699761
_cell_length_b   5.99299918
_cell_length_c   8.23620161
_cell_angle_alpha   90.00335642
_cell_angle_beta   90.00650170
_cell_angle_gamma   90.01715479
_symmetry_Int_Tables_number   1
_chemical_formula_structural   ZnNiAsO5
_chemical_formula_sum   'Zn4 Ni4 As4 O20'
_cell_volume   389.79222375
_cell_formula_units_Z   4
loop_
 _symmetry_equiv_pos_site_id
 _symmetry_equiv_pos_as_xyz
  1  'x, y, z'
loop_
 _atom_site_type_symbol
 _atom_site_label
 _atom_site_symmetry_multiplicity
 _atom_site_fract_x
 _atom_site_fract_y
 _atom_site_fract_z
 _atom_site_occupancy
  Zn  Zn0  1  0.948836  0.722287  0.060664  1
  Zn  Zn1  1  0.551796  0.278026  0.560722  1
  Zn  Zn2  1  0.448574  0.777658  0.939409  1
  Zn  Zn3  1  0.051374  0.222259  0.439252  1
  Ni  Ni4  1  0.997953  0.490653  0.748929  1
  Ni  Ni5  1  0.502055  0.509231  0.249051  1
  Ni  Ni6  1  0.497882  0.009336  0.251073  1
  Ni  Ni7  1  0.002035  0.990713  0.750978  1
  As  As8  1  0.652550  0.262409  0.933798  1
  As  As9  1  0.847023  0.737690  0.433934  1
  As  As10  1  0.152942  0.237695  0.066011  1
  As  As11  1  0.347414  0.762342  0.566247  1
  O  O12  1  0.853037  0.242674  0.851942  1
  O  O13  1  0.647151  0.757370  0.351889  1
  O  O14  1  0.352797  0.257330  0.148094  1
  O  O15  1  0.146871  0.742630  0.647967  1
  O  O16  1  0.503102  0.283521  0.783849  1
  O  O17  1  0.997183  0.716395  0.283723  1
  O  O18  1  0.002781  0.216368  0.216259  1
  O  O19  1  0.496857  0.783507  0.716170  1
  O  O20  1  0.625664  0.015504  0.041876  1
  O  O21  1  0.874197  0.984533  0.541830  1
  O  O22  1  0.125853  0.484526  0.958104  1
  O  O23  1  0.374325  0.515352  0.458239  1
  O  O24  1  0.643677  0.505816  0.048692  1
  O  O25  1  0.856063  0.494254  0.548720  1
  O  O26  1  0.143701  0.994269  0.951256  1
  O  O27  1  0.356279  0.005724  0.451319  1
  O  O28  1  0.884204  0.742539  0.836336  1
  O  O29  1  0.615864  0.257420  0.336263  1
  O  O30  1  0.384152  0.757334  0.163826  1
  O  O31  1  0.115808  0.242636  0.663577  1
