# generated using pymatgen
data_Ba2YW3O7
_symmetry_space_group_name_H-M   'P 1'
_cell_length_a   4.08598391
_cell_length_b   4.20713712
_cell_length_c   11.86706344
_cell_angle_alpha   90.00001302
_cell_angle_beta   90.00003722
_cell_angle_gamma   90.00000000
_symmetry_Int_Tables_number   1
_chemical_formula_structural   Ba2YW3O7
_chemical_formula_sum   'Ba2 Y1 W3 O7'
_cell_volume   203.99831633
_cell_formula_units_Z   1
loop_
 _symmetry_equiv_pos_site_id
 _symmetry_equiv_pos_as_xyz
  1  'x, y, z'
loop_
 _atom_site_type_symbol
 _atom_site_label
 _atom_site_symmetry_multiplicity
 _atom_site_fract_x
 _atom_site_fract_y
 _atom_site_fract_z
 _atom_site_occupancy
  Ba  Ba0  1  0.500000  0.500000  0.815384  1
  Ba  Ba1  1  0.500000  0.500000  0.184707  1
  Y  Y2  1  0.500000  0.500000  0.499839  1
  W  W3  1  0.000000  0.000000  0.616922  1
  W  W4  1  1.000000  1.000000  0.383275  1
  W  W5  1  1.000000  1.000000  0.000046  1
  O  O6  1  0.000000  0.500000  0.999979  1
  O  O7  1  0.500000  0.999999  0.651750  1
  O  O8  1  0.499999  0.000000  0.348040  1
  O  O9  1  1.000000  0.500000  0.631715  1
  O  O10  1  0.000000  0.500000  0.368371  1
  O  O11  1  0.000000  0.000000  0.837712  1
  O  O12  1  1.000000  1.000000  0.162263  1
