# generated using pymatgen
data_MgTiO3
_symmetry_space_group_name_H-M   'P 1'
_cell_length_a   5.10085725
_cell_length_b   5.30255225
_cell_length_c   7.46431637
_cell_angle_alpha   90.00000000
_cell_angle_beta   90.00000000
_cell_angle_gamma   90.00000000
_symmetry_Int_Tables_number   1
_chemical_formula_structural   MgTiO3
_chemical_formula_sum   'Mg4 Ti4 O12'
_cell_volume   201.89156046
_cell_formula_units_Z   4
loop_
 _symmetry_equiv_pos_site_id
 _symmetry_equiv_pos_as_xyz
  1  'x, y, z'
loop_
 _atom_site_type_symbol
 _atom_site_label
 _atom_site_symmetry_multiplicity
 _atom_site_fract_x
 _atom_site_fract_y
 _atom_site_fract_z
 _atom_site_occupancy
  Mg  Mg0  1  0.990601  0.054553  0.249999  1
  Mg  Mg1  1  0.490601  0.445447  0.750000  1
  Mg  Mg2  1  0.509399  0.554554  0.249999  1
  Mg  Mg3  1  0.009399  0.945448  0.750000  1
  Ti  Ti4  1  0.500000  0.000000  0.000000  1
  Ti  Ti5  1  0.000000  0.499999  0.000000  1
  Ti  Ti6  1  0.000000  0.499999  0.500000  1
  Ti  Ti7  1  0.500000  0.000000  0.500000  1
  O  O8  1  0.877005  0.556239  0.750000  1
  O  O9  1  0.377005  0.943763  0.249999  1
  O  O10  1  0.622995  0.056238  0.750000  1
  O  O11  1  0.122995  0.443762  0.249999  1
  O  O12  1  0.682951  0.312495  0.435277  1
  O  O13  1  0.182951  0.187506  0.564724  1
  O  O14  1  0.817049  0.812494  0.064724  1
  O  O15  1  0.317049  0.687505  0.935276  1
  O  O16  1  0.682951  0.312495  0.064724  1
  O  O17  1  0.182951  0.187506  0.935276  1
  O  O18  1  0.317049  0.687505  0.564724  1
  O  O19  1  0.817049  0.812494  0.435277  1
