# generated using pymatgen
data_Ba2YTlV2O7
_symmetry_space_group_name_H-M   'P 1'
_cell_length_a   3.96788398
_cell_length_b   3.96885515
_cell_length_c   13.39340020
_cell_angle_alpha   89.99490788
_cell_angle_beta   89.99644266
_cell_angle_gamma   89.77912055
_symmetry_Int_Tables_number   1
_chemical_formula_structural   Ba2YTlV2O7
_chemical_formula_sum   'Ba2 Y1 Tl1 V2 O7'
_cell_volume   210.91711890
_cell_formula_units_Z   1
loop_
 _symmetry_equiv_pos_site_id
 _symmetry_equiv_pos_as_xyz
  1  'x, y, z'
loop_
 _atom_site_type_symbol
 _atom_site_label
 _atom_site_symmetry_multiplicity
 _atom_site_fract_x
 _atom_site_fract_y
 _atom_site_fract_z
 _atom_site_occupancy
  Ba  Ba0  1  0.499409  0.500585  0.189654  1
  Ba  Ba1  1  0.500355  0.499270  0.810427  1
  Y  Y2  1  0.500150  0.499772  0.500094  1
  Tl  Tl3  1  0.000028  -0.000054  0.000052  1
  V  V4  1  -0.000759  0.000014  0.358405  1
  V  V5  1  0.000318  0.000769  0.641259  1
  O  O6  1  0.999878  0.000519  0.216452  1
  O  O7  1  0.000375  0.499461  0.396058  1
  O  O8  1  0.500369  0.999470  0.395987  1
  O  O9  1  0.499808  0.000256  0.603876  1
  O  O10  1  0.499908  0.499891  0.000025  1
  O  O11  1  0.999965  0.500493  0.604020  1
  O  O12  1  0.000194  0.999555  0.783692  1
