# generated using pymatgen
data_Ca2SnIrO6
_symmetry_space_group_name_H-M   'P 1'
_cell_length_a   5.50500222
_cell_length_b   5.69932522
_cell_length_c   7.89596512
_cell_angle_alpha   90.00000000
_cell_angle_beta   89.52195982
_cell_angle_gamma   90.00000000
_symmetry_Int_Tables_number   1
_chemical_formula_structural   Ca2SnIrO6
_chemical_formula_sum   'Ca4 Sn2 Ir2 O12'
_cell_volume   247.72568784
_cell_formula_units_Z   2
loop_
 _symmetry_equiv_pos_site_id
 _symmetry_equiv_pos_as_xyz
  1  'x, y, z'
loop_
 _atom_site_type_symbol
 _atom_site_label
 _atom_site_symmetry_multiplicity
 _atom_site_fract_x
 _atom_site_fract_y
 _atom_site_fract_z
 _atom_site_occupancy
  Ca  Ca0  1  0.015212  0.942184  0.249884  1
  Ca  Ca1  1  0.484788  0.442184  0.250116  1
  Ca  Ca2  1  0.515212  0.557816  0.749884  1
  Ca  Ca3  1  0.984788  0.057816  0.750116  1
  Sn  Sn4  1  0.000000  0.500000  0.000000  1
  Sn  Sn5  1  0.500000  0.000000  0.500000  1
  Ir  Ir6  1  0.000000  0.500000  0.500000  1
  Ir  Ir7  1  0.500000  0.000000  0.000000  1
  O  O8  1  0.105450  0.462260  0.745510  1
  O  O9  1  0.199093  0.196011  0.054403  1
  O  O10  1  0.190240  0.201047  0.444824  1
  O  O11  1  0.309760  0.701047  0.055176  1
  O  O12  1  0.300907  0.696011  0.445597  1
  O  O13  1  0.394550  0.962260  0.754490  1
  O  O14  1  0.605450  0.037740  0.245510  1
  O  O15  1  0.699093  0.303989  0.554403  1
  O  O16  1  0.690240  0.298953  0.944824  1
  O  O17  1  0.800907  0.803989  0.945597  1
  O  O18  1  0.809760  0.798953  0.555176  1
  O  O19  1  0.894550  0.537740  0.254490  1
