# generated using pymatgen
data_CaMo2O5
_symmetry_space_group_name_H-M   'P 1'
_cell_length_a   3.58466892
_cell_length_b   5.21457399
_cell_length_c   13.05172938
_cell_angle_alpha   90.08775745
_cell_angle_beta   90.28586619
_cell_angle_gamma   89.98040967
_symmetry_Int_Tables_number   1
_chemical_formula_structural   CaMo2O5
_chemical_formula_sum   'Ca2 Mo4 O10'
_cell_volume   243.96639355
_cell_formula_units_Z   2
loop_
 _symmetry_equiv_pos_site_id
 _symmetry_equiv_pos_as_xyz
  1  'x, y, z'
loop_
 _atom_site_type_symbol
 _atom_site_label
 _atom_site_symmetry_multiplicity
 _atom_site_fract_x
 _atom_site_fract_y
 _atom_site_fract_z
 _atom_site_occupancy
  Ca  Ca0  1  0.748952  0.949225  0.249190  1
  Ca  Ca1  1  0.251685  0.053811  0.749777  1
  Mo  Mo2  1  0.252550  0.470923  0.104838  1
  Mo  Mo3  1  0.748053  0.532307  0.894111  1
  Mo  Mo4  1  0.753591  0.531314  0.604863  1
  Mo  Mo5  1  0.247033  0.471569  0.394102  1
  O  O6  1  0.751619  0.368120  0.749556  1
  O  O7  1  0.249050  0.634920  0.249441  1
  O  O8  1  0.750730  0.616426  0.065538  1
  O  O9  1  0.249880  0.386827  0.933476  1
  O  O10  1  0.748910  0.616549  0.433794  1
  O  O11  1  0.251704  0.386239  0.565224  1
  O  O12  1  0.234738  0.127542  0.358651  1
  O  O13  1  0.765842  0.875257  0.640382  1
  O  O14  1  0.737546  0.876296  0.859371  1
  O  O15  1  0.263151  0.126872  0.139655  1
