# generated using pymatgen
data_Zn(FeO2)2
_symmetry_space_group_name_H-M   'P 1'
_cell_length_a   2.94995637
_cell_length_b   10.06987409
_cell_length_c   9.73639696
_cell_angle_alpha   89.99721888
_cell_angle_beta   90.02132917
_cell_angle_gamma   90.04136034
_symmetry_Int_Tables_number   1
_chemical_formula_structural   Zn(FeO2)2
_chemical_formula_sum   'Zn4 Fe8 O16'
_cell_volume   289.22628668
_cell_formula_units_Z   4
loop_
 _symmetry_equiv_pos_site_id
 _symmetry_equiv_pos_as_xyz
  1  'x, y, z'
loop_
 _atom_site_type_symbol
 _atom_site_label
 _atom_site_symmetry_multiplicity
 _atom_site_fract_x
 _atom_site_fract_y
 _atom_site_fract_z
 _atom_site_occupancy
  Zn  Zn0  1  0.301062  0.749915  0.138358  1
  Zn  Zn1  1  0.301969  0.249913  0.361602  1
  Zn  Zn2  1  0.697798  0.750072  0.638406  1
  Zn  Zn3  1  0.699056  0.250064  0.861651  1
  Fe  Fe4  1  0.763811  0.574094  0.381578  1
  Fe  Fe5  1  0.763814  0.074095  0.118423  1
  Fe  Fe6  1  0.236671  0.074120  0.618476  1
  Fe  Fe7  1  0.763585  0.425887  0.118487  1
  Fe  Fe8  1  0.236264  0.425895  0.618428  1
  Fe  Fe9  1  0.763558  0.925880  0.381538  1
  Fe  Fe10  1  0.235961  0.925924  0.881573  1
  Fe  Fe11  1  0.236408  0.574107  0.881526  1
  O  O12  1  0.260884  0.886688  0.519604  1
  O  O13  1  0.739384  0.113328  0.480379  1
  O  O14  1  0.264978  0.000012  0.250001  1
  O  O15  1  0.738635  0.886669  0.019604  1
  O  O16  1  0.739481  0.613340  0.019635  1
  O  O17  1  0.793907  0.250005  0.214845  1
  O  O18  1  0.261091  0.113337  0.980392  1
  O  O19  1  0.206691  0.250005  0.714856  1
  O  O20  1  0.265005  0.500034  0.249980  1
  O  O21  1  0.735009  -0.000007  0.749991  1
  O  O22  1  0.261528  0.613315  0.519594  1
  O  O23  1  0.205880  0.749996  0.785140  1
  O  O24  1  0.793432  0.749991  0.285137  1
  O  O25  1  0.735034  0.499977  0.750019  1
  O  O26  1  0.260496  0.386662  0.980375  1
  O  O27  1  0.738608  0.386682  0.480402  1
