# generated using pymatgen
data_ZnGe2WO6
_symmetry_space_group_name_H-M   'P 1'
_cell_length_a   5.53595919
_cell_length_b   8.75955962
_cell_length_c   12.57236962
_cell_angle_alpha   90.00000000
_cell_angle_beta   102.22881943
_cell_angle_gamma   90.00000000
_symmetry_Int_Tables_number   1
_chemical_formula_structural   ZnGe2WO6
_chemical_formula_sum   'Zn4 Ge8 W4 O24'
_cell_volume   595.83279389
_cell_formula_units_Z   4
loop_
 _symmetry_equiv_pos_site_id
 _symmetry_equiv_pos_as_xyz
  1  'x, y, z'
loop_
 _atom_site_type_symbol
 _atom_site_label
 _atom_site_symmetry_multiplicity
 _atom_site_fract_x
 _atom_site_fract_y
 _atom_site_fract_z
 _atom_site_occupancy
  Zn  Zn0  1  0.447192  0.449735  0.222865  1
  Zn  Zn1  1  0.052808  0.949735  0.777135  1
  Zn  Zn2  1  0.552808  0.550265  0.777135  1
  Zn  Zn3  1  0.947192  0.050265  0.222865  1
  Ge  Ge4  1  0.851538  0.365896  0.084537  1
  Ge  Ge5  1  0.648462  0.865896  0.915463  1
  Ge  Ge6  1  0.148462  0.634104  0.915463  1
  Ge  Ge7  1  0.351538  0.134104  0.084537  1
  Ge  Ge8  1  0.214348  0.339641  0.461363  1
  Ge  Ge9  1  0.285652  0.839641  0.538637  1
  Ge  Ge10  1  0.785652  0.660359  0.538637  1
  Ge  Ge11  1  0.714348  0.160359  0.461363  1
  W  W12  1  0.981860  0.657515  0.297418  1
  W  W13  1  0.518140  0.157515  0.702582  1
  W  W14  1  0.018140  0.342485  0.702582  1
  W  W15  1  0.481860  0.842485  0.297418  1
  O  O16  1  0.466182  0.284677  0.400500  1
  O  O17  1  0.033818  0.784677  0.599500  1
  O  O18  1  0.533818  0.715323  0.599500  1
  O  O19  1  0.966182  0.215323  0.400500  1
  O  O20  1  0.196240  0.306767  0.149113  1
  O  O21  1  0.303761  0.806767  0.850888  1
  O  O22  1  0.803761  0.693233  0.850888  1
  O  O23  1  0.696239  0.193233  0.149113  1
  O  O24  1  0.664123  0.972739  0.420568  1
  O  O25  1  0.835877  0.472739  0.579432  1
  O  O26  1  0.335877  0.027261  0.579432  1
  O  O27  1  0.164123  0.527261  0.420568  1
  O  O28  1  0.283607  0.005954  0.201430  1
  O  O29  1  0.216393  0.505954  0.798570  1
  O  O30  1  0.716393  0.994046  0.798570  1
  O  O31  1  0.783607  0.494046  0.201430  1
  O  O32  1  0.709068  0.344873  0.773307  1
  O  O33  1  0.790932  0.844873  0.226693  1
  O  O34  1  0.290932  0.655127  0.226693  1
  O  O35  1  0.209068  0.155127  0.773307  1
  O  O36  1  0.297086  0.330737  0.605686  1
  O  O37  1  0.202914  0.830737  0.394314  1
  O  O38  1  0.702914  0.669263  0.394314  1
  O  O39  1  0.797086  0.169263  0.605686  1
