# generated using pymatgen
data_ZnCoNiP2O9
_symmetry_space_group_name_H-M   'P 1'
_cell_length_a   6.23776261
_cell_length_b   7.28007057
_cell_length_c   14.06452664
_cell_angle_alpha   89.97522784
_cell_angle_beta   90.00079317
_cell_angle_gamma   90.00167852
_symmetry_Int_Tables_number   1
_chemical_formula_structural   ZnCoNiP2O9
_chemical_formula_sum   'Zn4 Co4 Ni4 P8 O36'
_cell_volume   638.68911006
_cell_formula_units_Z   4
loop_
 _symmetry_equiv_pos_site_id
 _symmetry_equiv_pos_as_xyz
  1  'x, y, z'
loop_
 _atom_site_type_symbol
 _atom_site_label
 _atom_site_symmetry_multiplicity
 _atom_site_fract_x
 _atom_site_fract_y
 _atom_site_fract_z
 _atom_site_occupancy
  Zn  Zn0  1  0.749981  0.877879  0.775042  1
  Zn  Zn1  1  0.750044  0.621923  0.275097  1
  Zn  Zn2  1  0.250029  0.121964  0.224905  1
  Zn  Zn3  1  0.249889  0.377674  0.724950  1
  Co  Co4  1  0.749990  0.348922  0.881945  1
  Co  Co5  1  0.250019  0.651091  0.118061  1
  Co  Co6  1  0.249993  0.848836  0.618017  1
  Co  Co7  1  0.750046  0.151247  0.381978  1
  Ni  Ni8  1  0.500037  0.999897  0.999944  1
  Ni  Ni9  1  0.500172  0.499865  0.500162  1
  Ni  Ni10  1  0.000053  0.500071  0.499993  1
  Ni  Ni11  1  0.000019  0.000026  0.000059  1
  P  P12  1  0.250008  0.354468  0.933387  1
  P  P13  1  0.750003  0.645511  0.066638  1
  P  P14  1  0.749976  0.854544  0.566617  1
  P  P15  1  0.249964  0.145464  0.433366  1
  P  P16  1  0.749937  0.384281  0.699933  1
  P  P17  1  0.250050  0.615823  0.300072  1
  P  P18  1  0.249972  0.884443  0.800015  1
  P  P19  1  0.749996  0.115617  0.199965  1
  O  O20  1  0.038404  0.605608  0.358486  1
  O  O21  1  0.538275  0.394453  0.641551  1
  O  O22  1  0.961598  0.105669  0.141517  1
  O  O23  1  0.461615  0.894303  0.858459  1
  O  O24  1  0.961566  0.394447  0.641511  1
  O  O25  1  0.461695  0.605589  0.358491  1
  O  O26  1  0.038357  0.894378  0.858463  1
  O  O27  1  0.538436  0.105745  0.141495  1
  O  O28  1  0.249956  0.334032  0.482339  1
  O  O29  1  0.749960  0.665986  0.517626  1
  O  O30  1  0.750053  0.834243  0.017755  1
  O  O31  1  0.250033  0.165788  0.982313  1
  O  O32  1  0.750025  0.148618  0.949745  1
  O  O33  1  0.250003  0.851388  0.050285  1
  O  O34  1  0.249972  0.648550  0.550295  1
  O  O35  1  0.750041  0.351414  0.449676  1
  O  O36  1  0.749933  0.203781  0.761009  1
  O  O37  1  0.250061  0.796327  0.238998  1
  O  O38  1  0.249977  0.704077  0.738992  1
  O  O39  1  0.750000  0.295968  0.260961  1
  O  O40  1  0.438200  0.131420  0.361541  1
  O  O41  1  0.938249  0.868592  0.638441  1
  O  O42  1  0.561748  0.631344  0.138458  1
  O  O43  1  0.061760  0.368611  0.861530  1
  O  O44  1  0.561764  0.868547  0.638479  1
  O  O45  1  0.061695  0.131297  0.361533  1
  O  O46  1  0.438237  0.368599  0.861527  1
  O  O47  1  0.938258  0.631275  0.138457  1
  O  O48  1  0.749952  0.960066  0.277761  1
  O  O49  1  0.250012  0.040114  0.722213  1
  O  O50  1  0.250027  0.460371  0.222299  1
  O  O51  1  0.749968  0.539719  0.777689  1
  O  O52  1  0.749964  0.002394  0.491764  1
  O  O53  1  0.250084  0.997639  0.508261  1
  O  O54  1  0.249991  0.502204  0.008321  1
  O  O55  1  0.749957  0.497900  0.991614  1
