# generated using pymatgen
data_ZnMo2O5
_symmetry_space_group_name_H-M   'P 1'
_cell_length_a   3.86333441
_cell_length_b   5.55601468
_cell_length_c   12.14336443
_cell_angle_alpha   90.00000000
_cell_angle_beta   90.00000000
_cell_angle_gamma   110.34494018
_symmetry_Int_Tables_number   1
_chemical_formula_structural   ZnMo2O5
_chemical_formula_sum   'Zn2 Mo4 O10'
_cell_volume   244.39367876
_cell_formula_units_Z   2
loop_
 _symmetry_equiv_pos_site_id
 _symmetry_equiv_pos_as_xyz
  1  'x, y, z'
loop_
 _atom_site_type_symbol
 _atom_site_label
 _atom_site_symmetry_multiplicity
 _atom_site_fract_x
 _atom_site_fract_y
 _atom_site_fract_z
 _atom_site_occupancy
  Zn  Zn0  1  0.901861  0.803721  0.750000  1
  Zn  Zn1  1  0.098140  0.196280  0.250000  1
  Mo  Mo2  1  0.200977  0.401953  0.598260  1
  Mo  Mo3  1  0.798965  0.597929  0.401766  1
  Mo  Mo4  1  0.798965  0.597929  0.098234  1
  Mo  Mo5  1  0.200977  0.401953  0.901740  1
  O  O6  1  0.701442  0.402886  0.250000  1
  O  O7  1  0.298573  0.597144  0.750000  1
  O  O8  1  0.233412  0.466825  0.074184  1
  O  O9  1  0.766601  0.533198  0.925825  1
  O  O10  1  0.766601  0.533198  0.574175  1
  O  O11  1  0.233412  0.466825  0.425815  1
  O  O12  1  0.029795  0.059588  0.631238  1
  O  O13  1  0.970247  0.940493  0.368734  1
  O  O14  1  0.029795  0.059588  0.868762  1
  O  O15  1  0.970247  0.940493  0.131267  1
