# generated using pymatgen
data_MgMnP2O7
_symmetry_space_group_name_H-M   'P 1'
_cell_length_a   6.59449001
_cell_length_b   6.42784056
_cell_length_c   6.76926734
_cell_angle_alpha   65.31789058
_cell_angle_beta   81.53655308
_cell_angle_gamma   80.64633934
_symmetry_Int_Tables_number   1
_chemical_formula_structural   MgMnP2O7
_chemical_formula_sum   'Mg2 Mn2 P4 O14'
_cell_volume   256.24778948
_cell_formula_units_Z   2
loop_
 _symmetry_equiv_pos_site_id
 _symmetry_equiv_pos_as_xyz
  1  'x, y, z'
loop_
 _atom_site_type_symbol
 _atom_site_label
 _atom_site_symmetry_multiplicity
 _atom_site_fract_x
 _atom_site_fract_y
 _atom_site_fract_z
 _atom_site_occupancy
  Mg  Mg0  1  0.853032  0.295863  0.137861  1
  Mg  Mg1  1  0.146968  0.704137  0.862139  1
  Mn  Mn2  1  0.671700  0.111870  0.764840  1
  Mn  Mn3  1  0.328300  0.888130  0.235160  1
  P  P4  1  0.165773  0.230003  0.755880  1
  P  P5  1  0.834227  0.769997  0.244120  1
  P  P6  1  0.625404  0.640142  0.694119  1
  P  P7  1  0.374596  0.359858  0.305881  1
  O  O8  1  0.755364  0.600003  0.484363  1
  O  O9  1  0.244636  0.399997  0.515637  1
  O  O10  1  0.016639  0.071568  0.747270  1
  O  O11  1  0.983361  0.928432  0.252730  1
  O  O12  1  0.598269  0.271034  0.367450  1
  O  O13  1  0.401731  0.728966  0.632550  1
  O  O14  1  0.350948  0.607133  0.128274  1
  O  O15  1  0.649052  0.392867  0.871725  1
  O  O16  1  0.931601  0.603916  0.137816  1
  O  O17  1  0.068399  0.396084  0.862184  1
  O  O18  1  0.646354  0.925671  0.134325  1
  O  O19  1  0.353646  0.074329  0.865675  1
  O  O20  1  0.259439  0.197927  0.265024  1
  O  O21  1  0.740561  0.802073  0.734976  1
