# generated using pymatgen
data_MgCu2(MoO4)2
_symmetry_space_group_name_H-M   'P 1'
_cell_length_a   6.74731981
_cell_length_b   8.56239950
_cell_length_c   12.32876443
_cell_angle_alpha   90.00000000
_cell_angle_beta   91.18543353
_cell_angle_gamma   90.00000000
_symmetry_Int_Tables_number   1
_chemical_formula_structural   MgCu2(MoO4)2
_chemical_formula_sum   'Mg4 Cu8 Mo8 O32'
_cell_volume   712.12031894
_cell_formula_units_Z   4
loop_
 _symmetry_equiv_pos_site_id
 _symmetry_equiv_pos_as_xyz
  1  'x, y, z'
loop_
 _atom_site_type_symbol
 _atom_site_label
 _atom_site_symmetry_multiplicity
 _atom_site_fract_x
 _atom_site_fract_y
 _atom_site_fract_z
 _atom_site_occupancy
  Mg  Mg0  1  0.113140  0.160975  0.050080  1
  Mg  Mg1  1  0.886860  0.839025  0.949920  1
  Mg  Mg2  1  0.886860  0.660975  0.449920  1
  Mg  Mg3  1  0.113140  0.339025  0.550080  1
  Cu  Cu4  1  0.766675  0.181559  0.870332  1
  Cu  Cu5  1  0.378542  0.054623  0.622217  1
  Cu  Cu6  1  0.621458  0.945377  0.377783  1
  Cu  Cu7  1  0.233325  0.818441  0.129668  1
  Cu  Cu8  1  0.766675  0.318441  0.370332  1
  Cu  Cu9  1  0.378542  0.445377  0.122217  1
  Cu  Cu10  1  0.233325  0.681559  0.629668  1
  Cu  Cu11  1  0.621458  0.554623  0.877783  1
  Mo  Mo12  1  0.102353  0.459616  0.845674  1
  Mo  Mo13  1  0.102353  0.040384  0.345674  1
  Mo  Mo14  1  0.612131  0.083950  0.131922  1
  Mo  Mo15  1  0.897647  0.959616  0.654326  1
  Mo  Mo16  1  0.387869  0.916050  0.868078  1
  Mo  Mo17  1  0.387869  0.583950  0.368078  1
  Mo  Mo18  1  0.612131  0.416050  0.631922  1
  Mo  Mo19  1  0.897647  0.540384  0.154326  1
  O  O20  1  0.043395  0.234357  0.399054  1
  O  O21  1  0.661172  0.013648  0.598045  1
  O  O22  1  0.181031  0.572425  0.467228  1
  O  O23  1  0.818969  0.072425  0.032772  1
  O  O24  1  0.043395  0.265643  0.899054  1
  O  O25  1  0.956605  0.765643  0.600946  1
  O  O26  1  0.078146  0.108564  0.613227  1
  O  O27  1  0.507841  0.894852  0.137200  1
  O  O28  1  0.507841  0.605148  0.637200  1
  O  O29  1  0.308247  0.869030  0.729193  1
  O  O30  1  0.691753  0.369030  0.770807  1
  O  O31  1  0.492159  0.105148  0.862800  1
  O  O32  1  0.921854  0.891436  0.386773  1
  O  O33  1  0.878215  0.542580  0.301019  1
  O  O34  1  0.411717  0.287413  0.585059  1
  O  O35  1  0.411717  0.212587  0.085059  1
  O  O36  1  0.121785  0.042580  0.198981  1
  O  O37  1  0.492159  0.394852  0.362800  1
  O  O38  1  0.121785  0.457420  0.698981  1
  O  O39  1  0.818969  0.427575  0.532772  1
  O  O40  1  0.661172  0.486352  0.098045  1
  O  O41  1  0.691753  0.130970  0.270807  1
  O  O42  1  0.956605  0.734357  0.100946  1
  O  O43  1  0.078146  0.391436  0.113227  1
  O  O44  1  0.181031  0.927575  0.967228  1
  O  O45  1  0.588283  0.787413  0.914941  1
  O  O46  1  0.338828  0.986352  0.401955  1
  O  O47  1  0.338828  0.513648  0.901955  1
  O  O48  1  0.921854  0.608564  0.886773  1
  O  O49  1  0.588283  0.712587  0.414941  1
  O  O50  1  0.308247  0.630970  0.229193  1
  O  O51  1  0.878215  0.957420  0.801019  1
