# generated using pymatgen
data_Mg2Ta2CrO8
_symmetry_space_group_name_H-M   'P 1'
_cell_length_a   5.22839195
_cell_length_b   6.05711825
_cell_length_c   10.14367957
_cell_angle_alpha   107.03539553
_cell_angle_beta   91.58847838
_cell_angle_gamma   90.16435615
_symmetry_Int_Tables_number   1
_chemical_formula_structural   Mg2Ta2CrO8
_chemical_formula_sum   'Mg4 Ta4 Cr2 O16'
_cell_volume   307.00699629
_cell_formula_units_Z   2
loop_
 _symmetry_equiv_pos_site_id
 _symmetry_equiv_pos_as_xyz
  1  'x, y, z'
loop_
 _atom_site_type_symbol
 _atom_site_label
 _atom_site_symmetry_multiplicity
 _atom_site_fract_x
 _atom_site_fract_y
 _atom_site_fract_z
 _atom_site_occupancy
  Mg  Mg0  1  0.756200  0.418671  0.546465  1
  Mg  Mg1  1  0.743830  0.870755  0.451989  1
  Mg  Mg2  1  0.244227  0.582423  0.451471  1
  Mg  Mg3  1  0.256501  0.130454  0.545664  1
  Ta  Ta4  1  0.735842  0.279763  0.236440  1
  Ta  Ta5  1  0.765371  0.042193  0.761876  1
  Ta  Ta6  1  0.264681  0.720311  0.761878  1
  Ta  Ta7  1  0.235264  0.960034  0.236254  1
  Cr  Cr8  1  0.747408  0.653614  0.999453  1
  Cr  Cr9  1  0.247431  0.347952  0.999734  1
  O  O10  1  0.065559  0.188750  0.147810  1
  O  O11  1  0.437070  0.031958  0.848956  1
  O  O12  1  0.936004  0.814858  0.849343  1
  O  O13  1  0.564674  0.965352  0.148423  1
  O  O14  1  0.578294  0.422773  0.118092  1
  O  O15  1  0.917550  0.305175  0.880542  1
  O  O16  1  0.415430  0.573992  0.881353  1
  O  O17  1  0.075971  0.701174  0.118738  1
  O  O18  1  0.448509  0.290998  0.373045  1
  O  O19  1  0.051275  0.917540  0.624909  1
  O  O20  1  0.372961  0.840086  0.383889  1
  O  O21  1  0.126681  0.454474  0.613859  1
  O  O22  1  0.626733  0.160844  0.613762  1
  O  O23  1  0.873118  0.546558  0.383844  1
  O  O24  1  0.948554  0.084713  0.372709  1
  O  O25  1  0.551077  0.708673  0.624547  1
