# generated using pymatgen
data_CaTiMn(PO4)3
_symmetry_space_group_name_H-M   'P 1'
_cell_length_a   8.87469417
_cell_length_b   8.87469439
_cell_length_c   8.87469459
_cell_angle_alpha   58.43259698
_cell_angle_beta   58.43259985
_cell_angle_gamma   58.43260500
_symmetry_Int_Tables_number   1
_chemical_formula_structural   CaTiMn(PO4)3
_chemical_formula_sum   'Ca2 Ti2 Mn2 P6 O24'
_cell_volume   476.52008033
_cell_formula_units_Z   2
loop_
 _symmetry_equiv_pos_site_id
 _symmetry_equiv_pos_as_xyz
  1  'x, y, z'
loop_
 _atom_site_type_symbol
 _atom_site_label
 _atom_site_symmetry_multiplicity
 _atom_site_fract_x
 _atom_site_fract_y
 _atom_site_fract_z
 _atom_site_occupancy
  Ca  Ca0  1  0.997912  0.997912  0.997912  1
  Ca  Ca1  1  0.497912  0.497912  0.497912  1
  Ti  Ti2  1  0.146448  0.146448  0.146448  1
  Ti  Ti3  1  0.646448  0.646448  0.646448  1
  Mn  Mn4  1  0.353574  0.353574  0.353574  1
  Mn  Mn5  1  0.853574  0.853574  0.853574  1
  P  P6  1  0.039721  0.460587  0.751134  1
  P  P7  1  0.460587  0.751134  0.039721  1
  P  P8  1  0.751134  0.039721  0.460587  1
  P  P9  1  0.251134  0.960587  0.539721  1
  P  P10  1  0.539721  0.251134  0.960587  1
  P  P11  1  0.960587  0.539721  0.251134  1
  O  O12  1  0.120559  0.512873  0.292958  1
  O  O13  1  0.292958  0.120559  0.512873  1
  O  O14  1  0.055774  0.272237  0.922131  1
  O  O15  1  0.512873  0.292958  0.120559  1
  O  O16  1  0.012873  0.620559  0.792958  1
  O  O17  1  0.226479  0.437482  0.583608  1
  O  O18  1  0.272237  0.922131  0.055774  1
  O  O19  1  0.437482  0.583608  0.226479  1
  O  O20  1  0.206093  0.998581  0.371844  1
  O  O21  1  0.583608  0.226479  0.437482  1
  O  O22  1  0.083608  0.937482  0.726479  1
  O  O23  1  0.371844  0.206093  0.998581  1
  O  O24  1  0.620559  0.792958  0.012873  1
  O  O25  1  0.922131  0.055774  0.272237  1
  O  O26  1  0.422131  0.772237  0.555774  1
  O  O27  1  0.792958  0.012873  0.620559  1
  O  O28  1  0.555774  0.422131  0.772237  1
  O  O29  1  0.726479  0.083608  0.937482  1
  O  O30  1  0.772237  0.555774  0.422131  1
  O  O31  1  0.998581  0.371844  0.206093  1
  O  O32  1  0.498581  0.706093  0.871844  1
  O  O33  1  0.937482  0.726479  0.083608  1
  O  O34  1  0.706093  0.871844  0.498581  1
  O  O35  1  0.871844  0.498581  0.706093  1
