# generated using pymatgen
data_CaFe2O5
_symmetry_space_group_name_H-M   'P 1'
_cell_length_a   3.61774964
_cell_length_b   5.27881941
_cell_length_c   11.42783024
_cell_angle_alpha   90.00394942
_cell_angle_beta   89.99987306
_cell_angle_gamma   90.00006002
_symmetry_Int_Tables_number   1
_chemical_formula_structural   CaFe2O5
_chemical_formula_sum   'Ca2 Fe4 O10'
_cell_volume   218.24238211
_cell_formula_units_Z   2
loop_
 _symmetry_equiv_pos_site_id
 _symmetry_equiv_pos_as_xyz
  1  'x, y, z'
loop_
 _atom_site_type_symbol
 _atom_site_label
 _atom_site_symmetry_multiplicity
 _atom_site_fract_x
 _atom_site_fract_y
 _atom_site_fract_z
 _atom_site_occupancy
  Ca  Ca0  1  0.750000  0.866910  0.250029  1
  Ca  Ca1  1  0.250000  0.133153  0.749991  1
  Fe  Fe2  1  0.249998  0.413328  0.099791  1
  Fe  Fe3  1  0.750000  0.586608  0.900211  1
  Fe  Fe4  1  0.749998  0.586675  0.599793  1
  Fe  Fe5  1  0.249999  0.413376  0.400175  1
  O  O6  1  0.750000  0.435521  0.750017  1
  O  O7  1  0.249999  0.564603  0.249981  1
  O  O8  1  0.749998  0.569586  0.073081  1
  O  O9  1  0.249999  0.430304  0.926906  1
  O  O10  1  0.750001  0.569541  0.426882  1
  O  O11  1  0.250000  0.430431  0.573074  1
  O  O12  1  0.250000  0.081811  0.349333  1
  O  O13  1  0.750000  0.918212  0.650720  1
  O  O14  1  0.750000  0.918110  0.849328  1
  O  O15  1  0.250000  0.081831  0.150688  1
