# generated using pymatgen
data_Sr2YAlSn2O7
_symmetry_space_group_name_H-M   'P 1'
_cell_length_a   11.56159470
_cell_length_b   11.56159470
_cell_length_c   11.56159470
_cell_angle_alpha   46.37965668
_cell_angle_beta   145.05450718
_cell_angle_gamma   150.47948077
_symmetry_Int_Tables_number   1
_chemical_formula_structural   Sr2YAlSn2O7
_chemical_formula_sum   'Sr4 Y2 Al2 Sn4 O14'
_cell_volume   434.67912524
_cell_formula_units_Z   2
loop_
 _symmetry_equiv_pos_site_id
 _symmetry_equiv_pos_as_xyz
  1  'x, y, z'
loop_
 _atom_site_type_symbol
 _atom_site_label
 _atom_site_symmetry_multiplicity
 _atom_site_fract_x
 _atom_site_fract_y
 _atom_site_fract_z
 _atom_site_occupancy
  Sr  Sr0  1  0.077658  0.843543  0.910634  1
  Sr  Sr1  1  0.932909  0.167024  0.089366  1
  Sr  Sr2  1  0.077658  0.667024  0.734115  1
  Sr  Sr3  1  0.932909  0.343543  0.265885  1
  Y  Y4  1  0.057088  0.557088  0.500000  1
  Y  Y5  1  0.057088  0.057088  0.000000  1
  Al  Al6  1  0.595831  0.739065  0.356767  1
  Al  Al7  1  0.382299  0.239065  0.643233  1
  Sn  Sn8  1  0.520612  0.444703  0.917658  1
  Sn  Sn9  1  0.527043  0.602954  0.082342  1
  Sn  Sn10  1  0.520612  0.102954  0.575910  1
  Sn  Sn11  1  0.527043  0.944703  0.424090  1
  O  O12  1  0.000150  0.938781  0.561369  1
  O  O13  1  0.377412  0.438781  0.438631  1
  O  O14  1  0.399188  0.100093  0.156147  1
  O  O15  1  0.943947  0.243041  0.843853  1
  O  O16  1  0.399188  0.743041  0.799094  1
  O  O17  1  0.943947  0.600093  0.200906  1
  O  O18  1  0.745907  0.779645  0.809938  1
  O  O19  1  0.969708  0.935969  0.190062  1
  O  O20  1  0.745907  0.435969  0.466262  1
  O  O21  1  0.969708  0.279645  0.533738  1
  O  O22  1  0.483375  0.850088  0.265370  1
  O  O23  1  0.584718  0.218004  0.734630  1
  O  O24  1  0.483375  0.718004  0.133287  1
  O  O25  1  0.584718  0.350088  0.866713  1
