# generated using pymatgen
data_Ba2CaCuSb2F14
_symmetry_space_group_name_H-M   'P 1'
_cell_length_a   5.54961276
_cell_length_b   7.70532512
_cell_length_c   16.28966020
_cell_angle_alpha   90.67997263
_cell_angle_beta   90.11371273
_cell_angle_gamma   110.97376234
_symmetry_Int_Tables_number   1
_chemical_formula_structural   Ba2CaCuSb2F14
_chemical_formula_sum   'Ba4 Ca2 Cu2 Sb4 F28'
_cell_volume   650.35942728
_cell_formula_units_Z   2
loop_
 _symmetry_equiv_pos_site_id
 _symmetry_equiv_pos_as_xyz
  1  'x, y, z'
loop_
 _atom_site_type_symbol
 _atom_site_label
 _atom_site_symmetry_multiplicity
 _atom_site_fract_x
 _atom_site_fract_y
 _atom_site_fract_z
 _atom_site_occupancy
  Ba  Ba0  1  0.096594  0.360097  0.623829  1
  Ba  Ba1  1  0.263158  0.361282  0.124448  1
  Ba  Ba2  1  0.902254  0.637427  0.376121  1
  Ba  Ba3  1  0.737714  0.639692  0.877053  1
  Ca  Ca4  1  0.445879  0.999447  0.750491  1
  Ca  Ca5  1  0.553926  0.999817  0.250305  1
  Cu  Cu6  1  0.501324  0.000871  0.000463  1
  Cu  Cu7  1  0.498691  0.998124  0.500368  1
  Sb  Sb8  1  0.068500  0.230447  0.877082  1
  Sb  Sb9  1  0.933856  0.770935  0.123285  1
  Sb  Sb10  1  0.159712  0.227121  0.377480  1
  Sb  Sb11  1  0.839410  0.770427  0.623579  1
  F  F12  1  0.858425  0.959451  0.332326  1
  F  F13  1  0.896215  0.299049  0.456373  1
  F  F14  1  0.102581  0.698802  0.544170  1
  F  F15  1  0.624160  0.484277  0.608352  1
  F  F16  1  0.636165  0.057937  0.612495  1
  F  F17  1  0.578622  0.940005  0.888327  1
  F  F18  1  0.403193  0.301847  0.956252  1
  F  F19  1  0.896248  0.037938  0.167883  1
  F  F20  1  0.357984  0.328209  0.789851  1
  F  F21  1  0.376261  0.512158  0.393862  1
  F  F22  1  0.825240  0.250426  0.766225  1
  F  F23  1  0.140086  0.517033  0.892047  1
  F  F24  1  0.423440  0.250021  0.267106  1
  F  F25  1  0.178432  0.746578  0.233353  1
  F  F26  1  0.423119  0.061954  0.112602  1
  F  F27  1  0.646058  0.668922  0.210968  1
  F  F28  1  0.145414  0.838923  0.988544  1
  F  F29  1  0.139986  0.037783  0.668062  1
  F  F30  1  0.857185  0.161074  0.012592  1
  F  F31  1  0.697063  0.838558  0.487466  1
  F  F32  1  0.598127  0.699805  0.044762  1
  F  F33  1  0.579282  0.750057  0.734509  1
  F  F34  1  0.967783  0.326989  0.290284  1
  F  F35  1  0.302049  0.158852  0.513027  1
  F  F36  1  0.361955  0.938901  0.387950  1
  F  F37  1  0.104237  0.963100  0.833472  1
  F  F38  1  0.034734  0.672911  0.710426  1
  F  F39  1  0.865006  0.485882  0.106029  1
