# generated using pymatgen
data_CaW4O9
_symmetry_space_group_name_H-M   'P 1'
_cell_length_a   3.97775578
_cell_length_b   9.70693985
_cell_length_c   9.70693985
_cell_angle_alpha   90.00000000
_cell_angle_beta   90.00000000
_cell_angle_gamma   90.00000000
_symmetry_Int_Tables_number   1
_chemical_formula_structural   CaW4O9
_chemical_formula_sum   'Ca2 W8 O18'
_cell_volume   374.80277047
_cell_formula_units_Z   2
loop_
 _symmetry_equiv_pos_site_id
 _symmetry_equiv_pos_as_xyz
  1  'x, y, z'
loop_
 _atom_site_type_symbol
 _atom_site_label
 _atom_site_symmetry_multiplicity
 _atom_site_fract_x
 _atom_site_fract_y
 _atom_site_fract_z
 _atom_site_occupancy
  Ca  Ca0  1  0.088432  0.250000  0.250000  1
  Ca  Ca1  1  0.911569  0.750000  0.749999  1
  W  W2  1  0.545225  0.539370  0.340768  1
  W  W3  1  0.454776  0.840767  0.460631  1
  W  W4  1  0.545225  0.340767  0.960631  1
  W  W5  1  0.454776  0.039369  0.840767  1
  W  W6  1  0.545225  0.960631  0.159232  1
  W  W7  1  0.545225  0.159233  0.539370  1
  W  W8  1  0.454776  0.460631  0.659232  1
  W  W9  1  0.454776  0.659232  0.039369  1
  O  O10  1  0.499999  0.750000  0.250000  1
  O  O11  1  0.499999  0.250001  0.750000  1
  O  O12  1  0.963094  0.675119  0.997706  1
  O  O13  1  0.963094  0.502295  0.675118  1
  O  O14  1  0.963094  0.997706  0.824882  1
  O  O15  1  0.963094  0.824882  0.502294  1
  O  O16  1  0.036907  0.324882  0.002294  1
  O  O17  1  0.036907  0.497705  0.324882  1
  O  O18  1  0.036907  0.002294  0.175118  1
  O  O19  1  0.036907  0.175118  0.497705  1
  O  O20  1  0.520011  0.027577  0.364101  1
  O  O21  1  0.520011  0.135898  0.027578  1
  O  O22  1  0.520011  0.364101  0.472423  1
  O  O23  1  0.520011  0.472423  0.135899  1
  O  O24  1  0.479988  0.527577  0.864101  1
  O  O25  1  0.479988  0.864101  0.972423  1
  O  O26  1  0.479988  0.635899  0.527577  1
  O  O27  1  0.479988  0.972422  0.635899  1
