# generated using pymatgen
data_Ca(MnS2)4
_symmetry_space_group_name_H-M   'P 1'
_cell_length_a   6.98472243
_cell_length_b   7.07988239
_cell_length_c   7.07988318
_cell_angle_alpha   60.00000108
_cell_angle_beta   59.54828500
_cell_angle_gamma   59.54827946
_symmetry_Int_Tables_number   1
_chemical_formula_structural   Ca(MnS2)4
_chemical_formula_sum   'Ca1 Mn4 S8'
_cell_volume   245.85953938
_cell_formula_units_Z   1
loop_
 _symmetry_equiv_pos_site_id
 _symmetry_equiv_pos_as_xyz
  1  'x, y, z'
loop_
 _atom_site_type_symbol
 _atom_site_label
 _atom_site_symmetry_multiplicity
 _atom_site_fract_x
 _atom_site_fract_y
 _atom_site_fract_z
 _atom_site_occupancy
  Ca  Ca0  1  0.500000  0.000000  0.000000  1
  Mn  Mn1  1  0.000000  0.500000  0.500000  1
  Mn  Mn2  1  0.500000  0.500000  0.000000  1
  Mn  Mn3  1  0.500000  0.500000  0.500000  1
  Mn  Mn4  1  0.500000  0.000000  0.500000  1
  S  S5  1  0.253150  0.267802  0.267802  1
  S  S6  1  0.253150  0.267802  0.711247  1
  S  S7  1  0.253150  0.711247  0.267802  1
  S  S8  1  0.717695  0.260768  0.260768  1
  S  S9  1  0.282305  0.739232  0.739232  1
  S  S10  1  0.746850  0.732198  0.288753  1
  S  S11  1  0.746850  0.288753  0.732198  1
  S  S12  1  0.746850  0.732198  0.732198  1
