# generated using pymatgen
data_Ba2AlV3O8
_symmetry_space_group_name_H-M   'P 1'
_cell_length_a   3.83002338
_cell_length_b   4.00903950
_cell_length_c   11.86963648
_cell_angle_alpha   89.99730414
_cell_angle_beta   90.00339883
_cell_angle_gamma   89.97973885
_symmetry_Int_Tables_number   1
_chemical_formula_structural   Ba2AlV3O8
_chemical_formula_sum   'Ba2 Al1 V3 O8'
_cell_volume   182.25487381
_cell_formula_units_Z   1
loop_
 _symmetry_equiv_pos_site_id
 _symmetry_equiv_pos_as_xyz
  1  'x, y, z'
loop_
 _atom_site_type_symbol
 _atom_site_label
 _atom_site_symmetry_multiplicity
 _atom_site_fract_x
 _atom_site_fract_y
 _atom_site_fract_z
 _atom_site_occupancy
  Ba  Ba0  1  0.500004  0.499993  0.167362  1
  Ba  Ba1  1  0.499999  0.499978  0.832719  1
  Al  Al2  1  0.500201  0.499962  0.500044  1
  V  V3  1  0.000011  0.999990  0.349584  1
  V  V4  1  0.999997  0.999998  -0.000019  1
  V  V5  1  0.999979  0.999952  0.650455  1
  O  O6  1  0.999959  0.500003  0.393334  1
  O  O7  1  0.500024  0.000027  0.396248  1
  O  O8  1  0.499997  0.000005  0.000056  1
  O  O9  1  0.000003  0.000004  0.189830  1
  O  O10  1  0.999867  0.500022  0.606309  1
  O  O11  1  0.499973  0.000026  0.603712  1
  O  O12  1  0.999988  0.000041  0.810281  1
  O  O13  1  0.999997  0.499999  0.000084  1
