# generated using pymatgen
data_Ba3Al4(Sb2O7)3
_symmetry_space_group_name_H-M   'P 1'
_cell_length_a   28.78288316
_cell_length_b   9.22602194
_cell_length_c   9.22602239
_cell_angle_alpha   33.88192875
_cell_angle_beta   33.28664227
_cell_angle_gamma   33.28663909
_symmetry_Int_Tables_number   1
_chemical_formula_structural   Ba3Al4(Sb2O7)3
_chemical_formula_sum   'Ba3 Al4 Sb6 O21'
_cell_volume   664.04378766
_cell_formula_units_Z   1
loop_
 _symmetry_equiv_pos_site_id
 _symmetry_equiv_pos_as_xyz
  1  'x, y, z'
loop_
 _atom_site_type_symbol
 _atom_site_label
 _atom_site_symmetry_multiplicity
 _atom_site_fract_x
 _atom_site_fract_y
 _atom_site_fract_z
 _atom_site_occupancy
  Ba  Ba0  1  0.158431  0.449626  0.553984  1
  Ba  Ba1  1  0.500000  0.538450  0.461550  1
  Ba  Ba2  1  0.841569  0.446016  0.550374  1
  Al  Al3  1  0.629601  0.981827  0.938773  1
  Al  Al4  1  0.977056  0.916998  0.959809  1
  Al  Al5  1  0.022944  0.040191  0.083002  1
  Al  Al6  1  0.370399  0.061227  0.018173  1
  Sb  Sb7  1  0.265696  0.643778  0.753416  1
  Sb  Sb8  1  0.601752  0.710055  0.712054  1
  Sb  Sb9  1  0.894595  0.734919  0.798039  1
  Sb  Sb10  1  0.105405  0.201961  0.265081  1
  Sb  Sb11  1  0.398248  0.287946  0.289945  1
  Sb  Sb12  1  0.734304  0.246584  0.356222  1
  O  O13  1  0.162075  0.946953  0.166518  1
  O  O14  1  0.527765  0.946215  0.264341  1
  O  O15  1  0.856213  0.953947  0.228586  1
  O  O16  1  0.352393  0.119931  0.402624  1
  O  O17  1  0.652245  0.104286  0.600126  1
  O  O18  1  0.980523  0.184554  0.611824  1
  O  O19  1  0.052017  0.566717  0.980348  1
  O  O20  1  0.445702  0.536389  0.882161  1
  O  O21  1  0.725163  0.607580  0.012548  1
  O  O22  1  0.274837  0.987452  0.392420  1
  O  O23  1  0.554298  0.117839  0.463611  1
  O  O24  1  0.947983  0.019652  0.433283  1
  O  O25  1  0.019477  0.388176  0.815446  1
  O  O26  1  0.347755  0.399874  0.895714  1
  O  O27  1  0.647607  0.597376  0.880069  1
  O  O28  1  1.000000  0.941267  0.058733  1
  O  O29  1  0.317813  0.284389  0.802728  1
  O  O30  1  0.682187  0.197272  0.715611  1
  O  O31  1  0.143787  0.771414  0.046053  1
  O  O32  1  0.472235  0.735659  0.053785  1
  O  O33  1  0.837925  0.833482  0.053047  1
