# generated using pymatgen
data_Sr2Cu2NiO7
_symmetry_space_group_name_H-M   'P 1'
_cell_length_a   5.12997602
_cell_length_b   5.19554199
_cell_length_c   13.07007064
_cell_angle_alpha   101.44050152
_cell_angle_beta   101.10290136
_cell_angle_gamma   90.17226717
_symmetry_Int_Tables_number   1
_chemical_formula_structural   Sr2Cu2NiO7
_chemical_formula_sum   'Sr4 Cu4 Ni2 O14'
_cell_volume   334.73697637
_cell_formula_units_Z   2
loop_
 _symmetry_equiv_pos_site_id
 _symmetry_equiv_pos_as_xyz
  1  'x, y, z'
loop_
 _atom_site_type_symbol
 _atom_site_label
 _atom_site_symmetry_multiplicity
 _atom_site_fract_x
 _atom_site_fract_y
 _atom_site_fract_z
 _atom_site_occupancy
  Sr  Sr0  1  0.326619  0.345024  0.697998  1
  Sr  Sr1  1  0.632519  0.653919  0.302606  1
  Sr  Sr2  1  0.827355  0.851893  0.698022  1
  Sr  Sr3  1  0.131804  0.147424  0.302601  1
  Cu  Cu4  1  0.919066  0.441698  0.880675  1
  Cu  Cu5  1  0.044547  0.558843  0.120744  1
  Cu  Cu6  1  0.418628  0.939018  0.879955  1
  Cu  Cu7  1  0.544271  0.060880  0.120022  1
  Ni  Ni8  1  0.281902  0.678315  0.500279  1
  Ni  Ni9  1  0.784804  0.320682  0.500248  1
  O  O10  1  0.147853  0.337555  0.500226  1
  O  O11  1  0.650853  0.651206  0.500241  1
  O  O12  1  0.153293  0.175176  0.848843  1
  O  O13  1  0.310711  0.825779  0.152080  1
  O  O14  1  0.653910  0.174182  0.848574  1
  O  O15  1  0.809639  0.826289  0.151658  1
  O  O16  1  0.651807  0.672890  0.846866  1
  O  O17  1  0.809954  0.326742  0.153935  1
  O  O18  1  0.151445  0.673735  0.846705  1
  O  O19  1  0.310565  0.325928  0.153624  1
  O  O20  1  0.287055  0.837069  0.637954  1
  O  O21  1  0.656008  0.168963  0.364454  1
  O  O22  1  0.789633  0.304902  0.636059  1
  O  O23  1  0.151460  0.699127  0.362537  1
