# generated using pymatgen
data_Si3(MoO6)2
_symmetry_space_group_name_H-M   'P 1'
_cell_length_a   10.37572164
_cell_length_b   10.37572152
_cell_length_c   10.37572105
_cell_angle_alpha   109.47122352
_cell_angle_beta   109.47122333
_cell_angle_gamma   109.47121820
_symmetry_Int_Tables_number   1
_chemical_formula_structural   Si3(MoO6)2
_chemical_formula_sum   'Si12 Mo8 O48'
_cell_volume   859.87039842
_cell_formula_units_Z   4
loop_
 _symmetry_equiv_pos_site_id
 _symmetry_equiv_pos_as_xyz
  1  'x, y, z'
loop_
 _atom_site_type_symbol
 _atom_site_label
 _atom_site_symmetry_multiplicity
 _atom_site_fract_x
 _atom_site_fract_y
 _atom_site_fract_z
 _atom_site_occupancy
  Si  Si0  1  0.250000  0.125000  0.875000  1
  Si  Si1  1  0.750000  0.875000  0.125000  1
  Si  Si2  1  0.375000  0.250000  0.625000  1
  Si  Si3  1  0.625000  0.375000  0.250000  1
  Si  Si4  1  0.125000  0.750000  0.875000  1
  Si  Si5  1  0.875000  0.125000  0.750000  1
  Si  Si6  1  0.750000  0.375000  0.625000  1
  Si  Si7  1  0.375000  0.625000  0.750000  1
  Si  Si8  1  0.125000  0.875000  0.250000  1
  Si  Si9  1  0.875000  0.250000  0.125000  1
  Si  Si10  1  0.625000  0.750000  0.375000  1
  Si  Si11  1  0.250000  0.625000  0.375000  1
  Mo  Mo12  1  0.000000  0.000000  0.000000  1
  Mo  Mo13  1  0.000000  0.500000  0.000000  1
  Mo  Mo14  1  0.000000  0.000000  0.500000  1
  Mo  Mo15  1  0.000000  0.500000  0.500000  1
  Mo  Mo16  1  0.500000  0.000000  0.500000  1
  Mo  Mo17  1  0.500000  0.500000  0.000000  1
  Mo  Mo18  1  0.500000  0.500000  0.500000  1
  Mo  Mo19  1  0.500000  0.000000  0.000000  1
  O  O20  1  0.306845  0.498437  0.391414  1
  O  O21  1  0.001563  0.308409  0.892977  1
  O  O22  1  0.108586  0.607023  0.915431  1
  O  O23  1  0.193155  0.584569  0.191591  1
  O  O24  1  0.193155  0.108586  0.001563  1
  O  O25  1  0.584569  0.191591  0.193155  1
  O  O26  1  0.607023  0.191591  0.498437  1
  O  O27  1  0.191591  0.193155  0.584569  1
  O  O28  1  0.892977  0.391414  0.584569  1
  O  O29  1  0.308409  0.915431  0.306845  1
  O  O30  1  0.915431  0.306845  0.308409  1
  O  O31  1  0.001563  0.193155  0.108586  1
  O  O32  1  0.191591  0.498437  0.607023  1
  O  O33  1  0.584569  0.892977  0.391414  1
  O  O34  1  0.108586  0.001563  0.193155  1
  O  O35  1  0.498437  0.607023  0.191591  1
  O  O36  1  0.391414  0.584569  0.892977  1
  O  O37  1  0.892977  0.001563  0.308409  1
  O  O38  1  0.607023  0.915431  0.108586  1
  O  O39  1  0.107023  0.608586  0.415431  1
  O  O40  1  0.915431  0.108586  0.607023  1
  O  O41  1  0.391414  0.306845  0.498437  1
  O  O42  1  0.308409  0.892977  0.001563  1
  O  O43  1  0.306845  0.308409  0.915431  1
  O  O44  1  0.693155  0.501563  0.608586  1
  O  O45  1  0.998437  0.691591  0.107023  1
  O  O46  1  0.891414  0.392977  0.084569  1
  O  O47  1  0.806845  0.415431  0.808409  1
  O  O48  1  0.806845  0.891414  0.998437  1
  O  O49  1  0.415431  0.808409  0.806845  1
  O  O50  1  0.392977  0.808409  0.501563  1
  O  O51  1  0.808409  0.806845  0.415431  1
  O  O52  1  0.693155  0.691591  0.084569  1
  O  O53  1  0.691591  0.107023  0.998437  1
  O  O54  1  0.608586  0.693155  0.501563  1
  O  O55  1  0.501563  0.608586  0.693155  1
  O  O56  1  0.084569  0.891414  0.392977  1
  O  O57  1  0.392977  0.084569  0.891414  1
  O  O58  1  0.107023  0.998437  0.691591  1
  O  O59  1  0.608586  0.415431  0.107023  1
  O  O60  1  0.501563  0.392977  0.808409  1
  O  O61  1  0.891414  0.998437  0.806845  1
  O  O62  1  0.415431  0.107023  0.608586  1
  O  O63  1  0.808409  0.501563  0.392977  1
  O  O64  1  0.998437  0.806845  0.891414  1
  O  O65  1  0.084569  0.693155  0.691591  1
  O  O66  1  0.691591  0.084569  0.693155  1
  O  O67  1  0.498437  0.391414  0.306845  1
