# generated using pymatgen
data_YSbO3
_symmetry_space_group_name_H-M   'P 1'
_cell_length_a   3.77499839
_cell_length_b   3.77499847
_cell_length_c   12.85953305
_cell_angle_alpha   90.00000000
_cell_angle_beta   90.00000000
_cell_angle_gamma   119.99999921
_symmetry_Int_Tables_number   1
_chemical_formula_structural   YSbO3
_chemical_formula_sum   'Y2 Sb2 O6'
_cell_volume   158.70455247
_cell_formula_units_Z   2
loop_
 _symmetry_equiv_pos_site_id
 _symmetry_equiv_pos_as_xyz
  1  'x, y, z'
loop_
 _atom_site_type_symbol
 _atom_site_label
 _atom_site_symmetry_multiplicity
 _atom_site_fract_x
 _atom_site_fract_y
 _atom_site_fract_z
 _atom_site_occupancy
  Y  Y0  1  0.000000  0.000000  0.500000  1
  Y  Y1  1  0.000000  0.000000  0.000000  1
  Sb  Sb2  1  0.666665  0.333332  0.750000  1
  Sb  Sb3  1  0.333334  0.666668  0.250000  1
  O  O4  1  0.333334  0.666668  0.425514  1
  O  O5  1  0.666665  0.333332  0.925514  1
  O  O6  1  0.666665  0.333332  0.574487  1
  O  O7  1  0.333334  0.666668  0.074486  1
  O  O8  1  0.000000  0.000000  0.250000  1
  O  O9  1  0.000000  0.000000  0.750000  1
