# generated using pymatgen
data_CaCr2(CuO4)2
_symmetry_space_group_name_H-M   'P 1'
_cell_length_a   6.64878908
_cell_length_b   8.67753638
_cell_length_c   12.34043354
_cell_angle_alpha   90.00000000
_cell_angle_beta   86.97454237
_cell_angle_gamma   90.00000000
_symmetry_Int_Tables_number   1
_chemical_formula_structural   CaCr2(CuO4)2
_chemical_formula_sum   'Ca4 Cr8 Cu8 O32'
_cell_volume   710.99028504
_cell_formula_units_Z   4
loop_
 _symmetry_equiv_pos_site_id
 _symmetry_equiv_pos_as_xyz
  1  'x, y, z'
loop_
 _atom_site_type_symbol
 _atom_site_label
 _atom_site_symmetry_multiplicity
 _atom_site_fract_x
 _atom_site_fract_y
 _atom_site_fract_z
 _atom_site_occupancy
  Ca  Ca0  1  0.128161  0.167486  0.043485  1
  Ca  Ca1  1  0.871839  0.832514  0.956515  1
  Ca  Ca2  1  0.871839  0.667486  0.456515  1
  Ca  Ca3  1  0.128161  0.332514  0.543485  1
  Cr  Cr4  1  0.099619  0.461987  0.845370  1
  Cr  Cr5  1  0.099619  0.038013  0.345370  1
  Cr  Cr6  1  0.606087  0.084927  0.136364  1
  Cr  Cr7  1  0.900381  0.961987  0.654630  1
  Cr  Cr8  1  0.393913  0.915073  0.863636  1
  Cr  Cr9  1  0.393913  0.584927  0.363636  1
  Cr  Cr10  1  0.606087  0.415073  0.636364  1
  Cr  Cr11  1  0.900381  0.538013  0.154630  1
  Cu  Cu12  1  0.761333  0.184886  0.857116  1
  Cu  Cu13  1  0.392032  0.049497  0.628693  1
  Cu  Cu14  1  0.607968  0.950503  0.371307  1
  Cu  Cu15  1  0.238667  0.815114  0.142884  1
  Cu  Cu16  1  0.761333  0.315114  0.357116  1
  Cu  Cu17  1  0.392032  0.450503  0.128693  1
  Cu  Cu18  1  0.238667  0.684886  0.642884  1
  Cu  Cu19  1  0.607968  0.549497  0.871307  1
  O  O20  1  0.023982  0.219806  0.381419  1
  O  O21  1  0.680120  0.000944  0.599639  1
  O  O22  1  0.199214  0.580634  0.461302  1
  O  O23  1  0.800786  0.080634  0.038698  1
  O  O24  1  0.023982  0.280194  0.881419  1
  O  O25  1  0.976018  0.780194  0.618581  1
  O  O26  1  0.088277  0.085806  0.613155  1
  O  O27  1  0.503390  0.908804  0.135272  1
  O  O28  1  0.503390  0.591196  0.635272  1
  O  O29  1  0.320306  0.875761  0.736636  1
  O  O30  1  0.679694  0.375761  0.763364  1
  O  O31  1  0.496610  0.091196  0.864728  1
  O  O32  1  0.911723  0.914194  0.386845  1
  O  O33  1  0.870978  0.523159  0.290811  1
  O  O34  1  0.441419  0.276342  0.601333  1
  O  O35  1  0.441419  0.223658  0.101333  1
  O  O36  1  0.129022  0.023159  0.209189  1
  O  O37  1  0.496610  0.408804  0.364728  1
  O  O38  1  0.129022  0.476841  0.709189  1
  O  O39  1  0.800786  0.419366  0.538698  1
  O  O40  1  0.680120  0.499056  0.099639  1
  O  O41  1  0.679694  0.124239  0.263364  1
  O  O42  1  0.976018  0.719806  0.118581  1
  O  O43  1  0.088277  0.414194  0.113155  1
  O  O44  1  0.199214  0.919366  0.961302  1
  O  O45  1  0.558581  0.776342  0.898667  1
  O  O46  1  0.319880  0.999056  0.400361  1
  O  O47  1  0.319880  0.500944  0.900361  1
  O  O48  1  0.911723  0.585806  0.886845  1
  O  O49  1  0.558581  0.723658  0.398667  1
  O  O50  1  0.320306  0.624239  0.236636  1
  O  O51  1  0.870978  0.976841  0.790811  1
