# generated using pymatgen
data_MgTiBiO5
_symmetry_space_group_name_H-M   'P 1'
_cell_length_a   5.26742127
_cell_length_b   10.45757191
_cell_length_c   15.22818119
_cell_angle_alpha   90.00000000
_cell_angle_beta   90.00000000
_cell_angle_gamma   90.00000000
_symmetry_Int_Tables_number   1
_chemical_formula_structural   MgTiBiO5
_chemical_formula_sum   'Mg8 Ti8 Bi8 O40'
_cell_volume   838.83578299
_cell_formula_units_Z   8
loop_
 _symmetry_equiv_pos_site_id
 _symmetry_equiv_pos_as_xyz
  1  'x, y, z'
loop_
 _atom_site_type_symbol
 _atom_site_label
 _atom_site_symmetry_multiplicity
 _atom_site_fract_x
 _atom_site_fract_y
 _atom_site_fract_z
 _atom_site_occupancy
  Mg  Mg0  1  0.492297  0.367624  0.452027  1
  Mg  Mg1  1  0.992297  0.132376  0.452027  1
  Mg  Mg2  1  0.992297  0.632376  0.047973  1
  Mg  Mg3  1  0.007703  0.367624  0.952027  1
  Mg  Mg4  1  0.507703  0.132376  0.952027  1
  Mg  Mg5  1  0.007703  0.867624  0.547973  1
  Mg  Mg6  1  0.507703  0.632376  0.547973  1
  Mg  Mg7  1  0.492297  0.867624  0.047973  1
  Ti  Ti8  1  0.997140  0.382976  0.580383  1
  Ti  Ti9  1  0.502860  0.882976  0.419617  1
  Ti  Ti10  1  0.002860  0.617024  0.419617  1
  Ti  Ti11  1  0.497140  0.117024  0.580383  1
  Ti  Ti12  1  0.002860  0.117024  0.080383  1
  Ti  Ti13  1  0.997140  0.882976  0.919617  1
  Ti  Ti14  1  0.502860  0.382976  0.080383  1
  Ti  Ti15  1  0.497140  0.617024  0.919617  1
  Bi  Bi16  1  0.011591  0.857257  0.238413  1
  Bi  Bi17  1  0.988409  0.142743  0.761587  1
  Bi  Bi18  1  0.488409  0.357257  0.761587  1
  Bi  Bi19  1  0.988409  0.642743  0.738413  1
  Bi  Bi20  1  0.511591  0.142743  0.261587  1
  Bi  Bi21  1  0.511591  0.642743  0.238413  1
  Bi  Bi22  1  0.488409  0.857257  0.738413  1
  Bi  Bi23  1  0.011591  0.357257  0.261587  1
  O  O24  1  0.829970  0.304327  0.680064  1
  O  O25  1  0.254818  0.023511  0.030655  1
  O  O26  1  0.245182  0.523511  0.969345  1
  O  O27  1  0.346237  0.799102  0.163831  1
  O  O28  1  0.153763  0.299102  0.836169  1
  O  O29  1  0.829970  0.804327  0.819936  1
  O  O30  1  0.153763  0.799102  0.663831  1
  O  O31  1  0.670030  0.804327  0.319936  1
  O  O32  1  0.254818  0.523511  0.469345  1
  O  O33  1  0.170030  0.695673  0.319936  1
  O  O34  1  0.670030  0.304327  0.180064  1
  O  O35  1  0.687436  0.221652  0.513920  1
  O  O36  1  0.754818  0.976489  0.469345  1
  O  O37  1  0.653763  0.700898  0.663831  1
  O  O38  1  0.209309  0.992649  0.845833  1
  O  O39  1  0.754818  0.476489  0.030655  1
  O  O40  1  0.170030  0.195673  0.180064  1
  O  O41  1  0.846237  0.200898  0.336169  1
  O  O42  1  0.187436  0.778348  0.986080  1
  O  O43  1  0.245182  0.023511  0.530655  1
  O  O44  1  0.312564  0.778348  0.486080  1
  O  O45  1  0.790691  0.007351  0.154167  1
  O  O46  1  0.653763  0.200898  0.836169  1
  O  O47  1  0.709309  0.007351  0.654167  1
  O  O48  1  0.312564  0.278348  0.013920  1
  O  O49  1  0.187436  0.278348  0.513920  1
  O  O50  1  0.745182  0.476489  0.530655  1
  O  O51  1  0.745182  0.976489  0.969345  1
  O  O52  1  0.709309  0.507351  0.845833  1
  O  O53  1  0.812564  0.721652  0.486080  1
  O  O54  1  0.812564  0.221652  0.013920  1
  O  O55  1  0.687436  0.721652  0.986080  1
  O  O56  1  0.790691  0.507351  0.345833  1
  O  O57  1  0.846237  0.700898  0.163831  1
  O  O58  1  0.346237  0.299102  0.336169  1
  O  O59  1  0.209309  0.492649  0.654167  1
  O  O60  1  0.290691  0.492649  0.154167  1
  O  O61  1  0.329970  0.195673  0.680064  1
  O  O62  1  0.290691  0.992649  0.345833  1
  O  O63  1  0.329970  0.695673  0.819936  1
