# generated using pymatgen
data_LaTiZnCrO6
_symmetry_space_group_name_H-M   'P 1'
_cell_length_a   5.37162411
_cell_length_b   5.56468583
_cell_length_c   7.72478800
_cell_angle_alpha   90.00000000
_cell_angle_beta   90.08879607
_cell_angle_gamma   90.00000000
_symmetry_Int_Tables_number   1
_chemical_formula_structural   LaTiZnCrO6
_chemical_formula_sum   'La2 Ti2 Zn2 Cr2 O12'
_cell_volume   230.90445495
_cell_formula_units_Z   2
loop_
 _symmetry_equiv_pos_site_id
 _symmetry_equiv_pos_as_xyz
  1  'x, y, z'
loop_
 _atom_site_type_symbol
 _atom_site_label
 _atom_site_symmetry_multiplicity
 _atom_site_fract_x
 _atom_site_fract_y
 _atom_site_fract_z
 _atom_site_occupancy
  La  La0  1  0.009783  0.954573  0.748307  1
  La  La1  1  0.509783  0.545427  0.248307  1
  Ti  Ti2  1  0.500357  0.024297  0.995715  1
  Ti  Ti3  1  0.000357  0.475703  0.495715  1
  Zn  Zn4  1  0.497368  0.517795  0.747753  1
  Zn  Zn5  1  0.997368  0.982205  0.247753  1
  Cr  Cr6  1  0.499900  0.004484  0.499166  1
  Cr  Cr7  1  -0.000100  0.495516  0.999166  1
  O  O8  1  0.076062  0.475039  0.254274  1
  O  O9  1  0.214722  0.210621  0.956115  1
  O  O10  1  0.213812  0.221535  0.551177  1
  O  O11  1  0.309814  0.694134  0.943553  1
  O  O12  1  0.306040  0.695223  0.555171  1
  O  O13  1  0.372141  0.979416  0.248766  1
  O  O14  1  0.576062  0.024961  0.754274  1
  O  O15  1  0.714722  0.289379  0.456115  1
  O  O16  1  0.713812  0.278465  0.051177  1
  O  O17  1  0.809814  0.805866  0.443553  1
  O  O18  1  0.806040  0.804777  0.055171  1
  O  O19  1  0.872141  0.520584  0.748766  1
