# generated using pymatgen
data_FeO2
_symmetry_space_group_name_H-M   'P 1'
_cell_length_a   4.60941193
_cell_length_b   4.60941494
_cell_length_c   2.97710791
_cell_angle_alpha   89.99999809
_cell_angle_beta   90.00013101
_cell_angle_gamma   89.99955500
_symmetry_Int_Tables_number   1
_chemical_formula_structural   FeO2
_chemical_formula_sum   'Fe2 O4'
_cell_volume   63.25369545
_cell_formula_units_Z   2
loop_
 _symmetry_equiv_pos_site_id
 _symmetry_equiv_pos_as_xyz
  1  'x, y, z'
loop_
 _atom_site_type_symbol
 _atom_site_label
 _atom_site_symmetry_multiplicity
 _atom_site_fract_x
 _atom_site_fract_y
 _atom_site_fract_z
 _atom_site_occupancy
  Fe  Fe0  1  -0.000001  0.000010  0.999987  1
  Fe  Fe1  1  0.499995  0.500001  0.500002  1
  O  O2  1  0.190541  0.809455  0.500000  1
  O  O3  1  0.309462  0.309460  0.000004  1
  O  O4  1  0.690540  0.690537  0.000005  1
  O  O5  1  0.809463  0.190538  0.500002  1
