# generated using pymatgen
data_CaCo3(P2O7)2
_symmetry_space_group_name_H-M   'P 1'
_cell_length_a   7.45391784
_cell_length_b   7.72115750
_cell_length_c   9.52993204
_cell_angle_alpha   90.00000000
_cell_angle_beta   111.83729415
_cell_angle_gamma   90.00000000
_symmetry_Int_Tables_number   1
_chemical_formula_structural   CaCo3(P2O7)2
_chemical_formula_sum   'Ca2 Co6 P8 O28'
_cell_volume   509.11855164
_cell_formula_units_Z   2
loop_
 _symmetry_equiv_pos_site_id
 _symmetry_equiv_pos_as_xyz
  1  'x, y, z'
loop_
 _atom_site_type_symbol
 _atom_site_label
 _atom_site_symmetry_multiplicity
 _atom_site_fract_x
 _atom_site_fract_y
 _atom_site_fract_z
 _atom_site_occupancy
  Ca  Ca0  1  0.500000  0.000000  0.000000  1
  Ca  Ca1  1  0.500000  0.500000  0.500000  1
  Co  Co2  1  0.185517  0.872976  0.525010  1
  Co  Co3  1  0.814483  0.372976  0.974990  1
  Co  Co4  1  0.814483  0.127024  0.474990  1
  Co  Co5  1  0.185517  0.627024  0.025010  1
  Co  Co6  1  0.000000  0.000000  0.000000  1
  Co  Co7  1  0.000000  0.500000  0.500000  1
  P  P8  1  0.598083  0.065232  0.703513  1
  P  P9  1  0.401917  0.565232  0.796487  1
  P  P10  1  0.401917  0.934768  0.296487  1
  P  P11  1  0.598083  0.434768  0.203513  1
  P  P12  1  0.880418  0.796381  0.691038  1
  P  P13  1  0.119582  0.296381  0.808962  1
  P  P14  1  0.119582  0.203619  0.308962  1
  P  P15  1  0.880418  0.703619  0.191038  1
  O  O16  1  0.830080  0.623451  0.607070  1
  O  O17  1  0.169920  0.123451  0.892930  1
  O  O18  1  0.169920  0.376549  0.392930  1
  O  O19  1  0.830080  0.876549  0.107070  1
  O  O20  1  0.275570  0.617833  0.631196  1
  O  O21  1  0.724430  0.117833  0.868804  1
  O  O22  1  0.724430  0.382167  0.368804  1
  O  O23  1  0.275570  0.882167  0.131196  1
  O  O24  1  0.620481  0.191892  0.588147  1
  O  O25  1  0.379519  0.691892  0.911853  1
  O  O26  1  0.379519  0.808108  0.411853  1
  O  O27  1  0.620481  0.308108  0.088147  1
  O  O28  1  0.675370  0.877603  0.675452  1
  O  O29  1  0.324630  0.377603  0.824548  1
  O  O30  1  0.324630  0.122397  0.324548  1
  O  O31  1  0.675370  0.622397  0.175452  1
  O  O32  1  0.394394  0.476674  0.195361  1
  O  O33  1  0.605606  0.976674  0.304639  1
  O  O34  1  0.605606  0.523326  0.804639  1
  O  O35  1  0.394394  0.023326  0.695361  1
  O  O36  1  0.008246  0.212137  0.137128  1
  O  O37  1  0.991754  0.712137  0.362872  1
  O  O38  1  0.991754  0.787863  0.862872  1
  O  O39  1  0.008246  0.287863  0.637128  1
  O  O40  1  0.971415  0.578090  0.112107  1
  O  O41  1  0.028585  0.078090  0.387893  1
  O  O42  1  0.028585  0.421910  0.887893  1
  O  O43  1  0.971415  0.921910  0.612107  1
