# generated using pymatgen
data_TaReO6
_symmetry_space_group_name_H-M   'P 1'
_cell_length_a   5.29283112
_cell_length_b   5.42421673
_cell_length_c   7.50785248
_cell_angle_alpha   90.00000000
_cell_angle_beta   90.00000000
_cell_angle_gamma   89.92675658
_symmetry_Int_Tables_number   1
_chemical_formula_structural   TaReO6
_chemical_formula_sum   'Ta2 Re2 O12'
_cell_volume   215.54623795
_cell_formula_units_Z   2
loop_
 _symmetry_equiv_pos_site_id
 _symmetry_equiv_pos_as_xyz
  1  'x, y, z'
loop_
 _atom_site_type_symbol
 _atom_site_label
 _atom_site_symmetry_multiplicity
 _atom_site_fract_x
 _atom_site_fract_y
 _atom_site_fract_z
 _atom_site_occupancy
  Ta  Ta0  1  0.000000  0.500000  0.000000  1
  Ta  Ta1  1  0.000000  0.500000  0.500000  1
  Re  Re2  1  0.500000  0.000000  0.000000  1
  Re  Re3  1  0.500000  0.000000  0.500000  1
  O  O4  1  0.777047  0.794769  0.542652  1
  O  O5  1  0.296041  0.724263  0.461156  1
  O  O6  1  0.222953  0.205231  0.457348  1
  O  O7  1  0.703959  0.275737  0.961156  1
  O  O8  1  0.086712  0.483774  0.750000  1
  O  O9  1  0.703959  0.275737  0.538844  1
  O  O10  1  0.296041  0.724263  0.038844  1
  O  O11  1  0.777047  0.794769  0.957348  1
  O  O12  1  0.580174  0.007843  0.250000  1
  O  O13  1  0.222953  0.205231  0.042652  1
  O  O14  1  0.419826  0.992157  0.750000  1
  O  O15  1  0.913288  0.516226  0.250000  1
