# generated using pymatgen
data_Mg2CoIrO6
_symmetry_space_group_name_H-M   'P 1'
_cell_length_a   5.03898742
_cell_length_b   5.24761299
_cell_length_c   7.38278790
_cell_angle_alpha   90.00000000
_cell_angle_beta   90.11430860
_cell_angle_gamma   90.00000000
_symmetry_Int_Tables_number   1
_chemical_formula_structural   Mg2CoIrO6
_chemical_formula_sum   'Mg4 Co2 Ir2 O12'
_cell_volume   195.22013129
_cell_formula_units_Z   2
loop_
 _symmetry_equiv_pos_site_id
 _symmetry_equiv_pos_as_xyz
  1  'x, y, z'
loop_
 _atom_site_type_symbol
 _atom_site_label
 _atom_site_symmetry_multiplicity
 _atom_site_fract_x
 _atom_site_fract_y
 _atom_site_fract_z
 _atom_site_occupancy
  Mg  Mg0  1  0.012519  0.935906  0.247566  1
  Mg  Mg1  1  0.487481  0.435906  0.252434  1
  Mg  Mg2  1  0.512519  0.564094  0.747566  1
  Mg  Mg3  1  0.987481  0.064094  0.752434  1
  Co  Co4  1  0.000000  0.500000  0.000000  1
  Co  Co5  1  0.500000  0.000000  0.500000  1
  Ir  Ir6  1  0.000000  0.500000  0.500000  1
  Ir  Ir7  1  0.500000  0.000000  0.000000  1
  O  O8  1  0.132769  0.433062  0.753395  1
  O  O9  1  0.176872  0.188560  0.067912  1
  O  O10  1  0.183727  0.182048  0.429340  1
  O  O11  1  0.316273  0.682048  0.070660  1
  O  O12  1  0.323128  0.688560  0.432088  1
  O  O13  1  0.367231  0.933062  0.746605  1
  O  O14  1  0.632769  0.066938  0.253395  1
  O  O15  1  0.676872  0.311440  0.567912  1
  O  O16  1  0.683727  0.317952  0.929340  1
  O  O17  1  0.823128  0.811440  0.932088  1
  O  O18  1  0.816273  0.817952  0.570660  1
  O  O19  1  0.867231  0.566938  0.246605  1
