# generated using pymatgen
data_AgN
_symmetry_space_group_name_H-M   'P 1'
_cell_length_a   3.81579617
_cell_length_b   3.82357690
_cell_length_c   5.77662799
_cell_angle_alpha   90.07002049
_cell_angle_beta   90.00619188
_cell_angle_gamma   90.19670033
_symmetry_Int_Tables_number   1
_chemical_formula_structural   AgN
_chemical_formula_sum   'Ag2 N2'
_cell_volume   84.28038516
_cell_formula_units_Z   2
loop_
 _symmetry_equiv_pos_site_id
 _symmetry_equiv_pos_as_xyz
  1  'x, y, z'
loop_
 _atom_site_type_symbol
 _atom_site_label
 _atom_site_symmetry_multiplicity
 _atom_site_fract_x
 _atom_site_fract_y
 _atom_site_fract_z
 _atom_site_occupancy
  Ag  Ag0  1  0.490536  0.510589  0.996664  1
  Ag  Ag1  1  0.503485  0.502989  0.496340  1
  N  N2  1  0.507844  0.002450  0.496809  1
  N  N3  1  0.990513  0.510529  0.996036  1
