# generated using pymatgen
data_CaP2WO7
_symmetry_space_group_name_H-M   'P 1'
_cell_length_a   6.00058795
_cell_length_b   6.79292780
_cell_length_c   7.91179991
_cell_angle_alpha   80.26216407
_cell_angle_beta   86.58688485
_cell_angle_gamma   69.76297626
_symmetry_Int_Tables_number   1
_chemical_formula_structural   CaP2WO7
_chemical_formula_sum   'Ca2 P4 W2 O14'
_cell_volume   298.22955994
_cell_formula_units_Z   2
loop_
 _symmetry_equiv_pos_site_id
 _symmetry_equiv_pos_as_xyz
  1  'x, y, z'
loop_
 _atom_site_type_symbol
 _atom_site_label
 _atom_site_symmetry_multiplicity
 _atom_site_fract_x
 _atom_site_fract_y
 _atom_site_fract_z
 _atom_site_occupancy
  Ca  Ca0  1  0.310766  0.676979  0.653355  1
  Ca  Ca1  1  0.689235  0.323021  0.346645  1
  P  P2  1  0.163385  0.660148  0.119009  1
  P  P3  1  0.836616  0.339851  0.880992  1
  P  P4  1  0.220596  0.220176  0.616915  1
  P  P5  1  0.779404  0.779823  0.383085  1
  W  W6  1  0.284186  0.126826  0.165782  1
  W  W7  1  0.715815  0.873173  0.834218  1
  O  O8  1  0.082320  0.716590  0.929755  1
  O  O9  1  0.917681  0.283410  0.070245  1
  O  O10  1  0.257418  0.815542  0.178959  1
  O  O11  1  0.742582  0.184457  0.821041  1
  O  O12  1  0.343412  0.431536  0.157349  1
  O  O13  1  0.656589  0.568464  0.842651  1
  O  O14  1  0.623976  0.646328  0.449405  1
  O  O15  1  0.376025  0.353671  0.550595  1
  O  O16  1  0.051508  0.206464  0.488928  1
  O  O17  1  0.948492  0.793536  0.511072  1
  O  O18  1  0.073023  0.345671  0.771014  1
  O  O19  1  0.629810  0.006778  0.294710  1
  O  O20  1  0.370190  0.993222  0.705290  1
  O  O21  1  0.926977  0.654328  0.228986  1
