# generated using pymatgen
data_AlCo(WO4)2
_symmetry_space_group_name_H-M   'P 1'
_cell_length_a   5.02879904
_cell_length_b   5.69805042
_cell_length_c   9.14034383
_cell_angle_alpha   90.00317192
_cell_angle_beta   91.00999543
_cell_angle_gamma   90.00321902
_symmetry_Int_Tables_number   1
_chemical_formula_structural   AlCo(WO4)2
_chemical_formula_sum   'Al2 Co2 W4 O16'
_cell_volume   261.86992327
_cell_formula_units_Z   2
loop_
 _symmetry_equiv_pos_site_id
 _symmetry_equiv_pos_as_xyz
  1  'x, y, z'
loop_
 _atom_site_type_symbol
 _atom_site_label
 _atom_site_symmetry_multiplicity
 _atom_site_fract_x
 _atom_site_fract_y
 _atom_site_fract_z
 _atom_site_occupancy
  Al  Al0  1  0.249994  0.655404  0.249976  1
  Al  Al1  1  0.750005  0.344595  0.750024  1
  Co  Co2  1  0.750021  0.355475  0.249995  1
  Co  Co3  1  0.249979  0.644524  0.750005  1
  W  W4  1  0.255478  0.171716  0.497720  1
  W  W5  1  0.244583  0.171663  0.002285  1
  W  W6  1  0.744522  0.828284  0.502280  1
  W  W7  1  0.755417  0.828337  0.997715  1
  O  O8  1  0.381697  0.398498  0.129249  1
  O  O9  1  0.118303  0.398488  0.370757  1
  O  O10  1  0.618303  0.601501  0.870751  1
  O  O11  1  0.881696  0.601511  0.629243  1
  O  O12  1  0.430855  0.888778  0.613293  1
  O  O13  1  0.069200  0.888776  0.886699  1
  O  O14  1  0.569145  0.111222  0.386707  1
  O  O15  1  0.930800  0.111224  0.113301  1
  O  O16  1  0.931699  0.641136  0.137451  1
  O  O17  1  0.568342  0.641176  0.362585  1
  O  O18  1  0.068301  0.358865  0.862549  1
  O  O19  1  0.431658  0.358825  0.637415  1
  O  O20  1  0.420249  0.881797  0.112202  1
  O  O21  1  0.579751  0.118204  0.887798  1
  O  O22  1  0.079728  0.881824  0.387819  1
  O  O23  1  0.920272  0.118177  0.612181  1
