# generated using pymatgen
data_SrMgCu(PO4)2
_symmetry_space_group_name_H-M   'P 1'
_cell_length_a   5.65254000
_cell_length_b   6.75173646
_cell_length_c   9.22978962
_cell_angle_alpha   109.18844613
_cell_angle_beta   102.23291737
_cell_angle_gamma   99.40555662
_symmetry_Int_Tables_number   1
_chemical_formula_structural   SrMgCu(PO4)2
_chemical_formula_sum   'Sr2 Mg2 Cu2 P4 O16'
_cell_volume   314.59045594
_cell_formula_units_Z   2
loop_
 _symmetry_equiv_pos_site_id
 _symmetry_equiv_pos_as_xyz
  1  'x, y, z'
loop_
 _atom_site_type_symbol
 _atom_site_label
 _atom_site_symmetry_multiplicity
 _atom_site_fract_x
 _atom_site_fract_y
 _atom_site_fract_z
 _atom_site_occupancy
  Sr  Sr0  1  0.260341  0.804065  0.059677  1
  Sr  Sr1  1  0.739659  0.195935  0.940323  1
  Mg  Mg2  1  0.989554  0.402047  0.648014  1
  Mg  Mg3  1  0.010446  0.597953  0.351986  1
  Cu  Cu4  1  0.643363  0.849938  0.546829  1
  Cu  Cu5  1  0.356637  0.150062  0.453171  1
  P  P6  1  0.396379  0.427601  0.242421  1
  P  P7  1  0.603621  0.572399  0.757579  1
  P  P8  1  0.841766  0.027419  0.301121  1
  P  P9  1  0.158234  0.972581  0.698879  1
  O  O10  1  0.827123  0.553926  0.880201  1
  O  O11  1  0.651175  0.477824  0.208704  1
  O  O12  1  0.657331  0.800691  0.750367  1
  O  O13  1  0.947868  0.101473  0.680536  1
  O  O14  1  0.348825  0.522176  0.791296  1
  O  O15  1  0.037064  0.730477  0.588342  1
  O  O16  1  0.962936  0.269523  0.411658  1
  O  O17  1  0.260176  0.006715  0.874584  1
  O  O18  1  0.342669  0.199309  0.249633  1
  O  O19  1  0.739824  0.993285  0.125416  1
  O  O20  1  0.172877  0.446074  0.119799  1
  O  O21  1  0.381604  0.594468  0.404224  1
  O  O22  1  0.618396  0.405532  0.595776  1
  O  O23  1  0.623086  0.929336  0.355652  1
  O  O24  1  0.052132  0.898527  0.319464  1
  O  O25  1  0.376914  0.070664  0.644348  1
