# generated using pymatgen
data_ZnCr2O4
_symmetry_space_group_name_H-M   'P 1'
_cell_length_a   5.11398875
_cell_length_b   5.92920613
_cell_length_c   10.26801717
_cell_angle_alpha   89.99964344
_cell_angle_beta   89.99944686
_cell_angle_gamma   90.00007108
_symmetry_Int_Tables_number   1
_chemical_formula_structural   ZnCr2O4
_chemical_formula_sum   'Zn4 Cr8 O16'
_cell_volume   311.34572251
_cell_formula_units_Z   4
loop_
 _symmetry_equiv_pos_site_id
 _symmetry_equiv_pos_as_xyz
  1  'x, y, z'
loop_
 _atom_site_type_symbol
 _atom_site_label
 _atom_site_symmetry_multiplicity
 _atom_site_fract_x
 _atom_site_fract_y
 _atom_site_fract_z
 _atom_site_occupancy
  Zn  Zn0  1  0.865413  0.250001  0.750000  1
  Zn  Zn1  1  0.134586  0.750000  0.250001  1
  Zn  Zn2  1  0.541856  0.250000  0.249996  1
  Zn  Zn3  1  0.458141  0.750001  0.750005  1
  Cr  Cr4  1  0.509615  0.750001  0.487191  1
  Cr  Cr5  1  0.509648  0.750002  0.012821  1
  Cr  Cr6  1  0.490372  0.250005  0.512806  1
  Cr  Cr7  1  0.490354  0.249999  0.987180  1
  Cr  Cr8  1  0.000003  0.500008  0.500005  1
  Cr  Cr9  1  0.000013  0.999994  -0.000002  1
  Cr  Cr10  1  -0.000001  0.000003  0.499995  1
  Cr  Cr11  1  0.000012  0.499992  -0.000002  1
  O  O12  1  0.856232  0.750000  0.394329  1
  O  O13  1  0.856250  0.749997  0.105677  1
  O  O14  1  0.143762  0.249995  0.605673  1
  O  O15  1  0.143753  0.249999  0.894322  1
  O  O16  1  0.189949  0.750006  0.598026  1
  O  O17  1  0.189982  0.749993  0.901983  1
  O  O18  1  0.810045  0.250003  0.401976  1
  O  O19  1  0.810025  0.249993  0.098017  1
  O  O20  1  0.665885  0.501827  0.609144  1
  O  O21  1  0.665886  0.998173  0.890855  1
  O  O22  1  0.334111  0.001830  0.390856  1
  O  O23  1  0.334116  0.498173  0.109145  1
  O  O24  1  0.334104  0.498175  0.390861  1
  O  O25  1  0.334109  0.001828  0.109140  1
  O  O26  1  0.665888  0.998172  0.609142  1
  O  O27  1  0.665891  0.501831  0.890859  1
