# generated using pymatgen
data_Sr2YTlW2O7
_symmetry_space_group_name_H-M   'P 1'
_cell_length_a   4.12086312
_cell_length_b   4.11440677
_cell_length_c   12.66045490
_cell_angle_alpha   89.98064241
_cell_angle_beta   90.00099064
_cell_angle_gamma   87.02842666
_symmetry_Int_Tables_number   1
_chemical_formula_structural   Sr2YTlW2O7
_chemical_formula_sum   'Sr2 Y1 Tl1 W2 O7'
_cell_volume   214.36819196
_cell_formula_units_Z   1
loop_
 _symmetry_equiv_pos_site_id
 _symmetry_equiv_pos_as_xyz
  1  'x, y, z'
loop_
 _atom_site_type_symbol
 _atom_site_label
 _atom_site_symmetry_multiplicity
 _atom_site_fract_x
 _atom_site_fract_y
 _atom_site_fract_z
 _atom_site_occupancy
  Sr  Sr0  1  0.518482  0.518785  0.816899  1
  Sr  Sr1  1  0.518485  0.518740  0.183231  1
  Y  Y2  1  0.537112  0.536393  0.500029  1
  Tl  Tl3  1  0.012511  0.012230  0.000066  1
  W  W4  1  0.007678  0.007365  0.632440  1
  W  W5  1  0.007458  0.007242  0.367433  1
  O  O6  1  0.498704  0.010471  0.617653  1
  O  O7  1  0.010133  0.497634  0.617665  1
  O  O8  1  0.498370  0.010311  0.382314  1
  O  O9  1  0.009751  0.497437  0.382260  1
  O  O10  1  0.933001  0.932838  0.789531  1
  O  O11  1  0.932701  0.932955  0.210467  1
  O  O12  1  0.515612  0.517599  0.000013  1
