# generated using pymatgen
data_CaTiCr(PO4)3
_symmetry_space_group_name_H-M   'P 1'
_cell_length_a   8.85165241
_cell_length_b   8.85165830
_cell_length_c   8.85165438
_cell_angle_alpha   58.36193617
_cell_angle_beta   58.36191568
_cell_angle_gamma   58.36190849
_symmetry_Int_Tables_number   1
_chemical_formula_structural   CaTiCr(PO4)3
_chemical_formula_sum   'Ca2 Ti2 Cr2 P6 O24'
_cell_volume   472.01800057
_cell_formula_units_Z   2
loop_
 _symmetry_equiv_pos_site_id
 _symmetry_equiv_pos_as_xyz
  1  'x, y, z'
loop_
 _atom_site_type_symbol
 _atom_site_label
 _atom_site_symmetry_multiplicity
 _atom_site_fract_x
 _atom_site_fract_y
 _atom_site_fract_z
 _atom_site_occupancy
  Ca  Ca0  1  0.998331  0.998332  0.998334  1
  Ca  Ca1  1  0.498339  0.498337  0.498338  1
  Ti  Ti2  1  0.147231  0.147230  0.147231  1
  Ti  Ti3  1  0.647230  0.647230  0.647230  1
  Cr  Cr4  1  0.354334  0.354339  0.354338  1
  Cr  Cr5  1  0.854340  0.854337  0.854335  1
  P  P6  1  0.040192  0.461405  0.750684  1
  P  P7  1  0.461406  0.750684  0.040192  1
  P  P8  1  0.750682  0.040192  0.461407  1
  P  P9  1  0.250686  0.961402  0.540192  1
  P  P10  1  0.540192  0.250683  0.961404  1
  P  P11  1  0.961401  0.540193  0.250684  1
  O  O12  1  0.121612  0.509165  0.294385  1
  O  O13  1  0.294383  0.121612  0.509165  1
  O  O14  1  0.056641  0.272208  0.921937  1
  O  O15  1  0.509163  0.294386  0.121615  1
  O  O16  1  0.009163  0.621611  0.794385  1
  O  O17  1  0.226856  0.436195  0.581961  1
  O  O18  1  0.272210  0.921937  0.056639  1
  O  O19  1  0.436195  0.581959  0.226856  1
  O  O20  1  0.205811  0.999255  0.371791  1
  O  O21  1  0.581957  0.226855  0.436194  1
  O  O22  1  0.081959  0.936195  0.726858  1
  O  O23  1  0.371791  0.205810  0.999255  1
  O  O24  1  0.621615  0.794385  0.009162  1
  O  O25  1  0.921939  0.056637  0.272208  1
  O  O26  1  0.421935  0.772213  0.556641  1
  O  O27  1  0.794387  0.009161  0.621613  1
  O  O28  1  0.556638  0.421938  0.772210  1
  O  O29  1  0.726855  0.081961  0.936195  1
  O  O30  1  0.772211  0.556639  0.421935  1
  O  O31  1  0.999256  0.371792  0.205810  1
  O  O32  1  0.499255  0.705809  0.871790  1
  O  O33  1  0.936195  0.726855  0.081959  1
  O  O34  1  0.705808  0.871794  0.499254  1
  O  O35  1  0.871794  0.499256  0.705808  1
