# generated using pymatgen
data_MgMn2O4
_symmetry_space_group_name_H-M   'P 1'
_cell_length_a   6.06456579
_cell_length_b   6.06456474
_cell_length_c   6.02550101
_cell_angle_alpha   60.21284023
_cell_angle_beta   60.21285070
_cell_angle_gamma   59.57099615
_symmetry_Int_Tables_number   1
_chemical_formula_structural   MgMn2O4
_chemical_formula_sum   'Mg2 Mn4 O8'
_cell_volume   156.68609574
_cell_formula_units_Z   2
loop_
 _symmetry_equiv_pos_site_id
 _symmetry_equiv_pos_as_xyz
  1  'x, y, z'
loop_
 _atom_site_type_symbol
 _atom_site_label
 _atom_site_symmetry_multiplicity
 _atom_site_fract_x
 _atom_site_fract_y
 _atom_site_fract_z
 _atom_site_occupancy
  Mg  Mg0  1  0.125000  0.625000  0.625000  1
  Mg  Mg1  1  0.625000  0.125000  0.625000  1
  Mn  Mn2  1  0.987638  0.987638  0.012362  1
  Mn  Mn3  1  0.262362  0.262362  0.237638  1
  Mn  Mn4  1  0.625000  0.625000  0.125000  1
  Mn  Mn5  1  0.625000  0.625000  0.625000  1
  O  O6  1  0.399911  0.399911  0.370008  1
  O  O7  1  0.403007  0.841883  0.377555  1
  O  O8  1  0.399911  0.399911  0.830171  1
  O  O9  1  0.841883  0.403007  0.377555  1
  O  O10  1  0.408117  0.846993  0.872445  1
  O  O11  1  0.846993  0.408117  0.872445  1
  O  O12  1  0.850089  0.850089  0.419829  1
  O  O13  1  0.850089  0.850089  0.879992  1
