# generated using pymatgen
data_CaBi2O5
_symmetry_space_group_name_H-M   'P 1'
_cell_length_a   3.96805201
_cell_length_b   5.37073624
_cell_length_c   13.68384541
_cell_angle_alpha   89.80541096
_cell_angle_beta   90.05126769
_cell_angle_gamma   90.01179215
_symmetry_Int_Tables_number   1
_chemical_formula_structural   CaBi2O5
_chemical_formula_sum   'Ca2 Bi4 O10'
_cell_volume   291.61956125
_cell_formula_units_Z   2
loop_
 _symmetry_equiv_pos_site_id
 _symmetry_equiv_pos_as_xyz
  1  'x, y, z'
loop_
 _atom_site_type_symbol
 _atom_site_label
 _atom_site_symmetry_multiplicity
 _atom_site_fract_x
 _atom_site_fract_y
 _atom_site_fract_z
 _atom_site_occupancy
  Ca  Ca0  1  0.749257  0.874853  0.251002  1
  Ca  Ca1  1  0.246614  0.127190  0.749078  1
  Bi  Bi2  1  0.250414  0.406435  0.107026  1
  Bi  Bi3  1  0.747958  0.595587  0.893362  1
  Bi  Bi4  1  0.747324  0.597354  0.606218  1
  Bi  Bi5  1  0.247807  0.405300  0.393944  1
  O  O6  1  0.747734  0.421207  0.750038  1
  O  O7  1  0.250054  0.581187  0.250281  1
  O  O8  1  0.750651  0.569296  0.081957  1
  O  O9  1  0.248239  0.432896  0.918808  1
  O  O10  1  0.747694  0.569518  0.418038  1
  O  O11  1  0.247309  0.433146  0.582087  1
  O  O12  1  0.245160  0.041346  0.352338  1
  O  O13  1  0.747837  0.961252  0.647671  1
  O  O14  1  0.743801  0.959495  0.850824  1
  O  O15  1  0.250788  0.042529  0.149098  1
