# generated using pymatgen
data_CaCo(PO3)4
_symmetry_space_group_name_H-M   'P 1'
_cell_length_a   7.53111372
_cell_length_b   7.53127013
_cell_length_c   10.12214433
_cell_angle_alpha   98.33022092
_cell_angle_beta   111.01610984
_cell_angle_gamma   108.81964349
_symmetry_Int_Tables_number   1
_chemical_formula_structural   CaCo(PO3)4
_chemical_formula_sum   'Ca2 Co2 P8 O24'
_cell_volume   484.71475377
_cell_formula_units_Z   2
loop_
 _symmetry_equiv_pos_site_id
 _symmetry_equiv_pos_as_xyz
  1  'x, y, z'
loop_
 _atom_site_type_symbol
 _atom_site_label
 _atom_site_symmetry_multiplicity
 _atom_site_fract_x
 _atom_site_fract_y
 _atom_site_fract_z
 _atom_site_occupancy
  Ca  Ca0  1  0.703890  0.952790  0.751000  1
  Ca  Ca1  1  0.296723  0.046059  0.250730  1
  Co  Co2  1  0.500479  0.499638  0.501186  1
  Co  Co3  1  0.501074  0.999596  0.001318  1
  P  P4  1  0.501896  0.317483  0.805766  1
  P  P5  1  0.014782  0.696823  0.696405  1
  P  P6  1  0.497753  0.680164  0.195793  1
  P  P7  1  0.986966  0.302980  0.306092  1
  P  P8  1  0.751833  0.718510  0.025524  1
  P  P9  1  0.196432  0.727393  0.476688  1
  P  P10  1  0.248420  0.279080  0.976595  1
  P  P11  1  0.804779  0.272785  0.525486  1
  O  O12  1  0.312485  0.320707  0.844242  1
  O  O13  1  0.979263  0.468961  0.657709  1
  O  O14  1  0.686824  0.675894  0.157331  1
  O  O15  1  0.022529  0.530900  0.344542  1
  O  O16  1  0.701753  0.502066  0.933917  1
  O  O17  1  0.071171  0.768536  0.568138  1
  O  O18  1  0.297748  0.495690  0.067512  1
  O  O19  1  0.930105  0.231313  0.434194  1
  O  O20  1  0.462646  0.348318  0.657830  1
  O  O21  1  0.193677  0.805088  0.844239  1
  O  O22  1  0.536566  0.649432  0.343701  1
  O  O23  1  0.808418  0.194519  0.158105  1
  O  O24  1  0.537378  0.135768  0.832149  1
  O  O25  1  0.806757  0.705974  0.670355  1
  O  O26  1  0.463198  0.862335  0.169641  1
  O  O27  1  0.194913  0.293533  0.332377  1
  O  O28  1  0.614560  0.803988  0.929546  1
  O  O29  1  0.377599  0.685795  0.572682  1
  O  O30  1  0.386629  0.194592  0.072870  1
  O  O31  1  0.624091  0.314781  0.429265  1
  O  O32  1  0.980024  0.829635  0.089017  1
  O  O33  1  0.244432  0.892507  0.413625  1
  O  O34  1  0.020426  0.167243  0.913818  1
  O  O35  1  0.755919  0.107786  0.588544  1
