# generated using pymatgen
data_Ca(Ni2O3)2
_symmetry_space_group_name_H-M   'P 1'
_cell_length_a   3.02335440
_cell_length_b   5.12896608
_cell_length_c   15.09059865
_cell_angle_alpha   90.00000000
_cell_angle_beta   90.00000000
_cell_angle_gamma   107.14155140
_symmetry_Int_Tables_number   1
_chemical_formula_structural   Ca(Ni2O3)2
_chemical_formula_sum   'Ca2 Ni8 O12'
_cell_volume   223.61049803
_cell_formula_units_Z   2
loop_
 _symmetry_equiv_pos_site_id
 _symmetry_equiv_pos_as_xyz
  1  'x, y, z'
loop_
 _atom_site_type_symbol
 _atom_site_label
 _atom_site_symmetry_multiplicity
 _atom_site_fract_x
 _atom_site_fract_y
 _atom_site_fract_z
 _atom_site_occupancy
  Ca  Ca0  1  0.655798  0.311596  0.750000  1
  Ca  Ca1  1  0.344202  0.688404  0.250000  1
  Ni  Ni2  1  0.863233  0.726470  0.041814  1
  Ni  Ni3  1  0.409281  0.818562  0.630788  1
  Ni  Ni4  1  0.136765  0.273529  0.958186  1
  Ni  Ni5  1  0.590719  0.181438  0.369213  1
  Ni  Ni6  1  0.863233  0.726470  0.458186  1
  Ni  Ni7  1  0.136765  0.273529  0.541814  1
  Ni  Ni8  1  0.590719  0.181438  0.130787  1
  Ni  Ni9  1  0.409281  0.818562  0.869212  1
  O  O10  1  0.499999  0.000000  0.500000  1
  O  O11  1  0.499999  0.000000  0.000000  1
  O  O12  1  0.042813  0.085626  0.847401  1
  O  O13  1  0.957187  0.914374  0.152600  1
  O  O14  1  0.957187  0.914374  0.347400  1
  O  O15  1  0.042813  0.085626  0.652600  1
  O  O16  1  0.776124  0.552249  0.923141  1
  O  O17  1  0.223875  0.447752  0.076859  1
  O  O18  1  0.223875  0.447752  0.423141  1
  O  O19  1  0.776124  0.552249  0.576859  1
  O  O20  1  0.330444  0.660890  0.750000  1
  O  O21  1  0.669554  0.339109  0.250000  1
