# generated using pymatgen
data_Ca2Ta2TiO8
_symmetry_space_group_name_H-M   'P 1'
_cell_length_a   5.46956763
_cell_length_b   6.35354919
_cell_length_c   9.91700513
_cell_angle_alpha   108.60304079
_cell_angle_beta   91.29443444
_cell_angle_gamma   89.95251242
_symmetry_Int_Tables_number   1
_chemical_formula_structural   Ca2Ta2TiO8
_chemical_formula_sum   'Ca4 Ta4 Ti2 O16'
_cell_volume   326.53047677
_cell_formula_units_Z   2
loop_
 _symmetry_equiv_pos_site_id
 _symmetry_equiv_pos_as_xyz
  1  'x, y, z'
loop_
 _atom_site_type_symbol
 _atom_site_label
 _atom_site_symmetry_multiplicity
 _atom_site_fract_x
 _atom_site_fract_y
 _atom_site_fract_z
 _atom_site_occupancy
  Ca  Ca0  1  0.757031  0.473028  0.586328  1
  Ca  Ca1  1  0.743837  0.886613  0.413198  1
  Ca  Ca2  1  0.243760  0.530729  0.413479  1
  Ca  Ca3  1  0.256632  0.116712  0.585352  1
  Ta  Ta4  1  0.762583  0.256991  0.221624  1
  Ta  Ta5  1  0.737343  0.034474  0.777555  1
  Ta  Ta6  1  0.238033  0.746674  0.777913  1
  Ta  Ta7  1  0.263094  0.968855  0.221528  1
  Ti  Ti8  1  0.751562  0.615559  0.999803  1
  Ti  Ti9  1  0.248805  0.387957  0.999560  1
  O  O10  1  0.099875  0.205616  0.137686  1
  O  O11  1  0.400023  0.067454  0.861371  1
  O  O12  1  0.900200  0.796984  0.861288  1
  O  O13  1  0.600992  0.935541  0.138356  1
  O  O14  1  0.584413  0.409028  0.110660  1
  O  O15  1  0.914324  0.297674  0.888592  1
  O  O16  1  0.415951  0.594567  0.888812  1
  O  O17  1  0.085889  0.705811  0.110807  1
  O  O18  1  0.495806  0.239528  0.358761  1
  O  O19  1  0.004768  0.880626  0.640593  1
  O  O20  1  0.341128  0.839613  0.368996  1
  O  O21  1  0.159953  0.470573  0.630481  1
  O  O22  1  0.659274  0.163630  0.630129  1
  O  O23  1  0.840910  0.532972  0.368961  1
  O  O24  1  0.996232  0.123062  0.358881  1
  O  O25  1  0.504725  0.763868  0.640558  1
