# generated using pymatgen
data_MgCrP2O7
_symmetry_space_group_name_H-M   'P 1'
_cell_length_a   6.43520187
_cell_length_b   6.38033356
_cell_length_c   7.06122213
_cell_angle_alpha   67.60488559
_cell_angle_beta   78.49297943
_cell_angle_gamma   80.76425355
_symmetry_Int_Tables_number   1
_chemical_formula_structural   MgCrP2O7
_chemical_formula_sum   'Mg2 Cr2 P4 O14'
_cell_volume   261.52559268
_cell_formula_units_Z   2
loop_
 _symmetry_equiv_pos_site_id
 _symmetry_equiv_pos_as_xyz
  1  'x, y, z'
loop_
 _atom_site_type_symbol
 _atom_site_label
 _atom_site_symmetry_multiplicity
 _atom_site_fract_x
 _atom_site_fract_y
 _atom_site_fract_z
 _atom_site_occupancy
  Mg  Mg0  1  0.883638  0.285561  0.158331  1
  Mg  Mg1  1  0.116362  0.714439  0.841669  1
  Cr  Cr2  1  0.676642  0.099520  0.775410  1
  Cr  Cr3  1  0.323358  0.900480  0.224590  1
  P  P4  1  0.166963  0.227241  0.750078  1
  P  P5  1  0.833037  0.772759  0.249922  1
  P  P6  1  0.622001  0.634041  0.694142  1
  P  P7  1  0.377999  0.365959  0.305858  1
  O  O8  1  0.762851  0.605596  0.480749  1
  O  O9  1  0.237149  0.394404  0.519251  1
  O  O10  1  0.007647  0.067725  0.751922  1
  O  O11  1  0.992353  0.932275  0.248078  1
  O  O12  1  0.603944  0.272268  0.351537  1
  O  O13  1  0.396056  0.727732  0.648463  1
  O  O14  1  0.361876  0.610690  0.151850  1
  O  O15  1  0.638124  0.389310  0.848149  1
  O  O16  1  0.932350  0.613146  0.132541  1
  O  O17  1  0.067650  0.386854  0.867459  1
  O  O18  1  0.642962  0.928421  0.162154  1
  O  O19  1  0.357038  0.071579  0.837846  1
  O  O20  1  0.254161  0.211656  0.257295  1
  O  O21  1  0.745839  0.788344  0.742705  1
