# generated using pymatgen
data_Mg2BiSbO6
_symmetry_space_group_name_H-M   'P 1'
_cell_length_a   5.60655577
_cell_length_b   5.59110011
_cell_length_c   8.07731238
_cell_angle_alpha   90.00000000
_cell_angle_beta   90.00000000
_cell_angle_gamma   87.70610993
_symmetry_Int_Tables_number   1
_chemical_formula_structural   Mg2BiSbO6
_chemical_formula_sum   'Mg4 Bi2 Sb2 O12'
_cell_volume   252.99511845
_cell_formula_units_Z   2
loop_
 _symmetry_equiv_pos_site_id
 _symmetry_equiv_pos_as_xyz
  1  'x, y, z'
loop_
 _atom_site_type_symbol
 _atom_site_label
 _atom_site_symmetry_multiplicity
 _atom_site_fract_x
 _atom_site_fract_y
 _atom_site_fract_z
 _atom_site_occupancy
  Mg  Mg0  1  0.488507  0.530517  0.750000  1
  Mg  Mg1  1  0.511493  0.469483  0.250000  1
  Mg  Mg2  1  0.025187  0.021220  0.750000  1
  Mg  Mg3  1  0.974813  0.978780  0.250000  1
  Bi  Bi4  1  0.500000  0.000000  0.500000  1
  Bi  Bi5  1  0.500000  0.000000  0.000000  1
  Sb  Sb6  1  0.000000  0.500000  0.500000  1
  Sb  Sb7  1  0.000000  0.500000  0.000000  1
  O  O8  1  0.306795  0.638952  0.427414  1
  O  O9  1  0.127893  0.183389  0.070413  1
  O  O10  1  0.693205  0.361048  0.927414  1
  O  O11  1  0.872107  0.816611  0.570413  1
  O  O12  1  0.127893  0.183389  0.429587  1
  O  O13  1  0.872107  0.816611  0.929587  1
  O  O14  1  0.859571  0.603401  0.250000  1
  O  O15  1  0.306795  0.638952  0.072586  1
  O  O16  1  0.357555  0.873778  0.750000  1
  O  O17  1  0.693205  0.361048  0.572586  1
  O  O18  1  0.140429  0.396599  0.750000  1
  O  O19  1  0.642445  0.126222  0.250000  1
