# generated using pymatgen
data_YNi3Se2ClO8
_symmetry_space_group_name_H-M   'P 1'
_cell_length_a   6.41588367
_cell_length_b   7.15707572
_cell_length_c   9.63638369
_cell_angle_alpha   90.00539811
_cell_angle_beta   90.01305152
_cell_angle_gamma   89.99466663
_symmetry_Int_Tables_number   1
_chemical_formula_structural   YNi3Se2ClO8
_chemical_formula_sum   'Y2 Ni6 Se4 Cl2 O16'
_cell_volume   442.49275210
_cell_formula_units_Z   2
loop_
 _symmetry_equiv_pos_site_id
 _symmetry_equiv_pos_as_xyz
  1  'x, y, z'
loop_
 _atom_site_type_symbol
 _atom_site_label
 _atom_site_symmetry_multiplicity
 _atom_site_fract_x
 _atom_site_fract_y
 _atom_site_fract_z
 _atom_site_occupancy
  Y  Y0  1  0.250029  0.259238  0.249995  1
  Y  Y1  1  0.749970  0.740756  0.750005  1
  Ni  Ni2  1  0.500001  0.999999  0.000002  1
  Ni  Ni3  1  0.500007  0.000006  0.499992  1
  Ni  Ni4  1  -0.000001  0.999999  0.000000  1
  Ni  Ni5  1  0.750026  0.204320  0.749968  1
  Ni  Ni6  1  0.249970  0.795679  0.250033  1
  Ni  Ni7  1  0.999999  0.000003  0.500000  1
  Se  Se8  1  0.749991  0.405720  0.059554  1
  Se  Se9  1  0.250010  0.594279  0.940448  1
  Se  Se10  1  0.750030  0.405660  0.440363  1
  Se  Se11  1  0.249971  0.594342  0.559637  1
  Cl  Cl12  1  0.249896  0.142328  0.750061  1
  Cl  Cl13  1  0.750102  0.857677  0.249940  1
  O  O14  1  0.250047  0.998167  0.112563  1
  O  O15  1  0.250017  0.575279  0.119274  1
  O  O16  1  0.749939  0.424730  0.619190  1
  O  O17  1  0.538781  0.259549  0.088230  1
  O  O18  1  0.461074  0.740623  0.588450  1
  O  O19  1  0.038674  0.740454  0.588270  1
  O  O20  1  0.749952  0.001829  0.887436  1
  O  O21  1  0.961224  0.259537  0.088263  1
  O  O22  1  0.961325  0.259547  0.411730  1
  O  O23  1  0.038776  0.740462  0.911736  1
  O  O24  1  0.249972  0.998138  0.387517  1
  O  O25  1  0.750026  0.001859  0.612486  1
  O  O26  1  0.461220  0.740451  0.911770  1
  O  O27  1  0.538927  0.259378  0.411549  1
  O  O28  1  0.749984  0.424721  0.880724  1
  O  O29  1  0.250062  0.575269  0.380812  1
