# generated using pymatgen
data_CaFe(SiO3)2
_symmetry_space_group_name_H-M   'P 1'
_cell_length_a   5.49154578
_cell_length_b   9.84062445
_cell_length_c   19.06224678
_cell_angle_alpha   90.00000000
_cell_angle_beta   90.00000000
_cell_angle_gamma   90.00000000
_symmetry_Int_Tables_number   1
_chemical_formula_structural   CaFe(SiO3)2
_chemical_formula_sum   'Ca8 Fe8 Si16 O48'
_cell_volume   1030.12838466
_cell_formula_units_Z   8
loop_
 _symmetry_equiv_pos_site_id
 _symmetry_equiv_pos_as_xyz
  1  'x, y, z'
loop_
 _atom_site_type_symbol
 _atom_site_label
 _atom_site_symmetry_multiplicity
 _atom_site_fract_x
 _atom_site_fract_y
 _atom_site_fract_z
 _atom_site_occupancy
  Ca  Ca0  1  0.605859  0.144971  0.622021  1
  Ca  Ca1  1  0.394141  0.855029  0.377979  1
  Ca  Ca2  1  0.605859  0.644971  0.877979  1
  Ca  Ca3  1  0.105859  0.855029  0.877979  1
  Ca  Ca4  1  0.894141  0.144971  0.122021  1
  Ca  Ca5  1  0.394141  0.355029  0.122021  1
  Ca  Ca6  1  0.105859  0.355029  0.622021  1
  Ca  Ca7  1  0.894141  0.644971  0.377979  1
  Fe  Fe8  1  0.390959  0.994364  0.128211  1
  Fe  Fe9  1  0.609041  0.005636  0.871789  1
  Fe  Fe10  1  0.890959  0.005636  0.371789  1
  Fe  Fe11  1  0.109041  0.994364  0.628211  1
  Fe  Fe12  1  0.390959  0.494364  0.371789  1
  Fe  Fe13  1  0.609041  0.505636  0.628211  1
  Fe  Fe14  1  0.890959  0.505636  0.128211  1
  Fe  Fe15  1  0.109041  0.494364  0.871789  1
  Si  Si16  1  0.564263  0.667511  0.225426  1
  Si  Si17  1  0.755452  0.831488  0.524882  1
  Si  Si18  1  0.744548  0.831488  0.024882  1
  Si  Si19  1  0.935737  0.167511  0.774574  1
  Si  Si20  1  0.064263  0.332489  0.274574  1
  Si  Si21  1  0.435737  0.832489  0.725426  1
  Si  Si22  1  0.255452  0.668512  0.524882  1
  Si  Si23  1  0.755452  0.331488  0.975118  1
  Si  Si24  1  0.744548  0.331488  0.475118  1
  Si  Si25  1  0.935737  0.667511  0.725426  1
  Si  Si26  1  0.435737  0.332489  0.774574  1
  Si  Si27  1  0.564263  0.167511  0.274574  1
  Si  Si28  1  0.244548  0.168512  0.475118  1
  Si  Si29  1  0.064263  0.832489  0.225426  1
  Si  Si30  1  0.244548  0.668512  0.024882  1
  Si  Si31  1  0.255452  0.168512  0.975118  1
  O  O32  1  0.911836  0.522167  0.685321  1
  O  O33  1  0.315666  0.032559  0.930396  1
  O  O34  1  0.088164  0.477833  0.314679  1
  O  O35  1  0.755409  0.346596  0.060679  1
  O  O36  1  0.255408  0.153404  0.060679  1
  O  O37  1  0.973228  0.219308  0.954220  1
  O  O38  1  0.949610  0.658811  0.810914  1
  O  O39  1  0.050390  0.841189  0.310914  1
  O  O40  1  0.755409  0.846596  0.439321  1
  O  O41  1  0.949610  0.158811  0.689086  1
  O  O42  1  0.411836  0.477833  0.814679  1
  O  O43  1  0.744591  0.346596  0.560679  1
  O  O44  1  0.684334  0.967441  0.069604  1
  O  O45  1  0.449610  0.841189  0.810914  1
  O  O46  1  0.588164  0.022167  0.314679  1
  O  O47  1  0.315666  0.532559  0.569604  1
  O  O48  1  0.411836  0.977833  0.685321  1
  O  O49  1  0.180080  0.753517  0.699529  1
  O  O50  1  0.319920  0.753517  0.199529  1
  O  O51  1  0.526772  0.719308  0.045780  1
  O  O52  1  0.744591  0.846596  0.939321  1
  O  O53  1  0.550390  0.658811  0.310914  1
  O  O54  1  0.815666  0.467441  0.930396  1
  O  O55  1  0.180080  0.253517  0.800471  1
  O  O56  1  0.244591  0.153404  0.560679  1
  O  O57  1  0.550390  0.158811  0.189086  1
  O  O58  1  0.684334  0.467441  0.430396  1
  O  O59  1  0.255408  0.653404  0.439321  1
  O  O60  1  0.184334  0.532559  0.069604  1
  O  O61  1  0.680080  0.746483  0.699529  1
  O  O62  1  0.088164  0.977833  0.185321  1
  O  O63  1  0.819920  0.746483  0.199529  1
  O  O64  1  0.819920  0.246483  0.300471  1
  O  O65  1  0.815666  0.967441  0.569604  1
  O  O66  1  0.244591  0.653404  0.939321  1
  O  O67  1  0.184334  0.032559  0.430396  1
  O  O68  1  0.319920  0.253517  0.300471  1
  O  O69  1  0.026772  0.780692  0.045780  1
  O  O70  1  0.473228  0.780692  0.545780  1
  O  O71  1  0.680080  0.246483  0.800471  1
  O  O72  1  0.473228  0.280692  0.954220  1
  O  O73  1  0.526772  0.219308  0.454220  1
  O  O74  1  0.026772  0.280692  0.454220  1
  O  O75  1  0.449610  0.341189  0.689086  1
  O  O76  1  0.588164  0.522167  0.185321  1
  O  O77  1  0.973228  0.719308  0.545780  1
  O  O78  1  0.050390  0.341189  0.189086  1
  O  O79  1  0.911836  0.022167  0.814679  1
