# generated using pymatgen
data_Zn2Fe2O5
_symmetry_space_group_name_H-M   'P 1'
_cell_length_a   3.29539776
_cell_length_b   7.42333813
_cell_length_c   10.36858349
_cell_angle_alpha   90.01809532
_cell_angle_beta   90.00006520
_cell_angle_gamma   90.00007709
_symmetry_Int_Tables_number   1
_chemical_formula_structural   Zn2Fe2O5
_chemical_formula_sum   'Zn4 Fe4 O10'
_cell_volume   253.64510901
_cell_formula_units_Z   2
loop_
 _symmetry_equiv_pos_site_id
 _symmetry_equiv_pos_as_xyz
  1  'x, y, z'
loop_
 _atom_site_type_symbol
 _atom_site_label
 _atom_site_symmetry_multiplicity
 _atom_site_fract_x
 _atom_site_fract_y
 _atom_site_fract_z
 _atom_site_occupancy
  Zn  Zn0  1  0.500000  0.392834  0.875785  1
  Zn  Zn1  1  0.500001  0.606326  0.124547  1
  Zn  Zn2  1  0.500001  0.893830  0.624557  1
  Zn  Zn3  1  0.500003  0.106559  0.375707  1
  Fe  Fe4  1  -0.000000  0.305653  0.607517  1
  Fe  Fe5  1  0.000005  0.694990  0.392535  1
  Fe  Fe6  1  0.999997  0.194438  0.107498  1
  Fe  Fe7  1  -0.000002  0.804809  0.892412  1
  O  O8  1  0.000003  0.500062  0.499824  1
  O  O9  1  0.000003  0.153411  0.285978  1
  O  O10  1  0.000002  0.654001  0.214001  1
  O  O11  1  0.999999  0.346554  0.786037  1
  O  O12  1  0.499998  0.332950  0.068121  1
  O  O13  1  0.499996  0.666801  0.932231  1
  O  O14  1  0.000001  0.845797  0.713907  1
  O  O15  1  0.500000  0.167211  0.567968  1
  O  O16  1  0.999998  0.000579  0.999160  1
  O  O17  1  0.500003  0.833193  0.432213  1
