# generated using pymatgen
data_Sr2YMnCu2O7
_symmetry_space_group_name_H-M   'P 1'
_cell_length_a   5.44385794
_cell_length_b   5.45963940
_cell_length_c   12.37882289
_cell_angle_alpha   102.71484022
_cell_angle_beta   102.66913352
_cell_angle_gamma   89.94758704
_symmetry_Int_Tables_number   1
_chemical_formula_structural   Sr2YMnCu2O7
_chemical_formula_sum   'Sr4 Y2 Mn2 Cu4 O14'
_cell_volume   349.72313859
_cell_formula_units_Z   2
loop_
 _symmetry_equiv_pos_site_id
 _symmetry_equiv_pos_as_xyz
  1  'x, y, z'
loop_
 _atom_site_type_symbol
 _atom_site_label
 _atom_site_symmetry_multiplicity
 _atom_site_fract_x
 _atom_site_fract_y
 _atom_site_fract_z
 _atom_site_occupancy
  Sr  Sr0  1  0.333376  0.342291  0.700621  1
  Sr  Sr1  1  0.630622  0.658890  0.299351  1
  Sr  Sr2  1  0.834506  0.860899  0.700644  1
  Sr  Sr3  1  0.131395  0.140842  0.298921  1
  Y  Y4  1  0.986629  0.000542  0.999858  1
  Y  Y5  1  0.486941  0.500692  0.000054  1
  Mn  Mn6  1  0.269799  0.691730  0.499346  1
  Mn  Mn7  1  0.769575  0.308302  0.499687  1
  Cu  Cu8  1  0.914880  0.431131  0.858461  1
  Cu  Cu9  1  0.055613  0.570420  0.141407  1
  Cu  Cu10  1  0.414970  0.929851  0.858535  1
  Cu  Cu11  1  0.555572  0.071672  0.141488  1
  O  O12  1  0.123246  0.350274  0.499678  1
  O  O13  1  0.624274  0.650996  0.500463  1
  O  O14  1  0.180613  0.196104  0.877045  1
  O  O15  1  0.301443  0.806387  0.122308  1
  O  O16  1  0.680308  0.183300  0.876865  1
  O  O17  1  0.801772  0.817318  0.123225  1
  O  O18  1  0.667144  0.682971  0.873915  1
  O  O19  1  0.793556  0.317617  0.126117  1
  O  O20  1  0.166906  0.693346  0.873243  1
  O  O21  1  0.293735  0.308943  0.126099  1
  O  O22  1  0.296335  0.851811  0.654966  1
  O  O23  1  0.641617  0.150569  0.344804  1
  O  O24  1  0.798378  0.305475  0.655568  1
  O  O25  1  0.145148  0.694061  0.344210  1
