# generated using pymatgen
data_Ca2CrWO6
_symmetry_space_group_name_H-M   'P 1'
_cell_length_a   5.54592165
_cell_length_b   5.61334566
_cell_length_c   7.71911755
_cell_angle_alpha   89.60376036
_cell_angle_beta   134.47500837
_cell_angle_gamma   120.76387702
_symmetry_Int_Tables_number   1
_chemical_formula_structural   Ca2CrWO6
_chemical_formula_sum   'Ca2 Cr1 W1 O6'
_cell_volume   120.73692927
_cell_formula_units_Z   1
loop_
 _symmetry_equiv_pos_site_id
 _symmetry_equiv_pos_as_xyz
  1  'x, y, z'
loop_
 _atom_site_type_symbol
 _atom_site_label
 _atom_site_symmetry_multiplicity
 _atom_site_fract_x
 _atom_site_fract_y
 _atom_site_fract_z
 _atom_site_occupancy
  Ca  Ca0  1  0.034168  0.511720  0.264334  1
  Ca  Ca1  1  0.960931  0.474270  0.728088  1
  Cr  Cr2  1  0.996399  0.980978  0.499407  1
  W  W3  1  0.996178  0.980853  0.999291  1
  O  O4  1  0.805352  0.870358  0.149208  1
  O  O5  1  0.188393  0.073442  0.850879  1
  O  O6  1  0.470068  0.481666  0.289283  1
  O  O7  1  0.465524  0.952278  0.686169  1
  O  O8  1  0.529483  0.009218  0.318170  1
  O  O9  1  0.518197  0.477106  0.708423  1
