# generated using pymatgen
data_Ba2CuMo2F14
_symmetry_space_group_name_H-M   'P 1'
_cell_length_a   5.40073984
_cell_length_b   7.82773550
_cell_length_c   15.68792944
_cell_angle_alpha   92.95938177
_cell_angle_beta   89.99718905
_cell_angle_gamma   110.25139357
_symmetry_Int_Tables_number   1
_chemical_formula_structural   Ba2CuMo2F14
_chemical_formula_sum   'Ba4 Cu2 Mo4 F28'
_cell_volume   621.27574946
_cell_formula_units_Z   2
loop_
 _symmetry_equiv_pos_site_id
 _symmetry_equiv_pos_as_xyz
  1  'x, y, z'
loop_
 _atom_site_type_symbol
 _atom_site_label
 _atom_site_symmetry_multiplicity
 _atom_site_fract_x
 _atom_site_fract_y
 _atom_site_fract_z
 _atom_site_occupancy
  Ba  Ba0  1  0.103832  0.355442  0.628615  1
  Ba  Ba1  1  0.251741  0.353850  0.128708  1
  Ba  Ba2  1  0.898525  0.647765  0.372388  1
  Ba  Ba3  1  0.748514  0.646433  0.872324  1
  Cu  Cu4  1  0.500749  0.000552  0.000572  1
  Cu  Cu5  1  0.500754  0.002401  0.500291  1
  Mo  Mo6  1  0.097514  0.246013  0.872630  1
  Mo  Mo7  1  0.903700  0.754411  0.128195  1
  Mo  Mo8  1  0.148456  0.246967  0.372544  1
  Mo  Mo9  1  0.850774  0.755878  0.627873  1
  F  F10  1  0.923431  0.994949  0.345590  1
  F  F11  1  0.889735  0.302457  0.451508  1
  F  F12  1  0.112087  0.702212  0.549343  1
  F  F13  1  0.632771  0.498773  0.590454  1
  F  F14  1  0.636105  0.124071  0.602733  1
  F  F15  1  0.516502  0.879522  0.898182  1
  F  F16  1  0.412064  0.302461  0.951838  1
  F  F17  1  0.927995  0.006015  0.154404  1
  F  F18  1  0.357758  0.359254  0.778984  1
  F  F19  1  0.367607  0.504898  0.408282  1
  F  F20  1  0.829811  0.255323  0.791566  1
  F  F21  1  0.136252  0.503963  0.907961  1
  F  F22  1  0.426744  0.257282  0.291659  1
  F  F23  1  0.171849  0.745681  0.209290  1
  F  F24  1  0.485121  0.121416  0.102993  1
  F  F25  1  0.643705  0.640741  0.221828  1
  F  F26  1  0.121038  0.835959  0.018310  1
  F  F27  1  0.075257  0.007621  0.655863  1
  F  F28  1  0.880363  0.165392  0.982634  1
  F  F29  1  0.718064  0.839411  0.518077  1
  F  F30  1  0.588849  0.697498  0.049149  1
  F  F31  1  0.569756  0.742844  0.708050  1
  F  F32  1  0.002078  0.360302  0.278888  1
  F  F33  1  0.283865  0.165557  0.482449  1
  F  F34  1  0.364987  0.880837  0.397872  1
  F  F35  1  0.072156  0.994102  0.846747  1
  F  F36  1  0.994460  0.640687  0.721498  1
  F  F37  1  0.866395  0.496960  0.092534  1
