# generated using pymatgen
data_MnZnAsO5
_symmetry_space_group_name_H-M   'P 1'
_cell_length_a   8.24928400
_cell_length_b   6.20788289
_cell_length_c   8.39338104
_cell_angle_alpha   90.00144291
_cell_angle_beta   89.98951524
_cell_angle_gamma   90.00163515
_symmetry_Int_Tables_number   1
_chemical_formula_structural   MnZnAsO5
_chemical_formula_sum   'Mn4 Zn4 As4 O20'
_cell_volume   429.82997945
_cell_formula_units_Z   4
loop_
 _symmetry_equiv_pos_site_id
 _symmetry_equiv_pos_as_xyz
  1  'x, y, z'
loop_
 _atom_site_type_symbol
 _atom_site_label
 _atom_site_symmetry_multiplicity
 _atom_site_fract_x
 _atom_site_fract_y
 _atom_site_fract_z
 _atom_site_occupancy
  Mn  Mn0  1  0.999748  0.493062  0.750325  1
  Mn  Mn1  1  0.500265  0.507161  0.250344  1
  Mn  Mn2  1  0.499617  0.007151  0.249672  1
  Mn  Mn3  1  0.000323  0.993079  0.749639  1
  Zn  Zn4  1  0.999089  0.745571  0.055856  1
  Zn  Zn5  1  0.500962  0.254369  0.555901  1
  Zn  Zn6  1  0.499117  0.754350  0.944116  1
  Zn  Zn7  1  0.000907  0.245563  0.444093  1
  As  As8  1  0.645358  0.258561  0.919609  1
  As  As9  1  0.854668  0.741373  0.419602  1
  As  As10  1  0.145340  0.241384  0.080383  1
  As  As11  1  0.354649  0.758561  0.580425  1
  O  O12  1  0.835787  0.245890  0.840179  1
  O  O13  1  0.664254  0.754183  0.340216  1
  O  O14  1  0.335718  0.254171  0.159854  1
  O  O15  1  0.164223  0.745892  0.659859  1
  O  O16  1  0.496196  0.277956  0.779480  1
  O  O17  1  0.003858  0.721777  0.279434  1
  O  O18  1  0.996114  0.221783  0.220512  1
  O  O19  1  0.503842  0.777975  0.720522  1
  O  O20  1  0.619292  0.027998  0.034307  1
  O  O21  1  0.880722  0.971955  0.534300  1
  O  O22  1  0.119333  0.471958  0.965694  1
  O  O23  1  0.380645  0.527989  0.465727  1
  O  O24  1  0.626523  0.488894  0.037025  1
  O  O25  1  0.873471  0.511092  0.537040  1
  O  O26  1  0.126580  0.011106  0.962930  1
  O  O27  1  0.373433  0.988889  0.463015  1
  O  O28  1  0.899153  0.743695  0.841649  1
  O  O29  1  0.600801  0.256466  0.341628  1
  O  O30  1  0.399097  0.756448  0.158367  1
  O  O31  1  0.100912  0.243699  0.658296  1
