# generated using pymatgen
data_MgSbAs2SeO7
_symmetry_space_group_name_H-M   'P 1'
_cell_length_a   10.63966243
_cell_length_b   13.52879234
_cell_length_c   13.52471815
_cell_angle_alpha   81.13835572
_cell_angle_beta   66.83762247
_cell_angle_gamma   66.83063629
_symmetry_Int_Tables_number   1
_chemical_formula_structural   MgSbAs2SeO7
_chemical_formula_sum   'Mg8 Sb8 As16 Se8 O56'
_cell_volume   1645.49076366
_cell_formula_units_Z   8
loop_
 _symmetry_equiv_pos_site_id
 _symmetry_equiv_pos_as_xyz
  1  'x, y, z'
loop_
 _atom_site_type_symbol
 _atom_site_label
 _atom_site_symmetry_multiplicity
 _atom_site_fract_x
 _atom_site_fract_y
 _atom_site_fract_z
 _atom_site_occupancy
  Mg  Mg0  1  0.186356  0.382731  0.335664  1
  Mg  Mg1  1  0.069143  0.335727  0.116982  1
  Mg  Mg2  1  0.479058  0.835372  0.616498  1
  Mg  Mg3  1  0.930857  0.664273  0.883018  1
  Mg  Mg4  1  0.813644  0.617269  0.664336  1
  Mg  Mg5  1  0.095206  0.882863  0.835769  1
  Mg  Mg6  1  0.520942  0.164628  0.383502  1
  Mg  Mg7  1  0.904794  0.117137  0.164232  1
  Sb  Sb8  1  0.271788  0.610676  0.748838  1
  Sb  Sb9  1  0.631264  0.889305  0.751224  1
  Sb  Sb10  1  0.728212  0.389324  0.251162  1
  Sb  Sb11  1  0.979464  0.248794  0.389088  1
  Sb  Sb12  1  0.368736  0.110695  0.248776  1
  Sb  Sb13  1  0.020536  0.751206  0.610912  1
  Sb  Sb14  1  0.617277  0.251200  0.110934  1
  Sb  Sb15  1  0.382723  0.748800  0.889066  1
  As  As16  1  0.630550  0.459113  0.837073  1
  As  As17  1  0.905526  0.579482  0.227919  1
  As  As18  1  0.287355  0.079103  0.727771  1
  As  As19  1  0.467733  0.662638  0.459025  1
  As  As20  1  0.133957  0.271740  0.579222  1
  As  As21  1  0.926802  0.040728  0.662883  1
  As  As22  1  0.410482  0.162719  0.959100  1
  As  As23  1  0.866043  0.728260  0.420778  1
  As  As24  1  0.589518  0.837281  0.040900  1
  As  As25  1  0.073198  0.959272  0.337117  1
  As  As26  1  0.094474  0.420518  0.772081  1
  As  As27  1  0.985086  0.227879  0.920494  1
  As  As28  1  0.369450  0.540887  0.162927  1
  As  As29  1  0.712645  0.920897  0.272229  1
  As  As30  1  0.014914  0.772121  0.079506  1
  As  As31  1  0.532267  0.337362  0.540975  1
  Se  Se32  1  0.746774  0.486571  0.500491  1
  Se  Se33  1  0.733834  0.013521  0.999443  1
  Se  Se34  1  0.752737  0.000581  0.513492  1
  Se  Se35  1  0.733257  0.500530  0.013603  1
  Se  Se36  1  0.247263  0.999419  0.486508  1
  Se  Se37  1  0.253226  0.513429  0.499509  1
  Se  Se38  1  0.266743  0.499470  0.986397  1
  Se  Se39  1  0.266166  0.986479  0.000557  1
  O  O40  1  0.954987  0.835999  0.972374  1
  O  O41  1  0.089503  0.125574  0.813134  1
  O  O42  1  0.619593  0.913702  0.603805  1
  O  O43  1  0.057060  0.035512  0.225973  1
  O  O44  1  0.033026  0.603938  0.586170  1
  O  O45  1  0.776732  0.103851  0.086368  1
  O  O46  1  0.417057  0.518124  0.862153  1
  O  O47  1  0.681483  0.535482  0.726039  1
  O  O48  1  0.068193  0.712692  0.744915  1
  O  O49  1  0.283141  0.274090  0.035276  1
  O  O50  1  0.719009  0.255308  0.212727  1
  O  O51  1  0.407420  0.774049  0.535207  1
  O  O52  1  0.910497  0.874426  0.186866  1
  O  O53  1  0.223268  0.896149  0.913632  1
  O  O54  1  0.927340  0.527720  0.835936  1
  O  O55  1  0.094133  0.950135  0.562455  1
  O  O56  1  0.971314  0.625845  0.313507  1
  O  O57  1  0.202523  0.018232  0.362166  1
  O  O58  1  0.072660  0.472280  0.164063  1
  O  O59  1  0.045013  0.164001  0.027626  1
  O  O60  1  0.564765  0.137760  0.018151  1
  O  O61  1  0.028686  0.374155  0.686493  1
  O  O62  1  0.942940  0.964488  0.774027  1
  O  O63  1  0.237344  0.335403  0.471985  1
  O  O64  1  0.393070  0.450369  0.062549  1
  O  O65  1  0.280991  0.744692  0.787273  1
  O  O66  1  0.525941  0.787195  0.755028  1
  O  O67  1  0.544230  0.562637  0.549828  1
  O  O68  1  0.187012  0.244767  0.287087  1
  O  O69  1  0.902689  0.686656  0.125588  1
  O  O70  1  0.931807  0.287308  0.255085  1
  O  O71  1  0.435235  0.862240  0.981849  1
  O  O72  1  0.455771  0.437363  0.450172  1
  O  O73  1  0.714511  0.813756  0.374626  1
  O  O74  1  0.592580  0.225951  0.464793  1
  O  O75  1  0.720852  0.362312  0.481850  1
  O  O76  1  0.380407  0.086298  0.396195  1
  O  O77  1  0.343151  0.062701  0.049835  1
  O  O78  1  0.656849  0.937299  0.950165  1
  O  O79  1  0.863134  0.413681  0.103811  1
  O  O80  1  0.582943  0.481876  0.137847  1
  O  O81  1  0.136866  0.586319  0.896189  1
  O  O82  1  0.812988  0.755233  0.712913  1
  O  O83  1  0.279148  0.637688  0.518150  1
  O  O84  1  0.905867  0.049865  0.437545  1
  O  O85  1  0.762656  0.664597  0.528015  1
  O  O86  1  0.606930  0.549631  0.937450  1
  O  O87  1  0.285489  0.186244  0.625374  1
  O  O88  1  0.318517  0.464518  0.273961  1
  O  O89  1  0.797477  0.981768  0.637834  1
  O  O90  1  0.291513  0.971928  0.663764  1
  O  O91  1  0.708487  0.028073  0.336236  1
  O  O92  1  0.966974  0.396062  0.413830  1
  O  O93  1  0.097311  0.313344  0.874412  1
  O  O94  1  0.474059  0.212805  0.244972  1
  O  O95  1  0.716859  0.725910  0.964724  1
