# generated using pymatgen
data_Zn(MoO2)4
_symmetry_space_group_name_H-M   'P 1'
_cell_length_a   3.21069785
_cell_length_b   7.64734637
_cell_length_c   8.03237717
_cell_angle_alpha   80.71607080
_cell_angle_beta   78.97534680
_cell_angle_gamma   76.77789071
_symmetry_Int_Tables_number   1
_chemical_formula_structural   Zn(MoO2)4
_chemical_formula_sum   'Zn1 Mo4 O8'
_cell_volume   187.01769997
_cell_formula_units_Z   1
loop_
 _symmetry_equiv_pos_site_id
 _symmetry_equiv_pos_as_xyz
  1  'x, y, z'
loop_
 _atom_site_type_symbol
 _atom_site_label
 _atom_site_symmetry_multiplicity
 _atom_site_fract_x
 _atom_site_fract_y
 _atom_site_fract_z
 _atom_site_occupancy
  Zn  Zn0  1  0.325315  0.139224  0.212502  1
  Mo  Mo1  1  0.637162  0.175590  0.560958  1
  Mo  Mo2  1  0.154120  0.510565  0.199997  1
  Mo  Mo3  1  0.839867  0.482532  0.839416  1
  Mo  Mo4  1  0.370565  0.798988  0.488888  1
  O  O5  1  0.864963  0.669935  0.608746  1
  O  O6  1  0.472234  0.331979  0.741638  1
  O  O7  1  0.531159  0.650150  0.293716  1
  O  O8  1  0.158332  0.302534  0.419026  1
  O  O9  1  0.174997  0.007976  0.639848  1
  O  O10  1  0.799570  0.318684  0.103190  1
  O  O11  1  0.834723  0.986370  0.355130  1
  O  O12  1  0.215155  0.616111  0.945736  1
