# generated using pymatgen
data_ZnCr2(CuO4)2
_symmetry_space_group_name_H-M   'P 1'
_cell_length_a   6.48331718
_cell_length_b   8.31957222
_cell_length_c   11.92922697
_cell_angle_alpha   90.00000000
_cell_angle_beta   90.60056189
_cell_angle_gamma   90.00000000
_symmetry_Int_Tables_number   1
_chemical_formula_structural   ZnCr2(CuO4)2
_chemical_formula_sum   'Zn4 Cr8 Cu8 O32'
_cell_volume   643.40837398
_cell_formula_units_Z   4
loop_
 _symmetry_equiv_pos_site_id
 _symmetry_equiv_pos_as_xyz
  1  'x, y, z'
loop_
 _atom_site_type_symbol
 _atom_site_label
 _atom_site_symmetry_multiplicity
 _atom_site_fract_x
 _atom_site_fract_y
 _atom_site_fract_z
 _atom_site_occupancy
  Zn  Zn0  1  0.115007  0.158535  0.048211  1
  Zn  Zn1  1  0.884993  0.841465  0.951789  1
  Zn  Zn2  1  0.884993  0.658535  0.451789  1
  Zn  Zn3  1  0.115007  0.341465  0.548211  1
  Cr  Cr4  1  0.102709  0.460763  0.846662  1
  Cr  Cr5  1  0.102709  0.039237  0.346662  1
  Cr  Cr6  1  0.610699  0.089090  0.131835  1
  Cr  Cr7  1  0.897291  0.960763  0.653338  1
  Cr  Cr8  1  0.389301  0.910910  0.868165  1
  Cr  Cr9  1  0.389301  0.589090  0.368165  1
  Cr  Cr10  1  0.610699  0.410910  0.631835  1
  Cr  Cr11  1  0.897291  0.539237  0.153338  1
  Cu  Cu12  1  0.754164  0.184669  0.872611  1
  Cu  Cu13  1  0.383107  0.059065  0.635081  1
  Cu  Cu14  1  0.616893  0.940935  0.364919  1
  Cu  Cu15  1  0.245836  0.815331  0.127389  1
  Cu  Cu16  1  0.754164  0.315331  0.372611  1
  Cu  Cu17  1  0.383107  0.440935  0.135081  1
  Cu  Cu18  1  0.245836  0.684669  0.627389  1
  Cu  Cu19  1  0.616893  0.559065  0.864919  1
  O  O20  1  0.036506  0.226474  0.392789  1
  O  O21  1  0.670342  0.012495  0.597504  1
  O  O22  1  0.185947  0.581119  0.473357  1
  O  O23  1  0.814053  0.081119  0.026643  1
  O  O24  1  0.036506  0.273526  0.892789  1
  O  O25  1  0.963494  0.773526  0.607211  1
  O  O26  1  0.079207  0.098493  0.615826  1
  O  O27  1  0.516810  0.896967  0.139508  1
  O  O28  1  0.516810  0.603033  0.639508  1
  O  O29  1  0.318732  0.867197  0.727072  1
  O  O30  1  0.681268  0.367197  0.772928  1
  O  O31  1  0.483190  0.103033  0.860492  1
  O  O32  1  0.920793  0.901507  0.384174  1
  O  O33  1  0.878773  0.536325  0.292353  1
  O  O34  1  0.408558  0.279790  0.584525  1
  O  O35  1  0.408558  0.220210  0.084525  1
  O  O36  1  0.121227  0.036325  0.207647  1
  O  O37  1  0.483190  0.396967  0.360492  1
  O  O38  1  0.121227  0.463675  0.707647  1
  O  O39  1  0.814053  0.418881  0.526643  1
  O  O40  1  0.670342  0.487505  0.097504  1
  O  O41  1  0.681268  0.132803  0.272928  1
  O  O42  1  0.963494  0.726474  0.107211  1
  O  O43  1  0.079207  0.401507  0.115826  1
  O  O44  1  0.185947  0.918881  0.973357  1
  O  O45  1  0.591442  0.779790  0.915475  1
  O  O46  1  0.329658  0.987505  0.402496  1
  O  O47  1  0.329658  0.512495  0.902496  1
  O  O48  1  0.920793  0.598493  0.884174  1
  O  O49  1  0.591442  0.720210  0.415475  1
  O  O50  1  0.318732  0.632803  0.227072  1
  O  O51  1  0.878773  0.963675  0.792353  1
