# generated using pymatgen
data_Mg(AgO2)2
_symmetry_space_group_name_H-M   'P 1'
_cell_length_a   6.15110027
_cell_length_b   6.15109964
_cell_length_c   6.72022651
_cell_angle_alpha   56.88903546
_cell_angle_beta   56.88904568
_cell_angle_gamma   63.95522442
_symmetry_Int_Tables_number   1
_chemical_formula_structural   Mg(AgO2)2
_chemical_formula_sum   'Mg2 Ag4 O8'
_cell_volume   174.77037339
_cell_formula_units_Z   2
loop_
 _symmetry_equiv_pos_site_id
 _symmetry_equiv_pos_as_xyz
  1  'x, y, z'
loop_
 _atom_site_type_symbol
 _atom_site_label
 _atom_site_symmetry_multiplicity
 _atom_site_fract_x
 _atom_site_fract_y
 _atom_site_fract_z
 _atom_site_occupancy
  Mg  Mg0  1  0.125000  0.625000  0.625000  1
  Mg  Mg1  1  0.625000  0.125000  0.625000  1
  Ag  Ag2  1  0.973795  0.973795  0.026205  1
  Ag  Ag3  1  0.276205  0.276205  0.223795  1
  Ag  Ag4  1  0.625000  0.625000  0.125000  1
  Ag  Ag5  1  0.625000  0.625000  0.625000  1
  O  O6  1  0.368913  0.368913  0.432710  1
  O  O7  1  0.433121  0.844967  0.360956  1
  O  O8  1  0.368913  0.368913  0.829465  1
  O  O9  1  0.844967  0.433121  0.360956  1
  O  O10  1  0.405033  0.816879  0.889044  1
  O  O11  1  0.816879  0.405033  0.889044  1
  O  O12  1  0.881087  0.881087  0.420535  1
  O  O13  1  0.881087  0.881087  0.817290  1
