# generated using pymatgen
data_CaFe2O5
_symmetry_space_group_name_H-M   'P 1'
_cell_length_a   3.86086364
_cell_length_b   6.18949543
_cell_length_c   11.07633536
_cell_angle_alpha   90.00000000
_cell_angle_beta   90.00000000
_cell_angle_gamma   108.19175889
_symmetry_Int_Tables_number   1
_chemical_formula_structural   CaFe2O5
_chemical_formula_sum   'Ca2 Fe4 O10'
_cell_volume   251.45899057
_cell_formula_units_Z   2
loop_
 _symmetry_equiv_pos_site_id
 _symmetry_equiv_pos_as_xyz
  1  'x, y, z'
loop_
 _atom_site_type_symbol
 _atom_site_label
 _atom_site_symmetry_multiplicity
 _atom_site_fract_x
 _atom_site_fract_y
 _atom_site_fract_z
 _atom_site_occupancy
  Ca  Ca0  1  0.893705  0.787236  0.750000  1
  Ca  Ca1  1  0.106296  0.212765  0.250000  1
  Fe  Fe2  1  0.208721  0.417202  0.599920  1
  Fe  Fe3  1  0.791280  0.582799  0.400079  1
  Fe  Fe4  1  0.791280  0.582799  0.099921  1
  Fe  Fe5  1  0.208721  0.417202  0.900080  1
  O  O6  1  0.705945  0.412142  0.250000  1
  O  O7  1  0.294056  0.587859  0.750000  1
  O  O8  1  0.241163  0.482386  0.075070  1
  O  O9  1  0.758839  0.517615  0.924930  1
  O  O10  1  0.758839  0.517615  0.575070  1
  O  O11  1  0.241163  0.482386  0.424929  1
  O  O12  1  0.061379  0.122838  0.649655  1
  O  O13  1  0.938621  0.877161  0.350345  1
  O  O14  1  0.061379  0.122838  0.850345  1
  O  O15  1  0.938621  0.877161  0.149656  1
