# generated using pymatgen
data_CaMnNiP2O9
_symmetry_space_group_name_H-M   'P 1'
_cell_length_a   6.42624520
_cell_length_b   7.40052297
_cell_length_c   14.25661587
_cell_angle_alpha   89.99123116
_cell_angle_beta   90.00706583
_cell_angle_gamma   90.00924542
_symmetry_Int_Tables_number   1
_chemical_formula_structural   CaMnNiP2O9
_chemical_formula_sum   'Ca4 Mn4 Ni4 P8 O36'
_cell_volume   678.01006004
_cell_formula_units_Z   4
loop_
 _symmetry_equiv_pos_site_id
 _symmetry_equiv_pos_as_xyz
  1  'x, y, z'
loop_
 _atom_site_type_symbol
 _atom_site_label
 _atom_site_symmetry_multiplicity
 _atom_site_fract_x
 _atom_site_fract_y
 _atom_site_fract_z
 _atom_site_occupancy
  Ca  Ca0  1  0.749910  0.882649  0.781808  1
  Ca  Ca1  1  0.749918  0.617381  0.281738  1
  Ca  Ca2  1  0.250053  0.117304  0.218225  1
  Ca  Ca3  1  0.249976  0.382172  0.718262  1
  Mn  Mn4  1  0.749969  0.348345  0.880028  1
  Mn  Mn5  1  0.250022  0.651646  0.120017  1
  Mn  Mn6  1  0.250077  0.848274  0.619933  1
  Mn  Mn7  1  0.750032  0.151542  0.380051  1
  Ni  Ni8  1  0.499913  0.999914  0.999968  1
  Ni  Ni9  1  0.500062  0.499897  0.499976  1
  Ni  Ni10  1  0.000107  0.500022  0.500000  1
  Ni  Ni11  1  0.000026  0.999952  0.999952  1
  P  P12  1  0.249999  0.355684  0.938692  1
  P  P13  1  0.750015  0.644338  0.061262  1
  P  P14  1  0.750029  0.855407  0.561377  1
  P  P15  1  0.249970  0.144598  0.438693  1
  P  P16  1  0.750016  0.392266  0.693378  1
  P  P17  1  0.249959  0.607967  0.306685  1
  P  P18  1  0.249996  0.891887  0.806452  1
  P  P19  1  0.749903  0.108036  0.193396  1
  O  O20  1  0.051980  0.607035  0.366223  1
  O  O21  1  0.551989  0.393125  0.633843  1
  O  O22  1  0.947918  0.107003  0.133743  1
  O  O23  1  0.447913  0.892969  0.866195  1
  O  O24  1  0.947991  0.393195  0.633852  1
  O  O25  1  0.447945  0.606920  0.366253  1
  O  O26  1  0.051996  0.893120  0.866120  1
  O  O27  1  0.551991  0.107114  0.133649  1
  O  O28  1  0.249830  0.330939  0.486912  1
  O  O29  1  0.750070  0.669072  0.513177  1
  O  O30  1  0.749939  0.830638  0.012741  1
  O  O31  1  0.250026  0.169244  0.987135  1
  O  O32  1  0.749934  0.135966  0.943049  1
  O  O33  1  0.250015  0.864069  0.056844  1
  O  O34  1  0.250071  0.636310  0.556576  1
  O  O35  1  0.750246  0.363808  0.443332  1
  O  O36  1  0.750020  0.219054  0.759730  1
  O  O37  1  0.250064  0.781171  0.240386  1
  O  O38  1  0.249972  0.718666  0.740283  1
  O  O39  1  0.749881  0.281258  0.259608  1
  O  O40  1  0.438105  0.130520  0.369312  1
  O  O41  1  0.938286  0.869662  0.630824  1
  O  O42  1  0.561983  0.630240  0.130654  1
  O  O43  1  0.061755  0.369566  0.869334  1
  O  O44  1  0.561822  0.869474  0.630797  1
  O  O45  1  0.061914  0.130010  0.369294  1
  O  O46  1  0.438245  0.369666  0.869356  1
  O  O47  1  0.938043  0.630363  0.130670  1
  O  O48  1  0.749695  0.956274  0.270600  1
  O  O49  1  0.250187  0.043629  0.729229  1
  O  O50  1  0.249925  0.456116  0.229384  1
  O  O51  1  0.750044  0.544037  0.770691  1
  O  O52  1  0.749998  0.005615  0.489196  1
  O  O53  1  0.250215  0.994826  0.511208  1
  O  O54  1  0.249991  0.505904  0.010782  1
  O  O55  1  0.750050  0.494139  0.989132  1
