# generated using pymatgen
data_Ca3Mn2O7
_symmetry_space_group_name_H-M   'P 1'
_cell_length_a   5.37487297
_cell_length_b   5.33013900
_cell_length_c   10.10060337
_cell_angle_alpha   105.29877419
_cell_angle_beta   90.00000000
_cell_angle_gamma   90.00000000
_symmetry_Int_Tables_number   1
_chemical_formula_structural   Ca3Mn2O7
_chemical_formula_sum   'Ca6 Mn4 O14'
_cell_volume   279.11596903
_cell_formula_units_Z   2
loop_
 _symmetry_equiv_pos_site_id
 _symmetry_equiv_pos_as_xyz
  1  'x, y, z'
loop_
 _atom_site_type_symbol
 _atom_site_label
 _atom_site_symmetry_multiplicity
 _atom_site_fract_x
 _atom_site_fract_y
 _atom_site_fract_z
 _atom_site_occupancy
  Ca  Ca0  1  0.706337  0.755677  0.000000  1
  Ca  Ca1  1  0.206337  0.244323  0.000000  1
  Ca  Ca2  1  0.788093  0.568649  0.626012  1
  Ca  Ca3  1  0.288093  0.431351  0.373988  1
  Ca  Ca4  1  0.788093  0.942635  0.373988  1
  Ca  Ca5  1  0.288093  0.057365  0.626012  1
  Mn  Mn6  1  0.749475  0.348342  0.196293  1
  Mn  Mn7  1  0.249475  0.651658  0.803707  1
  Mn  Mn8  1  0.249475  0.847950  0.196293  1
  Mn  Mn9  1  0.749475  0.152050  0.803707  1
  O  O10  1  0.739519  0.001134  0.608020  1
  O  O11  1  0.239519  0.998866  0.391980  1
  O  O12  1  0.239519  0.606885  0.608020  1
  O  O13  1  0.739519  0.393115  0.391980  1
  O  O14  1  0.038936  0.347692  0.776768  1
  O  O15  1  0.538936  0.652308  0.223232  1
  O  O16  1  0.538936  0.429076  0.776768  1
  O  O17  1  0.038936  0.570924  0.223232  1
  O  O18  1  0.958019  0.874423  0.832789  1
  O  O19  1  0.458019  0.125577  0.167211  1
  O  O20  1  0.765579  0.321938  0.000000  1
  O  O21  1  0.265580  0.678062  1.000000  1
  O  O22  1  0.958019  0.041634  0.167211  1
  O  O23  1  0.458019  0.958366  0.832789  1
