# generated using pymatgen
data_Mg(WO2)2
_symmetry_space_group_name_H-M   'P 1'
_cell_length_a   5.58234369
_cell_length_b   6.48983678
_cell_length_c   10.48221789
_cell_angle_alpha   90.02811500
_cell_angle_beta   89.99888919
_cell_angle_gamma   89.99988172
_symmetry_Int_Tables_number   1
_chemical_formula_structural   Mg(WO2)2
_chemical_formula_sum   'Mg4 W8 O16'
_cell_volume   379.75497880
_cell_formula_units_Z   4
loop_
 _symmetry_equiv_pos_site_id
 _symmetry_equiv_pos_as_xyz
  1  'x, y, z'
loop_
 _atom_site_type_symbol
 _atom_site_label
 _atom_site_symmetry_multiplicity
 _atom_site_fract_x
 _atom_site_fract_y
 _atom_site_fract_z
 _atom_site_occupancy
  Mg  Mg0  1  0.855605  0.250001  0.750008  1
  Mg  Mg1  1  0.144388  0.750003  0.250001  1
  Mg  Mg2  1  0.547328  0.250011  0.250000  1
  Mg  Mg3  1  0.452678  0.749991  0.749995  1
  W  W4  1  0.519007  0.748344  0.478413  1
  W  W5  1  0.519033  0.751658  0.021583  1
  W  W6  1  0.480991  0.248369  0.521585  1
  W  W7  1  0.481016  0.251629  0.978418  1
  W  W8  1  0.000187  0.498390  0.499642  1
  W  W9  1  0.000217  0.001611  0.000358  1
  W  W10  1  0.999759  0.998349  0.500349  1
  W  W11  1  0.999788  0.501649  0.999652  1
  O  O12  1  0.874055  0.748639  0.384201  1
  O  O13  1  0.874072  0.751360  0.115800  1
  O  O14  1  0.125928  0.248801  0.615811  1
  O  O15  1  0.125961  0.251199  0.884189  1
  O  O16  1  0.204904  0.748267  0.597070  1
  O  O17  1  0.204935  0.751731  0.902928  1
  O  O18  1  0.795064  0.248156  0.402933  1
  O  O19  1  0.795086  0.251846  0.097071  1
  O  O20  1  0.664402  0.505261  0.613008  1
  O  O21  1  0.664441  0.994747  0.886990  1
  O  O22  1  0.335517  0.005068  0.386982  1
  O  O23  1  0.335542  0.494933  0.113019  1
  O  O24  1  0.336891  0.490993  0.386561  1
  O  O25  1  0.336911  0.009005  0.113439  1
  O  O26  1  0.663128  0.991190  0.613444  1
  O  O27  1  0.663166  0.508801  0.886552  1
