# generated using pymatgen
data_CaCoWO6
_symmetry_space_group_name_H-M   'P 1'
_cell_length_a   5.29926721
_cell_length_b   5.35011896
_cell_length_c   7.50346068
_cell_angle_alpha   90.00000000
_cell_angle_beta   89.93180426
_cell_angle_gamma   90.00000000
_symmetry_Int_Tables_number   1
_chemical_formula_structural   CaCoWO6
_chemical_formula_sum   'Ca2 Co2 W2 O12'
_cell_volume   212.73579023
_cell_formula_units_Z   2
loop_
 _symmetry_equiv_pos_site_id
 _symmetry_equiv_pos_as_xyz
  1  'x, y, z'
loop_
 _atom_site_type_symbol
 _atom_site_label
 _atom_site_symmetry_multiplicity
 _atom_site_fract_x
 _atom_site_fract_y
 _atom_site_fract_z
 _atom_site_occupancy
  Ca  Ca0  1  0.989645  0.045823  0.250645  1
  Ca  Ca1  1  0.489645  0.454177  0.750645  1
  Co  Co2  1  0.999435  0.494866  0.501640  1
  Co  Co3  1  0.499435  0.005134  0.001640  1
  W  W4  1  0.501228  0.985379  0.501057  1
  W  W5  1  0.001228  0.514621  0.001057  1
  O  O6  1  0.715176  0.280466  0.467319  1
  O  O7  1  0.785334  0.793355  0.037416  1
  O  O8  1  0.285334  0.706645  0.537416  1
  O  O9  1  0.215176  0.219534  0.967319  1
  O  O10  1  0.209342  0.217605  0.530859  1
  O  O11  1  0.292869  0.718474  0.964302  1
  O  O12  1  0.792869  0.781526  0.464302  1
  O  O13  1  0.709342  0.282395  0.030859  1
  O  O14  1  0.064264  0.492379  0.254441  1
  O  O15  1  0.428362  0.992313  0.245955  1
  O  O16  1  0.928362  0.507687  0.745955  1
  O  O17  1  0.564264  0.007621  0.754441  1
