# generated using pymatgen
data_Mg(NiS2)4
_symmetry_space_group_name_H-M   'P 1'
_cell_length_a   6.84465796
_cell_length_b   6.85295127
_cell_length_c   6.85295198
_cell_angle_alpha   60.00000092
_cell_angle_beta   59.95990775
_cell_angle_gamma   59.95990242
_symmetry_Int_Tables_number   1
_chemical_formula_structural   Mg(NiS2)4
_chemical_formula_sum   'Mg1 Ni4 S8'
_cell_volume   227.15830788
_cell_formula_units_Z   1
loop_
 _symmetry_equiv_pos_site_id
 _symmetry_equiv_pos_as_xyz
  1  'x, y, z'
loop_
 _atom_site_type_symbol
 _atom_site_label
 _atom_site_symmetry_multiplicity
 _atom_site_fract_x
 _atom_site_fract_y
 _atom_site_fract_z
 _atom_site_occupancy
  Mg  Mg0  1  0.500000  0.000000  0.000000  1
  Ni  Ni1  1  0.000000  0.500000  0.500000  1
  Ni  Ni2  1  0.500000  0.500000  0.000000  1
  Ni  Ni3  1  0.500000  0.500000  0.500000  1
  Ni  Ni4  1  0.500000  0.000000  0.500000  1
  S  S5  1  0.269054  0.261145  0.261145  1
  S  S6  1  0.269054  0.261145  0.708656  1
  S  S7  1  0.269054  0.708656  0.261145  1
  S  S8  1  0.708399  0.263867  0.263867  1
  S  S9  1  0.291601  0.736133  0.736133  1
  S  S10  1  0.730946  0.738855  0.291344  1
  S  S11  1  0.730946  0.291344  0.738855  1
  S  S12  1  0.730946  0.738855  0.738855  1
