# generated using pymatgen
data_MgTiAg(PO4)3
_symmetry_space_group_name_H-M   'P 1'
_cell_length_a   8.56030491
_cell_length_b   8.56030529
_cell_length_c   8.56030505
_cell_angle_alpha   61.97227296
_cell_angle_beta   61.97227211
_cell_angle_gamma   61.97227524
_symmetry_Int_Tables_number   1
_chemical_formula_structural   MgTiAg(PO4)3
_chemical_formula_sum   'Mg2 Ti2 Ag2 P6 O24'
_cell_volume   463.13194181
_cell_formula_units_Z   2
loop_
 _symmetry_equiv_pos_site_id
 _symmetry_equiv_pos_as_xyz
  1  'x, y, z'
loop_
 _atom_site_type_symbol
 _atom_site_label
 _atom_site_symmetry_multiplicity
 _atom_site_fract_x
 _atom_site_fract_y
 _atom_site_fract_z
 _atom_site_occupancy
  Mg  Mg0  1  0.995502  0.995502  0.995502  1
  Mg  Mg1  1  0.495502  0.495502  0.495502  1
  Ti  Ti2  1  0.145537  0.145537  0.145537  1
  Ti  Ti3  1  0.645537  0.645537  0.645537  1
  Ag  Ag4  1  0.351235  0.351235  0.351235  1
  Ag  Ag5  1  0.851235  0.851235  0.851235  1
  P  P6  1  0.048157  0.444213  0.756908  1
  P  P7  1  0.444213  0.756908  0.048157  1
  P  P8  1  0.756908  0.048157  0.444213  1
  P  P9  1  0.256908  0.944213  0.548157  1
  P  P10  1  0.548157  0.256908  0.944213  1
  P  P11  1  0.944213  0.548157  0.256908  1
  O  O12  1  0.090966  0.531194  0.320826  1
  O  O13  1  0.320826  0.090966  0.531194  1
  O  O14  1  0.050434  0.251976  0.915761  1
  O  O15  1  0.531194  0.320826  0.090966  1
  O  O16  1  0.031194  0.590966  0.820826  1
  O  O17  1  0.241334  0.427187  0.602560  1
  O  O18  1  0.251976  0.915761  0.050434  1
  O  O19  1  0.427187  0.602560  0.241334  1
  O  O20  1  0.192005  0.006056  0.378149  1
  O  O21  1  0.602560  0.241334  0.427187  1
  O  O22  1  0.102560  0.927187  0.741334  1
  O  O23  1  0.378149  0.192005  0.006056  1
  O  O24  1  0.590966  0.820826  0.031194  1
  O  O25  1  0.915761  0.050434  0.251976  1
  O  O26  1  0.415761  0.751976  0.550434  1
  O  O27  1  0.820826  0.031194  0.590966  1
  O  O28  1  0.550434  0.415761  0.751976  1
  O  O29  1  0.741334  0.102560  0.927187  1
  O  O30  1  0.751976  0.550434  0.415761  1
  O  O31  1  0.006056  0.378149  0.192005  1
  O  O32  1  0.506056  0.692005  0.878149  1
  O  O33  1  0.927187  0.741334  0.102560  1
  O  O34  1  0.692005  0.878149  0.506056  1
  O  O35  1  0.878149  0.506056  0.692005  1
