# generated using pymatgen
data_Ca2Ti3O8
_symmetry_space_group_name_H-M   'P 1'
_cell_length_a   6.09280663
_cell_length_b   6.09280667
_cell_length_c   10.61944604
_cell_angle_alpha   90.00000000
_cell_angle_beta   90.00000000
_cell_angle_gamma   119.99999986
_symmetry_Int_Tables_number   1
_chemical_formula_structural   Ca2Ti3O8
_chemical_formula_sum   'Ca4 Ti6 O16'
_cell_volume   341.40296398
_cell_formula_units_Z   2
loop_
 _symmetry_equiv_pos_site_id
 _symmetry_equiv_pos_as_xyz
  1  'x, y, z'
loop_
 _atom_site_type_symbol
 _atom_site_label
 _atom_site_symmetry_multiplicity
 _atom_site_fract_x
 _atom_site_fract_y
 _atom_site_fract_z
 _atom_site_occupancy
  Ca  Ca0  1  0.666667  0.333334  0.023990  1
  Ca  Ca1  1  0.333333  0.666666  0.523991  1
  Ca  Ca2  1  0.666667  0.333334  0.428183  1
  Ca  Ca3  1  0.333333  0.666666  0.928184  1
  Ti  Ti4  1  0.673491  0.836746  0.245324  1
  Ti  Ti5  1  0.836747  0.163255  0.745324  1
  Ti  Ti6  1  0.163255  0.326510  0.245324  1
  Ti  Ti7  1  0.836745  0.673491  0.745324  1
  Ti  Ti8  1  0.326510  0.163255  0.745324  1
  Ti  Ti9  1  0.163255  0.836746  0.245324  1
  O  O10  1  0.843322  0.156679  0.156165  1
  O  O11  1  0.686643  0.843322  0.656164  1
  O  O12  1  0.156679  0.313358  0.656164  1
  O  O13  1  0.843321  0.686643  0.156165  1
  O  O14  1  0.313357  0.156679  0.156165  1
  O  O15  1  0.156679  0.843322  0.656164  1
  O  O16  1  0.523143  0.476856  0.849787  1
  O  O17  1  0.046286  0.523143  0.349787  1
  O  O18  1  0.476857  0.953715  0.349787  1
  O  O19  1  0.523143  0.046286  0.849787  1
  O  O20  1  0.000000  0.000000  0.343526  1
  O  O21  1  0.000000  0.000000  0.843526  1
  O  O22  1  0.333333  0.666666  0.143977  1
  O  O23  1  0.953713  0.476856  0.849787  1
  O  O24  1  0.476856  0.523143  0.349787  1
  O  O25  1  0.666667  0.333334  0.643977  1
