# generated using pymatgen
data_Mg4V5(TeO6)3
_symmetry_space_group_name_H-M   'P 1'
_cell_length_a   8.75280489
_cell_length_b   8.75280534
_cell_length_c   10.66940954
_cell_angle_alpha   85.77169814
_cell_angle_beta   85.77169731
_cell_angle_gamma   63.79131458
_symmetry_Int_Tables_number   1
_chemical_formula_structural   Mg4V5(TeO6)3
_chemical_formula_sum   'Mg8 V10 Te6 O36'
_cell_volume   730.59407929
_cell_formula_units_Z   2
loop_
 _symmetry_equiv_pos_site_id
 _symmetry_equiv_pos_as_xyz
  1  'x, y, z'
loop_
 _atom_site_type_symbol
 _atom_site_label
 _atom_site_symmetry_multiplicity
 _atom_site_fract_x
 _atom_site_fract_y
 _atom_site_fract_z
 _atom_site_occupancy
  Mg  Mg0  1  0.869226  0.546887  0.323450  1
  Mg  Mg1  1  0.486722  0.562194  0.223669  1
  Mg  Mg2  1  0.453113  0.130774  0.676550  1
  Mg  Mg3  1  0.437806  0.513278  0.776331  1
  Mg  Mg4  1  0.171008  0.878119  0.723381  1
  Mg  Mg5  1  0.154542  0.260692  0.823365  1
  Mg  Mg6  1  0.739309  0.845458  0.176635  1
  Mg  Mg7  1  0.121881  0.828992  0.276619  1
  V  V8  1  0.795022  0.500225  0.981781  1
  V  V9  1  0.107994  0.187860  0.482602  1
  V  V10  1  0.330578  0.340021  0.299958  1
  V  V11  1  0.947974  0.722322  0.800208  1
  V  V12  1  0.659979  0.669422  0.700042  1
  V  V13  1  0.972029  0.027971  0.000000  1
  V  V14  1  0.636482  0.363517  0.500000  1
  V  V15  1  0.277678  0.052027  0.199792  1
  V  V16  1  0.812140  0.892006  0.517398  1
  V  V17  1  0.499775  0.204978  0.018219  1
  Te  Te18  1  0.458049  0.854694  0.947778  1
  Te  Te19  1  0.804959  0.195865  0.249883  1
  Te  Te20  1  0.804135  0.195041  0.750117  1
  Te  Te21  1  0.462251  0.849969  0.447740  1
  Te  Te22  1  0.150031  0.537749  0.552260  1
  Te  Te23  1  0.145306  0.541951  0.052222  1
  O  O24  1  0.403382  0.107763  0.862668  1
  O  O25  1  0.715771  0.447959  0.818541  1
  O  O26  1  0.575297  0.577310  0.581519  1
  O  O27  1  0.729497  0.127126  0.429735  1
  O  O28  1  0.552041  0.284229  0.181459  1
  O  O29  1  0.872874  0.270503  0.570265  1
  O  O30  1  0.364742  0.807841  0.289038  1
  O  O31  1  0.048040  0.101491  0.825418  1
  O  O32  1  0.560231  0.289354  0.674323  1
  O  O33  1  0.091956  0.409307  0.398998  1
  O  O34  1  0.574034  0.626889  0.061674  1
  O  O35  1  0.516554  0.982568  0.101016  1
  O  O36  1  0.891846  0.944654  0.681931  1
  O  O37  1  0.705389  0.747753  0.869527  1
  O  O38  1  0.373111  0.425966  0.938326  1
  O  O39  1  0.243255  0.584197  0.210816  1
  O  O40  1  0.034853  0.764587  0.438955  1
  O  O41  1  0.252247  0.294611  0.130473  1
  O  O42  1  0.422690  0.424702  0.418481  1
  O  O43  1  0.235413  0.965147  0.561044  1
  O  O44  1  0.716736  0.795629  0.362796  1
  O  O45  1  0.902975  0.644265  0.630347  1
  O  O46  1  0.898509  0.951960  0.174582  1
  O  O47  1  0.415803  0.756745  0.789184  1
  O  O48  1  0.032868  0.813745  0.919142  1
  O  O49  1  0.735872  0.120063  0.929949  1
  O  O50  1  0.017432  0.483446  0.898984  1
  O  O51  1  0.192159  0.635258  0.710962  1
  O  O52  1  0.055346  0.108154  0.318069  1
  O  O53  1  0.355735  0.097025  0.369653  1
  O  O54  1  0.204371  0.283264  0.637204  1
  O  O55  1  0.879937  0.264128  0.070051  1
  O  O56  1  0.710646  0.439769  0.325677  1
  O  O57  1  0.590693  0.908044  0.601002  1
  O  O58  1  0.186255  0.967132  0.080858  1
  O  O59  1  0.892237  0.596618  0.137332  1
