# generated using pymatgen
data_BaTlCuO4
_symmetry_space_group_name_H-M   'P 1'
_cell_length_a   3.73202141
_cell_length_b   3.73202164
_cell_length_c   16.06361064
_cell_angle_alpha   96.67075444
_cell_angle_beta   96.67075525
_cell_angle_gamma   89.99999872
_symmetry_Int_Tables_number   1
_chemical_formula_structural   BaTlCuO4
_chemical_formula_sum   'Ba2 Tl2 Cu2 O8'
_cell_volume   220.69400506
_cell_formula_units_Z   2
loop_
 _symmetry_equiv_pos_site_id
 _symmetry_equiv_pos_as_xyz
  1  'x, y, z'
loop_
 _atom_site_type_symbol
 _atom_site_label
 _atom_site_symmetry_multiplicity
 _atom_site_fract_x
 _atom_site_fract_y
 _atom_site_fract_z
 _atom_site_occupancy
  Ba  Ba0  1  0.116844  0.116844  0.233688  1
  Ba  Ba1  1  0.883156  0.883156  0.766312  1
  Tl  Tl2  1  0.288003  0.288003  0.576005  1
  Tl  Tl3  1  0.711997  0.711997  0.423995  1
  Cu  Cu4  1  0.543639  0.543639  0.087278  1
  Cu  Cu5  1  0.456361  0.456361  0.912722  1
  O  O6  1  0.778563  0.778563  0.557126  1
  O  O7  1  0.944175  0.444175  0.888351  1
  O  O8  1  0.555825  0.055825  0.111649  1
  O  O9  1  0.648223  0.648223  0.296445  1
  O  O10  1  0.055825  0.555825  0.111649  1
  O  O11  1  0.444175  0.944175  0.888351  1
  O  O12  1  0.351777  0.351777  0.703555  1
  O  O13  1  0.221437  0.221437  0.442875  1
