# generated using pymatgen
data_TiZnP3WO12
_symmetry_space_group_name_H-M   'P 1'
_cell_length_a   8.70198663
_cell_length_b   8.70198904
_cell_length_c   8.70198550
_cell_angle_alpha   60.52450907
_cell_angle_beta   60.52447998
_cell_angle_gamma   60.52448929
_symmetry_Int_Tables_number   1
_chemical_formula_structural   TiZnP3WO12
_chemical_formula_sum   'Ti2 Zn2 P6 W2 O24'
_cell_volume   471.47331345
_cell_formula_units_Z   2
loop_
 _symmetry_equiv_pos_site_id
 _symmetry_equiv_pos_as_xyz
  1  'x, y, z'
loop_
 _atom_site_type_symbol
 _atom_site_label
 _atom_site_symmetry_multiplicity
 _atom_site_fract_x
 _atom_site_fract_y
 _atom_site_fract_z
 _atom_site_occupancy
  Ti  Ti0  1  0.146610  0.146612  0.146611  1
  Ti  Ti1  1  0.646612  0.646611  0.646611  1
  Zn  Zn2  1  0.001751  0.001751  0.001751  1
  Zn  Zn3  1  0.501751  0.501750  0.501750  1
  P  P4  1  0.041546  0.448475  0.759256  1
  P  P5  1  0.448475  0.759256  0.041546  1
  P  P6  1  0.759256  0.041546  0.448475  1
  P  P7  1  0.259254  0.948478  0.541544  1
  P  P8  1  0.541544  0.259255  0.948477  1
  P  P9  1  0.948478  0.541544  0.259255  1
  W  W10  1  0.357959  0.357958  0.357959  1
  W  W11  1  0.857958  0.857959  0.857958  1
  O  O12  1  0.094007  0.502251  0.331086  1
  O  O13  1  0.331086  0.094007  0.502251  1
  O  O14  1  0.051569  0.253989  0.917860  1
  O  O15  1  0.502251  0.331086  0.094006  1
  O  O16  1  0.002251  0.594008  0.831086  1
  O  O17  1  0.235503  0.432926  0.603015  1
  O  O18  1  0.253990  0.917859  0.051569  1
  O  O19  1  0.432926  0.603015  0.235503  1
  O  O20  1  0.193382  0.001479  0.377332  1
  O  O21  1  0.603014  0.235503  0.432927  1
  O  O22  1  0.103015  0.932926  0.735504  1
  O  O23  1  0.377333  0.193382  0.001480  1
  O  O24  1  0.594007  0.831087  0.002250  1
  O  O25  1  0.917859  0.051569  0.253990  1
  O  O26  1  0.417859  0.753990  0.551569  1
  O  O27  1  0.831087  0.002251  0.594007  1
  O  O28  1  0.551569  0.417859  0.753990  1
  O  O29  1  0.735504  0.103015  0.932926  1
  O  O30  1  0.753990  0.551569  0.417860  1
  O  O31  1  0.001480  0.377333  0.193383  1
  O  O32  1  0.501479  0.693382  0.877332  1
  O  O33  1  0.932926  0.735504  0.103015  1
  O  O34  1  0.693383  0.877332  0.501479  1
  O  O35  1  0.877332  0.501479  0.693382  1
