# generated using pymatgen
data_TiZnSiO5
_symmetry_space_group_name_H-M   'P 1'
_cell_length_a   5.44556183
_cell_length_b   7.39358710
_cell_length_c   8.15767600
_cell_angle_alpha   90.19439759
_cell_angle_beta   41.53483207
_cell_angle_gamma   107.11104142
_symmetry_Int_Tables_number   1
_chemical_formula_structural   TiZnSiO5
_chemical_formula_sum   'Ti2 Zn2 Si2 O10'
_cell_volume   195.57967946
_cell_formula_units_Z   2
loop_
 _symmetry_equiv_pos_site_id
 _symmetry_equiv_pos_as_xyz
  1  'x, y, z'
loop_
 _atom_site_type_symbol
 _atom_site_label
 _atom_site_symmetry_multiplicity
 _atom_site_fract_x
 _atom_site_fract_y
 _atom_site_fract_z
 _atom_site_occupancy
  Ti  Ti0  1  0.503990  0.508776  0.505174  1
  Ti  Ti1  1  0.501130  0.009412  0.490808  1
  Zn  Zn2  1  0.737369  0.355424  0.085427  1
  Zn  Zn3  1  0.752572  0.862583  0.663682  1
  Si  Si4  1  0.456709  0.231890  0.866821  1
  Si  Si5  1  0.463239  0.727764  0.171900  1
  O  O6  1  0.567733  0.079166  0.694544  1
  O  O7  1  0.319372  0.369483  0.813541  1
  O  O8  1  0.336185  0.871939  0.355087  1
  O  O9  1  0.592489  0.583265  0.225434  1
  O  O10  1  0.056233  0.582660  0.267858  1
  O  O11  1  0.834395  0.858327  0.858520  1
  O  O12  1  0.839578  0.366812  0.797979  1
  O  O13  1  0.062496  0.097128  0.180719  1
  O  O14  1  0.480580  0.734069  0.594506  1
  O  O15  1  0.459483  0.228272  0.428981  1
