# generated using pymatgen
data_ZnMo2O7
_symmetry_space_group_name_H-M   'P 1'
_cell_length_a   7.89743724
_cell_length_b   6.38346211
_cell_length_c   8.76202886
_cell_angle_alpha   118.86660447
_cell_angle_beta   90.00000000
_cell_angle_gamma   90.00000000
_symmetry_Int_Tables_number   1
_chemical_formula_structural   ZnMo2O7
_chemical_formula_sum   'Zn2 Mo4 O14'
_cell_volume   386.83462698
_cell_formula_units_Z   2
loop_
 _symmetry_equiv_pos_site_id
 _symmetry_equiv_pos_as_xyz
  1  'x, y, z'
loop_
 _atom_site_type_symbol
 _atom_site_label
 _atom_site_symmetry_multiplicity
 _atom_site_fract_x
 _atom_site_fract_y
 _atom_site_fract_z
 _atom_site_occupancy
  Zn  Zn0  1  0.818972  0.585456  0.660796  1
  Zn  Zn1  1  0.318972  0.414544  0.339204  1
  Mo  Mo2  1  0.878983  0.278057  0.200530  1
  Mo  Mo3  1  0.378983  0.721943  0.799470  1
  Mo  Mo4  1  0.316341  0.843297  0.227262  1
  Mo  Mo5  1  0.816341  0.156703  0.772738  1
  O  O6  1  0.631913  0.068296  0.654551  1
  O  O7  1  0.131912  0.931704  0.345449  1
  O  O8  1  0.286831  0.538056  0.589568  1
  O  O9  1  0.786831  0.461944  0.410432  1
  O  O10  1  0.927727  0.355048  0.715529  1
  O  O11  1  0.427727  0.644952  0.284471  1
  O  O12  1  0.601388  0.657221  0.788829  1
  O  O13  1  0.101388  0.342779  0.211171  1
  O  O14  1  0.935118  0.892361  0.727694  1
  O  O15  1  0.435119  0.107639  0.272306  1
  O  O16  1  0.771028  0.316405  0.018388  1
  O  O17  1  0.271028  0.683595  0.981612  1
  O  O18  1  0.856754  0.982858  0.146993  1
  O  O19  1  0.356754  0.017142  0.853007  1
