# generated using pymatgen
data_Ca2La5Mn7NiO24
_symmetry_space_group_name_H-M   'P 1'
_cell_length_a   10.98225403
_cell_length_b   5.47763855
_cell_length_c   7.69200793
_cell_angle_alpha   90.00227850
_cell_angle_beta   90.10254203
_cell_angle_gamma   89.88456029
_symmetry_Int_Tables_number   1
_chemical_formula_structural   Ca2La5Mn7NiO24
_chemical_formula_sum   'Ca2 La5 Mn7 Ni1 O24'
_cell_volume   462.72504063
_cell_formula_units_Z   1
loop_
 _symmetry_equiv_pos_site_id
 _symmetry_equiv_pos_as_xyz
  1  'x, y, z'
loop_
 _atom_site_type_symbol
 _atom_site_label
 _atom_site_symmetry_multiplicity
 _atom_site_fract_x
 _atom_site_fract_y
 _atom_site_fract_z
 _atom_site_occupancy
  Ca  Ca0  1  0.483528  0.003490  0.750195  1
  Ca  Ca1  1  0.726895  0.487306  0.751923  1
  La  La2  1  0.022246  0.996058  0.246160  1
  La  La3  1  0.239939  0.495219  0.755007  1
  La  La4  1  0.500568  0.997294  0.248596  1
  La  La5  1  0.759703  0.505811  0.247828  1
  La  La6  1  0.990617  0.996069  0.754197  1
  Mn  Mn7  1  0.252676  0.995796  0.493731  1
  Mn  Mn8  1  0.495254  0.497967  0.500937  1
  Mn  Mn9  1  0.747053  0.000755  0.505674  1
  Mn  Mn10  1  0.251030  0.994169  0.004677  1
  Mn  Mn11  1  0.495840  0.497952  0.998708  1
  Mn  Mn12  1  0.747662  0.002691  0.995471  1
  Mn  Mn13  1  0.001171  0.499075  0.498654  1
  Ni  Ni14  1  0.000739  0.498514  0.002466  1
  O  O15  1  0.009927  0.553056  0.743823  1
  O  O16  1  0.116659  0.214770  0.968227  1
  O  O17  1  0.111180  0.221398  0.532204  1
  O  O18  1  0.131847  0.740132  0.475072  1
  O  O19  1  0.136694  0.746019  0.018802  1
  O  O20  1  0.255666  0.061383  0.249120  1
  O  O21  1  0.252152  0.943126  0.748673  1
  O  O22  1  0.369137  0.268951  0.958533  1
  O  O23  1  0.367610  0.268152  0.541658  1
  O  O24  1  0.394222  0.785212  0.482323  1
  O  O25  1  0.395523  0.783803  0.016211  1
  O  O26  1  0.512292  0.440811  0.249634  1
  O  O27  1  0.504799  0.568804  0.750149  1
  O  O28  1  0.610788  0.219997  0.537760  1
  O  O29  1  0.608367  0.219557  0.962387  1
  O  O30  1  0.637899  0.724018  0.467286  1
  O  O31  1  0.637137  0.721990  0.033545  1
  O  O32  1  0.739392  0.061628  0.250370  1
  O  O33  1  0.757473  0.918908  0.750502  1
  O  O34  1  0.853959  0.270198  0.964184  1
  O  O35  1  0.857414  0.276560  0.540712  1
  O  O36  1  0.887484  0.783257  0.464548  1
  O  O37  1  0.883801  0.789570  0.034688  1
  O  O38  1  0.983716  0.436928  0.257427  1
