# generated using pymatgen
data_Sr2CrSO3
_symmetry_space_group_name_H-M   'P 1'
_cell_length_a   4.00082859
_cell_length_b   3.98580260
_cell_length_c   14.66869331
_cell_angle_alpha   90.00150782
_cell_angle_beta   89.99383523
_cell_angle_gamma   90.01999454
_symmetry_Int_Tables_number   1
_chemical_formula_structural   Sr2CrSO3
_chemical_formula_sum   'Sr4 Cr2 S2 O6'
_cell_volume   233.91449259
_cell_formula_units_Z   2
loop_
 _symmetry_equiv_pos_site_id
 _symmetry_equiv_pos_as_xyz
  1  'x, y, z'
loop_
 _atom_site_type_symbol
 _atom_site_label
 _atom_site_symmetry_multiplicity
 _atom_site_fract_x
 _atom_site_fract_y
 _atom_site_fract_z
 _atom_site_occupancy
  Sr  Sr0  1  0.750005  0.749971  0.164672  1
  Sr  Sr1  1  0.250490  0.249578  0.835359  1
  Sr  Sr2  1  0.749766  0.750242  0.407882  1
  Sr  Sr3  1  0.250879  0.249095  0.592071  1
  Cr  Cr4  1  0.249944  0.250129  0.292720  1
  Cr  Cr5  1  0.753705  0.746029  0.707274  1
  S  S6  1  0.250058  0.249936  0.119830  1
  S  S7  1  0.749496  0.750636  0.880045  1
  O  O8  1  0.749932  0.250008  0.290018  1
  O  O9  1  0.249999  0.750054  0.289965  1
  O  O10  1  0.248644  0.750193  0.710051  1
  O  O11  1  0.749699  0.251410  0.710095  1
  O  O12  1  0.249672  0.250314  0.423463  1
  O  O13  1  0.747710  0.752404  0.576555  1
