# generated using pymatgen
data_CaCoSi2O7
_symmetry_space_group_name_H-M   'P 1'
_cell_length_a   5.19353910
_cell_length_b   7.94430028
_cell_length_c   7.94430028
_cell_angle_alpha   89.72070937
_cell_angle_beta   90.00000000
_cell_angle_gamma   90.00000000
_symmetry_Int_Tables_number   1
_chemical_formula_structural   CaCoSi2O7
_chemical_formula_sum   'Ca2 Co2 Si4 O14'
_cell_volume   327.77026187
_cell_formula_units_Z   2
loop_
 _symmetry_equiv_pos_site_id
 _symmetry_equiv_pos_as_xyz
  1  'x, y, z'
loop_
 _atom_site_type_symbol
 _atom_site_label
 _atom_site_symmetry_multiplicity
 _atom_site_fract_x
 _atom_site_fract_y
 _atom_site_fract_z
 _atom_site_occupancy
  Ca  Ca0  1  0.477702  0.160725  0.660726  1
  Ca  Ca1  1  0.477702  0.839274  0.339274  1
  Co  Co2  1  0.005474  0.500000  0.500000  1
  Co  Co3  1  0.005474  0.000000  0.000000  1
  Si  Si4  1  0.948566  0.863895  0.636105  1
  Si  Si5  1  0.051842  0.642080  0.142079  1
  Si  Si6  1  0.051842  0.357920  0.857920  1
  Si  Si7  1  0.948566  0.136104  0.363895  1
  O  O8  1  0.828702  0.682664  0.579129  1
  O  O9  1  0.828702  0.317337  0.420871  1
  O  O10  1  0.195281  0.408826  0.677941  1
  O  O11  1  0.195281  0.591174  0.322060  1
  O  O12  1  0.828702  0.920870  0.817336  1
  O  O13  1  0.195281  0.822059  0.091175  1
  O  O14  1  0.195281  0.177940  0.908825  1
  O  O15  1  0.828702  0.079130  0.182663  1
  O  O16  1  0.258422  0.885991  0.614010  1
  O  O17  1  0.754271  0.682088  0.182088  1
  O  O18  1  0.105727  0.500000  0.000000  1
  O  O19  1  0.804632  0.000000  0.500000  1
  O  O20  1  0.754271  0.317912  0.817913  1
  O  O21  1  0.258422  0.114010  0.385990  1
