# generated using pymatgen
data_Ca(SbO3)2
_symmetry_space_group_name_H-M   'P 1'
_cell_length_a   5.43471485
_cell_length_b   5.55545289
_cell_length_c   7.77827332
_cell_angle_alpha   90.00011785
_cell_angle_beta   89.99981840
_cell_angle_gamma   89.99547926
_symmetry_Int_Tables_number   1
_chemical_formula_structural   Ca(SbO3)2
_chemical_formula_sum   'Ca2 Sb4 O12'
_cell_volume   234.84397916
_cell_formula_units_Z   2
loop_
 _symmetry_equiv_pos_site_id
 _symmetry_equiv_pos_as_xyz
  1  'x, y, z'
loop_
 _atom_site_type_symbol
 _atom_site_label
 _atom_site_symmetry_multiplicity
 _atom_site_fract_x
 _atom_site_fract_y
 _atom_site_fract_z
 _atom_site_occupancy
  Ca  Ca0  1  0.513944  0.559294  0.250007  1
  Ca  Ca1  1  0.013994  0.940737  0.749976  1
  Sb  Sb2  1  0.501919  0.007828  0.000231  1
  Sb  Sb3  1  0.001921  0.492197  0.999767  1
  Sb  Sb4  1  0.002008  0.492192  0.500213  1
  Sb  Sb5  1  0.502008  0.007827  0.499763  1
  O  O6  1  0.696122  0.303180  0.451520  1
  O  O7  1  0.196155  0.196869  0.548578  1
  O  O8  1  0.793088  0.789411  0.040474  1
  O  O9  1  0.293109  0.710583  0.959655  1
  O  O10  1  0.293322  0.710453  0.540236  1
  O  O11  1  0.793303  0.789542  0.459612  1
  O  O12  1  0.196068  0.196888  0.951411  1
  O  O13  1  0.696038  0.303165  0.048468  1
  O  O14  1  0.094440  0.481455  0.249982  1
  O  O15  1  0.594434  0.018244  0.750007  1
  O  O16  1  0.420122  0.975043  0.250003  1
  O  O17  1  0.920187  0.525152  0.749985  1
