# generated using pymatgen
data_Ca(SnO2)2
_symmetry_space_group_name_H-M   'P 1'
_cell_length_a   6.94090088
_cell_length_b   6.34086508
_cell_length_c   11.95796283
_cell_angle_alpha   90.00012253
_cell_angle_beta   89.99442835
_cell_angle_gamma   89.99811779
_symmetry_Int_Tables_number   1
_chemical_formula_structural   Ca(SnO2)2
_chemical_formula_sum   'Ca4 Sn8 O16'
_cell_volume   526.28567841
_cell_formula_units_Z   4
loop_
 _symmetry_equiv_pos_site_id
 _symmetry_equiv_pos_as_xyz
  1  'x, y, z'
loop_
 _atom_site_type_symbol
 _atom_site_label
 _atom_site_symmetry_multiplicity
 _atom_site_fract_x
 _atom_site_fract_y
 _atom_site_fract_z
 _atom_site_occupancy
  Ca  Ca0  1  0.947305  0.249999  0.749990  1
  Ca  Ca1  1  0.052616  0.749994  0.249985  1
  Ca  Ca2  1  0.297744  0.249986  0.250000  1
  Ca  Ca3  1  0.701985  0.750015  0.750037  1
  Sn  Sn4  1  0.398721  0.749976  0.455127  1
  Sn  Sn5  1  0.398972  0.750004  0.044869  1
  Sn  Sn6  1  0.601072  0.249998  0.544833  1
  Sn  Sn7  1  0.601350  0.250049  0.955279  1
  Sn  Sn8  1  0.999908  0.500001  0.499996  1
  Sn  Sn9  1  0.000120  0.999994  0.999976  1
  Sn  Sn10  1  0.999910  0.999981  0.499996  1
  Sn  Sn11  1  0.000137  0.500014  0.999976  1
  O  O12  1  0.873492  0.749997  0.414031  1
  O  O13  1  0.873678  0.750007  0.085926  1
  O  O14  1  0.126328  0.249986  0.585938  1
  O  O15  1  0.126532  0.249993  0.913993  1
  O  O16  1  0.162533  0.749982  0.575576  1
  O  O17  1  0.162807  0.750001  0.924400  1
  O  O18  1  0.837301  0.249993  0.424407  1
  O  O19  1  0.837610  0.250017  0.075630  1
  O  O20  1  0.777010  0.487024  0.624562  1
  O  O21  1  0.777180  0.013000  0.875480  1
  O  O22  1  0.222777  0.986996  0.375433  1
  O  O23  1  0.222961  0.513004  0.124546  1
  O  O24  1  0.222772  0.512977  0.375433  1
  O  O25  1  0.222948  0.986999  0.124544  1
  O  O26  1  0.777017  0.012969  0.624562  1
  O  O27  1  0.777214  0.487042  0.875476  1
