# generated using pymatgen
data_Ca2CrIrO6
_symmetry_space_group_name_H-M   'P 1'
_cell_length_a   5.38596357
_cell_length_b   5.56248240
_cell_length_c   7.71353883
_cell_angle_alpha   90.00000000
_cell_angle_beta   89.94303438
_cell_angle_gamma   90.00000000
_symmetry_Int_Tables_number   1
_chemical_formula_structural   Ca2CrIrO6
_chemical_formula_sum   'Ca4 Cr2 Ir2 O12'
_cell_volume   231.09232239
_cell_formula_units_Z   2
loop_
 _symmetry_equiv_pos_site_id
 _symmetry_equiv_pos_as_xyz
  1  'x, y, z'
loop_
 _atom_site_type_symbol
 _atom_site_label
 _atom_site_symmetry_multiplicity
 _atom_site_fract_x
 _atom_site_fract_y
 _atom_site_fract_z
 _atom_site_occupancy
  Ca  Ca0  1  0.013585  0.945525  0.249374  1
  Ca  Ca1  1  0.486415  0.445525  0.250626  1
  Ca  Ca2  1  0.513585  0.554475  0.749374  1
  Ca  Ca3  1  0.986415  0.054475  0.750626  1
  Cr  Cr4  1  0.000000  0.500000  0.000000  1
  Cr  Cr5  1  0.500000  0.000000  0.500000  1
  Ir  Ir6  1  0.000000  0.500000  0.500000  1
  Ir  Ir7  1  0.500000  0.000000  0.000000  1
  O  O8  1  0.092227  0.472740  0.748578  1
  O  O9  1  0.202296  0.201203  0.047845  1
  O  O10  1  0.197129  0.203579  0.452883  1
  O  O11  1  0.302871  0.703579  0.047117  1
  O  O12  1  0.297704  0.701203  0.452155  1
  O  O13  1  0.407773  0.972740  0.751422  1
  O  O14  1  0.592227  0.027260  0.248578  1
  O  O15  1  0.702296  0.298797  0.547845  1
  O  O16  1  0.697129  0.296421  0.952883  1
  O  O17  1  0.797704  0.798797  0.952155  1
  O  O18  1  0.802871  0.796421  0.547117  1
  O  O19  1  0.907773  0.527260  0.251422  1
