# generated using pymatgen
data_Zn(CoO2)2
_symmetry_space_group_name_H-M   'P 1'
_cell_length_a   5.86809638
_cell_length_b   5.81747053
_cell_length_c   23.29802016
_cell_angle_alpha   60.04030010
_cell_angle_beta   60.08630444
_cell_angle_gamma   60.28497145
_symmetry_Int_Tables_number   1
_chemical_formula_structural   Zn(CoO2)2
_chemical_formula_sum   'Zn8 Co16 O32'
_cell_volume   564.12921177
_cell_formula_units_Z   8
loop_
 _symmetry_equiv_pos_site_id
 _symmetry_equiv_pos_as_xyz
  1  'x, y, z'
loop_
 _atom_site_type_symbol
 _atom_site_label
 _atom_site_symmetry_multiplicity
 _atom_site_fract_x
 _atom_site_fract_y
 _atom_site_fract_z
 _atom_site_occupancy
  Zn  Zn0  1  0.137603  0.121335  0.029937  1
  Zn  Zn1  1  0.998010  0.500159  0.125413  1
  Zn  Zn2  1  0.136430  0.119114  0.281331  1
  Zn  Zn3  1  0.999359  0.501032  0.374644  1
  Zn  Zn4  1  0.999947  0.500418  0.624805  1
  Zn  Zn5  1  0.500003  0.501857  0.499069  1
  Zn  Zn6  1  0.998037  0.499903  0.875536  1
  Zn  Zn7  1  0.499250  0.498994  0.750690  1
  Co  Co8  1  0.499785  0.499224  0.125152  1
  Co  Co9  1  0.500368  0.500054  0.249882  1
  Co  Co10  1  0.499792  0.000375  0.125153  1
  Co  Co11  1  0.130132  0.119444  0.532742  1
  Co  Co12  1  0.499637  0.500031  0.373831  1
  Co  Co13  1  0.868326  0.878282  0.218781  1
  Co  Co14  1  0.129996  0.119956  0.782520  1
  Co  Co15  1  0.499640  0.005008  0.373831  1
  Co  Co16  1  0.500381  0.500220  0.624822  1
  Co  Co17  1  0.870919  0.881518  0.466516  1
  Co  Co18  1  0.500378  0.000108  0.624823  1
  Co  Co19  1  0.500529  0.995144  0.876031  1
  Co  Co20  1  0.500526  0.500199  0.876033  1
  Co  Co21  1  0.868943  0.880421  0.717556  1
  Co  Co22  1  0.499397  0.498740  0.000782  1
  Co  Co23  1  0.866324  0.878037  0.969403  1
  O  O24  1  0.282559  0.252743  0.063982  1
  O  O25  1  0.281902  0.253503  0.177770  1
  O  O26  1  0.282560  0.708765  0.063981  1
  O  O27  1  0.712164  0.262555  0.065681  1
  O  O28  1  0.287139  0.737003  0.184715  1
  O  O29  1  0.282406  0.256188  0.313514  1
  O  O30  1  0.715760  0.286149  0.187102  1
  O  O31  1  0.277692  0.245970  0.432596  1
  O  O32  1  0.282404  0.707347  0.313513  1
  O  O33  1  0.715979  0.748448  0.071781  1
  O  O34  1  0.710515  0.264193  0.315277  1
  O  O35  1  0.715768  0.749689  0.187101  1
  O  O36  1  0.269563  0.236248  0.567041  1
  O  O37  1  0.270020  0.756302  0.429342  1
  O  O38  1  0.733007  0.273298  0.431859  1
  O  O39  1  0.279603  0.247265  0.681469  1
  O  O40  1  0.269558  0.726027  0.567040  1
  O  O41  1  0.714604  0.750839  0.320929  1
  O  O42  1  0.727837  0.247391  0.569348  1
  O  O43  1  0.733002  0.766266  0.431860  1
  O  O44  1  0.272242  0.753065  0.680404  1
  O  O45  1  0.268949  0.232415  0.817604  1
  O  O46  1  0.731391  0.273612  0.682801  1
  O  O47  1  0.282731  0.254652  0.926989  1
  O  O48  1  0.268940  0.728211  0.817606  1
  O  O49  1  0.721386  0.753355  0.567973  1
  O  O50  1  0.731049  0.244343  0.820071  1
  O  O51  1  0.731381  0.763796  0.682802  1
  O  O52  1  0.288145  0.735595  0.935167  1
  O  O53  1  0.715385  0.287088  0.937612  1
  O  O54  1  0.725254  0.751017  0.818176  1
  O  O55  1  0.715391  0.747091  0.937611  1
