# generated using pymatgen
data_YCr(WO4)2
_symmetry_space_group_name_H-M   'P 1'
_cell_length_a   5.13675240
_cell_length_b   5.92474886
_cell_length_c   6.38848498
_cell_angle_alpha   108.86002059
_cell_angle_beta   117.49095651
_cell_angle_gamma   91.98296503
_symmetry_Int_Tables_number   1
_chemical_formula_structural   YCr(WO4)2
_chemical_formula_sum   'Y1 Cr1 W2 O8'
_cell_volume   159.25197237
_cell_formula_units_Z   1
loop_
 _symmetry_equiv_pos_site_id
 _symmetry_equiv_pos_as_xyz
  1  'x, y, z'
loop_
 _atom_site_type_symbol
 _atom_site_label
 _atom_site_symmetry_multiplicity
 _atom_site_fract_x
 _atom_site_fract_y
 _atom_site_fract_z
 _atom_site_occupancy
  Y  Y0  1  0.619700  0.706538  0.105557  1
  Cr  Cr1  1  0.132266  0.229640  0.099688  1
  W  W2  1  0.877961  0.391075  0.584657  1
  W  W3  1  0.390625  0.062132  0.619589  1
  O  O4  1  0.135240  0.680741  0.835553  1
  O  O5  1  0.565415  0.465268  0.301452  1
  O  O6  1  0.167613  0.198890  0.790511  1
  O  O7  1  0.575740  0.043022  0.405989  1
  O  O8  1  0.667527  0.973029  0.874738  1
  O  O9  1  0.114865  0.777546  0.383456  1
  O  O10  1  0.085936  0.243420  0.395933  1
  O  O11  1  0.663109  0.407196  0.798973  1
