# generated using pymatgen
data_SbF5
_symmetry_space_group_name_H-M   'P 1'
_cell_length_a   3.65175867
_cell_length_b   5.95535619
_cell_length_c   8.55096023
_cell_angle_alpha   90.00000000
_cell_angle_beta   90.00000000
_cell_angle_gamma   107.85411230
_symmetry_Int_Tables_number   1
_chemical_formula_structural   SbF5
_chemical_formula_sum   'Sb2 F10'
_cell_volume   177.00631730
_cell_formula_units_Z   2
loop_
 _symmetry_equiv_pos_site_id
 _symmetry_equiv_pos_as_xyz
  1  'x, y, z'
loop_
 _atom_site_type_symbol
 _atom_site_label
 _atom_site_symmetry_multiplicity
 _atom_site_fract_x
 _atom_site_fract_y
 _atom_site_fract_z
 _atom_site_occupancy
  Sb  Sb0  1  0.500000  0.000000  0.500000  1
  Sb  Sb1  1  0.500000  0.000000  0.000000  1
  F  F2  1  0.483706  0.967411  0.250000  1
  F  F3  1  0.516294  0.032589  0.750000  1
  F  F4  1  0.071625  0.143249  0.590353  1
  F  F5  1  0.928375  0.856751  0.409647  1
  F  F6  1  0.342128  0.684256  0.931505  1
  F  F7  1  0.657872  0.315744  0.068495  1
  F  F8  1  0.657872  0.315744  0.431505  1
  F  F9  1  0.342128  0.684256  0.568495  1
  F  F10  1  0.071625  0.143249  0.909647  1
  F  F11  1  0.928375  0.856751  0.090353  1
