# generated using pymatgen
data_BaAlCuWO5
_symmetry_space_group_name_H-M   'P 1'
_cell_length_a   3.81900042
_cell_length_b   3.96259324
_cell_length_c   9.72159664
_cell_angle_alpha   90.00602355
_cell_angle_beta   90.03632432
_cell_angle_gamma   90.00333626
_symmetry_Int_Tables_number   1
_chemical_formula_structural   BaAlCuWO5
_chemical_formula_sum   'Ba1 Al1 Cu1 W1 O5'
_cell_volume   147.11830334
_cell_formula_units_Z   1
loop_
 _symmetry_equiv_pos_site_id
 _symmetry_equiv_pos_as_xyz
  1  'x, y, z'
loop_
 _atom_site_type_symbol
 _atom_site_label
 _atom_site_symmetry_multiplicity
 _atom_site_fract_x
 _atom_site_fract_y
 _atom_site_fract_z
 _atom_site_occupancy
  Ba  Ba0  1  0.000252  0.000041  0.915362  1
  Al  Al1  1  0.999918  0.999988  0.308319  1
  Cu  Cu2  1  0.500018  0.500022  0.391658  1
  W  W3  1  0.499570  0.499979  0.682402  1
  O  O4  1  0.000388  0.499979  0.677308  1
  O  O5  1  0.499860  0.999988  0.700554  1
  O  O6  1  0.999963  0.499995  0.351733  1
  O  O7  1  0.499846  0.999969  0.265613  1
  O  O8  1  0.500179  0.500035  0.894970  1
