# generated using pymatgen
data_CaV4O9
_symmetry_space_group_name_H-M   'P 1'
_cell_length_a   5.19846868
_cell_length_b   8.42453086
_cell_length_c   8.42453086
_cell_angle_alpha   90.00000000
_cell_angle_beta   90.00000000
_cell_angle_gamma   90.00000000
_symmetry_Int_Tables_number   1
_chemical_formula_structural   CaV4O9
_chemical_formula_sum   'Ca2 V8 O18'
_cell_volume   368.94946315
_cell_formula_units_Z   2
loop_
 _symmetry_equiv_pos_site_id
 _symmetry_equiv_pos_as_xyz
  1  'x, y, z'
loop_
 _atom_site_type_symbol
 _atom_site_label
 _atom_site_symmetry_multiplicity
 _atom_site_fract_x
 _atom_site_fract_y
 _atom_site_fract_z
 _atom_site_occupancy
  Ca  Ca0  1  0.157571  0.250000  0.250000  1
  Ca  Ca1  1  0.842430  0.750000  0.749999  1
  V  V2  1  0.626726  0.535117  0.340392  1
  V  V3  1  0.373275  0.840391  0.464884  1
  V  V4  1  0.626726  0.340391  0.964884  1
  V  V5  1  0.373275  0.035116  0.840391  1
  V  V6  1  0.626726  0.964884  0.159608  1
  V  V7  1  0.626726  0.159609  0.535117  1
  V  V8  1  0.373275  0.464884  0.659608  1
  V  V9  1  0.373275  0.659608  0.035116  1
  O  O10  1  0.499999  0.750000  0.250000  1
  O  O11  1  0.499999  0.250001  0.750000  1
  O  O12  1  0.063491  0.680079  0.996006  1
  O  O13  1  0.063491  0.503995  0.680078  1
  O  O14  1  0.063491  0.996006  0.819922  1
  O  O15  1  0.063491  0.819922  0.503994  1
  O  O16  1  0.936510  0.319922  0.003994  1
  O  O17  1  0.936510  0.496005  0.319922  1
  O  O18  1  0.936510  0.003994  0.180078  1
  O  O19  1  0.936510  0.180078  0.496005  1
  O  O20  1  0.460869  0.043125  0.356940  1
  O  O21  1  0.460869  0.143059  0.043126  1
  O  O22  1  0.460869  0.356940  0.456875  1
  O  O23  1  0.460869  0.456875  0.143060  1
  O  O24  1  0.539130  0.543125  0.856940  1
  O  O25  1  0.539130  0.856940  0.956875  1
  O  O26  1  0.539130  0.643060  0.543125  1
  O  O27  1  0.539130  0.956874  0.643060  1
