# generated using pymatgen
data_Mn2ZnO4
_symmetry_space_group_name_H-M   'P 1'
_cell_length_a   6.07409214
_cell_length_b   6.09223026
_cell_length_c   6.09222955
_cell_angle_alpha   59.99998771
_cell_angle_beta   59.90116494
_cell_angle_gamma   59.90116842
_symmetry_Int_Tables_number   1
_chemical_formula_structural   Mn2ZnO4
_chemical_formula_sum   'Mn4 Zn2 O8'
_cell_volume   159.17267344
_cell_formula_units_Z   2
loop_
 _symmetry_equiv_pos_site_id
 _symmetry_equiv_pos_as_xyz
  1  'x, y, z'
loop_
 _atom_site_type_symbol
 _atom_site_label
 _atom_site_symmetry_multiplicity
 _atom_site_fract_x
 _atom_site_fract_y
 _atom_site_fract_z
 _atom_site_occupancy
  Mn  Mn0  1  0.265549  0.244817  0.244817  1
  Mn  Mn1  1  0.625276  0.124843  0.624941  1
  Mn  Mn2  1  0.625276  0.624941  0.124843  1
  Mn  Mn3  1  0.625276  0.624941  0.624941  1
  Zn  Zn4  1  0.983306  0.005565  0.005565  1
  Zn  Zn5  1  0.123659  0.625447  0.625447  1
  O  O6  1  0.411072  0.379288  0.379288  1
  O  O7  1  0.411072  0.379288  0.830352  1
  O  O8  1  0.411072  0.830352  0.379288  1
  O  O9  1  0.858199  0.380600  0.380600  1
  O  O10  1  0.385588  0.871471  0.871471  1
  O  O11  1  0.841553  0.414892  0.871777  1
  O  O12  1  0.841553  0.871777  0.414892  1
  O  O13  1  0.841553  0.871777  0.871777  1
