# generated using pymatgen
data_Mn2ZnO4
_symmetry_space_group_name_H-M   'P 1'
_cell_length_a   2.99701838
_cell_length_b   5.16525035
_cell_length_c   9.73427449
_cell_angle_alpha   90.00000000
_cell_angle_beta   90.00000000
_cell_angle_gamma   106.86475507
_symmetry_Int_Tables_number   1
_chemical_formula_structural   Mn2ZnO4
_chemical_formula_sum   'Mn4 Zn2 O8'
_cell_volume   144.20913786
_cell_formula_units_Z   2
loop_
 _symmetry_equiv_pos_site_id
 _symmetry_equiv_pos_as_xyz
  1  'x, y, z'
loop_
 _atom_site_type_symbol
 _atom_site_label
 _atom_site_symmetry_multiplicity
 _atom_site_fract_x
 _atom_site_fract_y
 _atom_site_fract_z
 _atom_site_occupancy
  Mn  Mn0  1  0.867865  0.735732  0.070646  1
  Mn  Mn1  1  0.132135  0.264268  0.929354  1
  Mn  Mn2  1  0.867865  0.735732  0.429354  1
  Mn  Mn3  1  0.132135  0.264268  0.570646  1
  Zn  Zn4  1  0.389960  0.779918  0.750000  1
  Zn  Zn5  1  0.610040  0.220082  0.250000  1
  O  O6  1  0.222410  0.444822  0.388106  1
  O  O7  1  0.777590  0.555178  0.611894  1
  O  O8  1  0.777590  0.555178  0.888106  1
  O  O9  1  0.222410  0.444822  0.111894  1
  O  O10  1  0.960316  0.920632  0.250000  1
  O  O11  1  0.039684  0.079368  0.750000  1
  O  O12  1  0.500000  0.000000  0.000000  1
  O  O13  1  0.500000  0.000000  0.500000  1
