# generated using pymatgen
data_Ta2Zn2NiO8
_symmetry_space_group_name_H-M   'P 1'
_cell_length_a   5.27076096
_cell_length_b   5.91286247
_cell_length_c   10.09619816
_cell_angle_alpha   107.05774011
_cell_angle_beta   89.95103948
_cell_angle_gamma   90.00903918
_symmetry_Int_Tables_number   1
_chemical_formula_structural   Ta2Zn2NiO8
_chemical_formula_sum   'Ta4 Zn4 Ni2 O16'
_cell_volume   300.80916997
_cell_formula_units_Z   2
loop_
 _symmetry_equiv_pos_site_id
 _symmetry_equiv_pos_as_xyz
  1  'x, y, z'
loop_
 _atom_site_type_symbol
 _atom_site_label
 _atom_site_symmetry_multiplicity
 _atom_site_fract_x
 _atom_site_fract_y
 _atom_site_fract_z
 _atom_site_occupancy
  Ta  Ta0  1  0.730145  0.272690  0.227170  1
  Ta  Ta1  1  0.765592  0.044424  0.772870  1
  Ta  Ta2  1  0.265657  0.729144  0.772772  1
  Ta  Ta3  1  0.230179  0.958418  0.227327  1
  Zn  Zn4  1  0.768364  0.436840  0.563662  1
  Zn  Zn5  1  0.728236  0.873273  0.436341  1
  Zn  Zn6  1  0.228507  0.566272  0.436974  1
  Zn  Zn7  1  0.268419  0.128141  0.564491  1
  Ni  Ni8  1  0.748136  0.638862  0.000126  1
  Ni  Ni9  1  0.247914  0.364321  0.000504  1
  O  O10  1  0.067664  0.187833  0.137357  1
  O  O11  1  0.428218  0.048763  0.862389  1
  O  O12  1  0.927979  0.814234  0.862269  1
  O  O13  1  0.567374  0.953548  0.137085  1
  O  O14  1  0.584255  0.435817  0.114633  1
  O  O15  1  0.912043  0.319364  0.885866  1
  O  O16  1  0.412222  0.567160  0.885606  1
  O  O17  1  0.084403  0.683004  0.114196  1
  O  O18  1  0.428821  0.281597  0.352203  1
  O  O19  1  0.066185  0.926513  0.647113  1
  O  O20  1  0.356114  0.844827  0.386580  1
  O  O21  1  0.139848  0.455929  0.613782  1
  O  O22  1  0.640261  0.158538  0.613817  1
  O  O23  1  0.856704  0.545113  0.386632  1
  O  O24  1  0.928262  0.074024  0.351998  1
  O  O25  1  0.565854  0.720940  0.646904  1
