# generated using pymatgen
data_BaTi4O7
_symmetry_space_group_name_H-M   'P 1'
_cell_length_a   6.61120548
_cell_length_b   6.61120542
_cell_length_c   10.51402361
_cell_angle_alpha   90.00000000
_cell_angle_beta   90.00000000
_cell_angle_gamma   120.00000773
_symmetry_Int_Tables_number   1
_chemical_formula_structural   BaTi4O7
_chemical_formula_sum   'Ba2 Ti8 O14'
_cell_volume   397.97963834
_cell_formula_units_Z   2
loop_
 _symmetry_equiv_pos_site_id
 _symmetry_equiv_pos_as_xyz
  1  'x, y, z'
loop_
 _atom_site_type_symbol
 _atom_site_label
 _atom_site_symmetry_multiplicity
 _atom_site_fract_x
 _atom_site_fract_y
 _atom_site_fract_z
 _atom_site_occupancy
  Ba  Ba0  1  0.666667  0.333333  0.541762  1
  Ba  Ba1  1  0.333333  0.666667  0.041762  1
  Ti  Ti2  1  0.811639  0.188362  0.192599  1
  Ti  Ti3  1  0.623276  0.811638  0.692600  1
  Ti  Ti4  1  0.188362  0.376724  0.692600  1
  Ti  Ti5  1  0.811639  0.623276  0.192599  1
  Ti  Ti6  1  0.376723  0.188362  0.192599  1
  Ti  Ti7  1  0.188362  0.811638  0.692600  1
  Ti  Ti8  1  0.000000  0.000000  0.443340  1
  Ti  Ti9  1  0.000000  0.000000  0.943340  1
  O  O10  1  0.854430  0.145571  0.019728  1
  O  O11  1  0.708861  0.854429  0.519727  1
  O  O12  1  0.145570  0.291138  0.519727  1
  O  O13  1  0.854431  0.708862  0.019728  1
  O  O14  1  0.291138  0.145571  0.019728  1
  O  O15  1  0.145570  0.854429  0.519727  1
  O  O16  1  0.000000  0.000000  0.757590  1
  O  O17  1  0.000000  0.000000  0.257591  1
  O  O18  1  0.491952  0.508050  0.224793  1
  O  O19  1  0.983902  0.491952  0.724793  1
  O  O20  1  0.508049  0.016098  0.724793  1
  O  O21  1  0.491952  0.983902  0.224793  1
  O  O22  1  0.508050  0.491952  0.724793  1
  O  O23  1  0.016098  0.508050  0.224793  1
