# generated using pymatgen
data_Ca(NiO2)2
_symmetry_space_group_name_H-M   'P 1'
_cell_length_a   5.69007864
_cell_length_b   5.69007929
_cell_length_c   6.42618749
_cell_angle_alpha   116.27792929
_cell_angle_beta   116.27793376
_cell_angle_gamma   89.99999546
_symmetry_Int_Tables_number   1
_chemical_formula_structural   Ca(NiO2)2
_chemical_formula_sum   'Ca2 Ni4 O8'
_cell_volume   162.23231305
_cell_formula_units_Z   2
loop_
 _symmetry_equiv_pos_site_id
 _symmetry_equiv_pos_as_xyz
  1  'x, y, z'
loop_
 _atom_site_type_symbol
 _atom_site_label
 _atom_site_symmetry_multiplicity
 _atom_site_fract_x
 _atom_site_fract_y
 _atom_site_fract_z
 _atom_site_occupancy
  Ca  Ca0  1  0.375000  0.625000  0.750000  1
  Ca  Ca1  1  0.625000  0.375000  0.250000  1
  Ni  Ni2  1  0.000000  0.000000  0.500000  1
  Ni  Ni3  1  0.000000  0.500000  0.000000  1
  Ni  Ni4  1  0.500000  0.000000  0.500000  1
  Ni  Ni5  1  0.000000  0.000000  0.000000  1
  O  O6  1  0.776618  0.804781  0.553236  1
  O  O7  1  0.751546  0.223382  0.946764  1
  O  O8  1  0.195219  0.223382  0.946764  1
  O  O9  1  0.223382  0.195219  0.446764  1
  O  O10  1  0.223382  0.751546  0.446764  1
  O  O11  1  0.248454  0.776618  0.053236  1
  O  O12  1  0.776618  0.248454  0.553236  1
  O  O13  1  0.804781  0.776618  0.053236  1
