# generated using pymatgen
data_Ti2ZnO5
_symmetry_space_group_name_H-M   'P 1'
_cell_length_a   3.38743915
_cell_length_b   4.82811802
_cell_length_c   12.12426864
_cell_angle_alpha   90.00000000
_cell_angle_beta   90.00000000
_cell_angle_gamma   90.00000000
_symmetry_Int_Tables_number   1
_chemical_formula_structural   Ti2ZnO5
_chemical_formula_sum   'Ti4 Zn2 O10'
_cell_volume   198.29188016
_cell_formula_units_Z   2
loop_
 _symmetry_equiv_pos_site_id
 _symmetry_equiv_pos_as_xyz
  1  'x, y, z'
loop_
 _atom_site_type_symbol
 _atom_site_label
 _atom_site_symmetry_multiplicity
 _atom_site_fract_x
 _atom_site_fract_y
 _atom_site_fract_z
 _atom_site_occupancy
  Ti  Ti0  1  0.249999  0.408811  0.104290  1
  Ti  Ti1  1  0.750000  0.591188  0.895710  1
  Ti  Ti2  1  0.750000  0.591188  0.604290  1
  Ti  Ti3  1  0.249999  0.408811  0.395709  1
  Zn  Zn4  1  0.750000  0.897449  0.250000  1
  Zn  Zn5  1  0.249999  0.102550  0.750000  1
  O  O6  1  0.750000  0.433848  0.750000  1
  O  O7  1  0.249999  0.566151  0.250000  1
  O  O8  1  0.750000  0.561478  0.070810  1
  O  O9  1  0.249999  0.438523  0.929189  1
  O  O10  1  0.750000  0.561478  0.429189  1
  O  O11  1  0.249999  0.438523  0.570811  1
  O  O12  1  0.249999  0.056352  0.358960  1
  O  O13  1  0.750000  0.943649  0.641040  1
  O  O14  1  0.750000  0.943649  0.858959  1
  O  O15  1  0.249999  0.056352  0.141041  1
