# generated using pymatgen
data_ZnCr4O8
_symmetry_space_group_name_H-M   'P 1'
_cell_length_a   2.98573660
_cell_length_b   7.23362106
_cell_length_c   7.37675399
_cell_angle_alpha   80.44144931
_cell_angle_beta   78.32936429
_cell_angle_gamma   78.09076682
_symmetry_Int_Tables_number   1
_chemical_formula_structural   ZnCr4O8
_chemical_formula_sum   'Zn1 Cr4 O8'
_cell_volume   151.37864848
_cell_formula_units_Z   1
loop_
 _symmetry_equiv_pos_site_id
 _symmetry_equiv_pos_as_xyz
  1  'x, y, z'
loop_
 _atom_site_type_symbol
 _atom_site_label
 _atom_site_symmetry_multiplicity
 _atom_site_fract_x
 _atom_site_fract_y
 _atom_site_fract_z
 _atom_site_occupancy
  Zn  Zn0  1  0.336589  0.130997  0.195979  1
  Cr  Cr1  1  0.634047  0.169221  0.562873  1
  Cr  Cr2  1  0.141056  0.510316  0.207710  1
  Cr  Cr3  1  0.841084  0.482032  0.836022  1
  Cr  Cr4  1  0.350826  0.802861  0.495737  1
  O  O5  1  0.857668  0.668015  0.616644  1
  O  O6  1  0.456111  0.333525  0.754442  1
  O  O7  1  0.532801  0.649009  0.285572  1
  O  O8  1  0.136998  0.309426  0.416742  1
  O  O9  1  0.169108  0.005868  0.655811  1
  O  O10  1  0.787317  0.327929  0.097681  1
  O  O11  1  0.833764  0.979092  0.353444  1
  O  O12  1  0.220110  0.607819  0.951988  1
