# generated using pymatgen
data_Ba2MgCuNi2F14
_symmetry_space_group_name_H-M   'P 1'
_cell_length_a   5.25705775
_cell_length_b   7.34289615
_cell_length_c   14.55119329
_cell_angle_alpha   91.58989307
_cell_angle_beta   90.18024891
_cell_angle_gamma   110.23229556
_symmetry_Int_Tables_number   1
_chemical_formula_structural   Ba2MgCuNi2F14
_chemical_formula_sum   'Ba4 Mg2 Cu2 Ni4 F28'
_cell_volume   526.79585300
_cell_formula_units_Z   2
loop_
 _symmetry_equiv_pos_site_id
 _symmetry_equiv_pos_as_xyz
  1  'x, y, z'
loop_
 _atom_site_type_symbol
 _atom_site_label
 _atom_site_symmetry_multiplicity
 _atom_site_fract_x
 _atom_site_fract_y
 _atom_site_fract_z
 _atom_site_occupancy
  Ba  Ba0  1  0.119623  0.376407  0.628566  1
  Ba  Ba1  1  0.252594  0.377064  0.120051  1
  Ba  Ba2  1  0.877895  0.622414  0.376861  1
  Ba  Ba3  1  0.745585  0.618437  0.873879  1
  Mg  Mg4  1  0.432559  0.017735  0.753852  1
  Mg  Mg5  1  0.570912  0.000343  0.250734  1
  Cu  Cu6  1  0.498769  0.004992  0.999736  1
  Cu  Cu7  1  0.499178  0.000089  0.500140  1
  Ni  Ni8  1  0.099975  0.231376  0.872660  1
  Ni  Ni9  1  0.898349  0.768251  0.126675  1
  Ni  Ni10  1  0.134560  0.234901  0.372656  1
  Ni  Ni11  1  0.864635  0.765982  0.627519  1
  F  F12  1  0.899836  0.986939  0.338881  1
  F  F13  1  0.863062  0.266487  0.454417  1
  F  F14  1  0.137720  0.735167  0.543979  1
  F  F15  1  0.664498  0.507676  0.593704  1
  F  F16  1  0.602592  0.101038  0.622065  1
  F  F17  1  0.505260  0.900625  0.877585  1
  F  F18  1  0.405444  0.245871  0.959685  1
  F  F19  1  0.916511  0.016250  0.161828  1
  F  F20  1  0.380031  0.316588  0.771588  1
  F  F21  1  0.336233  0.495230  0.401758  1
  F  F22  1  0.805866  0.223003  0.786971  1
  F  F23  1  0.170659  0.498548  0.908456  1
  F  F24  1  0.409949  0.222153  0.290334  1
  F  F25  1  0.184269  0.777084  0.209304  1
  F  F26  1  0.498808  0.100228  0.125717  1
  F  F27  1  0.630378  0.685345  0.223744  1
  F  F28  1  0.130153  0.840273  0.019022  1
  F  F29  1  0.101738  0.012574  0.658561  1
  F  F30  1  0.868914  0.159698  0.987112  1
  F  F31  1  0.713016  0.839079  0.514981  1
  F  F32  1  0.599019  0.743817  0.044095  1
  F  F33  1  0.590313  0.777726  0.708616  1
  F  F34  1  0.948740  0.318717  0.274657  1
  F  F35  1  0.287951  0.163824  0.483326  1
  F  F36  1  0.397395  0.900134  0.376023  1
  F  F37  1  0.087277  0.976413  0.836163  1
  F  F38  1  0.047570  0.676665  0.723335  1
  F  F39  1  0.835048  0.507829  0.095609  1
