# generated using pymatgen
data_CoN
_symmetry_space_group_name_H-M   'P 1'
_cell_length_a   3.36801486
_cell_length_b   3.36853876
_cell_length_c   4.76618101
_cell_angle_alpha   90.18733313
_cell_angle_beta   89.76555237
_cell_angle_gamma   89.91386027
_symmetry_Int_Tables_number   1
_chemical_formula_structural   CoN
_chemical_formula_sum   'Co2 N2'
_cell_volume   54.07289519
_cell_formula_units_Z   2
loop_
 _symmetry_equiv_pos_site_id
 _symmetry_equiv_pos_as_xyz
  1  'x, y, z'
loop_
 _atom_site_type_symbol
 _atom_site_label
 _atom_site_symmetry_multiplicity
 _atom_site_fract_x
 _atom_site_fract_y
 _atom_site_fract_z
 _atom_site_occupancy
  Co  Co0  1  0.510292  0.511049  0.000091  1
  Co  Co1  1  0.486131  0.490931  0.498487  1
  N  N2  1  0.497231  0.991464  0.495700  1
  N  N3  1  0.009500  0.506649  0.994835  1
