# generated using pymatgen
data_Ca2YCuO5
_symmetry_space_group_name_H-M   'P 1'
_cell_length_a   5.29432753
_cell_length_b   5.64923690
_cell_length_c   8.95978226
_cell_angle_alpha   108.38067501
_cell_angle_beta   107.17126870
_cell_angle_gamma   89.98694672
_symmetry_Int_Tables_number   1
_chemical_formula_structural   Ca2YCuO5
_chemical_formula_sum   'Ca4 Y2 Cu2 O10'
_cell_volume   241.69264762
_cell_formula_units_Z   2
loop_
 _symmetry_equiv_pos_site_id
 _symmetry_equiv_pos_as_xyz
  1  'x, y, z'
loop_
 _atom_site_type_symbol
 _atom_site_label
 _atom_site_symmetry_multiplicity
 _atom_site_fract_x
 _atom_site_fract_y
 _atom_site_fract_z
 _atom_site_occupancy
  Ca  Ca0  1  0.097281  0.622930  0.193631  1
  Ca  Ca1  1  0.404151  0.930273  0.808549  1
  Ca  Ca2  1  0.904023  0.369599  0.808403  1
  Ca  Ca3  1  0.597376  0.062458  0.193733  1
  Y  Y4  1  0.282458  0.290230  0.500920  1
  Y  Y5  1  0.782462  0.702430  0.501081  1
  Cu  Cu6  1  0.482615  0.496255  0.001006  1
  Cu  Cu7  1  0.982744  0.996213  0.001010  1
  O  O8  1  0.701816  0.322742  0.500969  1
  O  O9  1  0.201737  0.669919  0.501094  1
  O  O10  1  0.580305  0.698353  0.256682  1
  O  O11  1  0.325974  0.294532  0.745540  1
  O  O12  1  0.080998  0.050023  0.256854  1
  O  O13  1  0.825482  0.942490  0.745306  1
  O  O14  1  0.219542  0.734445  0.965570  1
  O  O15  1  0.255836  0.256566  0.036014  1
  O  O16  1  0.755638  0.271351  0.036399  1
  O  O17  1  0.719559  0.722370  0.966033  1
