# generated using pymatgen
data_ZnSi2WO6
_symmetry_space_group_name_H-M   'P 1'
_cell_length_a   5.38366872
_cell_length_b   9.48059204
_cell_length_c   19.09588263
_cell_angle_alpha   90.00000000
_cell_angle_beta   90.00000000
_cell_angle_gamma   90.00000000
_symmetry_Int_Tables_number   1
_chemical_formula_structural   ZnSi2WO6
_chemical_formula_sum   'Zn8 Si16 W8 O48'
_cell_volume   974.66085405
_cell_formula_units_Z   8
loop_
 _symmetry_equiv_pos_site_id
 _symmetry_equiv_pos_as_xyz
  1  'x, y, z'
loop_
 _atom_site_type_symbol
 _atom_site_label
 _atom_site_symmetry_multiplicity
 _atom_site_fract_x
 _atom_site_fract_y
 _atom_site_fract_z
 _atom_site_occupancy
  Zn  Zn0  1  0.610558  0.144956  0.627139  1
  Zn  Zn1  1  0.389442  0.855044  0.372861  1
  Zn  Zn2  1  0.610558  0.644956  0.872861  1
  Zn  Zn3  1  0.110558  0.855044  0.872861  1
  Zn  Zn4  1  0.889442  0.144956  0.127139  1
  Zn  Zn5  1  0.389442  0.355044  0.127139  1
  Zn  Zn6  1  0.110558  0.355044  0.627139  1
  Zn  Zn7  1  0.889442  0.644956  0.372861  1
  Si  Si8  1  0.571277  0.670551  0.229837  1
  Si  Si9  1  0.729983  0.837781  0.518978  1
  Si  Si10  1  0.770017  0.837781  0.018978  1
  Si  Si11  1  0.928723  0.170551  0.770163  1
  Si  Si12  1  0.071277  0.329449  0.270163  1
  Si  Si13  1  0.428723  0.829449  0.729837  1
  Si  Si14  1  0.229983  0.662219  0.518978  1
  Si  Si15  1  0.729983  0.337781  0.981022  1
  Si  Si16  1  0.770017  0.337781  0.481022  1
  Si  Si17  1  0.928723  0.670551  0.729837  1
  Si  Si18  1  0.428723  0.329449  0.770163  1
  Si  Si19  1  0.571277  0.170551  0.270163  1
  Si  Si20  1  0.270017  0.162219  0.481022  1
  Si  Si21  1  0.071277  0.829449  0.229837  1
  Si  Si22  1  0.270017  0.662219  0.018978  1
  Si  Si23  1  0.229983  0.162219  0.981022  1
  W  W24  1  0.373661  0.971393  0.124450  1
  W  W25  1  0.626339  0.028607  0.875550  1
  W  W26  1  0.873661  0.028607  0.375550  1
  W  W27  1  0.126339  0.971393  0.624450  1
  W  W28  1  0.373661  0.471393  0.375550  1
  W  W29  1  0.626339  0.528607  0.624450  1
  W  W30  1  0.873661  0.528607  0.124450  1
  W  W31  1  0.126339  0.471393  0.875550  1
  O  O32  1  0.949252  0.515493  0.694488  1
  O  O33  1  0.279692  0.015785  0.938165  1
  O  O34  1  0.050748  0.484507  0.305512  1
  O  O35  1  0.728750  0.344278  0.067602  1
  O  O36  1  0.228750  0.155722  0.067602  1
  O  O37  1  0.959523  0.230009  0.957808  1
  O  O38  1  0.919512  0.690849  0.813850  1
  O  O39  1  0.080488  0.809151  0.313850  1
  O  O40  1  0.728750  0.844278  0.432398  1
  O  O41  1  0.919512  0.190849  0.686150  1
  O  O42  1  0.449252  0.484507  0.805512  1
  O  O43  1  0.771250  0.344278  0.567602  1
  O  O44  1  0.720308  0.984215  0.061835  1
  O  O45  1  0.419514  0.809151  0.813850  1
  O  O46  1  0.550748  0.015493  0.305512  1
  O  O47  1  0.279692  0.515785  0.561835  1
  O  O48  1  0.449252  0.984507  0.694488  1
  O  O49  1  0.150472  0.775635  0.696219  1
  O  O50  1  0.349528  0.775635  0.196219  1
  O  O51  1  0.540477  0.730009  0.042192  1
  O  O52  1  0.771250  0.844278  0.932398  1
  O  O53  1  0.580488  0.690849  0.313850  1
  O  O54  1  0.779692  0.484215  0.938165  1
  O  O55  1  0.150472  0.275635  0.803781  1
  O  O56  1  0.271250  0.155722  0.567602  1
  O  O57  1  0.580488  0.190849  0.186150  1
  O  O58  1  0.720308  0.484215  0.438165  1
  O  O59  1  0.228750  0.655722  0.432398  1
  O  O60  1  0.220308  0.515785  0.061835  1
  O  O61  1  0.650472  0.724365  0.696219  1
  O  O62  1  0.050748  0.984507  0.194488  1
  O  O63  1  0.849528  0.724365  0.196219  1
  O  O64  1  0.849528  0.224365  0.303781  1
  O  O65  1  0.779692  0.984215  0.561835  1
  O  O66  1  0.271250  0.655722  0.932398  1
  O  O67  1  0.220308  0.015785  0.438165  1
  O  O68  1  0.349528  0.275635  0.303781  1
  O  O69  1  0.040477  0.769991  0.042192  1
  O  O70  1  0.459523  0.769991  0.542192  1
  O  O71  1  0.650472  0.224365  0.803781  1
  O  O72  1  0.459523  0.269991  0.957808  1
  O  O73  1  0.540477  0.230009  0.457808  1
  O  O74  1  0.040477  0.269991  0.457808  1
  O  O75  1  0.419514  0.309151  0.686150  1
  O  O76  1  0.550748  0.515493  0.194488  1
  O  O77  1  0.959523  0.730009  0.542192  1
  O  O78  1  0.080488  0.309151  0.186150  1
  O  O79  1  0.949252  0.015493  0.805512  1
