# generated using pymatgen
data_MgTiAsO5
_symmetry_space_group_name_H-M   'P 1'
_cell_length_a   8.10839250
_cell_length_b   6.12619482
_cell_length_c   8.58973470
_cell_angle_alpha   89.98069457
_cell_angle_beta   89.92813965
_cell_angle_gamma   89.97160024
_symmetry_Int_Tables_number   1
_chemical_formula_structural   MgTiAsO5
_chemical_formula_sum   'Mg4 Ti4 As4 O20'
_cell_volume   426.68256593
_cell_formula_units_Z   4
loop_
 _symmetry_equiv_pos_site_id
 _symmetry_equiv_pos_as_xyz
  1  'x, y, z'
loop_
 _atom_site_type_symbol
 _atom_site_label
 _atom_site_symmetry_multiplicity
 _atom_site_fract_x
 _atom_site_fract_y
 _atom_site_fract_z
 _atom_site_occupancy
  Mg  Mg0  1  0.902144  0.643879  0.075908  1
  Mg  Mg1  1  0.597884  0.356044  0.575888  1
  Mg  Mg2  1  0.402484  0.856332  0.924163  1
  Mg  Mg3  1  0.097427  0.143588  0.424461  1
  Ti  Ti4  1  0.998564  0.481240  0.744447  1
  Ti  Ti5  1  0.501379  0.518915  0.244484  1
  Ti  Ti6  1  0.498690  0.018738  0.255510  1
  Ti  Ti7  1  0.001363  0.981301  0.755739  1
  As  As8  1  0.650507  0.275728  0.927587  1
  As  As9  1  0.849392  0.724419  0.427496  1
  As  As10  1  0.150721  0.224217  0.072557  1
  As  As11  1  0.349466  0.775840  0.572485  1
  O  O12  1  0.835007  0.230982  0.824250  1
  O  O13  1  0.664474  0.769062  0.324729  1
  O  O14  1  0.336074  0.268682  0.174417  1
  O  O15  1  0.164479  0.731232  0.675015  1
  O  O16  1  0.511055  0.361124  0.792413  1
  O  O17  1  0.988702  0.639845  0.292119  1
  O  O18  1  0.011592  0.139498  0.208066  1
  O  O19  1  0.488714  0.861377  0.707636  1
  O  O20  1  0.589017  0.038646  0.021027  1
  O  O21  1  0.911104  0.960961  0.521347  1
  O  O22  1  0.088324  0.460652  0.978974  1
  O  O23  1  0.411501  0.539052  0.479267  1
  O  O24  1  0.681713  0.474016  0.071857  1
  O  O25  1  0.818434  0.525520  0.571709  1
  O  O26  1  0.181693  0.025766  0.928275  1
  O  O27  1  0.318180  0.973975  0.428060  1
  O  O28  1  0.897300  0.751574  0.858844  1
  O  O29  1  0.602459  0.247971  0.358993  1
  O  O30  1  0.397317  0.748474  0.141112  1
  O  O31  1  0.102838  0.251354  0.641167  1
