# generated using pymatgen
data_Ba2Tl2W3O10
_symmetry_space_group_name_H-M   'P 1'
_cell_length_a   3.92813347
_cell_length_b   3.92845841
_cell_length_c   19.27684590
_cell_angle_alpha   95.84452202
_cell_angle_beta   96.02350643
_cell_angle_gamma   88.60534414
_symmetry_Int_Tables_number   1
_chemical_formula_structural   Ba2Tl2W3O10
_chemical_formula_sum   'Ba2 Tl2 W3 O10'
_cell_volume   294.26268377
_cell_formula_units_Z   1
loop_
 _symmetry_equiv_pos_site_id
 _symmetry_equiv_pos_as_xyz
  1  'x, y, z'
loop_
 _atom_site_type_symbol
 _atom_site_label
 _atom_site_symmetry_multiplicity
 _atom_site_fract_x
 _atom_site_fract_y
 _atom_site_fract_z
 _atom_site_occupancy
  Ba  Ba0  1  0.090637  0.160459  0.296285  1
  Ba  Ba1  1  0.785268  0.841465  0.702662  1
  Tl  Tl2  1  0.668441  0.718657  0.442516  1
  Tl  Tl3  1  0.224834  0.272136  0.556554  1
  W  W4  1  0.351210  0.404638  0.833036  1
  W  W5  1  0.527311  0.598252  0.166354  1
  W  W6  1  0.441288  0.502767  0.999479  1
  O  O7  1  0.350382  0.905800  0.834440  1
  O  O8  1  0.299871  0.355297  0.729710  1
  O  O9  1  0.851600  0.405008  0.834113  1
  O  O10  1  0.812661  0.782211  0.570213  1
  O  O11  1  0.941947  0.502936  0.999595  1
  O  O12  1  0.025945  0.599459  0.165039  1
  O  O13  1  0.577924  0.648853  0.269538  1
  O  O14  1  0.525469  0.097859  0.164727  1
  O  O15  1  0.233564  0.220094  0.429191  1
  O  O16  1  0.442115  0.002815  0.999600  1
