# generated using pymatgen
data_Sr2GaMo2O7
_symmetry_space_group_name_H-M   'P 1'
_cell_length_a   5.57980243
_cell_length_b   5.74285200
_cell_length_c   11.90837797
_cell_angle_alpha   103.90750344
_cell_angle_beta   103.48350431
_cell_angle_gamma   89.99982699
_symmetry_Int_Tables_number   1
_chemical_formula_structural   Sr2GaMo2O7
_chemical_formula_sum   'Sr4 Ga2 Mo4 O14'
_cell_volume   359.56067686
_cell_formula_units_Z   2
loop_
 _symmetry_equiv_pos_site_id
 _symmetry_equiv_pos_as_xyz
  1  'x, y, z'
loop_
 _atom_site_type_symbol
 _atom_site_label
 _atom_site_symmetry_multiplicity
 _atom_site_fract_x
 _atom_site_fract_y
 _atom_site_fract_z
 _atom_site_occupancy
  Sr  Sr0  1  0.147150  0.175591  0.301819  1
  Sr  Sr1  1  0.843280  0.828292  0.696997  1
  Sr  Sr2  1  0.648498  0.634418  0.301365  1
  Sr  Sr3  1  0.345214  0.370161  0.697487  1
  Ga  Ga4  1  0.208382  0.824704  0.495931  1
  Ga  Ga5  1  0.712590  0.179927  0.503209  1
  Mo  Mo6  1  0.438738  0.940092  0.876025  1
  Mo  Mo7  1  0.070809  0.575355  0.139239  1
  Mo  Mo8  1  0.930243  0.429061  0.861112  1
  Mo  Mo9  1  0.564913  0.064496  0.124116  1
  O  O10  1  0.809063  0.311732  0.136030  1
  O  O11  1  0.872584  0.886126  0.500725  1
  O  O12  1  0.326778  0.321719  0.148110  1
  O  O13  1  0.844470  0.369878  0.658292  1
  O  O14  1  0.665847  0.165725  0.835296  1
  O  O15  1  0.186367  0.164866  0.849461  1
  O  O16  1  0.372035  0.118052  0.498633  1
  O  O17  1  0.176054  0.682132  0.852571  1
  O  O18  1  0.671148  0.691511  0.863531  1
  O  O19  1  0.349994  0.753587  0.637054  1
  O  O20  1  0.184432  0.634985  0.340575  1
  O  O21  1  0.713049  0.251707  0.362317  1
  O  O22  1  0.831499  0.840379  0.165030  1
  O  O23  1  0.338838  0.840479  0.150152  1
