# generated using pymatgen
data_Sr2GaFe2O7
_symmetry_space_group_name_H-M   'P 1'
_cell_length_a   5.25414972
_cell_length_b   5.34324071
_cell_length_c   12.83330692
_cell_angle_alpha   102.07386066
_cell_angle_beta   101.75295678
_cell_angle_gamma   90.02167277
_symmetry_Int_Tables_number   1
_chemical_formula_structural   Sr2GaFe2O7
_chemical_formula_sum   'Sr4 Ga2 Fe4 O14'
_cell_volume   344.58057609
_cell_formula_units_Z   2
loop_
 _symmetry_equiv_pos_site_id
 _symmetry_equiv_pos_as_xyz
  1  'x, y, z'
loop_
 _atom_site_type_symbol
 _atom_site_label
 _atom_site_symmetry_multiplicity
 _atom_site_fract_x
 _atom_site_fract_y
 _atom_site_fract_z
 _atom_site_occupancy
  Sr  Sr0  1  0.158684  0.159709  0.303066  1
  Sr  Sr1  1  0.855784  0.840519  0.697470  1
  Sr  Sr2  1  0.658721  0.642801  0.303083  1
  Sr  Sr3  1  0.355691  0.358108  0.697389  1
  Ga  Ga4  1  0.201003  0.823137  0.499257  1
  Ga  Ga5  1  0.700939  0.176168  0.499204  1
  Fe  Fe6  1  0.446817  0.943796  0.881948  1
  Fe  Fe7  1  0.065517  0.561464  0.119336  1
  Fe  Fe8  1  0.946993  0.441050  0.881968  1
  Fe  Fe9  1  0.565618  0.057394  0.119465  1
  O  O10  1  0.823839  0.319335  0.137663  1
  O  O11  1  0.837527  0.845919  0.499955  1
  O  O12  1  0.324163  0.317570  0.137907  1
  O  O13  1  0.843097  0.349354  0.642567  1
  O  O14  1  0.682978  0.178285  0.854709  1
  O  O15  1  0.183203  0.179073  0.855252  1
  O  O16  1  0.337571  0.154064  0.499906  1
  O  O17  1  0.185465  0.683305  0.862752  1
  O  O18  1  0.685661  0.681399  0.862488  1
  O  O19  1  0.342916  0.794058  0.642491  1
  O  O20  1  0.199502  0.651004  0.356304  1
  O  O21  1  0.699670  0.204775  0.356325  1
  O  O22  1  0.828329  0.821700  0.144790  1
  O  O23  1  0.328246  0.822118  0.145171  1
