# generated using pymatgen
data_Y2Si3(WO4)3
_symmetry_space_group_name_H-M   'P 1'
_cell_length_a   11.10432203
_cell_length_b   11.10432150
_cell_length_c   11.10432165
_cell_angle_alpha   109.47122091
_cell_angle_beta   109.47121993
_cell_angle_gamma   109.47122231
_symmetry_Int_Tables_number   1
_chemical_formula_structural   Y2Si3(WO4)3
_chemical_formula_sum   'Y8 Si12 W12 O48'
_cell_volume   1054.03300752
_cell_formula_units_Z   4
loop_
 _symmetry_equiv_pos_site_id
 _symmetry_equiv_pos_as_xyz
  1  'x, y, z'
loop_
 _atom_site_type_symbol
 _atom_site_label
 _atom_site_symmetry_multiplicity
 _atom_site_fract_x
 _atom_site_fract_y
 _atom_site_fract_z
 _atom_site_occupancy
  Y  Y0  1  0.500000  0.000000  0.000000  1
  Y  Y1  1  0.000000  0.000000  0.000000  1
  Y  Y2  1  0.000000  0.500000  0.000000  1
  Y  Y3  1  0.000000  0.000000  0.500000  1
  Y  Y4  1  0.000000  0.500000  0.500001  1
  Y  Y5  1  0.500000  0.000000  0.500001  1
  Y  Y6  1  0.500000  0.500000  0.000000  1
  Y  Y7  1  0.500000  0.500000  0.500000  1
  Si  Si8  1  0.250000  0.125000  0.875000  1
  Si  Si9  1  0.875000  0.250000  0.125000  1
  Si  Si10  1  0.625000  0.750001  0.375000  1
  Si  Si11  1  0.250000  0.625000  0.375001  1
  Si  Si12  1  0.375000  0.625000  0.750000  1
  Si  Si13  1  0.750000  0.375000  0.625000  1
  Si  Si14  1  0.875000  0.125000  0.750000  1
  Si  Si15  1  0.125000  0.750001  0.875000  1
  Si  Si16  1  0.125000  0.875001  0.250000  1
  Si  Si17  1  0.625000  0.375000  0.250000  1
  Si  Si18  1  0.375000  0.250000  0.625000  1
  Si  Si19  1  0.750000  0.875001  0.125000  1
  W  W20  1  0.250000  0.875001  0.625000  1
  W  W21  1  0.875000  0.625000  0.250000  1
  W  W22  1  0.625001  0.875001  0.750001  1
  W  W23  1  0.875001  0.750001  0.625001  1
  W  W24  1  0.625000  0.250000  0.875000  1
  W  W25  1  0.750000  0.625000  0.875000  1
  W  W26  1  0.750000  0.125000  0.375000  1
  W  W27  1  0.125000  0.375000  0.750000  1
  W  W28  1  0.375000  0.125000  0.250000  1
  W  W29  1  0.125000  0.250000  0.375000  1
  W  W30  1  0.375000  0.750001  0.125000  1
  W  W31  1  0.250000  0.375000  0.125000  1
  O  O32  1  0.287961  0.491282  0.371809  1
  O  O33  1  0.008718  0.296679  0.880528  1
  O  O34  1  0.128191  0.619472  0.916151  1
  O  O35  1  0.212038  0.583849  0.203321  1
  O  O36  1  0.212038  0.128190  0.008717  1
  O  O37  1  0.583848  0.203320  0.212038  1
  O  O38  1  0.619471  0.203320  0.491282  1
  O  O39  1  0.203321  0.212038  0.583850  1
  O  O40  1  0.880529  0.371809  0.583849  1
  O  O41  1  0.296680  0.916151  0.287962  1
  O  O42  1  0.916151  0.287962  0.296680  1
  O  O43  1  0.008718  0.212038  0.128190  1
  O  O44  1  0.203321  0.491282  0.619472  1
  O  O45  1  0.583849  0.880529  0.371810  1
  O  O46  1  0.128190  0.008717  0.212038  1
  O  O47  1  0.491282  0.619472  0.203320  1
  O  O48  1  0.371809  0.583849  0.880528  1
  O  O49  1  0.880528  0.008717  0.296679  1
  O  O50  1  0.619471  0.916151  0.128191  1
  O  O51  1  0.119471  0.628190  0.416151  1
  O  O52  1  0.491282  0.371809  0.287961  1
  O  O53  1  0.371809  0.287962  0.491282  1
  O  O54  1  0.296680  0.880529  0.008718  1
  O  O55  1  0.287961  0.296679  0.916150  1
  O  O56  1  0.712038  0.508717  0.628191  1
  O  O57  1  0.991282  0.703320  0.119471  1
  O  O58  1  0.871810  0.380529  0.083849  1
  O  O59  1  0.787962  0.416151  0.796680  1
  O  O60  1  0.787961  0.871810  0.991283  1
  O  O61  1  0.416151  0.796679  0.787961  1
  O  O62  1  0.380529  0.796679  0.508717  1
  O  O63  1  0.796680  0.787962  0.416151  1
  O  O64  1  0.712038  0.703320  0.083849  1
  O  O65  1  0.703321  0.119472  0.991282  1
  O  O66  1  0.628190  0.712039  0.508718  1
  O  O67  1  0.508718  0.628190  0.712038  1
  O  O68  1  0.083849  0.871810  0.380528  1
  O  O69  1  0.380528  0.083848  0.871809  1
  O  O70  1  0.119472  0.991282  0.703320  1
  O  O71  1  0.628191  0.416151  0.119471  1
  O  O72  1  0.508718  0.380529  0.796680  1
  O  O73  1  0.871810  0.991282  0.787962  1
  O  O74  1  0.416152  0.119472  0.628191  1
  O  O75  1  0.796679  0.508717  0.380529  1
  O  O76  1  0.991282  0.787962  0.871810  1
  O  O77  1  0.083850  0.712039  0.703321  1
  O  O78  1  0.703320  0.083848  0.712038  1
  O  O79  1  0.916151  0.128190  0.619471  1
