# generated using pymatgen
data_AlFe4(CuO4)3
_symmetry_space_group_name_H-M   'P 1'
_cell_length_a   6.41388048
_cell_length_b   6.41373301
_cell_length_c   6.41408433
_cell_angle_alpha   109.46659552
_cell_angle_beta   109.52216390
_cell_angle_gamma   109.42442621
_symmetry_Int_Tables_number   1
_chemical_formula_structural   AlFe4(CuO4)3
_chemical_formula_sum   'Al1 Fe4 Cu3 O12'
_cell_volume   203.11725989
_cell_formula_units_Z   1
loop_
 _symmetry_equiv_pos_site_id
 _symmetry_equiv_pos_as_xyz
  1  'x, y, z'
loop_
 _atom_site_type_symbol
 _atom_site_label
 _atom_site_symmetry_multiplicity
 _atom_site_fract_x
 _atom_site_fract_y
 _atom_site_fract_z
 _atom_site_occupancy
  Al  Al0  1  0.000036  0.000009  0.999953  1
  Fe  Fe1  1  0.500011  0.000005  0.000006  1
  Fe  Fe2  1  0.999999  0.999999  0.499991  1
  Fe  Fe3  1  1.000000  0.500004  0.000002  1
  Fe  Fe4  1  0.499997  0.499995  0.500000  1
  Cu  Cu5  1  0.500000  0.999996  0.500003  1
  Cu  Cu6  1  0.500000  0.499999  0.000001  1
  Cu  Cu7  1  0.000000  0.500005  0.500004  1
  O  O8  1  0.837509  0.305362  0.142849  1
  O  O9  1  0.162485  0.694660  0.857163  1
  O  O10  1  0.837524  0.694672  0.532203  1
  O  O11  1  0.305815  0.468382  0.162584  1
  O  O12  1  0.468018  0.162593  0.305423  1
  O  O13  1  0.142837  0.837425  0.305431  1
  O  O14  1  0.694183  0.856752  0.162570  1
  O  O15  1  0.531969  0.837397  0.694573  1
  O  O16  1  0.162473  0.305337  0.467808  1
  O  O17  1  0.694178  0.531610  0.837414  1
  O  O18  1  0.857169  0.162562  0.694589  1
  O  O19  1  0.305798  0.143238  0.837438  1
