# generated using pymatgen
data_Ca2VN3
_symmetry_space_group_name_H-M   'P 1'
_cell_length_a   5.01186482
_cell_length_b   6.77981512
_cell_length_c   6.77981470
_cell_angle_alpha   107.59724555
_cell_angle_beta   90.00000000
_cell_angle_gamma   90.00000000
_symmetry_Int_Tables_number   1
_chemical_formula_structural   Ca2VN3
_chemical_formula_sum   'Ca4 V2 N6'
_cell_volume   219.59448471
_cell_formula_units_Z   2
loop_
 _symmetry_equiv_pos_site_id
 _symmetry_equiv_pos_as_xyz
  1  'x, y, z'
loop_
 _atom_site_type_symbol
 _atom_site_label
 _atom_site_symmetry_multiplicity
 _atom_site_fract_x
 _atom_site_fract_y
 _atom_site_fract_z
 _atom_site_occupancy
  Ca  Ca0  1  0.750000  0.806703  0.612914  1
  Ca  Ca1  1  0.250000  0.092477  0.907523  1
  Ca  Ca2  1  0.750000  0.891619  0.108381  1
  Ca  Ca3  1  0.750000  0.387086  0.193297  1
  V  V4  1  0.250000  0.713244  0.286756  1
  V  V5  1  0.750000  0.304153  0.695847  1
  N  N6  1  0.750000  0.568800  0.805851  1
  N  N7  1  0.250000  0.440204  0.172287  1
  N  N8  1  0.750000  0.128966  0.871034  1
  N  N9  1  0.250000  0.874981  0.125019  1
  N  N10  1  0.750000  0.194149  0.431200  1
  N  N11  1  0.250000  0.827713  0.559796  1
