# generated using pymatgen
data_Zn2W2O5
_symmetry_space_group_name_H-M   'P 1'
_cell_length_a   3.38655669
_cell_length_b   5.09757665
_cell_length_c   13.95676287
_cell_angle_alpha   90.07709604
_cell_angle_beta   90.00046337
_cell_angle_gamma   90.00007850
_symmetry_Int_Tables_number   1
_chemical_formula_structural   Zn2W2O5
_chemical_formula_sum   'Zn4 W4 O10'
_cell_volume   240.93862181
_cell_formula_units_Z   2
loop_
 _symmetry_equiv_pos_site_id
 _symmetry_equiv_pos_as_xyz
  1  'x, y, z'
loop_
 _atom_site_type_symbol
 _atom_site_label
 _atom_site_symmetry_multiplicity
 _atom_site_fract_x
 _atom_site_fract_y
 _atom_site_fract_z
 _atom_site_occupancy
  Zn  Zn0  1  0.500003  0.177895  0.836023  1
  Zn  Zn1  1  0.499997  0.822140  0.164112  1
  Zn  Zn2  1  0.499998  0.678627  0.663035  1
  Zn  Zn3  1  0.500004  0.321284  0.337644  1
  W  W4  1  0.999997  0.167405  0.576055  1
  W  W5  1  0.000003  0.832421  0.423894  1
  W  W6  1  0.999997  0.332393  0.076189  1
  W  W7  1  -0.000000  0.667424  0.923717  1
  O  O8  1  0.000001  0.499901  0.499827  1
  O  O9  1  0.000003  0.140607  0.329852  1
  O  O10  1  0.999996  0.641257  0.170636  1
  O  O11  1  0.000003  0.358792  0.829221  1
  O  O12  1  0.500000  0.208974  0.144088  1
  O  O13  1  0.500004  0.791066  0.855696  1
  O  O14  1  0.999999  0.859358  0.670127  1
  O  O15  1  0.500000  0.291727  0.643976  1
  O  O16  1  0.000003  0.000119  0.999915  1
  O  O17  1  0.500000  0.708607  0.355991  1
