# generated using pymatgen
data_MgVAs2O7
_symmetry_space_group_name_H-M   'P 1'
_cell_length_a   7.84374217
_cell_length_b   8.23229248
_cell_length_c   10.82201824
_cell_angle_alpha   90.00000000
_cell_angle_beta   121.49301149
_cell_angle_gamma   90.00000000
_symmetry_Int_Tables_number   1
_chemical_formula_structural   MgVAs2O7
_chemical_formula_sum   'Mg4 V4 As8 O28'
_cell_volume   595.86874534
_cell_formula_units_Z   4
loop_
 _symmetry_equiv_pos_site_id
 _symmetry_equiv_pos_as_xyz
  1  'x, y, z'
loop_
 _atom_site_type_symbol
 _atom_site_label
 _atom_site_symmetry_multiplicity
 _atom_site_fract_x
 _atom_site_fract_y
 _atom_site_fract_z
 _atom_site_occupancy
  Mg  Mg0  1  0.276713  0.918954  0.878263  1
  Mg  Mg1  1  0.723287  0.418954  0.621737  1
  Mg  Mg2  1  0.723287  0.081046  0.121737  1
  Mg  Mg3  1  0.276713  0.581046  0.378263  1
  V  V4  1  0.818659  0.048361  0.702990  1
  V  V5  1  0.181341  0.548361  0.797010  1
  V  V6  1  0.181341  0.951639  0.297010  1
  V  V7  1  0.818659  0.451639  0.202990  1
  As  As8  1  0.456444  0.219341  0.764655  1
  As  As9  1  0.543556  0.719341  0.735345  1
  As  As10  1  0.543556  0.780659  0.235345  1
  As  As11  1  0.456444  0.280659  0.264654  1
  As  As12  1  0.031696  0.277838  0.965572  1
  As  As13  1  0.968304  0.777838  0.534428  1
  As  As14  1  0.968304  0.722162  0.034428  1
  As  As15  1  0.031696  0.222162  0.465572  1
  O  O16  1  0.765260  0.312798  0.074250  1
  O  O17  1  0.234740  0.812798  0.425750  1
  O  O18  1  0.234740  0.687202  0.925750  1
  O  O19  1  0.765260  0.187202  0.574250  1
  O  O20  1  0.354859  0.397964  0.780229  1
  O  O21  1  0.645141  0.897964  0.719771  1
  O  O22  1  0.645141  0.602036  0.219771  1
  O  O23  1  0.354859  0.102036  0.280229  1
  O  O24  1  0.478953  0.081405  0.890167  1
  O  O25  1  0.521047  0.581405  0.609833  1
  O  O26  1  0.521047  0.918595  0.109833  1
  O  O27  1  0.478953  0.418595  0.390167  1
  O  O28  1  0.300718  0.154061  0.585748  1
  O  O29  1  0.699282  0.654061  0.914252  1
  O  O30  1  0.699282  0.845939  0.414252  1
  O  O31  1  0.300718  0.345939  0.085748  1
  O  O32  1  0.000407  0.090056  0.321699  1
  O  O33  1  0.999593  0.590056  0.178301  1
  O  O34  1  0.999593  0.909944  0.678301  1
  O  O35  1  0.000407  0.409944  0.821699  1
  O  O36  1  0.675871  0.253283  0.267738  1
  O  O37  1  0.324129  0.753283  0.232262  1
  O  O38  1  0.324129  0.746717  0.732262  1
  O  O39  1  0.675871  0.246717  0.767738  1
  O  O40  1  0.064503  0.409470  0.385323  1
  O  O41  1  0.935497  0.909470  0.114677  1
  O  O42  1  0.935497  0.590530  0.614677  1
  O  O43  1  0.064503  0.090530  0.885323  1
