# generated using pymatgen
data_BaMgBiF7
_symmetry_space_group_name_H-M   'P 1'
_cell_length_a   5.71258608
_cell_length_b   9.92136934
_cell_length_c   10.78742638
_cell_angle_alpha   90.00000000
_cell_angle_beta   90.00000000
_cell_angle_gamma   91.42889771
_symmetry_Int_Tables_number   1
_chemical_formula_structural   BaMgBiF7
_chemical_formula_sum   'Ba4 Mg4 Bi4 F28'
_cell_volume   611.20535485
_cell_formula_units_Z   4
loop_
 _symmetry_equiv_pos_site_id
 _symmetry_equiv_pos_as_xyz
  1  'x, y, z'
loop_
 _atom_site_type_symbol
 _atom_site_label
 _atom_site_symmetry_multiplicity
 _atom_site_fract_x
 _atom_site_fract_y
 _atom_site_fract_z
 _atom_site_occupancy
  Ba  Ba0  1  0.256103  0.491456  0.332260  1
  Ba  Ba1  1  0.743897  0.008544  0.832260  1
  Ba  Ba2  1  0.743897  0.508544  0.667740  1
  Ba  Ba3  1  0.256103  0.991456  0.167739  1
  Mg  Mg4  1  0.696184  0.801395  0.373891  1
  Mg  Mg5  1  0.303816  0.698605  0.873891  1
  Mg  Mg6  1  0.696184  0.301395  0.126109  1
  Mg  Mg7  1  0.303816  0.198605  0.626109  1
  Bi  Bi8  1  0.222991  0.832967  0.585342  1
  Bi  Bi9  1  0.777009  0.167033  0.414658  1
  Bi  Bi10  1  0.222991  0.332967  0.914658  1
  Bi  Bi11  1  0.777009  0.667033  0.085342  1
  F  F12  1  0.144543  0.124136  0.474913  1
  F  F13  1  0.400599  0.406975  0.098500  1
  F  F14  1  0.501680  0.766429  0.726920  1
  F  F15  1  0.498320  0.233571  0.273080  1
  F  F16  1  0.917094  0.372148  0.464842  1
  F  F17  1  0.201373  0.523632  0.788516  1
  F  F18  1  0.035025  0.774763  0.774105  1
  F  F19  1  0.082906  0.127852  0.964842  1
  F  F20  1  0.400599  0.906975  0.401500  1
  F  F21  1  0.498320  0.733571  0.226920  1
  F  F22  1  0.144543  0.624136  0.025087  1
  F  F23  1  0.855457  0.875864  0.525087  1
  F  F24  1  0.964975  0.725237  0.274105  1
  F  F25  1  0.443015  0.848408  0.972362  1
  F  F26  1  0.082906  0.627852  0.535158  1
  F  F27  1  0.917094  0.872148  0.035158  1
  F  F28  1  0.964975  0.225237  0.225895  1
  F  F29  1  0.855457  0.375864  0.974913  1
  F  F30  1  0.556985  0.651592  0.472362  1
  F  F31  1  0.599401  0.593025  0.901500  1
  F  F32  1  0.556985  0.151592  0.027638  1
  F  F33  1  0.035025  0.274763  0.725895  1
  F  F34  1  0.443015  0.348408  0.527638  1
  F  F35  1  0.798627  0.976368  0.288516  1
  F  F36  1  0.798627  0.476368  0.211484  1
  F  F37  1  0.201373  0.023632  0.711484  1
  F  F38  1  0.599401  0.093025  0.598500  1
  F  F39  1  0.501680  0.266429  0.773080  1
