# generated using pymatgen
data_CaCo2(PO4)2
_symmetry_space_group_name_H-M   'P 1'
_cell_length_a   5.04124833
_cell_length_b   9.00592284
_cell_length_c   15.06145696
_cell_angle_alpha   85.50642391
_cell_angle_beta   80.34558949
_cell_angle_gamma   73.70800877
_symmetry_Int_Tables_number   1
_chemical_formula_structural   CaCo2(PO4)2
_chemical_formula_sum   'Ca4 Co8 P8 O32'
_cell_volume   646.69822023
_cell_formula_units_Z   4
loop_
 _symmetry_equiv_pos_site_id
 _symmetry_equiv_pos_as_xyz
  1  'x, y, z'
loop_
 _atom_site_type_symbol
 _atom_site_label
 _atom_site_symmetry_multiplicity
 _atom_site_fract_x
 _atom_site_fract_y
 _atom_site_fract_z
 _atom_site_occupancy
  Ca  Ca0  1  0.479313  0.828138  0.860110  1
  Ca  Ca1  1  0.167733  0.671747  0.640661  1
  Ca  Ca2  1  0.830655  0.328633  0.359579  1
  Ca  Ca3  1  0.521246  0.171298  0.140386  1
  Co  Co4  1  0.205367  0.225614  0.958675  1
  Co  Co5  1  0.386371  0.273164  0.540551  1
  Co  Co6  1  0.796160  0.773419  0.041553  1
  Co  Co7  1  0.499769  0.500115  0.000589  1
  Co  Co8  1  0.612021  0.726604  0.459283  1
  Co  Co9  1  0.634008  0.749449  0.250605  1
  Co  Co10  1  0.365663  0.250155  0.750066  1
  Co  Co11  1  0.998266  0.001029  0.500752  1
  P  P12  1  0.052075  0.562021  0.868354  1
  P  P13  1  0.771722  0.425076  0.609587  1
  P  P14  1  0.948372  0.437354  0.132317  1
  P  P15  1  0.193698  0.924895  0.109452  1
  P  P16  1  0.516361  0.062608  0.368227  1
  P  P17  1  0.480903  0.938084  0.632490  1
  P  P18  1  0.225978  0.575694  0.390647  1
  P  P19  1  0.807208  0.074227  0.890901  1
  O  O20  1  0.696668  0.394192  0.104493  1
  O  O21  1  0.812989  0.907986  0.929934  1
  O  O22  1  0.803767  0.895406  0.604717  1
  O  O23  1  0.792966  0.300173  0.539900  1
  O  O24  1  0.196207  0.397946  0.051471  1
  O  O25  1  0.561828  0.408608  0.694229  1
  O  O26  1  0.634471  0.198135  0.961215  1
  O  O27  1  0.884571  0.915880  0.129142  1
  O  O28  1  0.204767  0.700130  0.460389  1
  O  O29  1  0.649313  0.590686  0.569924  1
  O  O30  1  0.869979  0.616202  0.145638  1
  O  O31  1  0.606862  0.157141  0.286346  1
  O  O32  1  0.190463  0.090692  0.070212  1
  O  O33  1  0.070104  0.415460  0.629478  1
  O  O34  1  0.303748  0.605025  0.896333  1
  O  O35  1  0.129964  0.383228  0.855065  1
  O  O36  1  0.950119  0.656316  0.786260  1
  O  O37  1  0.366716  0.800545  0.039402  1
  O  O38  1  0.366414  0.116881  0.645726  1
  O  O39  1  0.391376  0.843299  0.714409  1
  O  O40  1  0.927076  0.585190  0.370645  1
  O  O41  1  0.353976  0.898203  0.551545  1
  O  O42  1  0.115775  0.084132  0.870668  1
  O  O43  1  0.335089  0.907161  0.194217  1
  O  O44  1  0.346111  0.409531  0.430120  1
  O  O45  1  0.193455  0.105321  0.396040  1
  O  O46  1  0.050581  0.343039  0.214396  1
  O  O47  1  0.642682  0.102110  0.449386  1
  O  O48  1  0.804126  0.601449  0.949191  1
  O  O49  1  0.663895  0.091771  0.806550  1
  O  O50  1  0.436383  0.591366  0.305985  1
  O  O51  1  0.631964  0.884082  0.354960  1
