# generated using pymatgen
data_Ba2MgV2CuF14
_symmetry_space_group_name_H-M   'P 1'
_cell_length_a   5.33865687
_cell_length_b   7.52291031
_cell_length_c   14.75538508
_cell_angle_alpha   91.99488408
_cell_angle_beta   90.17390071
_cell_angle_gamma   110.81654567
_symmetry_Int_Tables_number   1
_chemical_formula_structural   Ba2MgV2CuF14
_chemical_formula_sum   'Ba4 Mg2 V4 Cu2 F28'
_cell_volume   553.51456795
_cell_formula_units_Z   2
loop_
 _symmetry_equiv_pos_site_id
 _symmetry_equiv_pos_as_xyz
  1  'x, y, z'
loop_
 _atom_site_type_symbol
 _atom_site_label
 _atom_site_symmetry_multiplicity
 _atom_site_fract_x
 _atom_site_fract_y
 _atom_site_fract_z
 _atom_site_occupancy
  Ba  Ba0  1  0.108173  0.368154  0.624094  1
  Ba  Ba1  1  0.259688  0.366122  0.124509  1
  Ba  Ba2  1  0.892190  0.629210  0.374838  1
  Ba  Ba3  1  0.740878  0.633495  0.875103  1
  Mg  Mg4  1  0.432526  0.999522  0.749741  1
  Mg  Mg5  1  0.558506  0.995403  0.250416  1
  V  V6  1  0.098211  0.241957  0.873536  1
  V  V7  1  0.904287  0.760075  0.125720  1
  V  V8  1  0.140701  0.237051  0.373944  1
  V  V9  1  0.858278  0.760680  0.625663  1
  Cu  Cu10  1  0.503163  0.001332  0.000422  1
  Cu  Cu11  1  0.498358  0.998016  0.500642  1
  F  F12  1  0.896436  0.984814  0.337510  1
  F  F13  1  0.874673  0.278253  0.457060  1
  F  F14  1  0.125142  0.717780  0.543123  1
  F  F15  1  0.645461  0.497406  0.598581  1
  F  F16  1  0.599809  0.094307  0.626800  1
  F  F17  1  0.504844  0.907986  0.873807  1
  F  F18  1  0.405592  0.282452  0.955701  1
  F  F19  1  0.913863  0.012938  0.159551  1
  F  F20  1  0.365334  0.326525  0.774465  1
  F  F21  1  0.353870  0.500962  0.400451  1
  F  F22  1  0.807188  0.229614  0.790130  1
  F  F23  1  0.153367  0.505472  0.902189  1
  F  F24  1  0.420341  0.222772  0.289230  1
  F  F25  1  0.198177  0.774759  0.210620  1
  F  F26  1  0.497081  0.093744  0.126519  1
  F  F27  1  0.637632  0.679246  0.223357  1
  F  F28  1  0.128974  0.833079  0.016679  1
  F  F29  1  0.101789  0.013881  0.660786  1
  F  F30  1  0.874178  0.168032  0.985075  1
  F  F31  1  0.711245  0.836266  0.515537  1
  F  F32  1  0.595800  0.717910  0.042106  1
  F  F33  1  0.581289  0.776697  0.711125  1
  F  F34  1  0.962060  0.323847  0.275980  1
  F  F35  1  0.288765  0.161348  0.483944  1
  F  F36  1  0.396772  0.902588  0.374535  1
  F  F37  1  0.089207  0.989761  0.838912  1
  F  F38  1  0.040740  0.678285  0.724406  1
  F  F39  1  0.849072  0.495242  0.100438  1
