# generated using pymatgen
data_Mg3Si3(SbO6)2
_symmetry_space_group_name_H-M   'P 1'
_cell_length_a   10.68993253
_cell_length_b   10.68993282
_cell_length_c   10.68993246
_cell_angle_alpha   109.47122189
_cell_angle_beta   109.47122244
_cell_angle_gamma   109.47121826
_symmetry_Int_Tables_number   1
_chemical_formula_structural   Mg3Si3(SbO6)2
_chemical_formula_sum   'Mg12 Si12 Sb8 O48'
_cell_volume   940.37918341
_cell_formula_units_Z   4
loop_
 _symmetry_equiv_pos_site_id
 _symmetry_equiv_pos_as_xyz
  1  'x, y, z'
loop_
 _atom_site_type_symbol
 _atom_site_label
 _atom_site_symmetry_multiplicity
 _atom_site_fract_x
 _atom_site_fract_y
 _atom_site_fract_z
 _atom_site_occupancy
  Mg  Mg0  1  0.375000  0.750000  0.125000  1
  Mg  Mg1  1  0.125000  0.250000  0.375000  1
  Mg  Mg2  1  0.375000  0.125000  0.250000  1
  Mg  Mg3  1  0.125000  0.375000  0.750000  1
  Mg  Mg4  1  0.875000  0.750000  0.625000  1
  Mg  Mg5  1  0.750000  0.125000  0.375000  1
  Mg  Mg6  1  0.750000  0.625000  0.875000  1
  Mg  Mg7  1  0.625000  0.250000  0.875000  1
  Mg  Mg8  1  0.250000  0.875000  0.625000  1
  Mg  Mg9  1  0.875000  0.625000  0.250000  1
  Mg  Mg10  1  0.625000  0.875000  0.750000  1
  Mg  Mg11  1  0.250000  0.375000  0.125000  1
  Si  Si12  1  0.250000  0.125000  0.875000  1
  Si  Si13  1  0.750000  0.875000  0.125000  1
  Si  Si14  1  0.375000  0.250000  0.625000  1
  Si  Si15  1  0.625000  0.375000  0.250000  1
  Si  Si16  1  0.125000  0.750000  0.875000  1
  Si  Si17  1  0.875000  0.125000  0.750000  1
  Si  Si18  1  0.750000  0.375000  0.625000  1
  Si  Si19  1  0.375000  0.625000  0.750000  1
  Si  Si20  1  0.125000  0.875000  0.250000  1
  Si  Si21  1  0.875000  0.250000  0.125000  1
  Si  Si22  1  0.625000  0.750000  0.375000  1
  Si  Si23  1  0.250000  0.625000  0.375000  1
  Sb  Sb24  1  0.000000  0.000000  0.000000  1
  Sb  Sb25  1  0.000000  0.500000  0.000000  1
  Sb  Sb26  1  0.000000  0.000000  0.500000  1
  Sb  Sb27  1  0.000000  0.500000  0.500000  1
  Sb  Sb28  1  0.500000  0.000000  0.500000  1
  Sb  Sb29  1  0.500000  0.500000  0.000000  1
  Sb  Sb30  1  0.500000  0.500000  0.500000  1
  Sb  Sb31  1  0.500000  0.000000  0.000000  1
  O  O32  1  0.269523  0.474977  0.369080  1
  O  O33  1  0.025023  0.294546  0.894102  1
  O  O34  1  0.130920  0.605898  0.900444  1
  O  O35  1  0.230477  0.599556  0.205454  1
  O  O36  1  0.230477  0.130920  0.025023  1
  O  O37  1  0.599556  0.205454  0.230477  1
  O  O38  1  0.605898  0.205454  0.474977  1
  O  O39  1  0.205454  0.230477  0.599556  1
  O  O40  1  0.894102  0.369080  0.599556  1
  O  O41  1  0.294546  0.900444  0.269523  1
  O  O42  1  0.900444  0.269523  0.294546  1
  O  O43  1  0.025023  0.230477  0.130920  1
  O  O44  1  0.205454  0.474977  0.605898  1
  O  O45  1  0.599556  0.894102  0.369080  1
  O  O46  1  0.130920  0.025023  0.230477  1
  O  O47  1  0.474977  0.605898  0.205454  1
  O  O48  1  0.369080  0.599556  0.894102  1
  O  O49  1  0.894102  0.025023  0.294546  1
  O  O50  1  0.605898  0.900444  0.130920  1
  O  O51  1  0.105898  0.630920  0.400444  1
  O  O52  1  0.900444  0.130920  0.605898  1
  O  O53  1  0.369080  0.269523  0.474977  1
  O  O54  1  0.294546  0.894102  0.025023  1
  O  O55  1  0.269523  0.294546  0.900444  1
  O  O56  1  0.730477  0.525023  0.630920  1
  O  O57  1  0.974977  0.705454  0.105898  1
  O  O58  1  0.869080  0.394102  0.099556  1
  O  O59  1  0.769523  0.400444  0.794546  1
  O  O60  1  0.769523  0.869080  0.974977  1
  O  O61  1  0.400444  0.794546  0.769523  1
  O  O62  1  0.394102  0.794546  0.525023  1
  O  O63  1  0.794546  0.769523  0.400444  1
  O  O64  1  0.730477  0.705454  0.099556  1
  O  O65  1  0.705454  0.105898  0.974977  1
  O  O66  1  0.630920  0.730477  0.525023  1
  O  O67  1  0.525023  0.630920  0.730477  1
  O  O68  1  0.099556  0.869080  0.394102  1
  O  O69  1  0.394102  0.099556  0.869080  1
  O  O70  1  0.105898  0.974977  0.705454  1
  O  O71  1  0.630920  0.400444  0.105898  1
  O  O72  1  0.525023  0.394102  0.794546  1
  O  O73  1  0.869080  0.974977  0.769523  1
  O  O74  1  0.400444  0.105898  0.630920  1
  O  O75  1  0.794546  0.525023  0.394102  1
  O  O76  1  0.974977  0.769523  0.869080  1
  O  O77  1  0.099556  0.730477  0.705454  1
  O  O78  1  0.705454  0.099556  0.730477  1
  O  O79  1  0.474977  0.369080  0.269523  1
