# generated using pymatgen
data_Bi4O9
_symmetry_space_group_name_H-M   'P 1'
_cell_length_a   4.13755885
_cell_length_b   10.44624279
_cell_length_c   10.44648579
_cell_angle_alpha   90.01391871
_cell_angle_beta   90.01378937
_cell_angle_gamma   89.99456925
_symmetry_Int_Tables_number   1
_chemical_formula_structural   Bi4O9
_chemical_formula_sum   'Bi8 O18'
_cell_volume   451.51739855
_cell_formula_units_Z   2
loop_
 _symmetry_equiv_pos_site_id
 _symmetry_equiv_pos_as_xyz
  1  'x, y, z'
loop_
 _atom_site_type_symbol
 _atom_site_label
 _atom_site_symmetry_multiplicity
 _atom_site_fract_x
 _atom_site_fract_y
 _atom_site_fract_z
 _atom_site_occupancy
  Bi  Bi0  1  0.547148  0.533115  0.338283  1
  Bi  Bi1  1  0.453068  0.838012  0.466894  1
  Bi  Bi2  1  0.546855  0.337955  0.967121  1
  Bi  Bi3  1  0.452708  0.032854  0.838184  1
  Bi  Bi4  1  0.547067  0.966844  0.161925  1
  Bi  Bi5  1  0.546753  0.161981  0.533217  1
  Bi  Bi6  1  0.453394  0.466602  0.662040  1
  Bi  Bi7  1  0.453109  0.661935  0.033084  1
  O  O8  1  0.500036  0.749921  0.250089  1
  O  O9  1  0.500221  0.250596  0.749268  1
  O  O10  1  0.956389  0.696878  0.015690  1
  O  O11  1  0.956732  0.485316  0.696352  1
  O  O12  1  0.955961  0.015796  0.803434  1
  O  O13  1  0.956400  0.803073  0.484449  1
  O  O14  1  0.043584  0.302927  0.983984  1
  O  O15  1  0.043780  0.515403  0.302973  1
  O  O16  1  0.043752  0.984113  0.197313  1
  O  O17  1  0.043439  0.197083  0.515513  1
  O  O18  1  0.524837  0.024879  0.369891  1
  O  O19  1  0.524648  0.129960  0.025241  1
  O  O20  1  0.524701  0.369867  0.474897  1
  O  O21  1  0.524803  0.475121  0.130186  1
  O  O22  1  0.475432  0.524769  0.870064  1
  O  O23  1  0.474948  0.869841  0.975170  1
  O  O24  1  0.475296  0.630096  0.524936  1
  O  O25  1  0.474942  0.975066  0.629803  1
