# generated using pymatgen
data_Zn(CuO2)2
_symmetry_space_group_name_H-M   'P 1'
_cell_length_a   5.94503229
_cell_length_b   5.93582953
_cell_length_c   5.93582938
_cell_angle_alpha   59.99999341
_cell_angle_beta   60.05119328
_cell_angle_gamma   60.05118763
_symmetry_Int_Tables_number   1
_chemical_formula_structural   Zn(CuO2)2
_chemical_formula_sum   'Zn2 Cu4 O8'
_cell_volume   148.23051808
_cell_formula_units_Z   2
loop_
 _symmetry_equiv_pos_site_id
 _symmetry_equiv_pos_as_xyz
  1  'x, y, z'
loop_
 _atom_site_type_symbol
 _atom_site_label
 _atom_site_symmetry_multiplicity
 _atom_site_fract_x
 _atom_site_fract_y
 _atom_site_fract_z
 _atom_site_occupancy
  Zn  Zn0  1  0.977075  0.007642  0.007642  1
  Zn  Zn1  1  0.125560  0.624813  0.624813  1
  Cu  Cu2  1  0.260531  0.246490  0.246490  1
  Cu  Cu3  1  0.624298  0.125590  0.625056  1
  Cu  Cu4  1  0.624298  0.625056  0.125590  1
  Cu  Cu5  1  0.624298  0.625056  0.625056  1
  O  O6  1  0.411059  0.375129  0.375129  1
  O  O7  1  0.411059  0.375129  0.838680  1
  O  O8  1  0.411059  0.838680  0.375129  1
  O  O9  1  0.873372  0.375542  0.375542  1
  O  O10  1  0.381743  0.872752  0.872752  1
  O  O11  1  0.841883  0.415767  0.871175  1
  O  O12  1  0.841883  0.871175  0.415767  1
  O  O13  1  0.841883  0.871175  0.871175  1
