# generated using pymatgen
data_MgAgBiO5
_symmetry_space_group_name_H-M   'P 1'
_cell_length_a   5.33461206
_cell_length_b   10.20492111
_cell_length_c   15.48165238
_cell_angle_alpha   90.00000000
_cell_angle_beta   90.00000000
_cell_angle_gamma   90.00000000
_symmetry_Int_Tables_number   1
_chemical_formula_structural   MgAgBiO5
_chemical_formula_sum   'Mg8 Ag8 Bi8 O40'
_cell_volume   842.81024448
_cell_formula_units_Z   8
loop_
 _symmetry_equiv_pos_site_id
 _symmetry_equiv_pos_as_xyz
  1  'x, y, z'
loop_
 _atom_site_type_symbol
 _atom_site_label
 _atom_site_symmetry_multiplicity
 _atom_site_fract_x
 _atom_site_fract_y
 _atom_site_fract_z
 _atom_site_occupancy
  Mg  Mg0  1  0.561080  0.368396  0.433079  1
  Mg  Mg1  1  0.061080  0.131604  0.433079  1
  Mg  Mg2  1  0.061080  0.631604  0.066921  1
  Mg  Mg3  1  0.938920  0.368396  0.933079  1
  Mg  Mg4  1  0.438920  0.131604  0.933079  1
  Mg  Mg5  1  0.938920  0.868396  0.566921  1
  Mg  Mg6  1  0.438920  0.631604  0.566921  1
  Mg  Mg7  1  0.561080  0.868396  0.066921  1
  Ag  Ag8  1  0.049597  0.384271  0.576296  1
  Ag  Ag9  1  0.450403  0.884271  0.423704  1
  Ag  Ag10  1  0.950403  0.615729  0.423704  1
  Ag  Ag11  1  0.549597  0.115729  0.576296  1
  Ag  Ag12  1  0.950403  0.115729  0.076296  1
  Ag  Ag13  1  0.049597  0.884271  0.923704  1
  Ag  Ag14  1  0.450403  0.384271  0.076296  1
  Ag  Ag15  1  0.549597  0.615729  0.923704  1
  Bi  Bi16  1  0.999290  0.858191  0.245426  1
  Bi  Bi17  1  0.000710  0.141809  0.754574  1
  Bi  Bi18  1  0.500710  0.358191  0.754574  1
  Bi  Bi19  1  0.000710  0.641809  0.745426  1
  Bi  Bi20  1  0.499290  0.141809  0.254574  1
  Bi  Bi21  1  0.499290  0.641809  0.245426  1
  Bi  Bi22  1  0.500710  0.858191  0.745426  1
  Bi  Bi23  1  0.999290  0.358191  0.254574  1
  O  O24  1  0.837971  0.306281  0.676823  1
  O  O25  1  0.265659  0.979777  0.014573  1
  O  O26  1  0.234341  0.479777  0.985427  1
  O  O27  1  0.315395  0.796784  0.166656  1
  O  O28  1  0.184605  0.296784  0.833344  1
  O  O29  1  0.837971  0.806281  0.823177  1
  O  O30  1  0.184605  0.796784  0.666656  1
  O  O31  1  0.662029  0.806281  0.323177  1
  O  O32  1  0.265659  0.479777  0.485427  1
  O  O33  1  0.162029  0.693719  0.323177  1
  O  O34  1  0.662029  0.306281  0.176823  1
  O  O35  1  0.851267  0.269729  0.497459  1
  O  O36  1  0.765659  0.020223  0.485427  1
  O  O37  1  0.684605  0.703216  0.666656  1
  O  O38  1  0.254025  0.002417  0.836741  1
  O  O39  1  0.765659  0.520223  0.014573  1
  O  O40  1  0.162029  0.193719  0.176823  1
  O  O41  1  0.815395  0.203216  0.333344  1
  O  O42  1  0.351267  0.730271  0.002541  1
  O  O43  1  0.234341  0.979777  0.514573  1
  O  O44  1  0.148733  0.730271  0.502541  1
  O  O45  1  0.745975  0.997583  0.163259  1
  O  O46  1  0.684605  0.203216  0.833344  1
  O  O47  1  0.754025  0.997583  0.663259  1
  O  O48  1  0.148733  0.230271  0.997459  1
  O  O49  1  0.351267  0.230271  0.497459  1
  O  O50  1  0.734341  0.520223  0.514573  1
  O  O51  1  0.734341  0.020223  0.985427  1
  O  O52  1  0.754025  0.497583  0.836741  1
  O  O53  1  0.648733  0.769729  0.502541  1
  O  O54  1  0.648733  0.269729  0.997459  1
  O  O55  1  0.851267  0.769729  0.002541  1
  O  O56  1  0.745975  0.497583  0.336741  1
  O  O57  1  0.815395  0.703216  0.166656  1
  O  O58  1  0.315395  0.296784  0.333344  1
  O  O59  1  0.254025  0.502417  0.663259  1
  O  O60  1  0.245975  0.502417  0.163259  1
  O  O61  1  0.337971  0.193719  0.676823  1
  O  O62  1  0.245975  0.002417  0.336741  1
  O  O63  1  0.337971  0.693719  0.823177  1
