# generated using pymatgen
data_TeN2
_symmetry_space_group_name_H-M   'P 1'
_cell_length_a   4.03837363
_cell_length_b   5.83092908
_cell_length_c   5.81299625
_cell_angle_alpha   40.56744175
_cell_angle_beta   69.67424055
_cell_angle_gamma   69.73949981
_symmetry_Int_Tables_number   1
_chemical_formula_structural   TeN2
_chemical_formula_sum   'Te2 N4'
_cell_volume   82.71086753
_cell_formula_units_Z   2
loop_
 _symmetry_equiv_pos_site_id
 _symmetry_equiv_pos_as_xyz
  1  'x, y, z'
loop_
 _atom_site_type_symbol
 _atom_site_label
 _atom_site_symmetry_multiplicity
 _atom_site_fract_x
 _atom_site_fract_y
 _atom_site_fract_z
 _atom_site_occupancy
  Te  Te0  1  0.374782  0.874300  0.376136  1
  Te  Te1  1  0.625218  0.125700  0.623864  1
  N  N2  1  0.173819  0.089873  0.562489  1
  N  N3  1  0.826181  0.910127  0.437511  1
  N  N4  1  0.423913  0.324778  0.827396  1
  N  N5  1  0.576087  0.675222  0.172604  1
