# generated using pymatgen
data_YCrO3
_symmetry_space_group_name_H-M   'P 1'
_cell_length_a   5.31225163
_cell_length_b   5.61765685
_cell_length_c   7.65488947
_cell_angle_alpha   90.00000000
_cell_angle_beta   90.00000000
_cell_angle_gamma   90.00000000
_symmetry_Int_Tables_number   1
_chemical_formula_structural   YCrO3
_chemical_formula_sum   'Y4 Cr4 O12'
_cell_volume   228.44032525
_cell_formula_units_Z   4
loop_
 _symmetry_equiv_pos_site_id
 _symmetry_equiv_pos_as_xyz
  1  'x, y, z'
loop_
 _atom_site_type_symbol
 _atom_site_label
 _atom_site_symmetry_multiplicity
 _atom_site_fract_x
 _atom_site_fract_y
 _atom_site_fract_z
 _atom_site_occupancy
  Y  Y0  1  0.019231  0.932165  0.750000  1
  Y  Y1  1  0.519231  0.567835  0.250000  1
  Y  Y2  1  0.480768  0.432165  0.750000  1
  Y  Y3  1  0.980769  0.067835  0.250000  1
  Cr  Cr4  1  0.000000  0.500000  0.500000  1
  Cr  Cr5  1  0.500000  0.000000  0.500000  1
  Cr  Cr6  1  0.500000  0.000000  0.000000  1
  Cr  Cr7  1  0.000000  0.500000  0.000000  1
  O  O8  1  0.693067  0.302252  0.442924  1
  O  O9  1  0.193067  0.197748  0.557076  1
  O  O10  1  0.806933  0.802252  0.057076  1
  O  O11  1  0.306933  0.697748  0.942924  1
  O  O12  1  0.306933  0.697748  0.557076  1
  O  O13  1  0.806933  0.802252  0.442924  1
  O  O14  1  0.193067  0.197748  0.942924  1
  O  O15  1  0.693067  0.302252  0.057076  1
  O  O16  1  0.111315  0.459831  0.250000  1
  O  O17  1  0.611315  0.040169  0.750000  1
  O  O18  1  0.388685  0.959831  0.250000  1
  O  O19  1  0.888685  0.540169  0.750000  1
