# generated using pymatgen
data_Mg(FeO2)2
_symmetry_space_group_name_H-M   'P 1'
_cell_length_a   2.87745957
_cell_length_b   8.75753004
_cell_length_c   10.16892663
_cell_angle_alpha   90.09921328
_cell_angle_beta   90.00090536
_cell_angle_gamma   89.99913761
_symmetry_Int_Tables_number   1
_chemical_formula_structural   Mg(FeO2)2
_chemical_formula_sum   'Mg4 Fe8 O16'
_cell_volume   256.25085830
_cell_formula_units_Z   4
loop_
 _symmetry_equiv_pos_site_id
 _symmetry_equiv_pos_as_xyz
  1  'x, y, z'
loop_
 _atom_site_type_symbol
 _atom_site_label
 _atom_site_symmetry_multiplicity
 _atom_site_fract_x
 _atom_site_fract_y
 _atom_site_fract_z
 _atom_site_occupancy
  Mg  Mg0  1  0.750007  0.757091  0.658469  1
  Mg  Mg1  1  0.249996  0.242466  0.341674  1
  Mg  Mg2  1  0.749994  0.257035  0.840715  1
  Mg  Mg3  1  0.250004  0.742651  0.159503  1
  Fe  Fe4  1  0.749998  0.941993  0.882134  1
  Fe  Fe5  1  0.249989  0.058129  0.117558  1
  Fe  Fe6  1  0.750008  0.442850  0.617187  1
  Fe  Fe7  1  0.249997  0.557370  0.382988  1
  Fe  Fe8  1  0.749999  0.911936  0.400594  1
  Fe  Fe9  1  0.250002  0.088149  0.599434  1
  Fe  Fe10  1  0.749985  0.412911  0.099574  1
  Fe  Fe11  1  0.250015  0.586912  0.900516  1
  O  O12  1  0.749995  0.701130  0.325286  1
  O  O13  1  0.250010  0.298919  0.674691  1
  O  O14  1  0.749981  0.201622  0.175650  1
  O  O15  1  0.250012  0.798342  0.824543  1
  O  O16  1  0.750010  0.620935  0.033925  1
  O  O17  1  0.249997  0.378972  0.966026  1
  O  O18  1  0.749993  0.121496  0.465210  1
  O  O19  1  0.250011  0.878807  0.534740  1
  O  O20  1  0.750012  0.538487  0.784865  1
  O  O21  1  0.249988  0.461568  0.215144  1
  O  O22  1  0.750006  0.038302  0.714384  1
  O  O23  1  0.249993  0.961080  0.285316  1
  O  O24  1  0.750001  0.910544  0.071820  1
  O  O25  1  0.249987  0.089816  0.927693  1
  O  O26  1  0.750010  0.410837  0.428170  1
  O  O27  1  0.250000  0.589647  0.572191  1
