# generated using pymatgen
data_AlV(WO4)2
_symmetry_space_group_name_H-M   'P 1'
_cell_length_a   5.14616071
_cell_length_b   5.54537655
_cell_length_c   9.20355200
_cell_angle_alpha   89.99724710
_cell_angle_beta   90.25638072
_cell_angle_gamma   89.98653252
_symmetry_Int_Tables_number   1
_chemical_formula_structural   AlV(WO4)2
_chemical_formula_sum   'Al2 V2 W4 O16'
_cell_volume   262.64279819
_cell_formula_units_Z   2
loop_
 _symmetry_equiv_pos_site_id
 _symmetry_equiv_pos_as_xyz
  1  'x, y, z'
loop_
 _atom_site_type_symbol
 _atom_site_label
 _atom_site_symmetry_multiplicity
 _atom_site_fract_x
 _atom_site_fract_y
 _atom_site_fract_z
 _atom_site_occupancy
  Al  Al0  1  0.250050  0.655738  0.250011  1
  Al  Al1  1  0.749943  0.344291  0.750007  1
  V  V2  1  0.749917  0.359378  0.249994  1
  V  V3  1  0.250048  0.640610  0.750016  1
  W  W4  1  0.247615  0.164994  0.500623  1
  W  W5  1  0.252351  0.164990  0.999387  1
  W  W6  1  0.752390  0.835006  0.499377  1
  W  W7  1  0.747724  0.834970  0.000626  1
  O  O8  1  0.398064  0.385196  0.134619  1
  O  O9  1  0.102132  0.385325  0.365415  1
  O  O10  1  0.601791  0.614861  0.865353  1
  O  O11  1  0.897903  0.614693  0.634576  1
  O  O12  1  0.408152  0.877897  0.609453  1
  O  O13  1  0.091627  0.877804  0.890529  1
  O  O14  1  0.591845  0.122098  0.390528  1
  O  O15  1  0.908408  0.122228  0.109500  1
  O  O16  1  0.932798  0.627854  0.142809  1
  O  O17  1  0.567242  0.627659  0.357173  1
  O  O18  1  0.067197  0.372213  0.857192  1
  O  O19  1  0.432780  0.372326  0.642811  1
  O  O20  1  0.416560  0.877386  0.117749  1
  O  O21  1  0.583458  0.122499  0.882246  1
  O  O22  1  0.083227  0.877506  0.382257  1
  O  O23  1  0.916778  0.122475  0.617748  1
