# generated using pymatgen
data_ZnCuF5
_symmetry_space_group_name_H-M   'P 1'
_cell_length_a   5.15566668
_cell_length_b   7.40567619
_cell_length_c   9.61966918
_cell_angle_alpha   90.00000000
_cell_angle_beta   90.00000000
_cell_angle_gamma   110.60197033
_symmetry_Int_Tables_number   1
_chemical_formula_structural   ZnCuF5
_chemical_formula_sum   'Zn4 Cu4 F20'
_cell_volume   343.80132496
_cell_formula_units_Z   4
loop_
 _symmetry_equiv_pos_site_id
 _symmetry_equiv_pos_as_xyz
  1  'x, y, z'
loop_
 _atom_site_type_symbol
 _atom_site_label
 _atom_site_symmetry_multiplicity
 _atom_site_fract_x
 _atom_site_fract_y
 _atom_site_fract_z
 _atom_site_occupancy
  Zn  Zn0  1  0.476809  0.746601  0.013911  1
  Zn  Zn1  1  0.523191  0.753399  0.513911  1
  Zn  Zn2  1  0.523191  0.253399  0.986089  1
  Zn  Zn3  1  0.476809  0.246601  0.486089  1
  Cu  Cu4  1  0.899464  0.601527  0.754483  1
  Cu  Cu5  1  0.100536  0.898473  0.254483  1
  Cu  Cu6  1  0.100536  0.398473  0.245517  1
  Cu  Cu7  1  0.899464  0.101527  0.745517  1
  F  F8  1  0.601493  0.556956  0.887105  1
  F  F9  1  0.398507  0.943044  0.387105  1
  F  F10  1  0.398507  0.443044  0.112895  1
  F  F11  1  0.601493  0.056956  0.612895  1
  F  F12  1  0.636474  0.501778  0.607603  1
  F  F13  1  0.363526  0.998222  0.107603  1
  F  F14  1  0.363526  0.498222  0.392397  1
  F  F15  1  0.636474  0.001778  0.892397  1
  F  F16  1  0.858075  0.805776  0.405364  1
  F  F17  1  0.141925  0.694224  0.905364  1
  F  F18  1  0.141925  0.194224  0.594636  1
  F  F19  1  0.858075  0.305776  0.094636  1
  F  F20  1  0.801179  0.852247  0.128393  1
  F  F21  1  0.198821  0.647753  0.628393  1
  F  F22  1  0.198821  0.147753  0.871607  1
  F  F23  1  0.801179  0.352247  0.371607  1
  F  F24  1  0.854686  0.839698  0.698635  1
  F  F25  1  0.145314  0.660302  0.198635  1
  F  F26  1  0.145314  0.160302  0.301365  1
  F  F27  1  0.854686  0.339698  0.801365  1
