# generated using pymatgen
data_CaNiSnP2O9
_symmetry_space_group_name_H-M   'P 1'
_cell_length_a   6.60833386
_cell_length_b   7.77174542
_cell_length_c   14.32125244
_cell_angle_alpha   89.98661936
_cell_angle_beta   90.00469348
_cell_angle_gamma   90.06159114
_symmetry_Int_Tables_number   1
_chemical_formula_structural   CaNiSnP2O9
_chemical_formula_sum   'Ca4 Ni4 Sn4 P8 O36'
_cell_volume   735.51456530
_cell_formula_units_Z   4
loop_
 _symmetry_equiv_pos_site_id
 _symmetry_equiv_pos_as_xyz
  1  'x, y, z'
loop_
 _atom_site_type_symbol
 _atom_site_label
 _atom_site_symmetry_multiplicity
 _atom_site_fract_x
 _atom_site_fract_y
 _atom_site_fract_z
 _atom_site_occupancy
  Ca  Ca0  1  0.749993  0.917458  0.790686  1
  Ca  Ca1  1  0.750002  0.582545  0.290727  1
  Ca  Ca2  1  0.250009  0.082546  0.209316  1
  Ca  Ca3  1  0.249997  0.417461  0.709268  1
  Ni  Ni4  1  0.500000  0.000001  0.000001  1
  Ni  Ni5  1  0.499998  0.499997  0.499998  1
  Ni  Ni6  1  0.000001  0.499996  0.499998  1
  Ni  Ni7  1  0.000000  0.000000  0.000001  1
  Sn  Sn8  1  0.749906  0.346132  0.882925  1
  Sn  Sn9  1  0.250095  0.653868  0.117076  1
  Sn  Sn10  1  0.249960  0.846069  0.617051  1
  Sn  Sn11  1  0.750041  0.153923  0.382948  1
  P  P12  1  0.249789  0.349795  0.933412  1
  P  P13  1  0.750211  0.650206  0.066589  1
  P  P14  1  0.749992  0.849995  0.566649  1
  P  P15  1  0.250008  0.150002  0.433351  1
  P  P16  1  0.749926  0.381334  0.688881  1
  P  P17  1  0.250074  0.618667  0.311119  1
  P  P18  1  0.250059  0.881296  0.811055  1
  P  P19  1  0.749941  0.118705  0.188946  1
  O  O20  1  0.055366  0.605824  0.368789  1
  O  O21  1  0.555404  0.394218  0.631148  1
  O  O22  1  0.944732  0.105978  0.131321  1
  O  O23  1  0.444559  0.894178  0.868829  1
  O  O24  1  0.944631  0.394175  0.631209  1
  O  O25  1  0.444597  0.605782  0.368851  1
  O  O26  1  0.055270  0.894024  0.868680  1
  O  O27  1  0.555441  0.105823  0.131173  1
  O  O28  1  0.250016  0.326466  0.480800  1
  O  O29  1  0.749982  0.673534  0.519197  1
  O  O30  1  0.750764  0.826643  0.019236  1
  O  O31  1  0.249236  0.173360  0.980766  1
  O  O32  1  0.749620  0.115421  0.938063  1
  O  O33  1  0.250380  0.884580  0.061940  1
  O  O34  1  0.249811  0.615337  0.561903  1
  O  O35  1  0.750187  0.384656  0.438093  1
  O  O36  1  0.749881  0.210642  0.748044  1
  O  O37  1  0.250119  0.789359  0.251957  1
  O  O38  1  0.250082  0.710604  0.751911  1
  O  O39  1  0.749918  0.289394  0.248090  1
  O  O40  1  0.432754  0.130132  0.364927  1
  O  O41  1  0.932759  0.869931  0.635091  1
  O  O42  1  0.567343  0.630196  0.135006  1
  O  O43  1  0.067137  0.369915  0.864896  1
  O  O44  1  0.567246  0.869866  0.635073  1
  O  O45  1  0.067242  0.130066  0.364910  1
  O  O46  1  0.432657  0.369806  0.864995  1
  O  O47  1  0.932862  0.630087  0.135105  1
  O  O48  1  0.749885  0.977954  0.270337  1
  O  O49  1  0.250116  0.022042  0.729662  1
  O  O50  1  0.250030  0.477983  0.229706  1
  O  O51  1  0.749970  0.522016  0.770295  1
  O  O52  1  0.750009  0.996027  0.495149  1
  O  O53  1  0.249992  0.003975  0.504854  1
  O  O54  1  0.250040  0.495898  0.004886  1
  O  O55  1  0.749959  0.504105  0.995114  1
