# generated using pymatgen
data_ZnCuP2O7
_symmetry_space_group_name_H-M   'P 1'
_cell_length_a   6.99091802
_cell_length_b   8.29382028
_cell_length_c   9.61293076
_cell_angle_alpha   90.00000000
_cell_angle_beta   113.70883831
_cell_angle_gamma   90.00000000
_symmetry_Int_Tables_number   1
_chemical_formula_structural   ZnCuP2O7
_chemical_formula_sum   'Zn4 Cu4 P8 O28'
_cell_volume   510.32953333
_cell_formula_units_Z   4
loop_
 _symmetry_equiv_pos_site_id
 _symmetry_equiv_pos_as_xyz
  1  'x, y, z'
loop_
 _atom_site_type_symbol
 _atom_site_label
 _atom_site_symmetry_multiplicity
 _atom_site_fract_x
 _atom_site_fract_y
 _atom_site_fract_z
 _atom_site_occupancy
  Zn  Zn0  1  0.125285  0.940100  0.814211  1
  Zn  Zn1  1  0.374715  0.440100  0.685789  1
  Zn  Zn2  1  0.625285  0.559900  0.314211  1
  Zn  Zn3  1  0.874715  0.059900  0.185789  1
  Cu  Cu4  1  0.375442  0.068110  0.609819  1
  Cu  Cu5  1  0.624558  0.931890  0.390181  1
  Cu  Cu6  1  0.124558  0.568110  0.890181  1
  Cu  Cu7  1  0.875442  0.431890  0.109819  1
  P  P8  1  0.175281  0.733416  0.245736  1
  P  P9  1  0.436282  0.231673  0.973531  1
  P  P10  1  0.675281  0.766584  0.745736  1
  P  P11  1  0.936282  0.268327  0.473531  1
  P  P12  1  0.324719  0.233416  0.254264  1
  P  P13  1  0.063718  0.731673  0.526469  1
  P  P14  1  0.563718  0.768327  0.026469  1
  P  P15  1  0.824719  0.266584  0.754264  1
  O  O16  1  0.354134  0.186847  0.101062  1
  O  O17  1  0.569650  0.608990  0.684947  1
  O  O18  1  0.069650  0.891010  0.184947  1
  O  O19  1  0.343255  0.393927  0.896352  1
  O  O20  1  0.645866  0.813153  0.898938  1
  O  O21  1  0.410915  0.090796  0.364267  1
  O  O22  1  0.656745  0.606073  0.103648  1
  O  O23  1  0.366887  0.091887  0.862761  1
  O  O24  1  0.178435  0.255244  0.553012  1
  O  O25  1  0.589085  0.909204  0.635733  1
  O  O26  1  0.910915  0.409204  0.864267  1
  O  O27  1  0.915595  0.758302  0.796316  1
  O  O28  1  0.584405  0.258302  0.703684  1
  O  O29  1  0.854134  0.313153  0.601062  1
  O  O30  1  0.089085  0.590796  0.135733  1
  O  O31  1  0.930350  0.108990  0.815053  1
  O  O32  1  0.084405  0.241698  0.203684  1
  O  O33  1  0.633113  0.908113  0.137239  1
  O  O34  1  0.678435  0.244756  0.053012  1
  O  O35  1  0.321565  0.755244  0.946988  1
  O  O36  1  0.156745  0.893927  0.603648  1
  O  O37  1  0.866887  0.408113  0.362761  1
  O  O38  1  0.133113  0.591887  0.637239  1
  O  O39  1  0.430350  0.391010  0.315053  1
  O  O40  1  0.415595  0.741698  0.296316  1
  O  O41  1  0.843255  0.106073  0.396352  1
  O  O42  1  0.821565  0.744756  0.446988  1
  O  O43  1  0.145866  0.686847  0.398938  1
