# generated using pymatgen
data_AlV3Se2ClO8
_symmetry_space_group_name_H-M   'P 1'
_cell_length_a   6.64995045
_cell_length_b   8.00421240
_cell_length_c   9.98110286
_cell_angle_alpha   90.95969351
_cell_angle_beta   75.66295686
_cell_angle_gamma   89.66790702
_symmetry_Int_Tables_number   1
_chemical_formula_structural   AlV3Se2ClO8
_chemical_formula_sum   'Al2 V6 Se4 Cl2 O16'
_cell_volume   514.62502366
_cell_formula_units_Z   2
loop_
 _symmetry_equiv_pos_site_id
 _symmetry_equiv_pos_as_xyz
  1  'x, y, z'
loop_
 _atom_site_type_symbol
 _atom_site_label
 _atom_site_symmetry_multiplicity
 _atom_site_fract_x
 _atom_site_fract_y
 _atom_site_fract_z
 _atom_site_occupancy
  Al  Al0  1  0.252137  0.141918  0.253544  1
  Al  Al1  1  0.747835  0.858002  0.746402  1
  V  V2  1  0.499859  0.000371  0.999661  1
  V  V3  1  0.500036  0.999992  0.500019  1
  V  V4  1  0.999829  0.999905  0.000013  1
  V  V5  1  0.779504  0.220991  0.751407  1
  V  V6  1  0.220455  0.779004  0.248606  1
  V  V7  1  0.000107  0.000014  0.500096  1
  Se  Se8  1  0.688256  0.369002  0.082647  1
  Se  Se9  1  0.311667  0.631011  0.917363  1
  Se  Se10  1  0.807571  0.372815  0.426472  1
  Se  Se11  1  0.192558  0.627117  0.573544  1
  Cl  Cl12  1  0.183738  0.133770  0.677503  1
  Cl  Cl13  1  0.816514  0.866130  0.322667  1
  O  O14  1  0.208649  0.999034  0.119923  1
  O  O15  1  0.317388  0.608105  0.087117  1
  O  O16  1  0.800905  0.399584  0.597065  1
  O  O17  1  0.476402  0.219503  0.129604  1
  O  O18  1  0.389543  0.756722  0.582109  1
  O  O19  1  0.965040  0.772491  0.622480  1
  O  O20  1  0.791421  0.000950  0.880027  1
  O  O21  1  0.898394  0.245189  0.076708  1
  O  O22  1  0.035071  0.227411  0.377597  1
  O  O23  1  0.101301  0.754620  0.923399  1
  O  O24  1  0.300117  0.980785  0.362023  1
  O  O25  1  0.699903  0.019216  0.637955  1
  O  O26  1  0.523245  0.780745  0.870290  1
  O  O27  1  0.610567  0.243229  0.417949  1
  O  O28  1  0.682741  0.391973  0.912854  1
  O  O29  1  0.199245  0.600400  0.402955  1
