# generated using pymatgen
data_Mg(CoO2)2
_symmetry_space_group_name_H-M   'P 1'
_cell_length_a   5.71708173
_cell_length_b   5.71708239
_cell_length_c   6.08646439
_cell_angle_alpha   118.01192980
_cell_angle_beta   118.01193306
_cell_angle_gamma   89.99999546
_symmetry_Int_Tables_number   1
_chemical_formula_structural   Mg(CoO2)2
_chemical_formula_sum   'Mg2 Co4 O8'
_cell_volume   148.71700673
_cell_formula_units_Z   2
loop_
 _symmetry_equiv_pos_site_id
 _symmetry_equiv_pos_as_xyz
  1  'x, y, z'
loop_
 _atom_site_type_symbol
 _atom_site_label
 _atom_site_symmetry_multiplicity
 _atom_site_fract_x
 _atom_site_fract_y
 _atom_site_fract_z
 _atom_site_occupancy
  Mg  Mg0  1  0.375000  0.625000  0.750000  1
  Mg  Mg1  1  0.625000  0.375000  0.250000  1
  Co  Co2  1  0.000000  0.000000  0.500000  1
  Co  Co3  1  0.000000  0.500000  0.000000  1
  Co  Co4  1  0.500000  0.000000  0.500000  1
  Co  Co5  1  0.000000  0.000000  0.000000  1
  O  O6  1  0.758121  0.784932  0.516243  1
  O  O7  1  0.768691  0.241879  0.983757  1
  O  O8  1  0.215068  0.241879  0.983757  1
  O  O9  1  0.241879  0.215068  0.483757  1
  O  O10  1  0.241879  0.768691  0.483757  1
  O  O11  1  0.231309  0.758121  0.016243  1
  O  O12  1  0.758121  0.231309  0.516243  1
  O  O13  1  0.784932  0.758121  0.016243  1
