# generated using pymatgen
data_CaCr2F10
_symmetry_space_group_name_H-M   'P 1'
_cell_length_a   5.56457101
_cell_length_b   5.56457124
_cell_length_c   7.58232191
_cell_angle_alpha   69.75363860
_cell_angle_beta   69.75363776
_cell_angle_gamma   71.65785080
_symmetry_Int_Tables_number   1
_chemical_formula_structural   CaCr2F10
_chemical_formula_sum   'Ca1 Cr2 F10'
_cell_volume   201.53446591
_cell_formula_units_Z   1
loop_
 _symmetry_equiv_pos_site_id
 _symmetry_equiv_pos_as_xyz
  1  'x, y, z'
loop_
 _atom_site_type_symbol
 _atom_site_label
 _atom_site_symmetry_multiplicity
 _atom_site_fract_x
 _atom_site_fract_y
 _atom_site_fract_z
 _atom_site_occupancy
  Ca  Ca0  1  0.460900  0.539100  0.250000  1
  Cr  Cr1  1  0.004803  0.006285  0.993627  1
  Cr  Cr2  1  0.993715  0.995197  0.506373  1
  F  F3  1  0.795128  0.763343  0.615443  1
  F  F4  1  0.236657  0.204872  0.884557  1
  F  F5  1  0.204071  0.242495  0.384654  1
  F  F6  1  0.757505  0.795929  0.115346  1
  F  F7  1  0.934405  0.065595  0.750000  1
  F  F8  1  0.072086  0.927914  0.250000  1
  F  F9  1  0.732948  0.287534  0.042197  1
  F  F10  1  0.712466  0.267052  0.457803  1
  F  F11  1  0.260859  0.707457  0.978389  1
  F  F12  1  0.292543  0.739141  0.521611  1
