# generated using pymatgen
data_Sn3(AsO4)4
_symmetry_space_group_name_H-M   'P 1'
_cell_length_a   5.07283736
_cell_length_b   8.84226301
_cell_length_c   15.71301958
_cell_angle_alpha   101.90572261
_cell_angle_beta   90.00000000
_cell_angle_gamma   90.00000000
_symmetry_Int_Tables_number   1
_chemical_formula_structural   Sn3(AsO4)4
_chemical_formula_sum   'Sn6 As8 O32'
_cell_volume   689.65151415
_cell_formula_units_Z   2
loop_
 _symmetry_equiv_pos_site_id
 _symmetry_equiv_pos_as_xyz
  1  'x, y, z'
loop_
 _atom_site_type_symbol
 _atom_site_label
 _atom_site_symmetry_multiplicity
 _atom_site_fract_x
 _atom_site_fract_y
 _atom_site_fract_z
 _atom_site_occupancy
  Sn  Sn0  1  0.018707  0.310661  0.129002  1
  Sn  Sn1  1  0.981293  0.689339  0.870997  1
  Sn  Sn2  1  0.518707  0.189339  0.370997  1
  Sn  Sn3  1  0.481293  0.810661  0.629003  1
  Sn  Sn4  1  0.500000  0.500000  0.000000  1
  Sn  Sn5  1  -0.000000  -0.000000  0.500000  1
  As  As6  1  0.488804  0.927574  0.855277  1
  As  As7  1  0.044978  0.319876  0.894663  1
  As  As8  1  0.544978  0.180124  0.605337  1
  As  As9  1  0.455022  0.819876  0.394663  1
  As  As10  1  0.511196  0.072426  0.144723  1
  As  As11  1  0.955022  0.680124  0.105337  1
  As  As12  1  0.011196  0.427575  0.355277  1
  As  As13  1  0.988804  0.572426  0.644723  1
  O  O14  1  0.028563  0.555149  0.752360  1
  O  O15  1  0.694354  0.188436  0.502131  1
  O  O16  1  0.130165  0.188884  0.810585  1
  O  O17  1  0.102361  0.763379  0.646136  1
  O  O18  1  0.869835  0.811116  0.189415  1
  O  O19  1  0.471437  0.055149  0.252360  1
  O  O20  1  0.630165  0.311116  0.689415  1
  O  O21  1  0.779021  0.886116  0.400026  1
  O  O22  1  0.870127  0.571402  0.423621  1
  O  O23  1  0.971437  0.444851  0.247640  1
  O  O24  1  0.397639  0.263379  0.146136  1
  O  O25  1  0.220979  0.113884  0.599974  1
  O  O26  1  0.214480  0.513976  0.904632  1
  O  O27  1  0.129873  0.428598  0.576379  1
  O  O28  1  0.844915  0.108129  0.123037  1
  O  O29  1  0.344915  0.391871  0.376963  1
  O  O30  1  0.714480  0.986024  0.595368  1
  O  O31  1  0.369835  0.688884  0.310585  1
  O  O32  1  0.370127  0.928598  0.076379  1
  O  O33  1  0.279021  0.613884  0.099974  1
  O  O34  1  0.655085  0.608129  0.623037  1
  O  O35  1  0.155085  0.891871  0.876963  1
  O  O36  1  0.305646  0.811564  0.497869  1
  O  O37  1  0.194354  0.311564  0.997869  1
  O  O38  1  0.785520  0.486024  0.095368  1
  O  O39  1  0.528563  0.944851  0.747640  1
  O  O40  1  0.897639  0.236621  0.353864  1
  O  O41  1  0.629873  0.071402  0.923621  1
  O  O42  1  0.805646  0.688436  0.002131  1
  O  O43  1  0.720979  0.386116  0.900026  1
  O  O44  1  0.285520  0.013976  0.404632  1
  O  O45  1  0.602361  0.736621  0.853864  1
