# generated using pymatgen
data_ZnCo2P2O9
_symmetry_space_group_name_H-M   'P 1'
_cell_length_a   6.18216103
_cell_length_b   7.17688775
_cell_length_c   14.32179998
_cell_angle_alpha   90.67972388
_cell_angle_beta   90.12349183
_cell_angle_gamma   89.54203449
_symmetry_Int_Tables_number   1
_chemical_formula_structural   ZnCo2P2O9
_chemical_formula_sum   'Zn4 Co8 P8 O36'
_cell_volume   635.37293832
_cell_formula_units_Z   4
loop_
 _symmetry_equiv_pos_site_id
 _symmetry_equiv_pos_as_xyz
  1  'x, y, z'
loop_
 _atom_site_type_symbol
 _atom_site_label
 _atom_site_symmetry_multiplicity
 _atom_site_fract_x
 _atom_site_fract_y
 _atom_site_fract_z
 _atom_site_occupancy
  Zn  Zn0  1  0.749416  0.897007  0.772238  1
  Zn  Zn1  1  0.749117  0.599437  0.277792  1
  Zn  Zn2  1  0.250908  0.400474  0.722118  1
  Zn  Zn3  1  0.250548  0.102721  0.227758  1
  Co  Co4  1  0.751516  0.351821  0.879681  1
  Co  Co5  1  0.248494  0.648684  0.120155  1
  Co  Co6  1  0.249862  0.850284  0.621803  1
  Co  Co7  1  0.750131  0.149739  0.378195  1
  Co  Co8  1  0.500099  0.000006  0.000079  1
  Co  Co9  1  0.499992  0.500021  0.499969  1
  Co  Co10  1  0.000017  0.500032  0.499958  1
  Co  Co11  1  0.999814  0.000099  0.000003  1
  P  P12  1  0.252918  0.364351  0.929010  1
  P  P13  1  0.747122  0.635483  0.071023  1
  P  P14  1  0.749735  0.863716  0.568681  1
  P  P15  1  0.250260  0.136289  0.431320  1
  P  P16  1  0.750490  0.386634  0.697662  1
  P  P17  1  0.750315  0.117096  0.198955  1
  P  P18  1  0.249715  0.882927  0.801053  1
  P  P19  1  0.249497  0.613509  0.302316  1
  O  O20  1  0.035575  0.607264  0.361240  1
  O  O21  1  0.536637  0.393638  0.638378  1
  O  O22  1  0.963370  0.102015  0.140271  1
  O  O23  1  0.463546  0.896343  0.859277  1
  O  O24  1  0.964442  0.392701  0.638792  1
  O  O25  1  0.463363  0.606306  0.361616  1
  O  O26  1  0.036645  0.897985  0.859726  1
  O  O27  1  0.536493  0.103694  0.140720  1
  O  O28  1  0.250527  0.334357  0.480345  1
  O  O29  1  0.749474  0.665638  0.519670  1
  O  O30  1  0.742615  0.829057  0.021483  1
  O  O31  1  0.257390  0.170762  0.978489  1
  O  O32  1  0.735808  0.132930  0.955545  1
  O  O33  1  0.264382  0.866954  0.044624  1
  O  O34  1  0.249455  0.638816  0.544869  1
  O  O35  1  0.750551  0.361184  0.455124  1
  O  O36  1  0.751351  0.203447  0.756333  1
  O  O37  1  0.248548  0.796789  0.243784  1
  O  O38  1  0.250014  0.697842  0.742425  1
  O  O39  1  0.749985  0.302158  0.257588  1
  O  O40  1  0.440132  0.132004  0.360589  1
  O  O41  1  0.940298  0.867172  0.639329  1
  O  O42  1  0.559953  0.626589  0.142167  1
  O  O43  1  0.058011  0.366911  0.860637  1
  O  O44  1  0.559863  0.867998  0.639416  1
  O  O45  1  0.059686  0.132837  0.360683  1
  O  O46  1  0.440112  0.373321  0.857803  1
  O  O47  1  0.941944  0.632931  0.139366  1
  O  O48  1  0.751611  0.482237  0.999034  1
  O  O49  1  0.249003  0.038874  0.725060  1
  O  O50  1  0.248810  0.451313  0.228925  1
  O  O51  1  0.751073  0.548984  0.770997  1
  O  O52  1  0.749466  0.012447  0.497297  1
  O  O53  1  0.250533  0.987568  0.502712  1
  O  O54  1  0.248383  0.517425  0.000973  1
  O  O55  1  0.750994  0.961169  0.274947  1
