# generated using pymatgen
data_Sr4CaCr2(SO3)2
_symmetry_space_group_name_H-M   'P 1'
_cell_length_a   3.96283318
_cell_length_b   3.96283318
_cell_length_c   16.58110850
_cell_angle_alpha   90.00000000
_cell_angle_beta   90.00000000
_cell_angle_gamma   90.00000000
_symmetry_Int_Tables_number   1
_chemical_formula_structural   Sr4CaCr2(SO3)2
_chemical_formula_sum   'Sr4 Ca1 Cr2 S2 O6'
_cell_volume   260.39050409
_cell_formula_units_Z   1
loop_
 _symmetry_equiv_pos_site_id
 _symmetry_equiv_pos_as_xyz
  1  'x, y, z'
loop_
 _atom_site_type_symbol
 _atom_site_label
 _atom_site_symmetry_multiplicity
 _atom_site_fract_x
 _atom_site_fract_y
 _atom_site_fract_z
 _atom_site_occupancy
  Sr  Sr0  1  0.750000  0.750000  0.204642  1
  Sr  Sr1  1  0.250000  0.250000  0.795358  1
  Sr  Sr2  1  0.750000  0.750000  0.418013  1
  Sr  Sr3  1  0.250000  0.250000  0.581987  1
  Ca  Ca4  1  0.250000  0.750000  0.000000  1
  Cr  Cr5  1  0.250000  0.250000  0.318699  1
  Cr  Cr6  1  0.750000  0.750000  0.681301  1
  S  S7  1  0.250000  0.250000  0.112546  1
  S  S8  1  0.750000  0.750000  0.887454  1
  O  O9  1  0.750000  0.250000  0.301635  1
  O  O10  1  0.250000  0.750000  0.301393  1
  O  O11  1  0.250000  0.750000  0.698607  1
  O  O12  1  0.750000  0.250000  0.698365  1
  O  O13  1  0.250000  0.250000  0.434557  1
  O  O14  1  0.750000  0.750000  0.565443  1
