# generated using pymatgen
data_ZnBi2P2O9
_symmetry_space_group_name_H-M   'P 1'
_cell_length_a   7.11872327
_cell_length_b   7.47462770
_cell_length_c   15.76945883
_cell_angle_alpha   90.00000000
_cell_angle_beta   90.00000000
_cell_angle_gamma   90.00000000
_symmetry_Int_Tables_number   1
_chemical_formula_structural   ZnBi2P2O9
_chemical_formula_sum   'Zn4 Bi8 P8 O36'
_cell_volume   839.08984732
_cell_formula_units_Z   4
loop_
 _symmetry_equiv_pos_site_id
 _symmetry_equiv_pos_as_xyz
  1  'x, y, z'
loop_
 _atom_site_type_symbol
 _atom_site_label
 _atom_site_symmetry_multiplicity
 _atom_site_fract_x
 _atom_site_fract_y
 _atom_site_fract_z
 _atom_site_occupancy
  Zn  Zn0  1  0.750000  0.960619  0.757279  1
  Zn  Zn1  1  0.750000  0.539381  0.257279  1
  Zn  Zn2  1  0.250001  0.460618  0.742721  1
  Zn  Zn3  1  0.250001  0.039381  0.242721  1
  Bi  Bi4  1  0.750000  0.397727  0.880320  1
  Bi  Bi5  1  0.250001  0.602273  0.119680  1
  Bi  Bi6  1  0.250001  0.897727  0.619680  1
  Bi  Bi7  1  0.750000  0.102273  0.380320  1
  Bi  Bi8  1  0.500000  -0.000000  0.000000  1
  Bi  Bi9  1  0.500000  0.500000  0.500000  1
  Bi  Bi10  1  -0.000000  0.500000  0.500000  1
  Bi  Bi11  1  -0.000000  -0.000000  0.000000  1
  P  P12  1  0.250001  0.383528  0.911414  1
  P  P13  1  0.750000  0.616472  0.088587  1
  P  P14  1  0.750000  0.883528  0.588586  1
  P  P15  1  0.250001  0.116473  0.411414  1
  P  P16  1  0.750000  0.385045  0.689234  1
  P  P17  1  0.750000  0.114955  0.189234  1
  P  P18  1  0.250001  0.885045  0.810766  1
  P  P19  1  0.250001  0.614954  0.310766  1
  O  O20  1  0.065588  0.624830  0.363593  1
  O  O21  1  0.565587  0.375169  0.636407  1
  O  O22  1  0.934412  0.124830  0.136407  1
  O  O23  1  0.434412  0.875170  0.863593  1
  O  O24  1  0.934412  0.375169  0.636407  1
  O  O25  1  0.434412  0.624830  0.363593  1
  O  O26  1  0.065588  0.875170  0.863593  1
  O  O27  1  0.565587  0.124830  0.136407  1
  O  O28  1  0.250001  0.290811  0.467063  1
  O  O29  1  0.750000  0.709190  0.532937  1
  O  O30  1  0.750000  0.790810  0.032936  1
  O  O31  1  0.250001  0.209190  0.967063  1
  O  O32  1  0.750000  0.118012  0.923976  1
  O  O33  1  0.250001  0.881988  0.076023  1
  O  O34  1  0.250001  0.618012  0.576023  1
  O  O35  1  0.750000  0.381989  0.423977  1
  O  O36  1  0.750000  0.221038  0.755106  1
  O  O37  1  0.250001  0.778962  0.244895  1
  O  O38  1  0.250001  0.721038  0.744894  1
  O  O39  1  0.750000  0.278963  0.255105  1
  O  O40  1  0.419981  0.118609  0.347594  1
  O  O41  1  0.919981  0.881391  0.652406  1
  O  O42  1  0.580019  0.618608  0.152406  1
  O  O43  1  0.080019  0.381391  0.847594  1
  O  O44  1  0.580019  0.881391  0.652406  1
  O  O45  1  0.080019  0.118609  0.347594  1
  O  O46  1  0.419981  0.381391  0.847594  1
  O  O47  1  0.919981  0.618608  0.152406  1
  O  O48  1  0.750000  0.453923  0.031191  1
  O  O49  1  0.250001  0.049215  0.751697  1
  O  O50  1  0.250001  0.450784  0.251697  1
  O  O51  1  0.750000  0.549215  0.748303  1
  O  O52  1  0.750000  0.046077  0.531191  1
  O  O53  1  0.250001  0.953923  0.468809  1
  O  O54  1  0.250001  0.546076  0.968808  1
  O  O55  1  0.750000  0.950785  0.248303  1
