# generated using pymatgen
data_Ba2Ca3Tl2(CoO3)4
_symmetry_space_group_name_H-M   'P 1'
_cell_length_a   3.85159110
_cell_length_b   3.85159104
_cell_length_c   22.01793111
_cell_angle_alpha   95.01777595
_cell_angle_beta   95.01777659
_cell_angle_gamma   89.99999532
_symmetry_Int_Tables_number   1
_chemical_formula_structural   Ba2Ca3Tl2(CoO3)4
_chemical_formula_sum   'Ba2 Ca3 Tl2 Co4 O12'
_cell_volume   324.12220020
_cell_formula_units_Z   1
loop_
 _symmetry_equiv_pos_site_id
 _symmetry_equiv_pos_as_xyz
  1  'x, y, z'
loop_
 _atom_site_type_symbol
 _atom_site_label
 _atom_site_symmetry_multiplicity
 _atom_site_fract_x
 _atom_site_fract_y
 _atom_site_fract_z
 _atom_site_occupancy
  Ba  Ba0  1  0.158961  0.158961  0.317920  1
  Ba  Ba1  1  0.841039  0.841039  0.682080  1
  Ca  Ca2  1  0.075182  0.075182  0.150363  1
  Ca  Ca3  1  0.924818  0.924818  0.849637  1
  Ca  Ca4  1  0.000000  0.000000  0.000000  1
  Tl  Tl5  1  0.723546  0.723546  0.447091  1
  Tl  Tl6  1  0.276454  0.276454  0.552909  1
  Co  Co7  1  0.537396  0.537396  0.074792  1
  Co  Co8  1  0.390401  0.390401  0.780802  1
  Co  Co9  1  0.609599  0.609599  0.219198  1
  Co  Co10  1  0.462604  0.462604  0.925208  1
  O  O11  1  0.390284  0.890284  0.780568  1
  O  O12  1  0.536973  0.036973  0.073947  1
  O  O13  1  0.227550  0.227550  0.455100  1
  O  O14  1  0.963027  0.463027  0.926053  1
  O  O15  1  0.772450  0.772450  0.544900  1
  O  O16  1  0.109716  0.609716  0.219432  1
  O  O17  1  0.609716  0.109716  0.219432  1
  O  O18  1  0.324502  0.324502  0.649005  1
  O  O19  1  0.890284  0.390284  0.780568  1
  O  O20  1  0.036973  0.536973  0.073947  1
  O  O21  1  0.463027  0.963027  0.926053  1
  O  O22  1  0.675498  0.675498  0.350995  1
