# generated using pymatgen
data_CrF5
_symmetry_space_group_name_H-M   'P 1'
_cell_length_a   2.99629888
_cell_length_b   5.95416411
_cell_length_c   11.88762371
_cell_angle_alpha   90.00000000
_cell_angle_beta   90.00000000
_cell_angle_gamma   104.57301621
_symmetry_Int_Tables_number   1
_chemical_formula_structural   CrF5
_chemical_formula_sum   'Cr2 F10'
_cell_volume   205.25751375
_cell_formula_units_Z   2
loop_
 _symmetry_equiv_pos_site_id
 _symmetry_equiv_pos_as_xyz
  1  'x, y, z'
loop_
 _atom_site_type_symbol
 _atom_site_label
 _atom_site_symmetry_multiplicity
 _atom_site_fract_x
 _atom_site_fract_y
 _atom_site_fract_z
 _atom_site_occupancy
  Cr  Cr0  1  0.500000  0.000000  0.500000  1
  Cr  Cr1  1  0.500000  0.000000  0.000000  1
  F  F2  1  0.293711  0.587422  0.250000  1
  F  F3  1  0.706289  0.412577  0.750000  1
  F  F4  1  0.057105  0.114211  0.587981  1
  F  F5  1  0.942895  0.885790  0.412019  1
  F  F6  1  0.371737  0.743474  0.919322  1
  F  F7  1  0.628263  0.256526  0.080678  1
  F  F8  1  0.628263  0.256526  0.419322  1
  F  F9  1  0.371737  0.743474  0.580678  1
  F  F10  1  0.057105  0.114211  0.912019  1
  F  F11  1  0.942895  0.885790  0.087981  1
