# generated using pymatgen
data_Mg3Sb2O7
_symmetry_space_group_name_H-M   'P 1'
_cell_length_a   5.57232026
_cell_length_b   5.52171098
_cell_length_c   9.82010487
_cell_angle_alpha   106.32843970
_cell_angle_beta   90.00000000
_cell_angle_gamma   90.00000000
_symmetry_Int_Tables_number   1
_chemical_formula_structural   Mg3Sb2O7
_chemical_formula_sum   'Mg6 Sb4 O14'
_cell_volume   289.96522068
_cell_formula_units_Z   2
loop_
 _symmetry_equiv_pos_site_id
 _symmetry_equiv_pos_as_xyz
  1  'x, y, z'
loop_
 _atom_site_type_symbol
 _atom_site_label
 _atom_site_symmetry_multiplicity
 _atom_site_fract_x
 _atom_site_fract_y
 _atom_site_fract_z
 _atom_site_occupancy
  Mg  Mg0  1  0.741962  0.744281  1.000000  1
  Mg  Mg1  1  0.241962  0.255719  0.000000  1
  Mg  Mg2  1  0.800378  0.590933  0.597695  1
  Mg  Mg3  1  0.300378  0.409067  0.402305  1
  Mg  Mg4  1  0.800378  0.993237  0.402305  1
  Mg  Mg5  1  0.300378  0.006763  0.597695  1
  Sb  Sb6  1  0.748657  0.368113  0.210518  1
  Sb  Sb7  1  0.248657  0.631887  0.789482  1
  Sb  Sb8  1  0.248657  0.842405  0.210518  1
  Sb  Sb9  1  0.748657  0.157595  0.789482  1
  O  O10  1  0.674256  0.931405  0.585787  1
  O  O11  1  0.174256  0.068595  0.414213  1
  O  O12  1  0.174256  0.654381  0.585787  1
  O  O13  1  0.674256  0.345619  0.414213  1
  O  O14  1  0.058264  0.273684  0.711246  1
  O  O15  1  0.558264  0.726316  0.288754  1
  O  O16  1  0.558264  0.437562  0.711246  1
  O  O17  1  0.058264  0.562438  0.288754  1
  O  O18  1  0.903818  0.842840  0.836496  1
  O  O19  1  0.403818  0.157160  0.163504  1
  O  O20  1  0.907293  0.412599  0.000000  1
  O  O21  1  0.407293  0.587401  1.000000  1
  O  O22  1  0.903818  0.006344  0.163504  1
  O  O23  1  0.403818  0.993656  0.836496  1
