# generated using pymatgen
data_YAg(WO4)2
_symmetry_space_group_name_H-M   'P 1'
_cell_length_a   5.24286219
_cell_length_b   6.00010439
_cell_length_c   10.35017924
_cell_angle_alpha   90.00006201
_cell_angle_beta   92.90585676
_cell_angle_gamma   90.00005585
_symmetry_Int_Tables_number   1
_chemical_formula_structural   YAg(WO4)2
_chemical_formula_sum   'Y2 Ag2 W4 O16'
_cell_volume   325.17439099
_cell_formula_units_Z   2
loop_
 _symmetry_equiv_pos_site_id
 _symmetry_equiv_pos_as_xyz
  1  'x, y, z'
loop_
 _atom_site_type_symbol
 _atom_site_label
 _atom_site_symmetry_multiplicity
 _atom_site_fract_x
 _atom_site_fract_y
 _atom_site_fract_z
 _atom_site_occupancy
  Y  Y0  1  0.250000  0.687432  0.250000  1
  Y  Y1  1  0.749999  0.312567  0.750000  1
  Ag  Ag2  1  0.750000  0.305507  0.250000  1
  Ag  Ag3  1  0.250000  0.694492  0.750000  1
  W  W4  1  0.253150  0.168580  0.493201  1
  W  W5  1  0.246851  0.168580  0.006799  1
  W  W6  1  0.746850  0.831420  0.506799  1
  W  W7  1  0.753149  0.831420  0.993201  1
  O  O8  1  0.366470  0.378803  0.122634  1
  O  O9  1  0.133530  0.378802  0.377365  1
  O  O10  1  0.633530  0.621196  0.877366  1
  O  O11  1  0.866469  0.621197  0.622635  1
  O  O12  1  0.465624  0.919515  0.607146  1
  O  O13  1  0.034376  0.919514  0.892854  1
  O  O14  1  0.534376  0.080485  0.392854  1
  O  O15  1  0.965624  0.080486  0.107146  1
  O  O16  1  0.895251  0.644532  0.117328  1
  O  O17  1  0.604749  0.644532  0.382673  1
  O  O18  1  0.104749  0.355469  0.882672  1
  O  O19  1  0.395251  0.355469  0.617327  1
  O  O20  1  0.442013  0.891906  0.093924  1
  O  O21  1  0.557987  0.108095  0.906076  1
  O  O22  1  0.057987  0.891906  0.406076  1
  O  O23  1  0.942013  0.108095  0.593924  1
