# generated using pymatgen
data_Ba2YFe2F11
_symmetry_space_group_name_H-M   'P 1'
_cell_length_a   7.92317736
_cell_length_b   7.92317666
_cell_length_c   13.71772580
_cell_angle_alpha   90.00000000
_cell_angle_beta   90.00000000
_cell_angle_gamma   119.99999859
_symmetry_Int_Tables_number   1
_chemical_formula_structural   Ba2YFe2F11
_chemical_formula_sum   'Ba6 Y3 Fe6 F33'
_cell_volume   745.78127096
_cell_formula_units_Z   3
loop_
 _symmetry_equiv_pos_site_id
 _symmetry_equiv_pos_as_xyz
  1  'x, y, z'
loop_
 _atom_site_type_symbol
 _atom_site_label
 _atom_site_symmetry_multiplicity
 _atom_site_fract_x
 _atom_site_fract_y
 _atom_site_fract_z
 _atom_site_occupancy
  Ba  Ba0  1  0.553680  0.190895  0.665039  1
  Ba  Ba1  1  0.179822  0.520748  0.815606  1
  Ba  Ba2  1  0.637214  0.446320  0.998372  1
  Ba  Ba3  1  0.479252  0.659074  0.482272  1
  Ba  Ba4  1  0.340926  0.820178  0.148939  1
  Ba  Ba5  1  0.809105  0.362786  0.331705  1
  Y  Y6  1  0.134331  0.006080  0.893004  1
  Y  Y7  1  0.871750  0.865669  0.226337  1
  Y  Y8  1  0.993920  0.128250  0.559670  1
  Fe  Fe9  1  0.633510  0.994292  0.886109  1
  Fe  Fe10  1  0.772341  0.738233  0.723116  1
  Fe  Fe11  1  0.261767  0.034109  0.389782  1
  Fe  Fe12  1  0.360782  0.366490  0.219442  1
  Fe  Fe13  1  0.965891  0.227659  0.056449  1
  Fe  Fe14  1  0.005708  0.639218  0.552775  1
  F  F15  1  0.673805  0.095904  0.030974  1
  F  F16  1  0.507599  0.716615  0.927546  1
  F  F17  1  0.422098  0.326195  0.364307  1
  F  F18  1  0.090663  0.420202  0.491009  1
  F  F19  1  0.565219  0.298985  0.178754  1
  F  F20  1  0.951956  0.646589  0.191056  1
  F  F21  1  0.579798  0.670461  0.157676  1
  F  F22  1  0.353411  0.305367  0.857723  1
  F  F23  1  0.733765  0.434781  0.512087  1
  F  F24  1  0.257548  0.339616  0.074807  1
  F  F25  1  0.329539  0.909337  0.824343  1
  F  F26  1  0.904096  0.577902  0.697641  1
  F  F27  1  0.318033  0.024390  0.009534  1
  F  F28  1  0.031072  0.501251  0.007240  1
  F  F29  1  0.706356  0.681967  0.342867  1
  F  F30  1  0.283385  0.790984  0.594212  1
  F  F31  1  0.958208  0.153540  0.902405  1
  F  F32  1  0.082068  0.742452  0.408140  1
  F  F33  1  0.993770  0.059247  0.393060  1
  F  F34  1  0.975610  0.293644  0.676200  1
  F  F35  1  0.065477  0.006230  0.726394  1
  F  F36  1  0.498749  0.529820  0.673907  1
  F  F37  1  0.470180  0.968928  0.340573  1
  F  F38  1  0.195332  0.041792  0.235738  1
  F  F39  1  0.660384  0.917932  0.741474  1
  F  F40  1  0.701015  0.266235  0.845421  1
  F  F41  1  0.209016  0.492401  0.260879  1
  F  F42  1  0.868161  0.721838  0.868712  1
  F  F43  1  0.853677  0.131839  0.202045  1
  F  F44  1  0.940753  0.934523  0.059727  1
  F  F45  1  0.694633  0.048044  0.524389  1
  F  F46  1  0.846460  0.804668  0.569071  1
  F  F47  1  0.278162  0.146323  0.535378  1
