# generated using pymatgen
data_Mg2Mo2O5
_symmetry_space_group_name_H-M   'P 1'
_cell_length_a   3.33509859
_cell_length_b   5.21716761
_cell_length_c   13.75622858
_cell_angle_alpha   90.00571736
_cell_angle_beta   90.00000849
_cell_angle_gamma   90.00004853
_symmetry_Int_Tables_number   1
_chemical_formula_structural   Mg2Mo2O5
_chemical_formula_sum   'Mg4 Mo4 O10'
_cell_volume   239.35518930
_cell_formula_units_Z   2
loop_
 _symmetry_equiv_pos_site_id
 _symmetry_equiv_pos_as_xyz
  1  'x, y, z'
loop_
 _atom_site_type_symbol
 _atom_site_label
 _atom_site_symmetry_multiplicity
 _atom_site_fract_x
 _atom_site_fract_y
 _atom_site_fract_z
 _atom_site_occupancy
  Mg  Mg0  1  0.500000  0.175367  0.798882  1
  Mg  Mg1  1  0.500001  0.816760  0.188911  1
  Mg  Mg2  1  0.500000  0.675401  0.701121  1
  Mg  Mg3  1  0.500001  0.316735  0.311111  1
  Mo  Mo4  1  -0.000000  0.175021  0.579692  1
  Mo  Mo5  1  0.000003  0.807755  0.417378  1
  Mo  Mo6  1  0.000000  0.307695  0.082599  1
  Mo  Mo7  1  -0.000000  0.674958  0.920292  1
  O  O8  1  -0.000000  0.517874  0.491562  1
  O  O9  1  0.000001  0.130399  0.339724  1
  O  O10  1  0.000001  0.630286  0.160295  1
  O  O11  1  -0.000000  0.368201  0.825427  1
  O  O12  1  0.500000  0.199001  0.165514  1
  O  O13  1  0.500000  0.809768  0.847084  1
  O  O14  1  0.000001  0.868261  0.674587  1
  O  O15  1  0.499999  0.309846  0.652889  1
  O  O16  1  -0.000000  0.017821  0.008401  1
  O  O17  1  0.500003  0.698849  0.334531  1
