# generated using pymatgen
data_Al2(CuSe2)3
_symmetry_space_group_name_H-M   'P 1'
_cell_length_a   5.47962876
_cell_length_b   5.47962878
_cell_length_c   20.46069058
_cell_angle_alpha   113.68566631
_cell_angle_beta   113.68566811
_cell_angle_gamma   90.00000672
_symmetry_Int_Tables_number   1
_chemical_formula_structural   Al2(CuSe2)3
_chemical_formula_sum   'Al4 Cu6 Se12'
_cell_volume   505.58616885
_cell_formula_units_Z   2
loop_
 _symmetry_equiv_pos_site_id
 _symmetry_equiv_pos_as_xyz
  1  'x, y, z'
loop_
 _atom_site_type_symbol
 _atom_site_label
 _atom_site_symmetry_multiplicity
 _atom_site_fract_x
 _atom_site_fract_y
 _atom_site_fract_z
 _atom_site_occupancy
  Al  Al0  1  0.757301  0.257301  0.504867  1
  Al  Al1  1  0.742699  0.242699  0.828466  1
  Al  Al2  1  0.507301  0.507301  0.004867  1
  Al  Al3  1  0.492699  0.492699  0.328466  1
  Cu  Cu4  1  0.250000  0.750000  0.166667  1
  Cu  Cu5  1  0.255736  0.755736  0.503824  1
  Cu  Cu6  1  0.244264  0.744264  0.829509  1
  Cu  Cu7  1  0.005736  0.005736  0.003824  1
  Cu  Cu8  1  0.994264  0.994264  0.329509  1
  Cu  Cu9  1  0.000000  0.000000  0.666667  1
  Se  Se10  1  0.385140  0.370584  0.086478  1
  Se  Se11  1  0.368656  0.375000  0.416667  1
  Se  Se12  1  0.375704  0.379416  0.746855  1
  Se  Se13  1  0.111148  0.614860  0.246855  1
  Se  Se14  1  0.138852  0.624296  0.586478  1
  Se  Se15  1  0.125000  0.631344  0.916667  1
  Se  Se16  1  0.629416  0.125704  0.246855  1
  Se  Se17  1  0.620584  0.135140  0.586478  1
  Se  Se18  1  0.625000  0.118656  0.916667  1
  Se  Se19  1  0.874296  0.888852  0.086478  1
  Se  Se20  1  0.881344  0.875000  0.416667  1
  Se  Se21  1  0.864860  0.861148  0.746855  1
