# generated using pymatgen
data_Al2Si3(WO4)3
_symmetry_space_group_name_H-M   'P 1'
_cell_length_a   10.19891544
_cell_length_b   10.19891502
_cell_length_c   10.19891513
_cell_angle_alpha   109.47122088
_cell_angle_beta   109.47122003
_cell_angle_gamma   109.47122206
_symmetry_Int_Tables_number   1
_chemical_formula_structural   Al2Si3(WO4)3
_chemical_formula_sum   'Al8 Si12 W12 O48'
_cell_volume   816.65767049
_cell_formula_units_Z   4
loop_
 _symmetry_equiv_pos_site_id
 _symmetry_equiv_pos_as_xyz
  1  'x, y, z'
loop_
 _atom_site_type_symbol
 _atom_site_label
 _atom_site_symmetry_multiplicity
 _atom_site_fract_x
 _atom_site_fract_y
 _atom_site_fract_z
 _atom_site_occupancy
  Al  Al0  1  0.500000  0.000000  0.000000  1
  Al  Al1  1  0.000000  0.000000  0.000000  1
  Al  Al2  1  0.000000  0.500000  0.000000  1
  Al  Al3  1  0.000000  0.000000  0.500000  1
  Al  Al4  1  0.000000  0.500000  0.500001  1
  Al  Al5  1  0.500000  0.000000  0.500001  1
  Al  Al6  1  0.500000  0.500000  0.000000  1
  Al  Al7  1  0.500000  0.500000  0.500000  1
  Si  Si8  1  0.250000  0.125000  0.875000  1
  Si  Si9  1  0.875000  0.250000  0.125000  1
  Si  Si10  1  0.625000  0.750001  0.375000  1
  Si  Si11  1  0.250000  0.625000  0.375001  1
  Si  Si12  1  0.375000  0.625000  0.750000  1
  Si  Si13  1  0.750000  0.375000  0.625000  1
  Si  Si14  1  0.875000  0.125000  0.750000  1
  Si  Si15  1  0.125000  0.750001  0.875000  1
  Si  Si16  1  0.125000  0.875001  0.250000  1
  Si  Si17  1  0.625000  0.375000  0.250000  1
  Si  Si18  1  0.375000  0.250000  0.625000  1
  Si  Si19  1  0.750000  0.875001  0.125000  1
  W  W20  1  0.250000  0.875001  0.625000  1
  W  W21  1  0.875000  0.625000  0.250000  1
  W  W22  1  0.625001  0.875001  0.750001  1
  W  W23  1  0.875001  0.750001  0.625001  1
  W  W24  1  0.625000  0.250000  0.875000  1
  W  W25  1  0.750000  0.625000  0.875000  1
  W  W26  1  0.750000  0.125000  0.375000  1
  W  W27  1  0.125000  0.375000  0.750000  1
  W  W28  1  0.375000  0.125000  0.250000  1
  W  W29  1  0.125000  0.250000  0.375000  1
  W  W30  1  0.375000  0.750001  0.125000  1
  W  W31  1  0.250000  0.375000  0.125000  1
  O  O32  1  0.296918  0.486464  0.389271  1
  O  O33  1  0.013536  0.310454  0.902807  1
  O  O34  1  0.110729  0.597193  0.907647  1
  O  O35  1  0.203081  0.592353  0.189546  1
  O  O36  1  0.203081  0.110728  0.013535  1
  O  O37  1  0.592352  0.189545  0.203081  1
  O  O38  1  0.597192  0.189545  0.486464  1
  O  O39  1  0.189546  0.203081  0.592354  1
  O  O40  1  0.902808  0.389271  0.592353  1
  O  O41  1  0.310455  0.907647  0.296919  1
  O  O42  1  0.907647  0.296919  0.310455  1
  O  O43  1  0.013536  0.203081  0.110728  1
  O  O44  1  0.189546  0.486464  0.597193  1
  O  O45  1  0.592353  0.902808  0.389272  1
  O  O46  1  0.110728  0.013535  0.203081  1
  O  O47  1  0.486464  0.597193  0.189545  1
  O  O48  1  0.389271  0.592353  0.902807  1
  O  O49  1  0.902807  0.013535  0.310454  1
  O  O50  1  0.597192  0.907647  0.110729  1
  O  O51  1  0.097192  0.610728  0.407647  1
  O  O52  1  0.486464  0.389271  0.296918  1
  O  O53  1  0.389271  0.296919  0.486464  1
  O  O54  1  0.310455  0.902808  0.013536  1
  O  O55  1  0.296918  0.310454  0.907646  1
  O  O56  1  0.703081  0.513535  0.610729  1
  O  O57  1  0.986464  0.689545  0.097192  1
  O  O58  1  0.889272  0.402808  0.092353  1
  O  O59  1  0.796919  0.407647  0.810455  1
  O  O60  1  0.796918  0.889272  0.986465  1
  O  O61  1  0.407647  0.810454  0.796918  1
  O  O62  1  0.402808  0.810454  0.513535  1
  O  O63  1  0.810455  0.796919  0.407647  1
  O  O64  1  0.703081  0.689545  0.092353  1
  O  O65  1  0.689546  0.097193  0.986464  1
  O  O66  1  0.610728  0.703082  0.513536  1
  O  O67  1  0.513536  0.610728  0.703081  1
  O  O68  1  0.092353  0.889272  0.402807  1
  O  O69  1  0.402807  0.092352  0.889271  1
  O  O70  1  0.097193  0.986464  0.689545  1
  O  O71  1  0.610729  0.407647  0.097192  1
  O  O72  1  0.513536  0.402808  0.810455  1
  O  O73  1  0.889272  0.986464  0.796919  1
  O  O74  1  0.407648  0.097193  0.610729  1
  O  O75  1  0.810454  0.513535  0.402808  1
  O  O76  1  0.986464  0.796919  0.889272  1
  O  O77  1  0.092354  0.703082  0.689546  1
  O  O78  1  0.689545  0.092352  0.703081  1
  O  O79  1  0.907647  0.110728  0.597192  1
