# generated using pymatgen
data_ZnCo2S5
_symmetry_space_group_name_H-M   'P 1'
_cell_length_a   3.51132825
_cell_length_b   6.27909278
_cell_length_c   13.29626153
_cell_angle_alpha   90.13306451
_cell_angle_beta   89.99996793
_cell_angle_gamma   90.00015091
_symmetry_Int_Tables_number   1
_chemical_formula_structural   ZnCo2S5
_chemical_formula_sum   'Zn2 Co4 S10'
_cell_volume   293.15459667
_cell_formula_units_Z   2
loop_
 _symmetry_equiv_pos_site_id
 _symmetry_equiv_pos_as_xyz
  1  'x, y, z'
loop_
 _atom_site_type_symbol
 _atom_site_label
 _atom_site_symmetry_multiplicity
 _atom_site_fract_x
 _atom_site_fract_y
 _atom_site_fract_z
 _atom_site_occupancy
  Zn  Zn0  1  0.750000  0.863774  0.250093  1
  Zn  Zn1  1  0.249997  0.136283  0.750059  1
  Co  Co2  1  0.249999  0.445792  0.102459  1
  Co  Co3  1  0.750000  0.554208  0.897625  1
  Co  Co4  1  0.750000  0.553870  0.602463  1
  Co  Co5  1  0.250000  0.446065  0.397459  1
  S  S6  1  0.749999  0.392143  0.749947  1
  S  S7  1  0.249999  0.607914  0.250039  1
  S  S8  1  0.750000  0.638734  0.056659  1
  S  S9  1  0.249999  0.361332  0.943409  1
  S  S10  1  0.750000  0.638856  0.443732  1
  S  S11  1  0.249999  0.361085  0.556187  1
  S  S12  1  0.250000  0.134562  0.330143  1
  S  S13  1  0.750000  0.865373  0.669787  1
  S  S14  1  0.750000  0.865706  0.830900  1
  S  S15  1  0.250000  0.134304  0.169038  1
