# generated using pymatgen
data_CaNiO3
_symmetry_space_group_name_H-M   'P 1'
_cell_length_a   5.36655829
_cell_length_b   5.41036385
_cell_length_c   7.55330891
_cell_angle_alpha   89.99868189
_cell_angle_beta   90.00002520
_cell_angle_gamma   89.99983870
_symmetry_Int_Tables_number   1
_chemical_formula_structural   CaNiO3
_chemical_formula_sum   'Ca4 Ni4 O12'
_cell_volume   219.31057321
_cell_formula_units_Z   4
loop_
 _symmetry_equiv_pos_site_id
 _symmetry_equiv_pos_as_xyz
  1  'x, y, z'
loop_
 _atom_site_type_symbol
 _atom_site_label
 _atom_site_symmetry_multiplicity
 _atom_site_fract_x
 _atom_site_fract_y
 _atom_site_fract_z
 _atom_site_occupancy
  Ca  Ca0  1  0.990292  0.048489  0.250002  1
  Ca  Ca1  1  0.490284  0.451496  0.749996  1
  Ca  Ca2  1  0.509716  0.548506  0.250003  1
  Ca  Ca3  1  0.009707  0.951511  0.749998  1
  Ni  Ni4  1  0.500000  0.000001  0.999999  1
  Ni  Ni5  1  0.000001  0.499999  0.999999  1
  Ni  Ni6  1  0.000001  0.499999  0.500001  1
  Ni  Ni7  1  0.500000  0.000001  0.500001  1
  O  O8  1  0.919424  0.519969  0.749990  1
  O  O9  1  0.419427  0.980028  0.250000  1
  O  O10  1  0.580573  0.019973  0.750000  1
  O  O11  1  0.080575  0.480031  0.250009  1
  O  O12  1  0.705402  0.291926  0.459163  1
  O  O13  1  0.205397  0.208079  0.540837  1
  O  O14  1  0.794594  0.791930  0.040839  1
  O  O15  1  0.294609  0.708082  0.959159  1
  O  O16  1  0.705392  0.291918  0.040840  1
  O  O17  1  0.205405  0.208069  0.959160  1
  O  O18  1  0.294598  0.708074  0.540838  1
  O  O19  1  0.794603  0.791921  0.459164  1
