# generated using pymatgen
data_ZnFeAs2O7
_symmetry_space_group_name_H-M   'P 1'
_cell_length_a   7.38018970
_cell_length_b   8.79865975
_cell_length_c   9.73546322
_cell_angle_alpha   90.00000000
_cell_angle_beta   114.13725410
_cell_angle_gamma   90.00000000
_symmetry_Int_Tables_number   1
_chemical_formula_structural   ZnFeAs2O7
_chemical_formula_sum   'Zn4 Fe4 As8 O28'
_cell_volume   576.90743446
_cell_formula_units_Z   4
loop_
 _symmetry_equiv_pos_site_id
 _symmetry_equiv_pos_as_xyz
  1  'x, y, z'
loop_
 _atom_site_type_symbol
 _atom_site_label
 _atom_site_symmetry_multiplicity
 _atom_site_fract_x
 _atom_site_fract_y
 _atom_site_fract_z
 _atom_site_occupancy
  Zn  Zn0  1  0.280523  0.918999  0.888318  1
  Zn  Zn1  1  0.719477  0.418999  0.611682  1
  Zn  Zn2  1  0.719477  0.081001  0.111682  1
  Zn  Zn3  1  0.280523  0.581001  0.388318  1
  Fe  Fe4  1  0.814928  0.054654  0.683292  1
  Fe  Fe5  1  0.185072  0.554654  0.816708  1
  Fe  Fe6  1  0.185072  0.945346  0.316708  1
  Fe  Fe7  1  0.814928  0.445346  0.183292  1
  As  As8  1  0.431358  0.226656  0.753468  1
  As  As9  1  0.568642  0.726656  0.746532  1
  As  As10  1  0.568642  0.773344  0.246532  1
  As  As11  1  0.431358  0.273344  0.253467  1
  As  As12  1  0.014089  0.276327  0.959156  1
  As  As13  1  0.985911  0.776327  0.540844  1
  As  As14  1  0.985911  0.723673  0.040844  1
  As  As15  1  0.014089  0.223673  0.459156  1
  O  O16  1  0.857373  0.270779  0.050536  1
  O  O17  1  0.142627  0.770779  0.449464  1
  O  O18  1  0.142627  0.729221  0.949464  1
  O  O19  1  0.857373  0.229221  0.550536  1
  O  O20  1  0.359008  0.398261  0.785098  1
  O  O21  1  0.640992  0.898261  0.714902  1
  O  O22  1  0.640992  0.601739  0.214902  1
  O  O23  1  0.359008  0.101739  0.285098  1
  O  O24  1  0.466117  0.094503  0.892379  1
  O  O25  1  0.533883  0.594503  0.607621  1
  O  O26  1  0.533883  0.905497  0.107621  1
  O  O27  1  0.466117  0.405497  0.392379  1
  O  O28  1  0.247614  0.147574  0.585242  1
  O  O29  1  0.752386  0.647574  0.914758  1
  O  O30  1  0.752386  0.852426  0.414758  1
  O  O31  1  0.247614  0.352426  0.085242  1
  O  O32  1  0.961251  0.081496  0.327233  1
  O  O33  1  0.038749  0.581496  0.172767  1
  O  O34  1  0.038749  0.918504  0.672767  1
  O  O35  1  0.961251  0.418503  0.827233  1
  O  O36  1  0.633806  0.264239  0.210409  1
  O  O37  1  0.366194  0.764239  0.289591  1
  O  O38  1  0.366194  0.735761  0.789591  1
  O  O39  1  0.633806  0.235761  0.710409  1
  O  O40  1  0.046408  0.395953  0.393334  1
  O  O41  1  0.953592  0.895953  0.106666  1
  O  O42  1  0.953592  0.604047  0.606666  1
  O  O43  1  0.046408  0.104047  0.893334  1
