# generated using pymatgen
data_Ti3Zn3(AsO4)4
_symmetry_space_group_name_H-M   'P 1'
_cell_length_a   4.93760177
_cell_length_b   8.63011656
_cell_length_c   16.48460286
_cell_angle_alpha   106.56963964
_cell_angle_beta   90.00000000
_cell_angle_gamma   90.00000000
_symmetry_Int_Tables_number   1
_chemical_formula_structural   Ti3Zn3(AsO4)4
_chemical_formula_sum   'Ti6 Zn6 As8 O32'
_cell_volume   673.27341567
_cell_formula_units_Z   2
loop_
 _symmetry_equiv_pos_site_id
 _symmetry_equiv_pos_as_xyz
  1  'x, y, z'
loop_
 _atom_site_type_symbol
 _atom_site_label
 _atom_site_symmetry_multiplicity
 _atom_site_fract_x
 _atom_site_fract_y
 _atom_site_fract_z
 _atom_site_occupancy
  Ti  Ti0  1  0.052064  0.342023  0.114659  1
  Ti  Ti1  1  0.947936  0.657977  0.885341  1
  Ti  Ti2  1  0.552064  0.157977  0.385341  1
  Ti  Ti3  1  0.447936  0.842023  0.614659  1
  Ti  Ti4  1  0.500000  0.500000  0.000000  1
  Ti  Ti5  1  0.000000  0.000000  0.500000  1
  Zn  Zn6  1  0.926808  0.110700  0.708232  1
  Zn  Zn7  1  0.426808  0.389300  0.791768  1
  Zn  Zn8  1  0.073192  0.889300  0.291768  1
  Zn  Zn9  1  0.573192  0.610700  0.208232  1
  Zn  Zn10  1  0.000000  0.000000  0.000000  1
  Zn  Zn11  1  0.500000  0.500000  0.500000  1
  As  As12  1  0.557996  0.938949  0.829043  1
  As  As13  1  0.008479  0.283524  0.905339  1
  As  As14  1  0.508479  0.216476  0.594661  1
  As  As15  1  0.491521  0.783524  0.405339  1
  As  As16  1  0.442004  0.061051  0.170957  1
  As  As17  1  0.991521  0.716476  0.094661  1
  As  As18  1  0.942004  0.438949  0.329043  1
  As  As19  1  0.057996  0.561051  0.670957  1
  O  O20  1  0.152062  0.544965  0.775246  1
  O  O21  1  0.789786  0.198501  0.493704  1
  O  O22  1  0.169157  0.214134  0.804474  1
  O  O23  1  0.200239  0.757371  0.677365  1
  O  O24  1  0.830843  0.785866  0.195526  1
  O  O25  1  0.347938  0.044965  0.275246  1
  O  O26  1  0.669157  0.285866  0.695526  1
  O  O27  1  0.798438  0.898564  0.386864  1
  O  O28  1  0.664590  0.576417  0.393548  1
  O  O29  1  0.847938  0.455035  0.224754  1
  O  O30  1  0.299761  0.257371  0.177365  1
  O  O31  1  0.201562  0.101436  0.613136  1
  O  O32  1  0.194859  0.504399  0.926562  1
  O  O33  1  0.335410  0.423583  0.606452  1
  O  O34  1  0.837872  0.179544  0.074227  1
  O  O35  1  0.337872  0.320456  0.425773  1
  O  O36  1  0.694859  0.995601  0.573438  1
  O  O37  1  0.330843  0.714134  0.304474  1
  O  O38  1  0.164590  0.923583  0.106452  1
  O  O39  1  0.298438  0.601436  0.113136  1
  O  O40  1  0.662128  0.679544  0.574227  1
  O  O41  1  0.162128  0.820456  0.925773  1
  O  O42  1  0.210214  0.801499  0.506296  1
  O  O43  1  0.289786  0.301499  0.006296  1
  O  O44  1  0.805141  0.495601  0.073438  1
  O  O45  1  0.652062  0.955035  0.724754  1
  O  O46  1  0.799761  0.242629  0.322635  1
  O  O47  1  0.835410  0.076417  0.893548  1
  O  O48  1  0.710214  0.698501  0.993704  1
  O  O49  1  0.701562  0.398564  0.886864  1
  O  O50  1  0.305141  0.004399  0.426562  1
  O  O51  1  0.700239  0.742629  0.822635  1
