# generated using pymatgen
data_Ca3Mo2O7
_symmetry_space_group_name_H-M   'P 1'
_cell_length_a   5.78106758
_cell_length_b   5.62113047
_cell_length_c   10.23368372
_cell_angle_alpha   105.94047641
_cell_angle_beta   90.00000000
_cell_angle_gamma   90.00000000
_symmetry_Int_Tables_number   1
_chemical_formula_structural   Ca3Mo2O7
_chemical_formula_sum   'Ca6 Mo4 O14'
_cell_volume   319.76760165
_cell_formula_units_Z   2
loop_
 _symmetry_equiv_pos_site_id
 _symmetry_equiv_pos_as_xyz
  1  'x, y, z'
loop_
 _atom_site_type_symbol
 _atom_site_label
 _atom_site_symmetry_multiplicity
 _atom_site_fract_x
 _atom_site_fract_y
 _atom_site_fract_z
 _atom_site_occupancy
  Ca  Ca0  1  0.697546  0.756887  0.000000  1
  Ca  Ca1  1  0.197546  0.243113  1.000000  1
  Ca  Ca2  1  0.803854  0.573383  0.621065  1
  Ca  Ca3  1  0.303854  0.426617  0.378935  1
  Ca  Ca4  1  0.803854  0.952317  0.378935  1
  Ca  Ca5  1  0.303854  0.047683  0.621065  1
  Mo  Mo6  1  0.749537  0.351671  0.201318  1
  Mo  Mo7  1  0.249537  0.648329  0.798682  1
  Mo  Mo8  1  0.249537  0.849646  0.201318  1
  Mo  Mo9  1  0.749537  0.150354  0.798682  1
  O  O10  1  0.715431  0.963573  0.598996  1
  O  O11  1  0.215431  0.036427  0.401004  1
  O  O12  1  0.215431  0.635422  0.598996  1
  O  O13  1  0.715431  0.364578  0.401004  1
  O  O14  1  0.056872  0.331953  0.762408  1
  O  O15  1  0.556872  0.668047  0.237592  1
  O  O16  1  0.556872  0.430455  0.762408  1
  O  O17  1  0.056872  0.569545  0.237592  1
  O  O18  1  0.940552  0.870774  0.838160  1
  O  O19  1  0.440552  0.129226  0.161840  1
  O  O20  1  0.789966  0.349229  0.000000  1
  O  O21  1  0.289966  0.650771  1.000000  1
  O  O22  1  0.940552  0.032614  0.161840  1
  O  O23  1  0.440552  0.967386  0.838160  1
