# generated using pymatgen
data_Zn2Sn9O13
_symmetry_space_group_name_H-M   'P 1'
_cell_length_a   3.18860000
_cell_length_b   7.90550281
_cell_length_c   16.17026428
_cell_angle_alpha   105.17011996
_cell_angle_beta   89.60464263
_cell_angle_gamma   101.79288838
_symmetry_Int_Tables_number   1
_chemical_formula_structural   Zn2Sn9O13
_chemical_formula_sum   'Zn2 Sn9 O13'
_cell_volume   384.63559853
_cell_formula_units_Z   1
loop_
 _symmetry_equiv_pos_site_id
 _symmetry_equiv_pos_as_xyz
  1  'x, y, z'
loop_
 _atom_site_type_symbol
 _atom_site_label
 _atom_site_symmetry_multiplicity
 _atom_site_fract_x
 _atom_site_fract_y
 _atom_site_fract_z
 _atom_site_occupancy
  Zn  Zn0  1  0.355045  0.692916  0.255168  1
  Zn  Zn1  1  0.644955  0.307084  0.744832  1
  Sn  Sn2  1  0.500000  0.000000  0.500000  1
  Sn  Sn3  1  0.656626  0.318238  0.095144  1
  Sn  Sn4  1  0.343374  0.681762  0.904856  1
  Sn  Sn5  1  0.776830  0.547146  0.399053  1
  Sn  Sn6  1  0.223170  0.452854  0.600947  1
  Sn  Sn7  1  0.948672  0.903239  0.103994  1
  Sn  Sn8  1  0.051328  0.096761  0.896006  1
  Sn  Sn9  1  0.073514  0.135329  0.310355  1
  Sn  Sn10  1  0.926486  0.864671  0.689645  1
  O  O11  1  -0.000000  0.000000  -0.000000  1
  O  O12  1  0.923781  0.857101  0.227790  1
  O  O13  1  0.076219  0.142899  0.772210  1
  O  O14  1  0.363816  0.732050  0.055111  1
  O  O15  1  0.636184  0.267950  0.944889  1
  O  O16  1  0.540467  0.091141  0.151553  1
  O  O17  1  0.459533  0.908859  0.848447  1
  O  O18  1  0.781979  0.541554  0.269472  1
  O  O19  1  0.218021  0.458446  0.730528  1
  O  O20  1  0.375787  0.743955  0.412944  1
  O  O21  1  0.624213  0.256045  0.587056  1
  O  O22  1  0.036785  0.067692  0.431106  1
  O  O23  1  0.963215  0.932308  0.568894  1
