# generated using pymatgen
data_MgCu(GeO3)2
_symmetry_space_group_name_H-M   'P 1'
_cell_length_a   5.30599577
_cell_length_b   6.88979159
_cell_length_c   6.88979203
_cell_angle_alpha   85.97089039
_cell_angle_beta   77.53831226
_cell_angle_gamma   77.53830775
_symmetry_Int_Tables_number   1
_chemical_formula_structural   MgCu(GeO3)2
_chemical_formula_sum   'Mg2 Cu2 Ge4 O12'
_cell_volume   240.06921144
_cell_formula_units_Z   2
loop_
 _symmetry_equiv_pos_site_id
 _symmetry_equiv_pos_as_xyz
  1  'x, y, z'
loop_
 _atom_site_type_symbol
 _atom_site_label
 _atom_site_symmetry_multiplicity
 _atom_site_fract_x
 _atom_site_fract_y
 _atom_site_fract_z
 _atom_site_occupancy
  Mg  Mg0  1  0.750000  0.246347  0.753653  1
  Mg  Mg1  1  0.250000  0.753653  0.246347  1
  Cu  Cu2  1  0.750000  0.893053  0.106947  1
  Cu  Cu3  1  0.250000  0.106947  0.893053  1
  Ge  Ge4  1  0.775763  0.387456  0.203470  1
  Ge  Ge5  1  0.724237  0.796530  0.612544  1
  Ge  Ge6  1  0.224237  0.612544  0.796530  1
  Ge  Ge7  1  0.275763  0.203470  0.387456  1
  O  O8  1  0.559234  0.295495  0.412230  1
  O  O9  1  0.940766  0.587770  0.704505  1
  O  O10  1  0.440766  0.704505  0.587770  1
  O  O11  1  0.059234  0.412230  0.295495  1
  O  O12  1  0.117378  0.134549  0.620512  1
  O  O13  1  0.382622  0.379488  0.865451  1
  O  O14  1  0.882622  0.865451  0.379488  1
  O  O15  1  0.617378  0.620512  0.134549  1
  O  O16  1  0.879974  0.204596  0.016422  1
  O  O17  1  0.620026  0.983578  0.795404  1
  O  O18  1  0.120026  0.795404  0.983578  1
  O  O19  1  0.379974  0.016422  0.204596  1
