# generated using pymatgen
data_Ca(NiO2)2
_symmetry_space_group_name_H-M   'P 1'
_cell_length_a   6.20034081
_cell_length_b   6.16973304
_cell_length_c   18.08471021
_cell_angle_alpha   59.21638209
_cell_angle_beta   61.62301157
_cell_angle_gamma   60.15393803
_symmetry_Int_Tables_number   1
_chemical_formula_structural   Ca(NiO2)2
_chemical_formula_sum   'Ca6 Ni12 O24'
_cell_volume   492.41583446
_cell_formula_units_Z   6
loop_
 _symmetry_equiv_pos_site_id
 _symmetry_equiv_pos_as_xyz
  1  'x, y, z'
loop_
 _atom_site_type_symbol
 _atom_site_label
 _atom_site_symmetry_multiplicity
 _atom_site_fract_x
 _atom_site_fract_y
 _atom_site_fract_z
 _atom_site_occupancy
  Ca  Ca0  1  0.147191  0.115924  0.040351  1
  Ca  Ca1  1  0.495112  0.509004  0.328972  1
  Ca  Ca2  1  0.003893  0.497675  0.166896  1
  Ca  Ca3  1  0.503440  0.491206  0.671347  1
  Ca  Ca4  1  0.999664  0.497496  0.501792  1
  Ca  Ca5  1  0.989847  0.503989  0.834106  1
  Ni  Ni6  1  0.504309  0.010751  0.162981  1
  Ni  Ni7  1  0.133479  0.110443  0.381881  1
  Ni  Ni8  1  0.497000  0.497861  0.002434  1
  Ni  Ni9  1  0.504241  0.495989  0.163009  1
  Ni  Ni10  1  0.500654  0.997379  0.500021  1
  Ni  Ni11  1  0.150150  0.109422  0.710382  1
  Ni  Ni12  1  0.500651  0.501851  0.500020  1
  Ni  Ni13  1  0.498758  0.989152  0.835016  1
  Ni  Ni14  1  0.855982  0.889588  0.288253  1
  Ni  Ni15  1  0.498930  0.506935  0.834983  1
  Ni  Ni16  1  0.863555  0.886872  0.620868  1
  Ni  Ni17  1  0.841346  0.892803  0.957636  1
  O  O18  1  0.315354  0.258705  0.080568  1
  O  O19  1  0.278890  0.229201  0.254299  1
  O  O20  1  0.315264  0.684241  0.080594  1
  O  O21  1  0.697431  0.270493  0.087182  1
  O  O22  1  0.271759  0.220914  0.423813  1
  O  O23  1  0.254402  0.782992  0.226533  1
  O  O24  1  0.294566  0.230317  0.581723  1
  O  O25  1  0.729296  0.272647  0.235841  1
  O  O26  1  0.271651  0.735949  0.423827  1
  O  O27  1  0.704555  0.764109  0.088972  1
  O  O28  1  0.752872  0.235794  0.425063  1
  O  O29  1  0.729281  0.790535  0.235832  1
  O  O30  1  0.268105  0.212849  0.761339  1
  O  O31  1  0.255667  0.763628  0.572435  1
  O  O32  1  0.722221  0.269105  0.576314  1
  O  O33  1  0.268159  0.735113  0.761330  1
  O  O34  1  0.328191  0.246576  0.892898  1
  O  O35  1  0.706893  0.766981  0.419582  1
  O  O36  1  0.790521  0.220283  0.756414  1
  O  O37  1  0.722022  0.779716  0.576345  1
  O  O38  1  0.264508  0.723850  0.929299  1
  O  O39  1  0.691892  0.291697  0.924253  1
  O  O40  1  0.686540  0.766242  0.760333  1
  O  O41  1  0.691758  0.743723  0.924263  1
