# generated using pymatgen
data_CaBiWO5
_symmetry_space_group_name_H-M   'P 1'
_cell_length_a   5.82186572
_cell_length_b   8.70794825
_cell_length_c   12.10962406
_cell_angle_alpha   90.00000000
_cell_angle_beta   90.00000000
_cell_angle_gamma   108.01963271
_symmetry_Int_Tables_number   1
_chemical_formula_structural   CaBiWO5
_chemical_formula_sum   'Ca4 Bi4 W4 O20'
_cell_volume   583.80341287
_cell_formula_units_Z   4
loop_
 _symmetry_equiv_pos_site_id
 _symmetry_equiv_pos_as_xyz
  1  'x, y, z'
loop_
 _atom_site_type_symbol
 _atom_site_label
 _atom_site_symmetry_multiplicity
 _atom_site_fract_x
 _atom_site_fract_y
 _atom_site_fract_z
 _atom_site_occupancy
  Ca  Ca0  1  0.620001  0.184418  0.914881  1
  Ca  Ca1  1  0.379999  0.815582  0.085119  1
  Ca  Ca2  1  0.879999  0.315582  0.414881  1
  Ca  Ca3  1  0.120001  0.684418  0.585119  1
  Bi  Bi4  1  0.108401  0.142934  0.101838  1
  Bi  Bi5  1  0.891599  0.857066  0.898162  1
  Bi  Bi6  1  0.608401  0.642934  0.398162  1
  Bi  Bi7  1  0.391599  0.357066  0.601838  1
  W  W8  1  0.787478  0.977882  0.639268  1
  W  W9  1  0.212522  0.022118  0.360732  1
  W  W10  1  0.712522  0.522118  0.139268  1
  W  W11  1  0.287478  0.477882  0.860732  1
  O  O12  1  0.544025  0.328277  0.071628  1
  O  O13  1  0.030820  0.337288  0.932719  1
  O  O14  1  0.502983  0.635459  0.194902  1
  O  O15  1  0.739656  0.512260  0.529502  1
  O  O16  1  0.777417  0.489154  0.293136  1
  O  O17  1  0.277417  0.989154  0.206864  1
  O  O18  1  0.530820  0.837288  0.567281  1
  O  O19  1  0.469180  0.162712  0.432719  1
  O  O20  1  0.260344  0.487740  0.470498  1
  O  O21  1  0.955975  0.171723  0.571628  1
  O  O22  1  0.222583  0.510846  0.706864  1
  O  O23  1  0.455975  0.671723  0.928372  1
  O  O24  1  0.044025  0.828277  0.428372  1
  O  O25  1  0.722583  0.010846  0.793136  1
  O  O26  1  0.760344  0.987740  0.029502  1
  O  O27  1  0.239656  0.012260  0.970498  1
  O  O28  1  0.497017  0.364541  0.805098  1
  O  O29  1  0.969180  0.662712  0.067281  1
  O  O30  1  0.997017  0.864541  0.694902  1
  O  O31  1  0.002983  0.135459  0.305098  1
