# generated using pymatgen
data_CaNi4O9
_symmetry_space_group_name_H-M   'P 1'
_cell_length_a   5.84989852
_cell_length_b   8.22816356
_cell_length_c   8.45446965
_cell_angle_alpha   87.52739971
_cell_angle_beta   89.99099557
_cell_angle_gamma   90.10550715
_symmetry_Int_Tables_number   1
_chemical_formula_structural   CaNi4O9
_chemical_formula_sum   'Ca2 Ni8 O18'
_cell_volume   406.56719990
_cell_formula_units_Z   2
loop_
 _symmetry_equiv_pos_site_id
 _symmetry_equiv_pos_as_xyz
  1  'x, y, z'
loop_
 _atom_site_type_symbol
 _atom_site_label
 _atom_site_symmetry_multiplicity
 _atom_site_fract_x
 _atom_site_fract_y
 _atom_site_fract_z
 _atom_site_occupancy
  Ca  Ca0  1  0.191893  0.249884  0.250662  1
  Ca  Ca1  1  0.808043  0.750161  0.751021  1
  Ni  Ni2  1  0.563418  0.529590  0.339896  1
  Ni  Ni3  1  0.458128  0.833677  0.467303  1
  Ni  Ni4  1  0.543974  0.332353  0.967498  1
  Ni  Ni5  1  0.434150  0.028637  0.838824  1
  Ni  Ni6  1  0.556319  0.971062  0.158817  1
  Ni  Ni7  1  0.550186  0.167639  0.533285  1
  Ni  Ni8  1  0.442608  0.470845  0.659578  1
  Ni  Ni9  1  0.450356  0.666747  0.033475  1
  O  O10  1  0.489315  0.750007  0.250101  1
  O  O11  1  0.510511  0.251559  0.750901  1
  O  O12  1  0.147855  0.744729  0.926573  1
  O  O13  1  0.147752  0.608529  0.650417  1
  O  O14  1  0.145009  0.890008  0.847468  1
  O  O15  1  0.149792  0.753329  0.571405  1
  O  O16  1  0.847880  0.252214  0.071601  1
  O  O17  1  0.857433  0.392574  0.348964  1
  O  O18  1  0.849979  0.107608  0.151108  1
  O  O19  1  0.855955  0.248033  0.429384  1
  O  O20  1  0.434515  0.043537  0.357044  1
  O  O21  1  0.385128  0.138359  0.037492  1
  O  O22  1  0.391548  0.363182  0.463863  1
  O  O23  1  0.434537  0.456323  0.143579  1
  O  O24  1  0.564165  0.543448  0.857370  1
  O  O25  1  0.607110  0.862038  0.963175  1
  O  O26  1  0.614144  0.638201  0.536419  1
  O  O27  1  0.568299  0.955730  0.642775  1
