# generated using pymatgen
data_MgWF4
_symmetry_space_group_name_H-M   'P 1'
_cell_length_a   5.04784534
_cell_length_b   6.01618040
_cell_length_c   6.81072715
_cell_angle_alpha   116.15498037
_cell_angle_beta   111.79847842
_cell_angle_gamma   90.00711502
_symmetry_Int_Tables_number   1
_chemical_formula_structural   MgWF4
_chemical_formula_sum   'Mg2 W2 F8'
_cell_volume   169.01685836
_cell_formula_units_Z   2
loop_
 _symmetry_equiv_pos_site_id
 _symmetry_equiv_pos_as_xyz
  1  'x, y, z'
loop_
 _atom_site_type_symbol
 _atom_site_label
 _atom_site_symmetry_multiplicity
 _atom_site_fract_x
 _atom_site_fract_y
 _atom_site_fract_z
 _atom_site_occupancy
  Mg  Mg0  1  0.250015  0.254330  0.502618  1
  Mg  Mg1  1  0.751400  0.752719  0.502670  1
  W  W2  1  0.000247  0.502915  0.002330  1
  W  W3  1  0.500587  0.001819  0.002082  1
  F  F4  1  0.899216  0.509943  0.286199  1
  F  F5  1  0.614407  0.228234  0.720012  1
  F  F6  1  0.100794  0.495957  0.718849  1
  F  F7  1  0.115182  0.995907  0.720259  1
  F  F8  1  0.386283  0.778245  0.285933  1
  F  F9  1  0.397658  0.277324  0.284770  1
  F  F10  1  0.886111  0.010180  0.286862  1
  F  F11  1  0.600919  0.726192  0.718206  1
