# generated using pymatgen
data_Sr2Mn2AlTlO7
_symmetry_space_group_name_H-M   'P 1'
_cell_length_a   3.70147189
_cell_length_b   3.70146835
_cell_length_c   13.41029780
_cell_angle_alpha   89.98654212
_cell_angle_beta   89.99353079
_cell_angle_gamma   89.94185449
_symmetry_Int_Tables_number   1
_chemical_formula_structural   Sr2Mn2AlTlO7
_chemical_formula_sum   'Sr2 Mn2 Al1 Tl1 O7'
_cell_volume   183.73279442
_cell_formula_units_Z   1
loop_
 _symmetry_equiv_pos_site_id
 _symmetry_equiv_pos_as_xyz
  1  'x, y, z'
loop_
 _atom_site_type_symbol
 _atom_site_label
 _atom_site_symmetry_multiplicity
 _atom_site_fract_x
 _atom_site_fract_y
 _atom_site_fract_z
 _atom_site_occupancy
  Sr  Sr0  1  0.499999  0.500008  0.812393  1
  Sr  Sr1  1  0.499995  0.499998  0.187604  1
  Mn  Mn2  1  0.000038  0.000065  0.635856  1
  Mn  Mn3  1  0.999971  0.999931  0.364094  1
  Al  Al4  1  0.499924  0.500062  0.499993  1
  Tl  Tl5  1  0.999996  1.000000  0.000004  1
  O  O6  1  0.500061  0.000151  0.590281  1
  O  O7  1  0.000126  0.500109  0.590271  1
  O  O8  1  0.499950  0.999788  0.409754  1
  O  O9  1  0.999950  0.499883  0.409746  1
  O  O10  1  0.999994  0.999996  0.790349  1
  O  O11  1  0.999999  0.000009  0.209640  1
  O  O12  1  0.499997  0.500000  0.000015  1
