# generated using pymatgen
data_Y(CoS2)2
_symmetry_space_group_name_H-M   'P 1'
_cell_length_a   7.58356403
_cell_length_b   7.08236255
_cell_length_c   7.10267843
_cell_angle_alpha   86.66261350
_cell_angle_beta   122.81207744
_cell_angle_gamma   122.79327260
_symmetry_Int_Tables_number   1
_chemical_formula_structural   Y(CoS2)2
_chemical_formula_sum   'Y2 Co4 S8'
_cell_volume   254.13713595
_cell_formula_units_Z   2
loop_
 _symmetry_equiv_pos_site_id
 _symmetry_equiv_pos_as_xyz
  1  'x, y, z'
loop_
 _atom_site_type_symbol
 _atom_site_label
 _atom_site_symmetry_multiplicity
 _atom_site_fract_x
 _atom_site_fract_y
 _atom_site_fract_z
 _atom_site_occupancy
  Y  Y0  1  0.999996  0.999988  0.999994  1
  Y  Y1  1  0.500017  0.000010  0.000022  1
  Co  Co2  1  0.499997  0.999998  0.499993  1
  Co  Co3  1  0.500011  0.500007  0.500015  1
  Co  Co4  1  0.000004  0.499990  0.000003  1
  Co  Co5  1  0.000003  0.500000  0.500003  1
  S  S6  1  0.045468  0.725282  0.270330  1
  S  S7  1  0.467866  0.730660  0.711004  1
  S  S8  1  0.454391  0.729759  0.275125  1
  S  S9  1  0.970019  0.712764  0.732908  1
  S  S10  1  0.545616  0.270232  0.724883  1
  S  S11  1  0.532134  0.269352  0.288994  1
  S  S12  1  0.030001  0.287222  0.267105  1
  S  S13  1  0.954527  0.274701  0.729663  1
