# generated using pymatgen
data_MnSiO4
_symmetry_space_group_name_H-M   'P 1'
_cell_length_a   10.01614122
_cell_length_b   10.01614152
_cell_length_c   10.01614087
_cell_angle_alpha   109.47122129
_cell_angle_beta   109.47122185
_cell_angle_gamma   109.47122148
_symmetry_Int_Tables_number   1
_chemical_formula_structural   MnSiO4
_chemical_formula_sum   'Mn12 Si12 O48'
_cell_volume   773.53400413
_cell_formula_units_Z   12
loop_
 _symmetry_equiv_pos_site_id
 _symmetry_equiv_pos_as_xyz
  1  'x, y, z'
loop_
 _atom_site_type_symbol
 _atom_site_label
 _atom_site_symmetry_multiplicity
 _atom_site_fract_x
 _atom_site_fract_y
 _atom_site_fract_z
 _atom_site_occupancy
  Mn  Mn0  1  0.375000  0.125000  0.250000  1
  Mn  Mn1  1  0.125000  0.250000  0.375000  1
  Mn  Mn2  1  0.375000  0.750000  0.125000  1
  Mn  Mn3  1  0.250000  0.375000  0.125000  1
  Mn  Mn4  1  0.125000  0.375000  0.750000  1
  Mn  Mn5  1  0.750000  0.125000  0.375000  1
  Mn  Mn6  1  0.750000  0.625000  0.875000  1
  Mn  Mn7  1  0.875000  0.750000  0.625000  1
  Mn  Mn8  1  0.625000  0.875000  0.750000  1
  Mn  Mn9  1  0.875000  0.625000  0.250000  1
  Mn  Mn10  1  0.250000  0.875000  0.625000  1
  Mn  Mn11  1  0.625000  0.250000  0.875000  1
  Si  Si12  1  0.125000  0.875000  0.250000  1
  Si  Si13  1  0.375000  0.625000  0.750000  1
  Si  Si14  1  0.625000  0.750000  0.375000  1
  Si  Si15  1  0.250000  0.625000  0.375000  1
  Si  Si16  1  0.750000  0.375000  0.625000  1
  Si  Si17  1  0.875000  0.125000  0.750000  1
  Si  Si18  1  0.125000  0.750000  0.875000  1
  Si  Si19  1  0.625000  0.375000  0.250000  1
  Si  Si20  1  0.375000  0.250000  0.625000  1
  Si  Si21  1  0.750000  0.875000  0.125000  1
  Si  Si22  1  0.875000  0.250000  0.125000  1
  Si  Si23  1  0.250000  0.125000  0.875000  1
  O  O24  1  0.277042  0.470053  0.366976  1
  O  O25  1  0.029947  0.306989  0.896923  1
  O  O26  1  0.133024  0.603077  0.910066  1
  O  O27  1  0.222958  0.589934  0.193011  1
  O  O28  1  0.222958  0.133024  0.029947  1
  O  O29  1  0.589934  0.193011  0.222958  1
  O  O30  1  0.603077  0.193011  0.470053  1
  O  O31  1  0.193011  0.222958  0.589934  1
  O  O32  1  0.896923  0.366976  0.589934  1
  O  O33  1  0.306989  0.910066  0.277042  1
  O  O34  1  0.910066  0.277042  0.306989  1
  O  O35  1  0.029947  0.222958  0.133024  1
  O  O36  1  0.193011  0.470053  0.603077  1
  O  O37  1  0.589934  0.896923  0.366976  1
  O  O38  1  0.133024  0.029947  0.222958  1
  O  O39  1  0.470053  0.603077  0.193011  1
  O  O40  1  0.366976  0.589934  0.896923  1
  O  O41  1  0.896923  0.029947  0.306989  1
  O  O42  1  0.603077  0.910066  0.133024  1
  O  O43  1  0.103077  0.633024  0.410066  1
  O  O44  1  0.910066  0.133024  0.603077  1
  O  O45  1  0.366976  0.277042  0.470053  1
  O  O46  1  0.306989  0.896923  0.029947  1
  O  O47  1  0.277042  0.306989  0.910066  1
  O  O48  1  0.722958  0.529947  0.633024  1
  O  O49  1  0.970053  0.693011  0.103077  1
  O  O50  1  0.866976  0.396923  0.089934  1
  O  O51  1  0.777042  0.410066  0.806989  1
  O  O52  1  0.777042  0.866976  0.970053  1
  O  O53  1  0.410066  0.806989  0.777042  1
  O  O54  1  0.396923  0.806989  0.529947  1
  O  O55  1  0.806989  0.777042  0.410066  1
  O  O56  1  0.722958  0.693011  0.089934  1
  O  O57  1  0.693011  0.103077  0.970053  1
  O  O58  1  0.633024  0.722958  0.529947  1
  O  O59  1  0.529947  0.633024  0.722958  1
  O  O60  1  0.089934  0.866976  0.396923  1
  O  O61  1  0.396923  0.089934  0.866976  1
  O  O62  1  0.103077  0.970053  0.693011  1
  O  O63  1  0.633024  0.410066  0.103077  1
  O  O64  1  0.529947  0.396923  0.806989  1
  O  O65  1  0.866976  0.970053  0.777042  1
  O  O66  1  0.410066  0.103077  0.633024  1
  O  O67  1  0.806989  0.529947  0.396923  1
  O  O68  1  0.970053  0.777042  0.866976  1
  O  O69  1  0.089934  0.722958  0.693011  1
  O  O70  1  0.693011  0.089934  0.722958  1
  O  O71  1  0.470053  0.366976  0.277042  1
