# generated using pymatgen
data_Ca(WO2)2
_symmetry_space_group_name_H-M   'P 1'
_cell_length_a   3.25935140
_cell_length_b   5.57331746
_cell_length_c   10.51292679
_cell_angle_alpha   90.00000000
_cell_angle_beta   90.00000000
_cell_angle_gamma   107.00210604
_symmetry_Int_Tables_number   1
_chemical_formula_structural   Ca(WO2)2
_chemical_formula_sum   'Ca2 W4 O8'
_cell_volume   182.62492118
_cell_formula_units_Z   2
loop_
 _symmetry_equiv_pos_site_id
 _symmetry_equiv_pos_as_xyz
  1  'x, y, z'
loop_
 _atom_site_type_symbol
 _atom_site_label
 _atom_site_symmetry_multiplicity
 _atom_site_fract_x
 _atom_site_fract_y
 _atom_site_fract_z
 _atom_site_occupancy
  Ca  Ca0  1  0.384848  0.769698  0.750000  1
  Ca  Ca1  1  0.615151  0.230302  0.250000  1
  W  W2  1  0.867649  0.735300  0.071459  1
  W  W3  1  0.132351  0.264700  0.928541  1
  W  W4  1  0.867649  0.735300  0.428541  1
  W  W5  1  0.132351  0.264700  0.571459  1
  O  O6  1  0.236680  0.473359  0.389595  1
  O  O7  1  0.763320  0.526641  0.610405  1
  O  O8  1  0.763320  0.526641  0.889595  1
  O  O9  1  0.236680  0.473359  0.110405  1
  O  O10  1  0.965874  0.931750  0.250000  1
  O  O11  1  0.034126  0.068250  0.750000  1
  O  O12  1  0.500000  0.000000  0.000000  1
  O  O13  1  0.500000  -0.000000  0.500000  1
