# generated using pymatgen
data_Mg3V2O7
_symmetry_space_group_name_H-M   'P 1'
_cell_length_a   5.35547870
_cell_length_b   5.19862472
_cell_length_c   9.21400766
_cell_angle_alpha   106.38583908
_cell_angle_beta   90.00000000
_cell_angle_gamma   90.00000000
_symmetry_Int_Tables_number   1
_chemical_formula_structural   Mg3V2O7
_chemical_formula_sum   'Mg6 V4 O14'
_cell_volume   246.10910497
_cell_formula_units_Z   2
loop_
 _symmetry_equiv_pos_site_id
 _symmetry_equiv_pos_as_xyz
  1  'x, y, z'
loop_
 _atom_site_type_symbol
 _atom_site_label
 _atom_site_symmetry_multiplicity
 _atom_site_fract_x
 _atom_site_fract_y
 _atom_site_fract_z
 _atom_site_occupancy
  Mg  Mg0  1  0.699087  0.756081  1.000000  1
  Mg  Mg1  1  0.199087  0.243919  0.000000  1
  Mg  Mg2  1  0.815990  0.576742  0.615427  1
  Mg  Mg3  1  0.315990  0.423258  0.384573  1
  Mg  Mg4  1  0.815990  0.961314  0.384573  1
  Mg  Mg5  1  0.315990  0.038686  0.615427  1
  V  V6  1  0.753645  0.355817  0.209860  1
  V  V7  1  0.253645  0.644183  0.790140  1
  V  V8  1  0.253645  0.854042  0.209860  1
  V  V9  1  0.753645  0.145958  0.790140  1
  O  O10  1  0.696983  0.934777  0.588759  1
  O  O11  1  0.196983  0.065223  0.411241  1
  O  O12  1  0.196983  0.653981  0.588759  1
  O  O13  1  0.696983  0.346019  0.411241  1
  O  O14  1  0.062124  0.302166  0.740403  1
  O  O15  1  0.562124  0.697834  0.259597  1
  O  O16  1  0.562124  0.438237  0.740403  1
  O  O17  1  0.062124  0.561763  0.259597  1
  O  O18  1  0.930344  0.848578  0.841509  1
  O  O19  1  0.430344  0.151422  0.158491  1
  O  O20  1  0.802743  0.366418  0.000000  1
  O  O21  1  0.302743  0.633582  1.000000  1
  O  O22  1  0.930344  0.007070  0.158491  1
  O  O23  1  0.430344  0.992930  0.841509  1
