# generated using pymatgen
data_VF5
_symmetry_space_group_name_H-M   'P 1'
_cell_length_a   3.08390793
_cell_length_b   5.99244465
_cell_length_c   11.34512945
_cell_angle_alpha   90.00000000
_cell_angle_beta   90.00000000
_cell_angle_gamma   104.91088298
_symmetry_Int_Tables_number   1
_chemical_formula_structural   VF5
_chemical_formula_sum   'V2 F10'
_cell_volume   202.59984304
_cell_formula_units_Z   2
loop_
 _symmetry_equiv_pos_site_id
 _symmetry_equiv_pos_as_xyz
  1  'x, y, z'
loop_
 _atom_site_type_symbol
 _atom_site_label
 _atom_site_symmetry_multiplicity
 _atom_site_fract_x
 _atom_site_fract_y
 _atom_site_fract_z
 _atom_site_occupancy
  V  V0  1  0.500000  -0.000000  0.500000  1
  V  V1  1  0.500000  -0.000000  -0.000000  1
  F  F2  1  0.295586  0.591170  0.250000  1
  F  F3  1  0.704414  0.408830  0.750000  1
  F  F4  1  0.055756  0.111513  0.592709  1
  F  F5  1  0.944244  0.888487  0.407291  1
  F  F6  1  0.370954  0.741908  0.917938  1
  F  F7  1  0.629046  0.258092  0.082062  1
  F  F8  1  0.629046  0.258092  0.417938  1
  F  F9  1  0.370954  0.741908  0.582062  1
  F  F10  1  0.055756  0.111513  0.907291  1
  F  F11  1  0.944244  0.888487  0.092709  1
