# generated using pymatgen
data_LaMgTaCrO6
_symmetry_space_group_name_H-M   'P 1'
_cell_length_a   5.34092820
_cell_length_b   5.53781592
_cell_length_c   8.59228903
_cell_angle_alpha   90.00000000
_cell_angle_beta   89.49058346
_cell_angle_gamma   90.00000000
_symmetry_Int_Tables_number   1
_chemical_formula_structural   LaMgTaCrO6
_chemical_formula_sum   'La2 Mg2 Ta2 Cr2 O12'
_cell_volume   254.12475143
_cell_formula_units_Z   2
loop_
 _symmetry_equiv_pos_site_id
 _symmetry_equiv_pos_as_xyz
  1  'x, y, z'
loop_
 _atom_site_type_symbol
 _atom_site_label
 _atom_site_symmetry_multiplicity
 _atom_site_fract_x
 _atom_site_fract_y
 _atom_site_fract_z
 _atom_site_occupancy
  La  La0  1  0.020916  0.952958  0.754951  1
  La  La1  1  0.520916  0.547042  0.254951  1
  Mg  Mg2  1  0.472878  0.447241  0.739542  1
  Mg  Mg3  1  0.972878  0.052759  0.239542  1
  Ta  Ta4  1  0.499123  0.006832  0.002493  1
  Ta  Ta5  1  0.999123  0.493168  0.502493  1
  Cr  Cr6  1  0.508449  0.995244  0.505360  1
  Cr  Cr7  1  0.008449  0.504756  0.005360  1
  O  O8  1  0.106682  0.419925  0.283713  1
  O  O9  1  0.212642  0.214887  0.944933  1
  O  O10  1  0.216214  0.222965  0.580906  1
  O  O11  1  0.321375  0.703252  0.917887  1
  O  O12  1  0.301083  0.692116  0.561253  1
  O  O13  1  0.340633  0.951712  0.208961  1
  O  O14  1  0.606682  0.080075  0.783713  1
  O  O15  1  0.712642  0.285113  0.444933  1
  O  O16  1  0.716214  0.277035  0.080906  1
  O  O17  1  0.821375  0.796748  0.417887  1
  O  O18  1  0.801083  0.807884  0.061253  1
  O  O19  1  0.840633  0.548288  0.708961  1
