# generated using pymatgen
data_Ni(WO4)2
_symmetry_space_group_name_H-M   'P 1'
_cell_length_a   5.10970953
_cell_length_b   5.85144678
_cell_length_c   9.49070415
_cell_angle_alpha   90.00000000
_cell_angle_beta   90.18957585
_cell_angle_gamma   90.00000000
_symmetry_Int_Tables_number   1
_chemical_formula_structural   Ni(WO4)2
_chemical_formula_sum   'Ni2 W4 O16'
_cell_volume   283.76284544
_cell_formula_units_Z   2
loop_
 _symmetry_equiv_pos_site_id
 _symmetry_equiv_pos_as_xyz
  1  'x, y, z'
loop_
 _atom_site_type_symbol
 _atom_site_label
 _atom_site_symmetry_multiplicity
 _atom_site_fract_x
 _atom_site_fract_y
 _atom_site_fract_z
 _atom_site_occupancy
  Ni  Ni0  1  0.750000  0.342608  0.250000  1
  Ni  Ni1  1  0.250000  0.657391  0.750000  1
  W  W2  1  0.260836  0.173251  0.503549  1
  W  W3  1  0.239163  0.173251  0.996452  1
  W  W4  1  0.739164  0.826749  0.496451  1
  W  W5  1  0.760837  0.826749  0.003548  1
  O  O6  1  0.417483  0.334274  0.134656  1
  O  O7  1  0.082516  0.334274  0.365343  1
  O  O8  1  0.582517  0.665725  0.865344  1
  O  O9  1  0.917483  0.665725  0.634657  1
  O  O10  1  0.422428  0.894148  0.605793  1
  O  O11  1  0.077572  0.894148  0.894207  1
  O  O12  1  0.577572  0.105852  0.394207  1
  O  O13  1  0.922428  0.105852  0.105793  1
  O  O14  1  0.864290  0.600237  0.118201  1
  O  O15  1  0.635710  0.600237  0.381799  1
  O  O16  1  0.135710  0.399764  0.881799  1
  O  O17  1  0.364290  0.399764  0.618201  1
  O  O18  1  0.441921  0.900482  0.107316  1
  O  O19  1  0.558079  0.099519  0.892684  1
  O  O20  1  0.058080  0.900482  0.392685  1
  O  O21  1  0.941920  0.099519  0.607315  1
