# generated using pymatgen
data_FeS2
_symmetry_space_group_name_H-M   'P 1'
_cell_length_a   6.50728290
_cell_length_b   6.68575862
_cell_length_c   6.51758056
_cell_angle_alpha   60.80293501
_cell_angle_beta   60.08466967
_cell_angle_gamma   60.45044551
_symmetry_Int_Tables_number   1
_chemical_formula_structural   FeS2
_chemical_formula_sum   'Fe4 S8'
_cell_volume   202.50949304
_cell_formula_units_Z   4
loop_
 _symmetry_equiv_pos_site_id
 _symmetry_equiv_pos_as_xyz
  1  'x, y, z'
loop_
 _atom_site_type_symbol
 _atom_site_label
 _atom_site_symmetry_multiplicity
 _atom_site_fract_x
 _atom_site_fract_y
 _atom_site_fract_z
 _atom_site_occupancy
  Fe  Fe0  1  0.500008  0.999799  0.500123  1
  Fe  Fe1  1  0.499808  0.500020  0.000173  1
  Fe  Fe2  1  -0.000011  0.500038  0.499829  1
  Fe  Fe3  1  0.500193  0.500129  0.499938  1
  S  S4  1  0.257376  0.256533  0.254709  1
  S  S5  1  0.730513  0.254166  0.257720  1
  S  S6  1  0.254717  0.731245  0.256642  1
  S  S7  1  0.257845  0.256169  0.731113  1
  S  S8  1  0.742404  0.744001  0.268404  1
  S  S9  1  0.745287  0.268838  0.743489  1
  S  S10  1  0.269277  0.745795  0.742496  1
  S  S11  1  0.742581  0.743268  0.745362  1
