# generated using pymatgen
data_Zn(FeO2)2
_symmetry_space_group_name_H-M   'P 1'
_cell_length_a   5.05723724
_cell_length_b   5.89671453
_cell_length_c   10.23256149
_cell_angle_alpha   89.84607817
_cell_angle_beta   89.60404561
_cell_angle_gamma   89.91552050
_symmetry_Int_Tables_number   1
_chemical_formula_structural   Zn(FeO2)2
_chemical_formula_sum   'Zn4 Fe8 O16'
_cell_volume   305.13736743
_cell_formula_units_Z   4
loop_
 _symmetry_equiv_pos_site_id
 _symmetry_equiv_pos_as_xyz
  1  'x, y, z'
loop_
 _atom_site_type_symbol
 _atom_site_label
 _atom_site_symmetry_multiplicity
 _atom_site_fract_x
 _atom_site_fract_y
 _atom_site_fract_z
 _atom_site_occupancy
  Zn  Zn0  1  0.855582  0.250116  0.750932  1
  Zn  Zn1  1  0.148999  0.750328  0.250137  1
  Zn  Zn2  1  0.537893  0.250395  0.249931  1
  Zn  Zn3  1  0.470737  0.749699  0.749973  1
  Fe  Fe4  1  0.509220  0.750065  0.486568  1
  Fe  Fe5  1  0.509730  0.749901  0.011610  1
  Fe  Fe6  1  0.490568  0.250333  0.515308  1
  Fe  Fe7  1  0.489490  0.249947  0.987180  1
  Fe  Fe8  1  0.999572  0.502567  0.499820  1
  Fe  Fe9  1  -0.000622  -0.000504  0.000592  1
  Fe  Fe10  1  0.999799  0.997279  0.499579  1
  Fe  Fe11  1  0.000571  0.500658  0.000705  1
  O  O12  1  0.845358  0.750413  0.393332  1
  O  O13  1  0.845841  0.749618  0.107362  1
  O  O14  1  0.149479  0.249379  0.606659  1
  O  O15  1  0.150641  0.250352  0.893554  1
  O  O16  1  0.199677  0.749572  0.596975  1
  O  O17  1  0.201910  0.750147  0.902120  1
  O  O18  1  0.798628  0.250124  0.403080  1
  O  O19  1  0.799229  0.249810  0.097413  1
  O  O20  1  0.663923  0.509596  0.612056  1
  O  O21  1  0.661282  -0.000161  0.890150  1
  O  O22  1  0.335472  -0.005522  0.386588  1
  O  O23  1  0.338630  0.498568  0.109733  1
  O  O24  1  0.336394  0.505086  0.387299  1
  O  O25  1  0.339108  0.000001  0.109368  1
  O  O26  1  0.662571  0.990703  0.611376  1
  O  O27  1  0.660316  0.501532  0.890597  1
