# generated using pymatgen
data_Al4(FeO4)3
_symmetry_space_group_name_H-M   'P 1'
_cell_length_a   17.39236095
_cell_length_b   5.77174456
_cell_length_c   5.77174407
_cell_angle_alpha   59.99001175
_cell_angle_beta   59.93629628
_cell_angle_gamma   59.93629899
_symmetry_Int_Tables_number   1
_chemical_formula_structural   Al4(FeO4)3
_chemical_formula_sum   'Al8 Fe6 O24'
_cell_volume   409.26644800
_cell_formula_units_Z   2
loop_
 _symmetry_equiv_pos_site_id
 _symmetry_equiv_pos_as_xyz
  1  'x, y, z'
loop_
 _atom_site_type_symbol
 _atom_site_label
 _atom_site_symmetry_multiplicity
 _atom_site_fract_x
 _atom_site_fract_y
 _atom_site_fract_z
 _atom_site_occupancy
  Al  Al0  1  0.166667  0.500000  0.500000  1
  Al  Al1  1  0.166667  0.500000  0.000000  1
  Al  Al2  1  0.497900  0.497421  0.006793  1
  Al  Al3  1  0.835433  0.502579  0.993207  1
  Al  Al4  1  0.166667  0.000000  0.500000  1
  Al  Al5  1  0.497900  0.006793  0.497421  1
  Al  Al6  1  0.835433  0.993207  0.502579  1
  Al  Al7  1  0.666667  0.500000  0.500000  1
  Fe  Fe8  1  0.291729  0.873426  0.873426  1
  Fe  Fe9  1  0.625669  0.876363  0.876363  1
  Fe  Fe10  1  0.954460  0.877767  0.877767  1
  Fe  Fe11  1  0.041605  0.126574  0.126574  1
  Fe  Fe12  1  0.378873  0.122233  0.122233  1
  Fe  Fe13  1  0.707664  0.123637  0.123637  1
  O  O14  1  0.236888  0.754944  0.754944  1
  O  O15  1  0.582163  0.736336  0.736336  1
  O  O16  1  0.904233  0.755783  0.755783  1
  O  O17  1  0.097367  0.243653  0.723381  1
  O  O18  1  0.422262  0.218967  0.745262  1
  O  O19  1  0.746584  0.244200  0.722717  1
  O  O20  1  0.097367  0.723381  0.243653  1
  O  O21  1  0.422262  0.745262  0.218967  1
  O  O22  1  0.746584  0.722717  0.244200  1
  O  O23  1  0.239730  0.260709  0.260709  1
  O  O24  1  0.573906  0.248162  0.248162  1
  O  O25  1  0.908315  0.242350  0.242350  1
  O  O26  1  0.235966  0.276619  0.756347  1
  O  O27  1  0.586750  0.277283  0.755800  1
  O  O28  1  0.911071  0.254738  0.781033  1
  O  O29  1  0.093604  0.739291  0.739291  1
  O  O30  1  0.425018  0.757650  0.757650  1
  O  O31  1  0.759427  0.751838  0.751838  1
  O  O32  1  0.096445  0.245056  0.245056  1
  O  O33  1  0.429100  0.244217  0.244217  1
  O  O34  1  0.751171  0.263664  0.263664  1
  O  O35  1  0.235966  0.756347  0.276619  1
  O  O36  1  0.586750  0.755800  0.277283  1
  O  O37  1  0.911071  0.781033  0.254738  1
