# generated using pymatgen
data_Ta2TiZn2O8
_symmetry_space_group_name_H-M   'P 1'
_cell_length_a   5.30515548
_cell_length_b   5.92886124
_cell_length_c   10.15208307
_cell_angle_alpha   107.07033476
_cell_angle_beta   89.82681917
_cell_angle_gamma   90.04266257
_symmetry_Int_Tables_number   1
_chemical_formula_structural   Ta2TiZn2O8
_chemical_formula_sum   'Ta4 Ti2 Zn4 O16'
_cell_volume   305.24990774
_cell_formula_units_Z   2
loop_
 _symmetry_equiv_pos_site_id
 _symmetry_equiv_pos_as_xyz
  1  'x, y, z'
loop_
 _atom_site_type_symbol
 _atom_site_label
 _atom_site_symmetry_multiplicity
 _atom_site_fract_x
 _atom_site_fract_y
 _atom_site_fract_z
 _atom_site_occupancy
  Ta  Ta0  1  0.732397  0.263975  0.228923  1
  Ta  Ta1  1  0.765390  0.033141  0.770489  1
  Ta  Ta2  1  0.265159  0.738546  0.771135  1
  Ta  Ta3  1  0.232137  0.968693  0.229493  1
  Ti  Ti4  1  0.748989  0.630079  0.999830  1
  Ti  Ti5  1  0.248641  0.371811  -0.000209  1
  Zn  Zn6  1  0.773145  0.434818  0.564524  1
  Zn  Zn7  1  0.724989  0.870507  0.433886  1
  Zn  Zn8  1  0.225216  0.567190  0.435483  1
  Zn  Zn9  1  0.273194  0.131293  0.565909  1
  O  O10  1  0.074246  0.196262  0.136691  1
  O  O11  1  0.424291  0.059233  0.863129  1
  O  O12  1  0.923862  0.805504  0.863180  1
  O  O13  1  0.573598  0.943527  0.136478  1
  O  O14  1  0.590891  0.433528  0.115263  1
  O  O15  1  0.908003  0.316018  0.884705  1
  O  O16  1  0.408907  0.570023  0.884917  1
  O  O17  1  0.091190  0.685310  0.115301  1
  O  O18  1  0.425460  0.279835  0.350864  1
  O  O19  1  0.073058  0.926734  0.648912  1
  O  O20  1  0.354339  0.846780  0.386896  1
  O  O21  1  0.142788  0.458210  0.613287  1
  O  O22  1  0.643789  0.155119  0.612951  1
  O  O23  1  0.855400  0.543747  0.386873  1
  O  O24  1  0.924719  0.074749  0.350665  1
  O  O25  1  0.572142  0.722424  0.648861  1
