# generated using pymatgen
data_Mg(CoS2)2
_symmetry_space_group_name_H-M   'P 1'
_cell_length_a   6.89578950
_cell_length_b   6.89579059
_cell_length_c   6.95255106
_cell_angle_alpha   119.73029913
_cell_angle_beta   119.73030241
_cell_angle_gamma   89.99999366
_symmetry_Int_Tables_number   1
_chemical_formula_structural   Mg(CoS2)2
_chemical_formula_sum   'Mg2 Co4 S8'
_cell_volume   235.66766559
_cell_formula_units_Z   2
loop_
 _symmetry_equiv_pos_site_id
 _symmetry_equiv_pos_as_xyz
  1  'x, y, z'
loop_
 _atom_site_type_symbol
 _atom_site_label
 _atom_site_symmetry_multiplicity
 _atom_site_fract_x
 _atom_site_fract_y
 _atom_site_fract_z
 _atom_site_occupancy
  Mg  Mg0  1  0.375000  0.625000  0.750000  1
  Mg  Mg1  1  0.625000  0.375000  0.250000  1
  Co  Co2  1  0.000000  0.000000  0.500000  1
  Co  Co3  1  0.000000  0.500000  0.000000  1
  Co  Co4  1  0.500000  0.000000  0.500000  1
  Co  Co5  1  0.000000  0.000000  0.000000  1
  S  S6  1  0.770362  0.805309  0.540725  1
  S  S7  1  0.764585  0.229638  0.959275  1
  S  S8  1  0.194691  0.229638  0.959275  1
  S  S9  1  0.229638  0.194691  0.459275  1
  S  S10  1  0.229638  0.764585  0.459275  1
  S  S11  1  0.235415  0.770362  0.040725  1
  S  S12  1  0.770362  0.235415  0.540725  1
  S  S13  1  0.805309  0.770362  0.040725  1
