# generated using pymatgen
data_Zn(SbO2)4
_symmetry_space_group_name_H-M   'P 1'
_cell_length_a   3.22811185
_cell_length_b   7.99091913
_cell_length_c   8.70977801
_cell_angle_alpha   89.47608689
_cell_angle_beta   79.60640279
_cell_angle_gamma   78.26111490
_symmetry_Int_Tables_number   1
_chemical_formula_structural   Zn(SbO2)4
_chemical_formula_sum   'Zn1 Sb4 O8'
_cell_volume   216.27667040
_cell_formula_units_Z   1
loop_
 _symmetry_equiv_pos_site_id
 _symmetry_equiv_pos_as_xyz
  1  'x, y, z'
loop_
 _atom_site_type_symbol
 _atom_site_label
 _atom_site_symmetry_multiplicity
 _atom_site_fract_x
 _atom_site_fract_y
 _atom_site_fract_z
 _atom_site_occupancy
  Zn  Zn0  1  0.472793  0.000442  0.053367  1
  Sb  Sb1  1  0.622621  0.175107  0.576012  1
  Sb  Sb2  1  0.161589  0.491880  0.191520  1
  Sb  Sb3  1  0.820660  0.513885  0.844266  1
  Sb  Sb4  1  0.347822  0.796038  0.510051  1
  O  O5  1  0.826335  0.671626  0.672789  1
  O  O6  1  0.441031  0.366197  0.750439  1
  O  O7  1  0.544561  0.662864  0.257248  1
  O  O8  1  0.113849  0.288491  0.476260  1
  O  O9  1  0.139678  0.044066  0.677090  1
  O  O10  1  0.800374  0.373505  0.031406  1
  O  O11  1  0.799471  0.963630  0.430491  1
  O  O12  1  0.206698  0.628371  0.959707  1
