# generated using pymatgen
data_Ti2Zn3(SiO4)3
_symmetry_space_group_name_H-M   'P 1'
_cell_length_a   10.36336916
_cell_length_b   10.36336944
_cell_length_c   10.36336911
_cell_angle_alpha   109.47122185
_cell_angle_beta   109.47122235
_cell_angle_gamma   109.47121832
_symmetry_Int_Tables_number   1
_chemical_formula_structural   Ti2Zn3(SiO4)3
_chemical_formula_sum   'Ti8 Zn12 Si12 O48'
_cell_volume   856.80308493
_cell_formula_units_Z   4
loop_
 _symmetry_equiv_pos_site_id
 _symmetry_equiv_pos_as_xyz
  1  'x, y, z'
loop_
 _atom_site_type_symbol
 _atom_site_label
 _atom_site_symmetry_multiplicity
 _atom_site_fract_x
 _atom_site_fract_y
 _atom_site_fract_z
 _atom_site_occupancy
  Ti  Ti0  1  0.000000  0.000000  0.000000  1
  Ti  Ti1  1  0.000000  0.500000  0.000000  1
  Ti  Ti2  1  0.000000  0.000000  0.500000  1
  Ti  Ti3  1  0.000000  0.500000  0.500000  1
  Ti  Ti4  1  0.500000  0.000000  0.500000  1
  Ti  Ti5  1  0.500000  0.500000  0.000000  1
  Ti  Ti6  1  0.500000  0.500000  0.500000  1
  Ti  Ti7  1  0.500000  0.000000  0.000000  1
  Zn  Zn8  1  0.375000  0.750000  0.125000  1
  Zn  Zn9  1  0.125000  0.250000  0.375000  1
  Zn  Zn10  1  0.375000  0.125000  0.250000  1
  Zn  Zn11  1  0.125000  0.375000  0.750000  1
  Zn  Zn12  1  0.875000  0.750000  0.625000  1
  Zn  Zn13  1  0.750000  0.125000  0.375000  1
  Zn  Zn14  1  0.750000  0.625000  0.875000  1
  Zn  Zn15  1  0.625000  0.250000  0.875000  1
  Zn  Zn16  1  0.250000  0.875000  0.625000  1
  Zn  Zn17  1  0.875000  0.625000  0.250000  1
  Zn  Zn18  1  0.625000  0.875000  0.750000  1
  Zn  Zn19  1  0.250000  0.375000  0.125000  1
  Si  Si20  1  0.250000  0.125000  0.875000  1
  Si  Si21  1  0.750000  0.875000  0.125000  1
  Si  Si22  1  0.375000  0.250000  0.625000  1
  Si  Si23  1  0.625000  0.375000  0.250000  1
  Si  Si24  1  0.125000  0.750000  0.875000  1
  Si  Si25  1  0.875000  0.125000  0.750000  1
  Si  Si26  1  0.750000  0.375000  0.625000  1
  Si  Si27  1  0.375000  0.625000  0.750000  1
  Si  Si28  1  0.125000  0.875000  0.250000  1
  Si  Si29  1  0.875000  0.250000  0.125000  1
  Si  Si30  1  0.625000  0.750000  0.375000  1
  Si  Si31  1  0.250000  0.625000  0.375000  1
  O  O32  1  0.292213  0.484548  0.377369  1
  O  O33  1  0.015452  0.307665  0.892821  1
  O  O34  1  0.122631  0.607179  0.914844  1
  O  O35  1  0.207787  0.585156  0.192335  1
  O  O36  1  0.207787  0.122631  0.015452  1
  O  O37  1  0.585156  0.192335  0.207787  1
  O  O38  1  0.607179  0.192335  0.484548  1
  O  O39  1  0.192335  0.207787  0.585156  1
  O  O40  1  0.892821  0.377369  0.585156  1
  O  O41  1  0.307665  0.914844  0.292213  1
  O  O42  1  0.914844  0.292213  0.307665  1
  O  O43  1  0.015452  0.207787  0.122631  1
  O  O44  1  0.192335  0.484548  0.607179  1
  O  O45  1  0.585156  0.892821  0.377369  1
  O  O46  1  0.122631  0.015452  0.207787  1
  O  O47  1  0.484548  0.607179  0.192335  1
  O  O48  1  0.377369  0.585156  0.892821  1
  O  O49  1  0.892821  0.015452  0.307665  1
  O  O50  1  0.607179  0.914844  0.122631  1
  O  O51  1  0.107179  0.622631  0.414844  1
  O  O52  1  0.914844  0.122631  0.607179  1
  O  O53  1  0.377369  0.292213  0.484548  1
  O  O54  1  0.307665  0.892821  0.015452  1
  O  O55  1  0.292213  0.307665  0.914844  1
  O  O56  1  0.707787  0.515452  0.622631  1
  O  O57  1  0.984548  0.692335  0.107179  1
  O  O58  1  0.877369  0.392821  0.085156  1
  O  O59  1  0.792213  0.414844  0.807665  1
  O  O60  1  0.792213  0.877369  0.984548  1
  O  O61  1  0.414844  0.807665  0.792213  1
  O  O62  1  0.392821  0.807665  0.515452  1
  O  O63  1  0.807665  0.792213  0.414844  1
  O  O64  1  0.707787  0.692335  0.085156  1
  O  O65  1  0.692335  0.107179  0.984548  1
  O  O66  1  0.622631  0.707787  0.515452  1
  O  O67  1  0.515452  0.622631  0.707787  1
  O  O68  1  0.085156  0.877369  0.392821  1
  O  O69  1  0.392821  0.085156  0.877369  1
  O  O70  1  0.107179  0.984548  0.692335  1
  O  O71  1  0.622631  0.414844  0.107179  1
  O  O72  1  0.515452  0.392821  0.807665  1
  O  O73  1  0.877369  0.984548  0.792213  1
  O  O74  1  0.414844  0.107179  0.622631  1
  O  O75  1  0.807665  0.515452  0.392821  1
  O  O76  1  0.984548  0.792213  0.877369  1
  O  O77  1  0.085156  0.707787  0.692335  1
  O  O78  1  0.692335  0.085156  0.707787  1
  O  O79  1  0.484548  0.377369  0.292213  1
