# generated using pymatgen
data_Mn2ZnS5
_symmetry_space_group_name_H-M   'P 1'
_cell_length_a   3.65386787
_cell_length_b   6.22516194
_cell_length_c   14.01780077
_cell_angle_alpha   89.93077075
_cell_angle_beta   89.99969113
_cell_angle_gamma   90.04516320
_symmetry_Int_Tables_number   1
_chemical_formula_structural   Mn2ZnS5
_chemical_formula_sum   'Mn4 Zn2 S10'
_cell_volume   318.84743203
_cell_formula_units_Z   2
loop_
 _symmetry_equiv_pos_site_id
 _symmetry_equiv_pos_as_xyz
  1  'x, y, z'
loop_
 _atom_site_type_symbol
 _atom_site_label
 _atom_site_symmetry_multiplicity
 _atom_site_fract_x
 _atom_site_fract_y
 _atom_site_fract_z
 _atom_site_occupancy
  Mn  Mn0  1  0.249961  0.448115  0.102521  1
  Mn  Mn1  1  0.750022  0.555815  0.897738  1
  Mn  Mn2  1  0.750009  0.553004  0.602617  1
  Mn  Mn3  1  0.249959  0.442638  0.398052  1
  Zn  Zn4  1  0.749791  0.048868  0.249960  1
  Zn  Zn5  1  0.250223  0.952797  0.749002  1
  S  S6  1  0.749752  0.404595  0.750435  1
  S  S7  1  0.250270  0.594605  0.250438  1
  S  S8  1  0.750209  0.654612  0.060577  1
  S  S9  1  0.249796  0.349711  0.939671  1
  S  S10  1  0.750194  0.648902  0.439314  1
  S  S11  1  0.249782  0.347057  0.561552  1
  S  S12  1  0.249858  0.094210  0.360843  1
  S  S13  1  0.750161  0.901655  0.638285  1
  S  S14  1  0.750178  0.904295  0.859737  1
  S  S15  1  0.249825  0.099120  0.139258  1
