# generated using pymatgen
data_Ho(WO3)2
_symmetry_space_group_name_H-M   'P 1'
_cell_length_a   5.41006482
_cell_length_b   5.65334368
_cell_length_c   7.86919953
_cell_angle_alpha   89.94451300
_cell_angle_beta   90.08369217
_cell_angle_gamma   89.98222918
_symmetry_Int_Tables_number   1
_chemical_formula_structural   Ho(WO3)2
_chemical_formula_sum   'Ho2 W4 O12'
_cell_volume   240.67873795
_cell_formula_units_Z   2
loop_
 _symmetry_equiv_pos_site_id
 _symmetry_equiv_pos_as_xyz
  1  'x, y, z'
loop_
 _atom_site_type_symbol
 _atom_site_label
 _atom_site_symmetry_multiplicity
 _atom_site_fract_x
 _atom_site_fract_y
 _atom_site_fract_z
 _atom_site_occupancy
  Ho  Ho0  1  0.015604  0.927853  0.750315  1
  Ho  Ho1  1  0.523355  0.568884  0.249704  1
  W  W2  1  0.005064  0.490377  0.000894  1
  W  W3  1  0.005621  0.490880  0.499388  1
  W  W4  1  0.502526  0.012447  0.499839  1
  W  W5  1  0.502685  0.012423  0.999442  1
  O  O6  1  0.122945  0.474765  0.250246  1
  O  O7  1  0.168163  0.198403  0.943231  1
  O  O8  1  0.168776  0.198627  0.557804  1
  O  O9  1  0.286740  0.717572  0.956804  1
  O  O10  1  0.286419  0.718524  0.543943  1
  O  O11  1  0.429764  0.958666  0.249638  1
  O  O12  1  0.617169  0.023247  0.749954  1
  O  O13  1  0.684254  0.314235  0.441420  1
  O  O14  1  0.683433  0.314476  0.058542  1
  O  O15  1  0.799045  0.769390  0.042206  1
  O  O16  1  0.798599  0.769273  0.456698  1
  O  O17  1  0.923940  0.539956  0.749932  1
