# generated using pymatgen
data_Ca(MoO2)2
_symmetry_space_group_name_H-M   'P 1'
_cell_length_a   6.50620804
_cell_length_b   6.50620757
_cell_length_c   6.37666952
_cell_angle_alpha   60.65645658
_cell_angle_beta   60.65646552
_cell_angle_gamma   61.61880504
_symmetry_Int_Tables_number   1
_chemical_formula_structural   Ca(MoO2)2
_chemical_formula_sum   'Ca2 Mo4 O8'
_cell_volume   195.03496644
_cell_formula_units_Z   2
loop_
 _symmetry_equiv_pos_site_id
 _symmetry_equiv_pos_as_xyz
  1  'x, y, z'
loop_
 _atom_site_type_symbol
 _atom_site_label
 _atom_site_symmetry_multiplicity
 _atom_site_fract_x
 _atom_site_fract_y
 _atom_site_fract_z
 _atom_site_occupancy
  Ca  Ca0  1  0.125000  0.625000  0.625000  1
  Ca  Ca1  1  0.625000  0.125000  0.625000  1
  Mo  Mo2  1  0.014703  0.014703  0.985297  1
  Mo  Mo3  1  0.235297  0.235297  0.264703  1
  Mo  Mo4  1  0.625000  0.625000  0.125000  1
  Mo  Mo5  1  0.625000  0.625000  0.625000  1
  O  O6  1  0.389144  0.389144  0.357953  1
  O  O7  1  0.407909  0.854095  0.368998  1
  O  O8  1  0.389144  0.389144  0.863759  1
  O  O9  1  0.854095  0.407909  0.368998  1
  O  O10  1  0.395905  0.842091  0.881002  1
  O  O11  1  0.842091  0.395905  0.881002  1
  O  O12  1  0.860856  0.860856  0.386241  1
  O  O13  1  0.860856  0.860856  0.892047  1
