# generated using pymatgen
data_Sr2AlGaW2O7
_symmetry_space_group_name_H-M   'P 1'
_cell_length_a   5.50443018
_cell_length_b   6.12726485
_cell_length_c   11.84371637
_cell_angle_alpha   105.19724291
_cell_angle_beta   103.20026854
_cell_angle_gamma   90.05966284
_symmetry_Int_Tables_number   1
_chemical_formula_structural   Sr2AlGaW2O7
_chemical_formula_sum   'Sr4 Al2 Ga2 W4 O14'
_cell_volume   374.51027364
_cell_formula_units_Z   2
loop_
 _symmetry_equiv_pos_site_id
 _symmetry_equiv_pos_as_xyz
  1  'x, y, z'
loop_
 _atom_site_type_symbol
 _atom_site_label
 _atom_site_symmetry_multiplicity
 _atom_site_fract_x
 _atom_site_fract_y
 _atom_site_fract_z
 _atom_site_occupancy
  Sr  Sr0  1  0.155527  0.169046  0.306525  1
  Sr  Sr1  1  0.833170  0.812429  0.687321  1
  Sr  Sr2  1  0.659891  0.621766  0.312112  1
  Sr  Sr3  1  0.330124  0.374284  0.680274  1
  Al  Al4  1  0.453540  0.456786  0.982383  1
  Al  Al5  1  0.029705  0.998273  0.999477  1
  Ga  Ga6  1  0.222457  0.816341  0.495862  1
  Ga  Ga7  1  0.723454  0.175031  0.499322  1
  W  W8  1  0.440899  0.914581  0.870786  1
  W  W9  1  0.085579  0.586347  0.132333  1
  W  W10  1  0.940217  0.420692  0.867005  1
  W  W11  1  0.565221  0.079508  0.133479  1
  O  O12  1  0.700145  0.408340  0.102471  1
  O  O13  1  0.891130  0.905409  0.502811  1
  O  O14  1  0.211655  0.244732  0.121333  1
  O  O15  1  0.837739  0.381011  0.651992  1
  O  O16  1  0.800277  0.095444  0.884950  1
  O  O17  1  0.277395  0.230034  0.850032  1
  O  O18  1  0.388621  0.091191  0.498942  1
  O  O19  1  0.089054  0.755833  0.872895  1
  O  O20  1  0.592195  0.586895  0.885916  1
  O  O21  1  0.354391  0.749930  0.641506  1
  O  O22  1  0.176703  0.606548  0.346294  1
  O  O23  1  0.717761  0.250749  0.357816  1
  O  O24  1  0.903941  0.900976  0.110175  1
  O  O25  1  0.399487  0.830272  0.194191  1
