# generated using pymatgen
data_Sr2YMn2GaO7
_symmetry_space_group_name_H-M   'P 1'
_cell_length_a   5.69126895
_cell_length_b   5.82704387
_cell_length_c   11.94199684
_cell_angle_alpha   104.11149978
_cell_angle_beta   103.77953742
_cell_angle_gamma   89.99420651
_symmetry_Int_Tables_number   1
_chemical_formula_structural   Sr2YMn2GaO7
_chemical_formula_sum   'Sr4 Y2 Mn4 Ga2 O14'
_cell_volume   372.32322117
_cell_formula_units_Z   2
loop_
 _symmetry_equiv_pos_site_id
 _symmetry_equiv_pos_as_xyz
  1  'x, y, z'
loop_
 _atom_site_type_symbol
 _atom_site_label
 _atom_site_symmetry_multiplicity
 _atom_site_fract_x
 _atom_site_fract_y
 _atom_site_fract_z
 _atom_site_occupancy
  Sr  Sr0  1  0.138659  0.178395  0.302458  1
  Sr  Sr1  1  0.835874  0.822510  0.697636  1
  Sr  Sr2  1  0.638688  0.625022  0.302493  1
  Sr  Sr3  1  0.336134  0.375992  0.697522  1
  Y  Y4  1  0.499390  0.500369  0.000045  1
  Y  Y5  1  0.999320  0.000486  0.000107  1
  Mn  Mn6  1  0.414854  0.921975  0.838147  1
  Mn  Mn7  1  0.077238  0.584186  0.162108  1
  Mn  Mn8  1  0.914906  0.416677  0.838050  1
  Mn  Mn9  1  0.577234  0.078942  0.162044  1
  Ga  Ga10  1  0.208562  0.827146  0.500091  1
  Ga  Ga11  1  0.708585  0.173830  0.500012  1
  O  O12  1  0.803535  0.318545  0.124738  1
  O  O13  1  0.872284  0.884695  0.500101  1
  O  O14  1  0.303509  0.307330  0.124710  1
  O  O15  1  0.847837  0.380088  0.645425  1
  O  O16  1  0.683241  0.181171  0.868130  1
  O  O17  1  0.183186  0.187423  0.868108  1
  O  O18  1  0.372310  0.116186  0.499984  1
  O  O19  1  0.178828  0.693383  0.875660  1
  O  O20  1  0.678643  0.682540  0.875391  1
  O  O21  1  0.348063  0.766344  0.645474  1
  O  O22  1  0.202722  0.620725  0.354726  1
  O  O23  1  0.703151  0.234785  0.354669  1
  O  O24  1  0.815982  0.820041  0.131980  1
  O  O25  1  0.316189  0.813278  0.132460  1
