# generated using pymatgen
data_Zn(NiO2)2
_symmetry_space_group_name_H-M   'P 1'
_cell_length_a   2.88571289
_cell_length_b   8.74044322
_cell_length_c   10.29971501
_cell_angle_alpha   90.00711459
_cell_angle_beta   90.00009190
_cell_angle_gamma   90.00005341
_symmetry_Int_Tables_number   1
_chemical_formula_structural   Zn(NiO2)2
_chemical_formula_sum   'Zn4 Ni8 O16'
_cell_volume   259.78362931
_cell_formula_units_Z   4
loop_
 _symmetry_equiv_pos_site_id
 _symmetry_equiv_pos_as_xyz
  1  'x, y, z'
loop_
 _atom_site_type_symbol
 _atom_site_label
 _atom_site_symmetry_multiplicity
 _atom_site_fract_x
 _atom_site_fract_y
 _atom_site_fract_z
 _atom_site_occupancy
  Zn  Zn0  1  0.749999  0.245555  0.340478  1
  Zn  Zn1  1  0.250000  0.754549  0.659580  1
  Zn  Zn2  1  0.749999  0.745403  0.159609  1
  Zn  Zn3  1  0.250000  0.254550  0.840465  1
  Ni  Ni4  1  0.249999  0.414537  0.100296  1
  Ni  Ni5  1  0.750000  0.085436  0.600277  1
  Ni  Ni6  1  0.250000  0.914567  0.399678  1
  Ni  Ni7  1  0.749999  0.585456  0.899688  1
  Ni  Ni8  1  0.749999  0.561356  0.384155  1
  Ni  Ni9  1  0.250000  0.438652  0.615916  1
  Ni  Ni10  1  0.750000  0.061316  0.115891  1
  Ni  Ni11  1  0.249998  0.938686  0.884085  1
  O  O12  1  0.249999  0.904073  0.073556  1
  O  O13  1  0.750000  0.095964  0.926423  1
  O  O14  1  0.249999  0.404001  0.426475  1
  O  O15  1  0.750000  0.595952  0.573630  1
  O  O16  1  0.250000  0.027323  0.711457  1
  O  O17  1  0.750000  0.972735  0.288528  1
  O  O18  1  0.249999  0.527281  0.788514  1
  O  O19  1  0.749999  0.472642  0.211524  1
  O  O20  1  0.250000  0.619336  0.031937  1
  O  O21  1  0.749999  0.380693  0.968033  1
  O  O22  1  0.250000  0.119263  0.468079  1
  O  O23  1  0.750000  0.880661  0.531874  1
  O  O24  1  0.749999  0.787704  0.825114  1
  O  O25  1  0.250000  0.212263  0.174820  1
  O  O26  1  0.249999  0.712361  0.325078  1
  O  O27  1  0.750000  0.287685  0.674838  1
