# generated using pymatgen
data_LaZnFeCoO6
_symmetry_space_group_name_H-M   'P 1'
_cell_length_a   5.53659796
_cell_length_b   5.31773727
_cell_length_c   7.62014640
_cell_angle_alpha   90.76293802
_cell_angle_beta   90.00000000
_cell_angle_gamma   90.00000000
_symmetry_Int_Tables_number   1
_chemical_formula_structural   LaZnFeCoO6
_chemical_formula_sum   'La2 Zn2 Fe2 Co2 O12'
_cell_volume   224.33378134
_cell_formula_units_Z   2
loop_
 _symmetry_equiv_pos_site_id
 _symmetry_equiv_pos_as_xyz
  1  'x, y, z'
loop_
 _atom_site_type_symbol
 _atom_site_label
 _atom_site_symmetry_multiplicity
 _atom_site_fract_x
 _atom_site_fract_y
 _atom_site_fract_z
 _atom_site_occupancy
  La  La0  1  0.027648  0.989839  0.250292  1
  La  La1  1  0.472352  0.489839  0.750292  1
  Zn  Zn2  1  0.534563  0.528078  0.251055  1
  Zn  Zn3  1  0.965437  0.028078  0.751055  1
  Fe  Fe4  1  0.503027  0.000030  0.002187  1
  Fe  Fe5  1  0.996973  0.500030  0.502187  1
  Co  Co6  1  0.501833  -0.001406  0.498603  1
  Co  Co7  1  0.998167  0.498594  -0.001397  1
  O  O8  1  0.013614  0.640302  0.753564  1
  O  O9  1  0.204607  0.203016  0.943271  1
  O  O10  1  0.204374  0.198907  0.556862  1
  O  O11  1  0.295626  0.698907  0.056862  1
  O  O12  1  0.295393  0.703016  0.443271  1
  O  O13  1  0.486386  0.140302  0.253563  1
  O  O14  1  0.528167  0.923808  0.746618  1
  O  O15  1  0.741603  0.257550  0.555673  1
  O  O16  1  0.744884  0.259875  0.941875  1
  O  O17  1  0.755116  0.759875  0.441875  1
  O  O18  1  0.758397  0.757550  0.055673  1
  O  O19  1  0.971833  0.423808  0.246618  1
