# generated using pymatgen
data_Y2Co2O7
_symmetry_space_group_name_H-M   'P 1'
_cell_length_a   6.98960130
_cell_length_b   6.98098952
_cell_length_c   7.02380362
_cell_angle_alpha   60.26518242
_cell_angle_beta   60.41233426
_cell_angle_gamma   60.04125469
_symmetry_Int_Tables_number   1
_chemical_formula_structural   Y2Co2O7
_chemical_formula_sum   'Y4 Co4 O14'
_cell_volume   243.65019912
_cell_formula_units_Z   2
loop_
 _symmetry_equiv_pos_site_id
 _symmetry_equiv_pos_as_xyz
  1  'x, y, z'
loop_
 _atom_site_type_symbol
 _atom_site_label
 _atom_site_symmetry_multiplicity
 _atom_site_fract_x
 _atom_site_fract_y
 _atom_site_fract_z
 _atom_site_occupancy
  Y  Y0  1  0.500000  -0.000000  0.500000  1
  Y  Y1  1  -0.000000  0.500000  0.500000  1
  Y  Y2  1  0.500000  0.500000  -0.000000  1
  Y  Y3  1  0.499999  0.500000  0.500000  1
  Co  Co4  1  1.000000  0.500000  0.000000  1
  Co  Co5  1  0.500000  1.000000  -0.000000  1
  Co  Co6  1  1.000000  0.000000  0.500000  1
  Co  Co7  1  0.000000  1.000000  0.000000  1
  O  O8  1  0.624919  0.624289  0.626737  1
  O  O9  1  0.375081  0.375711  0.373262  1
  O  O10  1  0.327018  0.922627  0.921800  1
  O  O11  1  0.078976  0.672119  0.670731  1
  O  O12  1  0.922708  0.327829  0.921638  1
  O  O13  1  0.921666  0.921911  0.329794  1
  O  O14  1  0.327567  0.327783  0.922187  1
  O  O15  1  0.330220  0.920659  0.328403  1
  O  O16  1  0.921024  0.327881  0.329269  1
  O  O17  1  0.672433  0.672217  0.077813  1
  O  O18  1  0.078335  0.078089  0.670206  1
  O  O19  1  0.672982  0.077373  0.078199  1
  O  O20  1  0.669780  0.079341  0.671597  1
  O  O21  1  0.077293  0.672171  0.078362  1
