# generated using pymatgen
data_BaYV4O7
_symmetry_space_group_name_H-M   'P 1'
_cell_length_a   6.49621968
_cell_length_b   6.49621912
_cell_length_c   10.70549930
_cell_angle_alpha   90.00000000
_cell_angle_beta   90.00000000
_cell_angle_gamma   120.00000748
_symmetry_Int_Tables_number   1
_chemical_formula_structural   BaYV4O7
_chemical_formula_sum   'Ba2 Y2 V8 O14'
_cell_volume   391.25409354
_cell_formula_units_Z   2
loop_
 _symmetry_equiv_pos_site_id
 _symmetry_equiv_pos_as_xyz
  1  'x, y, z'
loop_
 _atom_site_type_symbol
 _atom_site_label
 _atom_site_symmetry_multiplicity
 _atom_site_fract_x
 _atom_site_fract_y
 _atom_site_fract_z
 _atom_site_occupancy
  Ba  Ba0  1  0.666667  0.333333  0.474437  1
  Ba  Ba1  1  0.333333  0.666667  0.974437  1
  Y  Y2  1  0.666667  0.333333  0.889621  1
  Y  Y3  1  0.333333  0.666667  0.389621  1
  V  V4  1  0.821513  0.178488  0.188803  1
  V  V5  1  0.643024  0.821512  0.688804  1
  V  V6  1  0.178488  0.356976  0.688804  1
  V  V7  1  0.821513  0.643024  0.188803  1
  V  V8  1  0.356975  0.178488  0.188803  1
  V  V9  1  0.178488  0.821512  0.688804  1
  V  V10  1  0.000000  -0.000000  0.424749  1
  V  V11  1  0.000000  -0.000000  0.924749  1
  O  O12  1  0.840987  0.159014  0.003266  1
  O  O13  1  0.681973  0.840986  0.503265  1
  O  O14  1  0.159013  0.318026  0.503265  1
  O  O15  1  0.840988  0.681974  0.003266  1
  O  O16  1  0.318026  0.159014  0.003266  1
  O  O17  1  0.159013  0.840986  0.503265  1
  O  O18  1  0.000000  -0.000000  0.741494  1
  O  O19  1  0.000000  -0.000000  0.241495  1
  O  O20  1  0.505780  0.494222  0.275830  1
  O  O21  1  0.011557  0.505780  0.775830  1
  O  O22  1  0.494221  0.988443  0.775830  1
  O  O23  1  0.505780  0.011557  0.275830  1
  O  O24  1  0.494222  0.505780  0.775830  1
  O  O25  1  0.988443  0.494222  0.275830  1
