# generated using pymatgen
data_Zn3Si3(SnO6)2
_symmetry_space_group_name_H-M   'P 1'
_cell_length_a   10.70327655
_cell_length_b   10.70327685
_cell_length_c   10.70327648
_cell_angle_alpha   109.47122193
_cell_angle_beta   109.47122246
_cell_angle_gamma   109.47121821
_symmetry_Int_Tables_number   1
_chemical_formula_structural   Zn3Si3(SnO6)2
_chemical_formula_sum   'Zn12 Si12 Sn8 O48'
_cell_volume   943.90514898
_cell_formula_units_Z   4
loop_
 _symmetry_equiv_pos_site_id
 _symmetry_equiv_pos_as_xyz
  1  'x, y, z'
loop_
 _atom_site_type_symbol
 _atom_site_label
 _atom_site_symmetry_multiplicity
 _atom_site_fract_x
 _atom_site_fract_y
 _atom_site_fract_z
 _atom_site_occupancy
  Zn  Zn0  1  0.375000  0.750000  0.125000  1
  Zn  Zn1  1  0.125000  0.250000  0.375000  1
  Zn  Zn2  1  0.375000  0.125000  0.250000  1
  Zn  Zn3  1  0.125000  0.375000  0.750000  1
  Zn  Zn4  1  0.875000  0.750000  0.625000  1
  Zn  Zn5  1  0.750000  0.125000  0.375000  1
  Zn  Zn6  1  0.750000  0.625000  0.875000  1
  Zn  Zn7  1  0.625000  0.250000  0.875000  1
  Zn  Zn8  1  0.250000  0.875000  0.625000  1
  Zn  Zn9  1  0.875000  0.625000  0.250000  1
  Zn  Zn10  1  0.625000  0.875000  0.750000  1
  Zn  Zn11  1  0.250000  0.375000  0.125000  1
  Si  Si12  1  0.250000  0.125000  0.875000  1
  Si  Si13  1  0.750000  0.875000  0.125000  1
  Si  Si14  1  0.375000  0.250000  0.625000  1
  Si  Si15  1  0.625000  0.375000  0.250000  1
  Si  Si16  1  0.125000  0.750000  0.875000  1
  Si  Si17  1  0.875000  0.125000  0.750000  1
  Si  Si18  1  0.750000  0.375000  0.625000  1
  Si  Si19  1  0.375000  0.625000  0.750000  1
  Si  Si20  1  0.125000  0.875000  0.250000  1
  Si  Si21  1  0.875000  0.250000  0.125000  1
  Si  Si22  1  0.625000  0.750000  0.375000  1
  Si  Si23  1  0.250000  0.625000  0.375000  1
  Sn  Sn24  1  0.000000  0.000000  0.000000  1
  Sn  Sn25  1  0.000000  0.500000  0.000000  1
  Sn  Sn26  1  0.000000  0.000000  0.500000  1
  Sn  Sn27  1  0.000000  0.500000  0.500000  1
  Sn  Sn28  1  0.500000  0.000000  0.500000  1
  Sn  Sn29  1  0.500000  0.500000  0.000000  1
  Sn  Sn30  1  0.500000  0.500000  0.500000  1
  Sn  Sn31  1  0.500000  0.000000  0.000000  1
  O  O32  1  0.289696  0.486500  0.376234  1
  O  O33  1  0.013500  0.303196  0.889734  1
  O  O34  1  0.123766  0.610266  0.913462  1
  O  O35  1  0.210304  0.586538  0.196804  1
  O  O36  1  0.210304  0.123766  0.013500  1
  O  O37  1  0.586538  0.196804  0.210304  1
  O  O38  1  0.610266  0.196804  0.486500  1
  O  O39  1  0.196804  0.210304  0.586538  1
  O  O40  1  0.889734  0.376234  0.586538  1
  O  O41  1  0.303196  0.913462  0.289696  1
  O  O42  1  0.913462  0.289696  0.303196  1
  O  O43  1  0.013500  0.210304  0.123766  1
  O  O44  1  0.196804  0.486500  0.610266  1
  O  O45  1  0.586538  0.889734  0.376234  1
  O  O46  1  0.123766  0.013500  0.210304  1
  O  O47  1  0.486500  0.610266  0.196804  1
  O  O48  1  0.376234  0.586538  0.889734  1
  O  O49  1  0.889734  0.013500  0.303196  1
  O  O50  1  0.610266  0.913462  0.123766  1
  O  O51  1  0.110266  0.623766  0.413462  1
  O  O52  1  0.913462  0.123766  0.610266  1
  O  O53  1  0.376234  0.289696  0.486500  1
  O  O54  1  0.303196  0.889734  0.013500  1
  O  O55  1  0.289696  0.303196  0.913462  1
  O  O56  1  0.710304  0.513500  0.623766  1
  O  O57  1  0.986500  0.696804  0.110266  1
  O  O58  1  0.876234  0.389734  0.086538  1
  O  O59  1  0.789696  0.413462  0.803196  1
  O  O60  1  0.789696  0.876234  0.986500  1
  O  O61  1  0.413462  0.803196  0.789696  1
  O  O62  1  0.389734  0.803196  0.513500  1
  O  O63  1  0.803196  0.789696  0.413462  1
  O  O64  1  0.710304  0.696804  0.086538  1
  O  O65  1  0.696804  0.110266  0.986500  1
  O  O66  1  0.623766  0.710304  0.513500  1
  O  O67  1  0.513500  0.623766  0.710304  1
  O  O68  1  0.086538  0.876234  0.389734  1
  O  O69  1  0.389734  0.086538  0.876234  1
  O  O70  1  0.110266  0.986500  0.696804  1
  O  O71  1  0.623766  0.413462  0.110266  1
  O  O72  1  0.513500  0.389734  0.803196  1
  O  O73  1  0.876234  0.986500  0.789696  1
  O  O74  1  0.413462  0.110266  0.623766  1
  O  O75  1  0.803196  0.513500  0.389734  1
  O  O76  1  0.986500  0.789696  0.876234  1
  O  O77  1  0.086538  0.710304  0.696804  1
  O  O78  1  0.696804  0.086538  0.710304  1
  O  O79  1  0.486500  0.376234  0.289696  1
