# generated using pymatgen
data_AlBiSe4
_symmetry_space_group_name_H-M   'P 1'
_cell_length_a   7.35163195
_cell_length_b   7.34511336
_cell_length_c   12.27678078
_cell_angle_alpha   89.95898893
_cell_angle_beta   90.01393669
_cell_angle_gamma   89.98327974
_symmetry_Int_Tables_number   1
_chemical_formula_structural   AlBiSe4
_chemical_formula_sum   'Al4 Bi4 Se16'
_cell_volume   662.92838922
_cell_formula_units_Z   4
loop_
 _symmetry_equiv_pos_site_id
 _symmetry_equiv_pos_as_xyz
  1  'x, y, z'
loop_
 _atom_site_type_symbol
 _atom_site_label
 _atom_site_symmetry_multiplicity
 _atom_site_fract_x
 _atom_site_fract_y
 _atom_site_fract_z
 _atom_site_occupancy
  Al  Al0  1  0.249697  0.750080  0.250008  1
  Al  Al1  1  0.750155  0.249970  0.500231  1
  Al  Al2  1  0.750166  0.249911  0.999799  1
  Al  Al3  1  0.249755  0.750116  0.749943  1
  Bi  Bi4  1  0.250386  0.250188  0.047127  1
  Bi  Bi5  1  0.749532  0.749922  0.952844  1
  Bi  Bi6  1  0.749572  0.749840  0.547014  1
  Bi  Bi7  1  0.250361  0.250075  0.453114  1
  Se  Se8  1  0.564233  0.475446  0.100231  1
  Se  Se9  1  0.524606  0.436054  0.600885  1
  Se  Se10  1  0.029714  0.540037  0.664099  1
  Se  Se11  1  0.936703  0.023990  0.099837  1
  Se  Se12  1  0.524339  0.063953  0.899391  1
  Se  Se13  1  0.458918  0.530019  0.336572  1
  Se  Se14  1  0.564085  0.024732  0.399583  1
  Se  Se15  1  0.040559  0.529696  0.163821  1
  Se  Se16  1  0.040708  0.970633  0.336237  1
  Se  Se17  1  0.975761  0.436708  0.899386  1
  Se  Se18  1  0.459430  0.969940  0.163710  1
  Se  Se19  1  0.975791  0.062912  0.600721  1
  Se  Se20  1  0.469949  0.959495  0.663792  1
  Se  Se21  1  0.029424  0.960311  0.835647  1
  Se  Se22  1  0.469869  0.540358  0.836090  1
  Se  Se23  1  0.936285  0.475614  0.399915  1
