# generated using pymatgen
data_YTa(WO4)2
_symmetry_space_group_name_H-M   'P 1'
_cell_length_a   5.11245382
_cell_length_b   6.17543273
_cell_length_c   6.49813302
_cell_angle_alpha   103.11204281
_cell_angle_beta   123.78560948
_cell_angle_gamma   89.17343447
_symmetry_Int_Tables_number   1
_chemical_formula_structural   YTa(WO4)2
_chemical_formula_sum   'Y1 Ta1 W2 O8'
_cell_volume   164.47559444
_cell_formula_units_Z   1
loop_
 _symmetry_equiv_pos_site_id
 _symmetry_equiv_pos_as_xyz
  1  'x, y, z'
loop_
 _atom_site_type_symbol
 _atom_site_label
 _atom_site_symmetry_multiplicity
 _atom_site_fract_x
 _atom_site_fract_y
 _atom_site_fract_z
 _atom_site_occupancy
  Y  Y0  1  0.632348  0.700650  0.087740  1
  Ta  Ta1  1  0.133732  0.209246  0.103253  1
  W  W2  1  0.858605  0.388037  0.586724  1
  W  W3  1  0.390355  0.072280  0.618917  1
  O  O4  1  0.129672  0.659347  0.804692  1
  O  O5  1  0.489168  0.469050  0.267668  1
  O  O6  1  0.146201  0.168370  0.796379  1
  O  O7  1  0.495658  0.057124  0.323160  1
  O  O8  1  0.757875  0.973631  0.927866  1
  O  O9  1  0.113322  0.803408  0.403258  1
  O  O10  1  0.098490  0.290127  0.401371  1
  O  O11  1  0.750570  0.387225  0.875069  1
