# generated using pymatgen
data_Pr(BiO3)2
_symmetry_space_group_name_H-M   'P 1'
_cell_length_a   5.79456306
_cell_length_b   6.12626776
_cell_length_c   8.37413199
_cell_angle_alpha   90.01217822
_cell_angle_beta   90.00081046
_cell_angle_gamma   90.05728571
_symmetry_Int_Tables_number   1
_chemical_formula_structural   Pr(BiO3)2
_chemical_formula_sum   'Pr2 Bi4 O12'
_cell_volume   297.27353196
_cell_formula_units_Z   2
loop_
 _symmetry_equiv_pos_site_id
 _symmetry_equiv_pos_as_xyz
  1  'x, y, z'
loop_
 _atom_site_type_symbol
 _atom_site_label
 _atom_site_symmetry_multiplicity
 _atom_site_fract_x
 _atom_site_fract_y
 _atom_site_fract_z
 _atom_site_occupancy
  Pr  Pr0  1  0.025417  0.925099  0.750024  1
  Pr  Pr1  1  0.525371  0.574788  0.249938  1
  Bi  Bi2  1  0.007008  0.484493  0.999434  1
  Bi  Bi3  1  0.007027  0.484522  0.500551  1
  Bi  Bi4  1  0.506877  0.015446  0.499466  1
  Bi  Bi5  1  0.506873  0.015444  0.000524  1
  O  O6  1  0.127092  0.480956  0.250052  1
  O  O7  1  0.187851  0.186402  0.937818  1
  O  O8  1  0.187854  0.186387  0.562145  1
  O  O9  1  0.273950  0.732158  0.547318  1
  O  O10  1  0.273941  0.732162  0.952811  1
  O  O11  1  0.420500  0.959726  0.250086  1
  O  O12  1  0.627334  0.019259  0.749901  1
  O  O13  1  0.687813  0.313648  0.062281  1
  O  O14  1  0.687783  0.313657  0.437703  1
  O  O15  1  0.773961  0.767824  0.047113  1
  O  O16  1  0.773979  0.767890  0.452904  1
  O  O17  1  0.920240  0.540142  0.749931  1
