# generated using pymatgen
data_Si2Sb2Mo13O28
_symmetry_space_group_name_H-M   'P 1'
_cell_length_a   5.97141698
_cell_length_b   9.01730007
_cell_length_c   12.54126815
_cell_angle_alpha   86.63469660
_cell_angle_beta   76.18474021
_cell_angle_gamma   75.58486013
_symmetry_Int_Tables_number   1
_chemical_formula_structural   Si2Sb2Mo13O28
_chemical_formula_sum   'Si2 Sb2 Mo13 O28'
_cell_volume   635.11669645
_cell_formula_units_Z   1
loop_
 _symmetry_equiv_pos_site_id
 _symmetry_equiv_pos_as_xyz
  1  'x, y, z'
loop_
 _atom_site_type_symbol
 _atom_site_label
 _atom_site_symmetry_multiplicity
 _atom_site_fract_x
 _atom_site_fract_y
 _atom_site_fract_z
 _atom_site_occupancy
  Si  Si0  1  0.205572  0.313298  0.000260  1
  Si  Si1  1  0.795299  0.684998  0.000128  1
  Sb  Sb2  1  0.848001  0.999918  0.307410  1
  Sb  Sb3  1  0.154362  0.998676  0.692798  1
  Mo  Mo4  1  0.897072  0.623577  0.699357  1
  Mo  Mo5  1  0.619962  0.350042  0.149269  1
  Mo  Mo6  1  0.403726  0.374640  0.699606  1
  Mo  Mo7  1  0.103141  0.374657  0.300914  1
  Mo  Mo8  1  0.379306  0.647604  0.852073  1
  Mo  Mo9  1  0.286651  0.999465  0.429260  1
  Mo  Mo10  1  0.231298  0.648139  0.148764  1
  Mo  Mo11  1  0.000799  0.999193  0.999841  1
  Mo  Mo12  1  0.427705  0.998981  0.145989  1
  Mo  Mo13  1  0.769796  0.350939  0.852682  1
  Mo  Mo14  1  0.596659  0.624063  0.300730  1
  Mo  Mo15  1  0.573865  0.999233  0.853853  1
  Mo  Mo16  1  0.715346  0.999458  0.570903  1
  O  O17  1  0.773872  0.391127  0.269424  1
  O  O18  1  0.140163  0.372451  0.431568  1
  O  O19  1  0.922585  0.349468  0.000745  1
  O  O20  1  0.292314  0.120205  0.999914  1
  O  O21  1  0.859088  0.625495  0.568881  1
  O  O22  1  0.226173  0.607372  0.731313  1
  O  O23  1  0.008283  0.100861  0.570472  1
  O  O24  1  0.993745  0.898090  0.429973  1
  O  O25  1  0.709484  0.878117  0.999584  1
  O  O26  1  0.169159  0.883462  0.127769  1
  O  O27  1  0.265871  0.373210  0.108924  1
  O  O28  1  0.957840  0.607476  0.269763  1
  O  O29  1  0.423646  0.897696  0.569817  1
  O  O30  1  0.704054  0.114684  0.128009  1
  O  O31  1  0.626219  0.625861  0.109109  1
  O  O32  1  0.077950  0.648562  0.000297  1
  O  O33  1  0.297621  0.883179  0.871908  1
  O  O34  1  0.832408  0.115227  0.871770  1
  O  O35  1  0.578628  0.101344  0.430145  1
  O  O36  1  0.177792  0.130745  0.282422  1
  O  O37  1  0.822982  0.867374  0.717547  1
  O  O38  1  0.373961  0.373641  0.891393  1
  O  O39  1  0.461084  0.130871  0.717812  1
  O  O40  1  0.571454  0.372729  0.568917  1
  O  O41  1  0.735215  0.623965  0.891627  1
  O  O42  1  0.539477  0.867559  0.282307  1
  O  O43  1  0.042849  0.390611  0.730959  1
  O  O44  1  0.428549  0.625665  0.431304  1
