# generated using pymatgen
data_CaFe(PO3)4
_symmetry_space_group_name_H-M   'P 1'
_cell_length_a   7.60477494
_cell_length_b   7.59766691
_cell_length_c   10.11556755
_cell_angle_alpha   98.47061087
_cell_angle_beta   110.87387561
_cell_angle_gamma   109.30032538
_symmetry_Int_Tables_number   1
_chemical_formula_structural   CaFe(PO3)4
_chemical_formula_sum   'Ca2 Fe2 P8 O24'
_cell_volume   491.57648744
_cell_formula_units_Z   2
loop_
 _symmetry_equiv_pos_site_id
 _symmetry_equiv_pos_as_xyz
  1  'x, y, z'
loop_
 _atom_site_type_symbol
 _atom_site_label
 _atom_site_symmetry_multiplicity
 _atom_site_fract_x
 _atom_site_fract_y
 _atom_site_fract_z
 _atom_site_occupancy
  Ca  Ca0  1  0.704499  0.953206  0.750219  1
  Ca  Ca1  1  0.297164  0.046537  0.249797  1
  Fe  Fe2  1  0.499995  0.499245  0.500162  1
  Fe  Fe3  1  0.500444  0.999285  0.999842  1
  P  P4  1  0.502799  0.319012  0.805484  1
  P  P5  1  0.014727  0.696968  0.694319  1
  P  P6  1  0.497871  0.680162  0.195026  1
  P  P7  1  0.986302  0.302728  0.304853  1
  P  P8  1  0.753229  0.718329  0.025045  1
  P  P9  1  0.195136  0.728479  0.475520  1
  P  P10  1  0.248643  0.280700  0.975976  1
  P  P11  1  0.806418  0.271235  0.524224  1
  O  O12  1  0.314668  0.320455  0.843926  1
  O  O13  1  0.978066  0.470321  0.655568  1
  O  O14  1  0.686062  0.678909  0.156645  1
  O  O15  1  0.023764  0.529636  0.343694  1
  O  O16  1  0.702642  0.501310  0.935080  1
  O  O17  1  0.068197  0.768134  0.565323  1
  O  O18  1  0.297985  0.497431  0.065642  1
  O  O19  1  0.932392  0.231463  0.433672  1
  O  O20  1  0.464054  0.352978  0.658338  1
  O  O21  1  0.195398  0.805316  0.841786  1
  O  O22  1  0.536705  0.646468  0.342251  1
  O  O23  1  0.805746  0.194506  0.157340  1
  O  O24  1  0.536639  0.137757  0.827526  1
  O  O25  1  0.811228  0.708220  0.671808  1
  O  O26  1  0.463880  0.861225  0.172488  1
  O  O27  1  0.189693  0.291023  0.327598  1
  O  O28  1  0.619207  0.801434  0.927253  1
  O  O29  1  0.375537  0.691574  0.573176  1
  O  O30  1  0.384381  0.198979  0.073782  1
  O  O31  1  0.625436  0.307759  0.427048  1
  O  O32  1  0.979937  0.829165  0.089644  1
  O  O33  1  0.242019  0.891022  0.411297  1
  O  O34  1  0.022243  0.168060  0.912025  1
  O  O35  1  0.760864  0.109204  0.589144  1
