# generated using pymatgen
data_Zn(SnO2)2
_symmetry_space_group_name_H-M   'P 1'
_cell_length_a   6.57258376
_cell_length_b   6.57258416
_cell_length_c   6.57918989
_cell_angle_alpha   119.96679092
_cell_angle_beta   119.96679571
_cell_angle_gamma   89.99999861
_symmetry_Int_Tables_number   1
_chemical_formula_structural   Zn(SnO2)2
_chemical_formula_sum   'Zn2 Sn4 O8'
_cell_volume   201.17086921
_cell_formula_units_Z   2
loop_
 _symmetry_equiv_pos_site_id
 _symmetry_equiv_pos_as_xyz
  1  'x, y, z'
loop_
 _atom_site_type_symbol
 _atom_site_label
 _atom_site_symmetry_multiplicity
 _atom_site_fract_x
 _atom_site_fract_y
 _atom_site_fract_z
 _atom_site_occupancy
  Zn  Zn0  1  0.375000  0.625000  0.750000  1
  Zn  Zn1  1  0.625000  0.375000  0.250000  1
  Sn  Sn2  1  -0.000000  -0.000000  0.500000  1
  Sn  Sn3  1  -0.000000  0.500000  -0.000000  1
  Sn  Sn4  1  0.500000  -0.000000  0.500000  1
  Sn  Sn5  1  -0.000000  -0.000000  -0.000000  1
  O  O6  1  0.755140  0.763953  0.510280  1
  O  O7  1  0.753675  0.244860  0.989720  1
  O  O8  1  0.236047  0.244860  0.989720  1
  O  O9  1  0.244860  0.236047  0.489720  1
  O  O10  1  0.244860  0.753675  0.489720  1
  O  O11  1  0.246325  0.755140  0.010280  1
  O  O12  1  0.755140  0.246325  0.510280  1
  O  O13  1  0.763953  0.755140  0.010280  1
