# generated using pymatgen
data_Sr2YAlCo2O7
_symmetry_space_group_name_H-M   'P 1'
_cell_length_a   11.77185690
_cell_length_b   11.77179471
_cell_length_c   11.77179471
_cell_angle_alpha   39.56452587
_cell_angle_beta   151.82784446
_cell_angle_gamma   152.79361106
_symmetry_Int_Tables_number   1
_chemical_formula_structural   Sr2YAlCo2O7
_chemical_formula_sum   'Sr4 Y2 Al2 Co4 O14'
_cell_volume   351.46937669
_cell_formula_units_Z   2
loop_
 _symmetry_equiv_pos_site_id
 _symmetry_equiv_pos_as_xyz
  1  'x, y, z'
loop_
 _atom_site_type_symbol
 _atom_site_label
 _atom_site_symmetry_multiplicity
 _atom_site_fract_x
 _atom_site_fract_y
 _atom_site_fract_z
 _atom_site_occupancy
  Sr  Sr0  1  0.036220  0.855151  0.873877  1
  Sr  Sr1  1  0.981324  0.162379  0.126138  1
  Sr  Sr2  1  0.036220  0.662344  0.681070  1
  Sr  Sr3  1  0.981324  0.355185  0.318945  1
  Y  Y4  1  0.017576  0.517584  0.499995  1
  Y  Y5  1  0.017576  0.017582  0.999992  1
  Al  Al6  1  0.566538  0.737982  0.328555  1
  Al  Al7  1  0.409425  0.237973  0.671452  1
  Co  Co8  1  0.513390  0.436384  0.912587  1
  Co  Co9  1  0.523811  0.600808  0.087391  1
  Co  Co10  1  0.513390  0.100803  0.577007  1
  Co  Co11  1  0.523811  0.936421  0.423002  1
  O  O12  1  0.011246  0.922423  0.588825  1
  O  O13  1  0.333602  0.422420  0.411181  1
  O  O14  1  0.464947  0.180830  0.154542  1
  O  O15  1  0.026275  0.310409  0.845447  1
  O  O16  1  0.464947  0.810408  0.784119  1
  O  O17  1  0.026275  0.680827  0.215867  1
  O  O18  1  0.587865  0.735352  0.714451  1
  O  O19  1  0.020914  0.873427  0.285555  1
  O  O20  1  0.587865  0.373414  0.352513  1
  O  O21  1  0.020914  0.235359  0.647487  1
  O  O22  1  0.485627  0.863574  0.261945  1
  O  O23  1  0.601644  0.223694  0.738059  1
  O  O24  1  0.485627  0.723681  0.122053  1
  O  O25  1  0.601644  0.363584  0.877948  1
