# generated using pymatgen
data_ZnCr2O5
_symmetry_space_group_name_H-M   'P 1'
_cell_length_a   3.43097702
_cell_length_b   4.82692410
_cell_length_c   11.71170199
_cell_angle_alpha   89.98289305
_cell_angle_beta   90.00071366
_cell_angle_gamma   89.99368653
_symmetry_Int_Tables_number   1
_chemical_formula_structural   ZnCr2O5
_chemical_formula_sum   'Zn2 Cr4 O10'
_cell_volume   193.95825565
_cell_formula_units_Z   2
loop_
 _symmetry_equiv_pos_site_id
 _symmetry_equiv_pos_as_xyz
  1  'x, y, z'
loop_
 _atom_site_type_symbol
 _atom_site_label
 _atom_site_symmetry_multiplicity
 _atom_site_fract_x
 _atom_site_fract_y
 _atom_site_fract_z
 _atom_site_occupancy
  Zn  Zn0  1  0.749950  0.873414  0.250116  1
  Zn  Zn1  1  0.250050  0.126517  0.749970  1
  Cr  Cr2  1  0.250066  0.423151  0.100706  1
  Cr  Cr3  1  0.750019  0.577046  0.899220  1
  Cr  Cr4  1  0.749968  0.576935  0.600676  1
  Cr  Cr5  1  0.249990  0.423128  0.399333  1
  O  O6  1  0.750048  0.405969  0.749980  1
  O  O7  1  0.249955  0.594010  0.250008  1
  O  O8  1  0.749980  0.572951  0.071609  1
  O  O9  1  0.250004  0.426980  0.928345  1
  O  O10  1  0.749971  0.572897  0.428384  1
  O  O11  1  0.250008  0.427185  0.571735  1
  O  O12  1  0.250022  0.077499  0.356944  1
  O  O13  1  0.749959  0.922458  0.643009  1
  O  O14  1  0.749954  0.922116  0.856935  1
  O  O15  1  0.250045  0.077745  0.143030  1
