# generated using pymatgen
data_Ba2AlW3O8
_symmetry_space_group_name_H-M   'P 1'
_cell_length_a   3.97730266
_cell_length_b   3.97725485
_cell_length_c   12.71011786
_cell_angle_alpha   90.00005510
_cell_angle_beta   90.00003201
_cell_angle_gamma   89.99997090
_symmetry_Int_Tables_number   1
_chemical_formula_structural   Ba2AlW3O8
_chemical_formula_sum   'Ba2 Al1 W3 O8'
_cell_volume   201.05812980
_cell_formula_units_Z   1
loop_
 _symmetry_equiv_pos_site_id
 _symmetry_equiv_pos_as_xyz
  1  'x, y, z'
loop_
 _atom_site_type_symbol
 _atom_site_label
 _atom_site_symmetry_multiplicity
 _atom_site_fract_x
 _atom_site_fract_y
 _atom_site_fract_z
 _atom_site_occupancy
  Ba  Ba0  1  0.499999  0.500003  0.189986  1
  Ba  Ba1  1  0.499999  0.499998  0.810097  1
  Al  Al2  1  0.500000  0.499999  0.500106  1
  W  W3  1  0.000000  0.000000  0.398550  1
  W  W4  1  1.000000  1.000000  0.999721  1
  W  W5  1  1.000000  1.000000  0.601870  1
  O  O6  1  0.000002  0.500000  0.349585  1
  O  O7  1  0.499999  0.000001  0.349589  1
  O  O8  1  0.500001  0.000000  0.999751  1
  O  O9  1  0.999999  0.000001  0.152776  1
  O  O10  1  0.000001  0.500000  0.650682  1
  O  O11  1  0.500000  0.000000  0.650679  1
  O  O12  1  0.000000  0.999999  0.846861  1
  O  O13  1  0.000000  0.500000  0.999750  1
