# generated using pymatgen
data_Y(CoS2)2
_symmetry_space_group_name_H-M   'P 1'
_cell_length_a   7.08067000
_cell_length_b   7.08067051
_cell_length_c   7.21388521
_cell_angle_alpha   119.39099419
_cell_angle_beta   119.39099371
_cell_angle_gamma   89.99999625
_symmetry_Int_Tables_number   1
_chemical_formula_structural   Y(CoS2)2
_chemical_formula_sum   'Y2 Co4 S8'
_cell_volume   260.37954315
_cell_formula_units_Z   2
loop_
 _symmetry_equiv_pos_site_id
 _symmetry_equiv_pos_as_xyz
  1  'x, y, z'
loop_
 _atom_site_type_symbol
 _atom_site_label
 _atom_site_symmetry_multiplicity
 _atom_site_fract_x
 _atom_site_fract_y
 _atom_site_fract_z
 _atom_site_occupancy
  Y  Y0  1  0.375001  0.625001  0.750000  1
  Y  Y1  1  0.624999  0.375000  0.250000  1
  Co  Co2  1  0.000000  0.500001  0.000001  1
  Co  Co3  1  0.000001  0.000000  0.500000  1
  Co  Co4  1  0.500001  0.000000  0.500000  1
  Co  Co5  1  0.000000  0.000000  0.000000  1
  S  S6  1  0.775501  0.816102  0.551002  1
  S  S7  1  0.765101  0.224500  0.949000  1
  S  S8  1  0.183899  0.224500  0.948999  1
  S  S9  1  0.224499  0.183898  0.448999  1
  S  S10  1  0.224498  0.765100  0.448998  1
  S  S11  1  0.234899  0.775501  0.051002  1
  S  S12  1  0.775501  0.234899  0.551001  1
  S  S13  1  0.816101  0.775501  0.051001  1
