# generated using pymatgen
data_Sr3Co2Cu2S2O5
_symmetry_space_group_name_H-M   'P 1'
_cell_length_a   3.92860624
_cell_length_b   3.92860624
_cell_length_c   13.88034025
_cell_angle_alpha   98.13563388
_cell_angle_beta   98.13563388
_cell_angle_gamma   90.00000000
_symmetry_Int_Tables_number   1
_chemical_formula_structural   Sr3Co2Cu2S2O5
_chemical_formula_sum   'Sr3 Co2 Cu2 S2 O5'
_cell_volume   209.89422970
_cell_formula_units_Z   1
loop_
 _symmetry_equiv_pos_site_id
 _symmetry_equiv_pos_as_xyz
  1  'x, y, z'
loop_
 _atom_site_type_symbol
 _atom_site_label
 _atom_site_symmetry_multiplicity
 _atom_site_fract_x
 _atom_site_fract_y
 _atom_site_fract_z
 _atom_site_occupancy
  Sr  Sr0  1  0.500000  0.500000  -0.000000  1
  Sr  Sr1  1  0.636920  0.636920  0.273840  1
  Sr  Sr2  1  0.363080  0.363080  0.726160  1
  Co  Co3  1  0.070508  0.070508  0.141014  1
  Co  Co4  1  0.929492  0.929492  0.858986  1
  Cu  Cu5  1  0.250000  0.750000  0.500000  1
  Cu  Cu6  1  0.750000  0.250000  0.500000  1
  S  S7  1  0.199530  0.199530  0.399060  1
  S  S8  1  0.800470  0.800470  0.600940  1
  O  O9  1  0.081179  0.581179  0.162359  1
  O  O10  1  0.581179  0.081179  0.162359  1
  O  O11  1  0.918821  0.418821  0.837641  1
  O  O12  1  0.418821  0.918821  0.837641  1
  O  O13  1  -0.000000  -0.000000  -0.000000  1
