# generated using pymatgen
data_Ca2SnWO6
_symmetry_space_group_name_H-M   'P 1'
_cell_length_a   5.69962359
_cell_length_b   5.70524783
_cell_length_c   8.12607664
_cell_angle_alpha   90.79899885
_cell_angle_beta   135.15261893
_cell_angle_gamma   119.46467870
_symmetry_Int_Tables_number   1
_chemical_formula_structural   Ca2SnWO6
_chemical_formula_sum   'Ca2 Sn1 W1 O6'
_cell_volume   130.91654770
_cell_formula_units_Z   1
loop_
 _symmetry_equiv_pos_site_id
 _symmetry_equiv_pos_as_xyz
  1  'x, y, z'
loop_
 _atom_site_type_symbol
 _atom_site_label
 _atom_site_symmetry_multiplicity
 _atom_site_fract_x
 _atom_site_fract_y
 _atom_site_fract_z
 _atom_site_occupancy
  Ca  Ca0  1  0.009637  0.531104  0.233562  1
  Ca  Ca1  1  0.010552  0.536572  0.732991  1
  Sn  Sn2  1  0.007626  0.990404  0.501408  1
  W  W3  1  0.007610  0.988403  0.002467  1
  O  O4  1  0.810151  0.866544  0.158918  1
  O  O5  1  0.206364  0.060036  0.848492  1
  O  O6  1  0.428305  0.480357  0.271813  1
  O  O7  1  0.408868  0.880502  0.662500  1
  O  O8  1  0.575110  0.056645  0.346164  1
  O  O9  1  0.619722  0.489446  0.767372  1
