# generated using pymatgen
data_SrCo(PO4)2
_symmetry_space_group_name_H-M   'P 1'
_cell_length_a   6.01721451
_cell_length_b   7.16816072
_cell_length_c   8.93814797
_cell_angle_alpha   109.59100387
_cell_angle_beta   102.80686285
_cell_angle_gamma   101.80885188
_symmetry_Int_Tables_number   1
_chemical_formula_structural   SrCo(PO4)2
_chemical_formula_sum   'Sr2 Co2 P4 O16'
_cell_volume   337.44523066
_cell_formula_units_Z   2
loop_
 _symmetry_equiv_pos_site_id
 _symmetry_equiv_pos_as_xyz
  1  'x, y, z'
loop_
 _atom_site_type_symbol
 _atom_site_label
 _atom_site_symmetry_multiplicity
 _atom_site_fract_x
 _atom_site_fract_y
 _atom_site_fract_z
 _atom_site_occupancy
  Sr  Sr0  1  0.254527  0.775140  0.043066  1
  Sr  Sr1  1  0.745473  0.224860  0.956934  1
  Co  Co2  1  0.698433  0.823622  0.547298  1
  Co  Co3  1  0.301567  0.176378  0.452702  1
  P  P4  1  0.403829  0.423046  0.232362  1
  P  P5  1  0.596171  0.576954  0.767638  1
  P  P6  1  0.848797  0.026937  0.306136  1
  P  P7  1  0.151203  0.973063  0.693864  1
  O  O8  1  0.819723  0.567630  0.884047  1
  O  O9  1  0.622193  0.451163  0.175964  1
  O  O10  1  0.651255  0.788210  0.741047  1
  O  O11  1  0.944225  0.080422  0.698495  1
  O  O12  1  0.377807  0.548837  0.824036  1
  O  O13  1  0.986991  0.749585  0.561444  1
  O  O14  1  0.013009  0.250415  0.438556  1
  O  O15  1  0.279453  0.988150  0.865890  1
  O  O16  1  0.348745  0.211790  0.258953  1
  O  O17  1  0.720547  0.011850  0.134110  1
  O  O18  1  0.180277  0.432370  0.115953  1
  O  O19  1  0.440175  0.603702  0.406343  1
  O  O20  1  0.559825  0.396298  0.593657  1
  O  O21  1  0.653920  0.932453  0.372812  1
  O  O22  1  0.055775  0.919578  0.301505  1
  O  O23  1  0.346080  0.067547  0.627188  1
