# generated using pymatgen
data_Mg(NiO2)2
_symmetry_space_group_name_H-M   'P 1'
_cell_length_a   4.97688075
_cell_length_b   5.67800632
_cell_length_c   10.11655568
_cell_angle_alpha   89.81358365
_cell_angle_beta   89.83145469
_cell_angle_gamma   90.01736062
_symmetry_Int_Tables_number   1
_chemical_formula_structural   Mg(NiO2)2
_chemical_formula_sum   'Mg4 Ni8 O16'
_cell_volume   285.87855859
_cell_formula_units_Z   4
loop_
 _symmetry_equiv_pos_site_id
 _symmetry_equiv_pos_as_xyz
  1  'x, y, z'
loop_
 _atom_site_type_symbol
 _atom_site_label
 _atom_site_symmetry_multiplicity
 _atom_site_fract_x
 _atom_site_fract_y
 _atom_site_fract_z
 _atom_site_occupancy
  Mg  Mg0  1  0.836444  0.249966  0.750190  1
  Mg  Mg1  1  0.163672  0.750175  0.249747  1
  Mg  Mg2  1  0.510786  0.250009  0.250363  1
  Mg  Mg3  1  0.488541  0.750089  0.750009  1
  Ni  Ni4  1  0.511472  0.749889  0.487432  1
  Ni  Ni5  1  0.512149  0.750292  0.012638  1
  Ni  Ni6  1  0.488408  0.249860  0.512858  1
  Ni  Ni7  1  0.487881  0.250395  0.987700  1
  Ni  Ni8  1  0.999901  0.500038  0.499890  1
  Ni  Ni9  1  0.000522  0.999683  0.000045  1
  Ni  Ni10  1  0.999697  0.000071  0.500077  1
  Ni  Ni11  1  0.000225  0.499836  0.999742  1
  O  O12  1  0.861666  0.750415  0.397747  1
  O  O13  1  0.863169  0.749363  0.102292  1
  O  O14  1  0.137414  0.249858  0.602335  1
  O  O15  1  0.138947  0.249901  0.897731  1
  O  O16  1  0.197800  0.749871  0.598475  1
  O  O17  1  0.192912  0.749401  0.902901  1
  O  O18  1  0.802814  0.250109  0.401309  1
  O  O19  1  0.805565  0.250365  0.096539  1
  O  O20  1  0.670367  0.503604  0.615169  1
  O  O21  1  0.665265  0.997373  0.883719  1
  O  O22  1  0.331166  0.001296  0.384377  1
  O  O23  1  0.335522  0.497992  0.116714  1
  O  O24  1  0.328576  0.497059  0.384160  1
  O  O25  1  0.333118  0.004060  0.117138  1
  O  O26  1  0.669801  0.997991  0.616428  1
  O  O27  1  0.666197  0.501036  0.882274  1
