# generated using pymatgen
data_Si2NiO6
_symmetry_space_group_name_H-M   'P 1'
_cell_length_a   5.27547298
_cell_length_b   6.28144314
_cell_length_c   6.28144333
_cell_angle_alpha   83.90862747
_cell_angle_beta   75.02324812
_cell_angle_gamma   75.02325181
_symmetry_Int_Tables_number   1
_chemical_formula_structural   Si2NiO6
_chemical_formula_sum   'Si4 Ni2 O12'
_cell_volume   194.07794021
_cell_formula_units_Z   2
loop_
 _symmetry_equiv_pos_site_id
 _symmetry_equiv_pos_as_xyz
  1  'x, y, z'
loop_
 _atom_site_type_symbol
 _atom_site_label
 _atom_site_symmetry_multiplicity
 _atom_site_fract_x
 _atom_site_fract_y
 _atom_site_fract_z
 _atom_site_occupancy
  Si  Si0  1  0.259077  0.211400  0.396402  1
  Si  Si1  1  0.240926  0.603596  0.788599  1
  Si  Si2  1  0.759077  0.396402  0.211400  1
  Si  Si3  1  0.740927  0.788599  0.603596  1
  Ni  Ni4  1  0.250001  0.085782  0.914217  1
  Ni  Ni5  1  0.750001  0.914218  0.085781  1
  O  O6  1  0.483887  0.349604  0.371704  1
  O  O7  1  0.016115  0.628295  0.650397  1
  O  O8  1  0.516116  0.650397  0.628296  1
  O  O9  1  0.983886  0.371705  0.349603  1
  O  O10  1  0.193595  0.085633  0.635993  1
  O  O11  1  0.306399  0.364008  0.914373  1
  O  O12  1  0.806399  0.914374  0.364009  1
  O  O13  1  0.693594  0.635993  0.085634  1
  O  O14  1  0.867648  0.194921  0.025779  1
  O  O15  1  0.632350  0.974217  0.805079  1
  O  O16  1  0.367647  0.025779  0.194922  1
  O  O17  1  0.132351  0.805080  0.974217  1
