# generated using pymatgen
data_Zn(BiO3)2
_symmetry_space_group_name_H-M   'P 1'
_cell_length_a   5.56166433
_cell_length_b   5.61918258
_cell_length_c   8.03215210
_cell_angle_alpha   89.95731427
_cell_angle_beta   90.00513974
_cell_angle_gamma   90.01165605
_symmetry_Int_Tables_number   1
_chemical_formula_structural   Zn(BiO3)2
_chemical_formula_sum   'Zn2 Bi4 O12'
_cell_volume   251.02080056
_cell_formula_units_Z   2
loop_
 _symmetry_equiv_pos_site_id
 _symmetry_equiv_pos_as_xyz
  1  'x, y, z'
loop_
 _atom_site_type_symbol
 _atom_site_label
 _atom_site_symmetry_multiplicity
 _atom_site_fract_x
 _atom_site_fract_y
 _atom_site_fract_z
 _atom_site_occupancy
  Zn  Zn0  1  0.507278  0.553803  0.249937  1
  Zn  Zn1  1  0.007270  0.946250  0.749963  1
  Bi  Bi2  1  0.502083  0.003429  0.999558  1
  Bi  Bi3  1  0.002043  0.496600  0.000410  1
  Bi  Bi4  1  0.002302  0.496740  0.499511  1
  Bi  Bi5  1  0.502368  0.003389  0.500397  1
  O  O6  1  0.658635  0.337488  0.427947  1
  O  O7  1  0.158624  0.162493  0.572079  1
  O  O8  1  0.815010  0.806101  0.072542  1
  O  O9  1  0.315078  0.693835  0.927593  1
  O  O10  1  0.316342  0.692537  0.571669  1
  O  O11  1  0.816334  0.807421  0.428387  1
  O  O12  1  0.157938  0.162428  0.928269  1
  O  O13  1  0.657987  0.337524  0.071675  1
  O  O14  1  0.154608  0.443251  0.249962  1
  O  O15  1  0.654540  0.056723  0.750029  1
  O  O16  1  0.396833  0.904578  0.250036  1
  O  O17  1  0.896904  0.595470  0.749928  1
