# generated using pymatgen
data_ZnCo3(P2O7)2
_symmetry_space_group_name_H-M   'P 1'
_cell_length_a   7.23343108
_cell_length_b   7.57492864
_cell_length_c   9.57032123
_cell_angle_alpha   90.00000000
_cell_angle_beta   111.43115947
_cell_angle_gamma   90.00000000
_symmetry_Int_Tables_number   1
_chemical_formula_structural   ZnCo3(P2O7)2
_chemical_formula_sum   'Zn2 Co6 P8 O28'
_cell_volume   488.12661955
_cell_formula_units_Z   2
loop_
 _symmetry_equiv_pos_site_id
 _symmetry_equiv_pos_as_xyz
  1  'x, y, z'
loop_
 _atom_site_type_symbol
 _atom_site_label
 _atom_site_symmetry_multiplicity
 _atom_site_fract_x
 _atom_site_fract_y
 _atom_site_fract_z
 _atom_site_occupancy
  Zn  Zn0  1  0.500000  0.000000  -0.000000  1
  Zn  Zn1  1  0.500000  0.500000  0.500000  1
  Co  Co2  1  0.186250  0.868200  0.519084  1
  Co  Co3  1  0.813750  0.368200  0.980916  1
  Co  Co4  1  0.813750  0.131800  0.480916  1
  Co  Co5  1  0.186250  0.631800  0.019084  1
  Co  Co6  1  -0.000000  0.000000  -0.000000  1
  Co  Co7  1  -0.000000  0.500000  0.500000  1
  P  P8  1  0.582841  0.072361  0.704667  1
  P  P9  1  0.417159  0.572361  0.795333  1
  P  P10  1  0.417159  0.927639  0.295333  1
  P  P11  1  0.582841  0.427639  0.204667  1
  P  P12  1  0.865313  0.792299  0.687954  1
  P  P13  1  0.134687  0.292299  0.812046  1
  P  P14  1  0.134687  0.207701  0.312046  1
  P  P15  1  0.865313  0.707701  0.187954  1
  O  O16  1  0.804440  0.615716  0.602418  1
  O  O17  1  0.195560  0.115716  0.897582  1
  O  O18  1  0.195560  0.384284  0.397582  1
  O  O19  1  0.804440  0.884284  0.102418  1
  O  O20  1  0.297448  0.612795  0.624918  1
  O  O21  1  0.702552  0.112795  0.875082  1
  O  O22  1  0.702552  0.387205  0.375082  1
  O  O23  1  0.297448  0.887205  0.124918  1
  O  O24  1  0.623567  0.206924  0.600029  1
  O  O25  1  0.376433  0.706924  0.899971  1
  O  O26  1  0.376433  0.793076  0.399971  1
  O  O27  1  0.623567  0.293076  0.100029  1
  O  O28  1  0.660056  0.882980  0.671969  1
  O  O29  1  0.339944  0.382980  0.828031  1
  O  O30  1  0.339944  0.117020  0.328031  1
  O  O31  1  0.660056  0.617020  0.171969  1
  O  O32  1  0.369475  0.468686  0.182256  1
  O  O33  1  0.630525  0.968686  0.317744  1
  O  O34  1  0.630525  0.531314  0.817744  1
  O  O35  1  0.369475  0.031314  0.682256  1
  O  O36  1  0.020457  0.213726  0.141297  1
  O  O37  1  0.979543  0.713726  0.358703  1
  O  O38  1  0.979543  0.786274  0.858703  1
  O  O39  1  0.020457  0.286274  0.641297  1
  O  O40  1  0.967618  0.587390  0.109920  1
  O  O41  1  0.032382  0.087390  0.390080  1
  O  O42  1  0.032382  0.412610  0.890080  1
  O  O43  1  0.967618  0.912610  0.609920  1
