# generated using pymatgen
data_ZnFe4O9
_symmetry_space_group_name_H-M   'P 1'
_cell_length_a   5.15789584
_cell_length_b   8.42214071
_cell_length_c   8.44236438
_cell_angle_alpha   89.85286668
_cell_angle_beta   89.81734621
_cell_angle_gamma   89.79232986
_symmetry_Int_Tables_number   1
_chemical_formula_structural   ZnFe4O9
_chemical_formula_sum   'Zn2 Fe8 O18'
_cell_volume   366.73526627
_cell_formula_units_Z   2
loop_
 _symmetry_equiv_pos_site_id
 _symmetry_equiv_pos_as_xyz
  1  'x, y, z'
loop_
 _atom_site_type_symbol
 _atom_site_label
 _atom_site_symmetry_multiplicity
 _atom_site_fract_x
 _atom_site_fract_y
 _atom_site_fract_z
 _atom_site_occupancy
  Zn  Zn0  1  0.022957  0.250280  0.248686  1
  Zn  Zn1  1  0.980198  0.750617  0.750280  1
  Fe  Fe2  1  0.616034  0.533235  0.340280  1
  Fe  Fe3  1  0.382544  0.840873  0.468110  1
  Fe  Fe4  1  0.621194  0.339526  0.967342  1
  Fe  Fe5  1  0.384461  0.032960  0.839507  1
  Fe  Fe6  1  0.615513  0.967486  0.159574  1
  Fe  Fe7  1  0.615896  0.160030  0.531382  1
  Fe  Fe8  1  0.382773  0.466529  0.660509  1
  Fe  Fe9  1  0.381572  0.659820  0.032141  1
  O  O10  1  0.499814  0.750834  0.249933  1
  O  O11  1  0.497849  0.249467  0.749206  1
  O  O12  1  0.040930  0.680427  0.968065  1
  O  O13  1  0.042841  0.531644  0.684084  1
  O  O14  1  0.044478  0.968844  0.817029  1
  O  O15  1  0.042426  0.821780  0.533050  1
  O  O16  1  0.961951  0.314166  0.028918  1
  O  O17  1  0.955646  0.465708  0.324056  1
  O  O18  1  0.955756  0.032179  0.181637  1
  O  O19  1  0.956116  0.183653  0.467181  1
  O  O20  1  0.463581  0.039945  0.355710  1
  O  O21  1  0.465190  0.143566  0.037911  1
  O  O22  1  0.462135  0.357120  0.461432  1
  O  O23  1  0.469208  0.461252  0.144489  1
  O  O24  1  0.531004  0.537441  0.856062  1
  O  O25  1  0.536661  0.856265  0.960801  1
  O  O26  1  0.534953  0.643513  0.538980  1
  O  O27  1  0.536326  0.960839  0.643643  1
