# generated using pymatgen
data_Ca2MoO5
_symmetry_space_group_name_H-M   'P 1'
_cell_length_a   5.69772819
_cell_length_b   5.15136363
_cell_length_c   8.95131104
_cell_angle_alpha   106.72271788
_cell_angle_beta   108.51722024
_cell_angle_gamma   90.00166344
_symmetry_Int_Tables_number   1
_chemical_formula_structural   Ca2MoO5
_chemical_formula_sum   'Ca4 Mo2 O10'
_cell_volume   237.38065986
_cell_formula_units_Z   2
loop_
 _symmetry_equiv_pos_site_id
 _symmetry_equiv_pos_as_xyz
  1  'x, y, z'
loop_
 _atom_site_type_symbol
 _atom_site_label
 _atom_site_symmetry_multiplicity
 _atom_site_fract_x
 _atom_site_fract_y
 _atom_site_fract_z
 _atom_site_occupancy
  Ca  Ca0  1  0.202435  0.581967  0.306444  1
  Ca  Ca1  1  0.395276  0.774943  0.692878  1
  Ca  Ca2  1  0.895272  0.417657  0.692877  1
  Ca  Ca3  1  0.702427  0.224246  0.306439  1
  Mo  Mo4  1  0.531957  0.500005  0.000039  1
  Mo  Mo5  1  0.031983  0.999752  0.000041  1
  O  O6  1  0.539488  0.478447  0.499732  1
  O  O7  1  0.039492  0.520992  0.499719  1
  O  O8  1  0.540442  0.746345  0.197431  1
  O  O9  1  0.343333  0.252688  0.801931  1
  O  O10  1  0.040401  0.950802  0.197440  1
  O  O11  1  0.843329  0.048857  0.801886  1
  O  O12  1  0.211364  0.729001  0.907392  1
  O  O13  1  0.303969  0.269745  0.092034  1
  O  O14  1  0.803992  0.321981  0.092005  1
  O  O15  1  0.711375  0.678085  0.907382  1
