# generated using pymatgen
data_CaCr2F12
_symmetry_space_group_name_H-M   'P 1'
_cell_length_a   11.42009928
_cell_length_b   5.64981007
_cell_length_c   5.71143706
_cell_angle_alpha   57.73360763
_cell_angle_beta   57.61424858
_cell_angle_gamma   57.18857758
_symmetry_Int_Tables_number   1
_chemical_formula_structural   CaCr2F12
_chemical_formula_sum   'Ca1 Cr2 F12'
_cell_volume   245.65354941
_cell_formula_units_Z   1
loop_
 _symmetry_equiv_pos_site_id
 _symmetry_equiv_pos_as_xyz
  1  'x, y, z'
loop_
 _atom_site_type_symbol
 _atom_site_label
 _atom_site_symmetry_multiplicity
 _atom_site_fract_x
 _atom_site_fract_y
 _atom_site_fract_z
 _atom_site_occupancy
  Ca  Ca0  1  0.750000  0.500000  0.500000  1
  Cr  Cr1  1  0.010181  0.988813  0.996014  1
  Cr  Cr2  1  0.489819  0.011187  0.003986  1
  F  F3  1  0.155867  0.125683  0.783097  1
  F  F4  1  0.656889  0.125267  0.782637  1
  F  F5  1  0.059184  0.788732  0.311818  1
  F  F6  1  0.561840  0.782719  0.313170  1
  F  F7  1  0.107371  0.684124  0.875396  1
  F  F8  1  0.609073  0.683168  0.876906  1
  F  F9  1  0.440816  0.211268  0.688182  1
  F  F10  1  0.938160  0.217281  0.686830  1
  F  F11  1  0.344133  0.874317  0.216903  1
  F  F12  1  0.843111  0.874733  0.217363  1
  F  F13  1  0.392629  0.315876  0.124604  1
  F  F14  1  0.890927  0.316832  0.123094  1
