# generated using pymatgen
data_Ca2Ta2MnO8
_symmetry_space_group_name_H-M   'P 1'
_cell_length_a   5.47270235
_cell_length_b   6.47352028
_cell_length_c   10.16626087
_cell_angle_alpha   108.62242322
_cell_angle_beta   91.86947287
_cell_angle_gamma   90.00285380
_symmetry_Int_Tables_number   1
_chemical_formula_structural   Ca2Ta2MnO8
_chemical_formula_sum   'Ca4 Ta4 Mn2 O16'
_cell_volume   341.10716445
_cell_formula_units_Z   2
loop_
 _symmetry_equiv_pos_site_id
 _symmetry_equiv_pos_as_xyz
  1  'x, y, z'
loop_
 _atom_site_type_symbol
 _atom_site_label
 _atom_site_symmetry_multiplicity
 _atom_site_fract_x
 _atom_site_fract_y
 _atom_site_fract_z
 _atom_site_occupancy
  Ca  Ca0  1  0.755269  0.449226  0.576607  1
  Ca  Ca1  1  0.743518  0.873085  0.422458  1
  Ca  Ca2  1  0.243764  0.550365  0.425254  1
  Ca  Ca3  1  0.254972  0.125348  0.576942  1
  Ta  Ta4  1  0.742006  0.259298  0.228280  1
  Ta  Ta5  1  0.757003  0.030386  0.771916  1
  Ta  Ta6  1  0.256969  0.740120  0.772908  1
  Ta  Ta7  1  0.241864  0.968567  0.228274  1
  Mn  Mn8  1  0.749624  0.645871  0.000242  1
  Mn  Mn9  1  0.249384  0.352445  0.000296  1
  O  O10  1  0.070689  0.187182  0.143065  1
  O  O11  1  0.428127  0.044408  0.857334  1
  O  O12  1  0.928076  0.812159  0.857543  1
  O  O13  1  0.570987  0.954972  0.143521  1
  O  O14  1  0.585845  0.407129  0.118011  1
  O  O15  1  0.913392  0.288823  0.882241  1
  O  O16  1  0.413449  0.592473  0.883146  1
  O  O17  1  0.085248  0.710406  0.117927  1
  O  O18  1  0.476566  0.252828  0.364151  1
  O  O19  1  0.022345  0.887466  0.636297  1
  O  O20  1  0.341767  0.847143  0.372688  1
  O  O21  1  0.156419  0.474229  0.628510  1
  O  O22  1  0.656741  0.150837  0.627168  1
  O  O23  1  0.842640  0.524689  0.372997  1
  O  O24  1  0.976824  0.111384  0.364198  1
  O  O25  1  0.522029  0.746192  0.636811  1
