# generated using pymatgen
data_LaFeBiO6
_symmetry_space_group_name_H-M   'P 1'
_cell_length_a   5.95663264
_cell_length_b   5.62563012
_cell_length_c   7.98653945
_cell_angle_alpha   90.37702596
_cell_angle_beta   90.00000000
_cell_angle_gamma   90.00000000
_symmetry_Int_Tables_number   1
_chemical_formula_structural   LaFeBiO6
_chemical_formula_sum   'La2 Fe2 Bi2 O12'
_cell_volume   267.62164145
_cell_formula_units_Z   2
loop_
 _symmetry_equiv_pos_site_id
 _symmetry_equiv_pos_as_xyz
  1  'x, y, z'
loop_
 _atom_site_type_symbol
 _atom_site_label
 _atom_site_symmetry_multiplicity
 _atom_site_fract_x
 _atom_site_fract_y
 _atom_site_fract_z
 _atom_site_occupancy
  La  La0  1  0.073415  0.984818  0.250615  1
  La  La1  1  0.426585  0.484818  0.750615  1
  Fe  Fe2  1  0.524465  0.993555  0.000299  1
  Fe  Fe3  1  0.975535  0.493555  0.500299  1
  Bi  Bi4  1  0.532826  0.992813  0.499668  1
  Bi  Bi5  1  0.967174  0.492813  0.999668  1
  O  O6  1  0.025333  0.564330  0.739898  1
  O  O7  1  0.220716  0.217314  0.970427  1
  O  O8  1  0.228025  0.226456  0.525194  1
  O  O9  1  0.271975  0.726456  0.025194  1
  O  O10  1  0.279284  0.717314  0.470427  1
  O  O11  1  0.474667  0.064330  0.239898  1
  O  O12  1  0.511440  0.901515  0.759757  1
  O  O13  1  0.704856  0.312807  0.554663  1
  O  O14  1  0.675926  0.295993  0.949667  1
  O  O15  1  0.824074  0.795993  0.449667  1
  O  O16  1  0.795144  0.812807  0.054663  1
  O  O17  1  0.988560  0.401515  0.259757  1
