# generated using pymatgen
data_MgTiPO5
_symmetry_space_group_name_H-M   'P 1'
_cell_length_a   5.31651031
_cell_length_b   7.06271750
_cell_length_c   8.28848303
_cell_angle_alpha   89.91824864
_cell_angle_beta   140.95747770
_cell_angle_gamma   76.20144267
_symmetry_Int_Tables_number   1
_chemical_formula_structural   MgTiPO5
_chemical_formula_sum   'Mg2 Ti2 P2 O10'
_cell_volume   181.30066360
_cell_formula_units_Z   2
loop_
 _symmetry_equiv_pos_site_id
 _symmetry_equiv_pos_as_xyz
  1  'x, y, z'
loop_
 _atom_site_type_symbol
 _atom_site_label
 _atom_site_symmetry_multiplicity
 _atom_site_fract_x
 _atom_site_fract_y
 _atom_site_fract_z
 _atom_site_occupancy
  Mg  Mg0  1  0.495213  0.242607  0.167011  1
  Mg  Mg1  1  0.506897  0.737036  0.830640  1
  Ti  Ti2  1  0.498555  0.492707  0.497399  1
  Ti  Ti3  1  0.499875  0.992617  0.498692  1
  P  P4  1  0.500213  0.243315  0.834098  1
  P  P5  1  0.497084  0.743115  0.161729  1
  O  O6  1  0.277987  0.132635  0.615797  1
  O  O7  1  0.727025  0.354163  0.840703  1
  O  O8  1  0.722242  0.853506  0.380901  1
  O  O9  1  0.268292  0.634229  0.154840  1
  O  O10  1  0.823303  0.588672  0.206065  1
  O  O11  1  0.175290  0.895219  0.880179  1
  O  O12  1  0.173513  0.396665  0.789829  1
  O  O13  1  0.823998  0.091506  0.116493  1
  O  O14  1  0.498031  0.742774  0.589670  1
  O  O15  1  0.500405  0.242754  0.405953  1
