# generated using pymatgen
data_V2Zn2O5
_symmetry_space_group_name_H-M   'P 1'
_cell_length_a   3.51733748
_cell_length_b   5.67190654
_cell_length_c   10.87453814
_cell_angle_alpha   90.00000048
_cell_angle_beta   89.99999391
_cell_angle_gamma   90.00001759
_symmetry_Int_Tables_number   1
_chemical_formula_structural   V2Zn2O5
_chemical_formula_sum   'V4 Zn4 O10'
_cell_volume   216.94713859
_cell_formula_units_Z   2
loop_
 _symmetry_equiv_pos_site_id
 _symmetry_equiv_pos_as_xyz
  1  'x, y, z'
loop_
 _atom_site_type_symbol
 _atom_site_label
 _atom_site_symmetry_multiplicity
 _atom_site_fract_x
 _atom_site_fract_y
 _atom_site_fract_z
 _atom_site_occupancy
  V  V0  1  -0.000001  0.261355  0.636978  1
  V  V1  1  0.999999  0.739759  0.362882  1
  V  V2  1  -0.000002  0.239811  0.137082  1
  V  V3  1  1.000000  0.761167  0.863061  1
  Zn  Zn4  1  0.499999  0.286137  0.900412  1
  Zn  Zn5  1  0.500000  0.715670  0.099189  1
  Zn  Zn6  1  0.499999  0.786475  0.599653  1
  Zn  Zn7  1  0.500000  0.215583  0.400806  1
  O  O8  1  -0.000000  0.497792  0.498794  1
  O  O9  1  0.000002  0.135277  0.305480  1
  O  O10  1  0.000002  0.635404  0.194507  1
  O  O11  1  0.000001  0.363338  0.805886  1
  O  O12  1  0.500003  0.336300  0.084234  1
  O  O13  1  0.500000  0.664105  0.914889  1
  O  O14  1  0.000001  0.863353  0.694112  1
  O  O15  1  0.500003  0.164190  0.585144  1
  O  O16  1  0.000002  0.997980  0.001072  1
  O  O17  1  0.500001  0.836302  0.415818  1
