# generated using pymatgen
data_Ta2Zn(CuO4)2
_symmetry_space_group_name_H-M   'P 1'
_cell_length_a   6.65667774
_cell_length_b   8.68392848
_cell_length_c   12.27046836
_cell_angle_alpha   90.00000000
_cell_angle_beta   91.92854061
_cell_angle_gamma   90.00000000
_symmetry_Int_Tables_number   1
_chemical_formula_structural   Ta2Zn(CuO4)2
_chemical_formula_sum   'Ta8 Zn4 Cu8 O32'
_cell_volume   708.90631721
_cell_formula_units_Z   4
loop_
 _symmetry_equiv_pos_site_id
 _symmetry_equiv_pos_as_xyz
  1  'x, y, z'
loop_
 _atom_site_type_symbol
 _atom_site_label
 _atom_site_symmetry_multiplicity
 _atom_site_fract_x
 _atom_site_fract_y
 _atom_site_fract_z
 _atom_site_occupancy
  Ta  Ta0  1  0.097294  0.454662  0.844227  1
  Ta  Ta1  1  0.097294  0.045338  0.344227  1
  Ta  Ta2  1  0.611745  0.088270  0.135704  1
  Ta  Ta3  1  0.902706  0.954662  0.655773  1
  Ta  Ta4  1  0.388255  0.911730  0.864296  1
  Ta  Ta5  1  0.388255  0.588270  0.364296  1
  Ta  Ta6  1  0.611745  0.411730  0.635704  1
  Ta  Ta7  1  0.902706  0.545338  0.155773  1
  Zn  Zn8  1  0.108620  0.163380  0.052469  1
  Zn  Zn9  1  0.891380  0.836620  0.947531  1
  Zn  Zn10  1  0.891380  0.663380  0.447531  1
  Zn  Zn11  1  0.108620  0.336620  0.552469  1
  Cu  Cu12  1  0.765272  0.184408  0.877215  1
  Cu  Cu13  1  0.375550  0.058868  0.623972  1
  Cu  Cu14  1  0.624450  0.941132  0.376028  1
  Cu  Cu15  1  0.234728  0.815592  0.122785  1
  Cu  Cu16  1  0.765272  0.315592  0.377215  1
  Cu  Cu17  1  0.375550  0.441132  0.123972  1
  Cu  Cu18  1  0.234728  0.684408  0.622785  1
  Cu  Cu19  1  0.624450  0.558868  0.876028  1
  O  O20  1  0.037464  0.243330  0.400413  1
  O  O21  1  0.653494  0.015933  0.601544  1
  O  O22  1  0.188778  0.580001  0.472126  1
  O  O23  1  0.811222  0.080001  0.027874  1
  O  O24  1  0.037464  0.256670  0.900413  1
  O  O25  1  0.962536  0.756670  0.599587  1
  O  O26  1  0.089120  0.107009  0.613101  1
  O  O27  1  0.499452  0.897705  0.138395  1
  O  O28  1  0.499452  0.602295  0.638395  1
  O  O29  1  0.299604  0.872468  0.716221  1
  O  O30  1  0.700396  0.372468  0.783779  1
  O  O31  1  0.500548  0.102295  0.861605  1
  O  O32  1  0.910880  0.892991  0.386899  1
  O  O33  1  0.882676  0.543829  0.305342  1
  O  O34  1  0.410624  0.277487  0.586457  1
  O  O35  1  0.410624  0.222513  0.086457  1
  O  O36  1  0.117324  0.043829  0.194658  1
  O  O37  1  0.500548  0.397705  0.361605  1
  O  O38  1  0.117324  0.456171  0.694658  1
  O  O39  1  0.811222  0.419999  0.527874  1
  O  O40  1  0.653494  0.484067  0.101544  1
  O  O41  1  0.700396  0.127532  0.283779  1
  O  O42  1  0.962536  0.743330  0.099587  1
  O  O43  1  0.089120  0.392991  0.113101  1
  O  O44  1  0.188778  0.919999  0.972126  1
  O  O45  1  0.589376  0.777487  0.913543  1
  O  O46  1  0.346506  0.984067  0.398456  1
  O  O47  1  0.346506  0.515933  0.898456  1
  O  O48  1  0.910880  0.607009  0.886899  1
  O  O49  1  0.589376  0.722513  0.413543  1
  O  O50  1  0.299604  0.627532  0.216221  1
  O  O51  1  0.882676  0.956171  0.805342  1
