# generated using pymatgen
data_MgTiNi(PO4)3
_symmetry_space_group_name_H-M   'P 1'
_cell_length_a   8.50992143
_cell_length_b   8.50992117
_cell_length_c   8.50992152
_cell_angle_alpha   60.86427040
_cell_angle_beta   60.86427195
_cell_angle_gamma   60.86427448
_symmetry_Int_Tables_number   1
_chemical_formula_structural   MgTiNi(PO4)3
_chemical_formula_sum   'Mg2 Ti2 Ni2 P6 O24'
_cell_volume   444.26558113
_cell_formula_units_Z   2
loop_
 _symmetry_equiv_pos_site_id
 _symmetry_equiv_pos_as_xyz
  1  'x, y, z'
loop_
 _atom_site_type_symbol
 _atom_site_label
 _atom_site_symmetry_multiplicity
 _atom_site_fract_x
 _atom_site_fract_y
 _atom_site_fract_z
 _atom_site_occupancy
  Mg  Mg0  1  0.996342  0.996342  0.996342  1
  Mg  Mg1  1  0.496342  0.496342  0.496342  1
  Ti  Ti2  1  0.143913  0.143913  0.143913  1
  Ti  Ti3  1  0.643913  0.643913  0.643913  1
  Ni  Ni4  1  0.356710  0.356710  0.356710  1
  Ni  Ni5  1  0.856710  0.856710  0.856710  1
  P  P6  1  0.045854  0.456857  0.749268  1
  P  P7  1  0.456857  0.749268  0.045854  1
  P  P8  1  0.749268  0.045854  0.456857  1
  P  P9  1  0.249268  0.956857  0.545854  1
  P  P10  1  0.545854  0.249268  0.956857  1
  P  P11  1  0.956857  0.545854  0.249268  1
  O  O12  1  0.113867  0.512751  0.309309  1
  O  O13  1  0.309309  0.113867  0.512751  1
  O  O14  1  0.054292  0.259020  0.911058  1
  O  O15  1  0.512751  0.309309  0.113867  1
  O  O16  1  0.012751  0.613867  0.809309  1
  O  O17  1  0.240560  0.441630  0.588537  1
  O  O18  1  0.259020  0.911058  0.054292  1
  O  O19  1  0.441630  0.588537  0.240560  1
  O  O20  1  0.184502  0.005356  0.380173  1
  O  O21  1  0.588537  0.240560  0.441630  1
  O  O22  1  0.088537  0.941630  0.740560  1
  O  O23  1  0.380173  0.184502  0.005356  1
  O  O24  1  0.613867  0.809309  0.012751  1
  O  O25  1  0.911058  0.054292  0.259020  1
  O  O26  1  0.411058  0.759020  0.554292  1
  O  O27  1  0.809309  0.012751  0.613867  1
  O  O28  1  0.554292  0.411058  0.759020  1
  O  O29  1  0.740560  0.088537  0.941630  1
  O  O30  1  0.759020  0.554292  0.411058  1
  O  O31  1  0.005356  0.380173  0.184502  1
  O  O32  1  0.505356  0.684502  0.880173  1
  O  O33  1  0.941630  0.740560  0.088537  1
  O  O34  1  0.684502  0.880173  0.505356  1
  O  O35  1  0.880173  0.505356  0.684502  1
