# generated using pymatgen
data_YFe(WO4)2
_symmetry_space_group_name_H-M   'P 1'
_cell_length_a   5.23217099
_cell_length_b   5.88953847
_cell_length_c   10.02882113
_cell_angle_alpha   89.69413036
_cell_angle_beta   93.92836096
_cell_angle_gamma   91.09463933
_symmetry_Int_Tables_number   1
_chemical_formula_structural   YFe(WO4)2
_chemical_formula_sum   'Y2 Fe2 W4 O16'
_cell_volume   308.25397693
_cell_formula_units_Z   2
loop_
 _symmetry_equiv_pos_site_id
 _symmetry_equiv_pos_as_xyz
  1  'x, y, z'
loop_
 _atom_site_type_symbol
 _atom_site_label
 _atom_site_symmetry_multiplicity
 _atom_site_fract_x
 _atom_site_fract_y
 _atom_site_fract_z
 _atom_site_occupancy
  Y  Y0  1  0.250157  0.671703  0.260422  1
  Y  Y1  1  0.749842  0.328297  0.739577  1
  Fe  Fe2  1  0.749551  0.307383  0.261623  1
  Fe  Fe3  1  0.250458  0.692618  0.738379  1
  W  W4  1  0.256818  0.162139  0.496124  1
  W  W5  1  0.251422  0.167004  0.004578  1
  W  W6  1  0.743181  0.837860  0.503875  1
  W  W7  1  0.748576  0.832996  0.995421  1
  O  O8  1  0.407621  0.354721  0.133204  1
  O  O9  1  0.094163  0.364200  0.356596  1
  O  O10  1  0.592378  0.645277  0.866797  1
  O  O11  1  0.905835  0.635799  0.643404  1
  O  O12  1  0.450457  0.911379  0.614815  1
  O  O13  1  0.047966  0.906242  0.894074  1
  O  O14  1  0.549543  0.088621  0.385186  1
  O  O15  1  0.952032  0.093758  0.105926  1
  O  O16  1  0.885009  0.623718  0.114028  1
  O  O17  1  0.621493  0.616554  0.379501  1
  O  O18  1  0.114991  0.376283  0.885972  1
  O  O19  1  0.378507  0.383447  0.620498  1
  O  O20  1  0.444014  0.884288  0.096750  1
  O  O21  1  0.555985  0.115712  0.903249  1
  O  O22  1  0.074191  0.886293  0.404482  1
  O  O23  1  0.925808  0.113707  0.595517  1
