# generated using pymatgen
data_Mg2TeWO6
_symmetry_space_group_name_H-M   'P 1'
_cell_length_a   5.65744830
_cell_length_b   8.18099432
_cell_length_c   6.68594039
_cell_angle_alpha   99.58958891
_cell_angle_beta   126.74506511
_cell_angle_gamma   119.06157163
_symmetry_Int_Tables_number   1
_chemical_formula_structural   Mg2TeWO6
_chemical_formula_sum   'Mg2 Te1 W1 O6'
_cell_volume   164.20152048
_cell_formula_units_Z   1
loop_
 _symmetry_equiv_pos_site_id
 _symmetry_equiv_pos_as_xyz
  1  'x, y, z'
loop_
 _atom_site_type_symbol
 _atom_site_label
 _atom_site_symmetry_multiplicity
 _atom_site_fract_x
 _atom_site_fract_y
 _atom_site_fract_z
 _atom_site_occupancy
  Mg  Mg0  1  0.229218  0.749214  0.331715  1
  Mg  Mg1  1  0.946551  0.654848  0.689250  1
  Te  Te2  1  0.148739  0.196413  0.544938  1
  W  W3  1  0.006704  0.992254  0.035793  1
  O  O4  1  0.038638  0.921239  0.324376  1
  O  O5  1  0.762835  0.822462  0.625507  1
  O  O6  1  0.411563  0.313778  0.227517  1
  O  O7  1  0.399856  0.806074  0.733456  1
  O  O8  1  0.349373  0.934246  0.170819  1
  O  O9  1  0.772132  0.471498  0.852414  1
