# generated using pymatgen
data_Nb2MoO8
_symmetry_space_group_name_H-M   'P 1'
_cell_length_a   5.14275373
_cell_length_b   6.20928472
_cell_length_c   10.54449174
_cell_angle_alpha   106.97296750
_cell_angle_beta   90.15943915
_cell_angle_gamma   89.99453511
_symmetry_Int_Tables_number   1
_chemical_formula_structural   Nb2MoO8
_chemical_formula_sum   'Nb4 Mo2 O16'
_cell_volume   322.04759254
_cell_formula_units_Z   2
loop_
 _symmetry_equiv_pos_site_id
 _symmetry_equiv_pos_as_xyz
  1  'x, y, z'
loop_
 _atom_site_type_symbol
 _atom_site_label
 _atom_site_symmetry_multiplicity
 _atom_site_fract_x
 _atom_site_fract_y
 _atom_site_fract_z
 _atom_site_occupancy
  Nb  Nb0  1  0.756265  0.315036  0.262277  1
  Nb  Nb1  1  0.744464  0.054607  0.736024  1
  Nb  Nb2  1  0.244561  0.686060  0.736026  1
  Nb  Nb3  1  0.256250  0.946410  0.262421  1
  Mo  Mo4  1  0.750454  0.662251  0.999065  1
  Mo  Mo5  1  0.250431  0.338547  0.999314  1
  O  O6  1  0.085671  0.218262  0.112008  1
  O  O7  1  0.415071  0.106671  0.886324  1
  O  O8  1  0.915208  0.782485  0.886353  1
  O  O9  1  0.585860  0.894051  0.112108  1
  O  O10  1  0.568777  0.441459  0.103281  1
  O  O11  1  0.931880  0.338425  0.895175  1
  O  O12  1  0.432130  0.559322  0.895052  1
  O  O13  1  0.069033  0.662374  0.103238  1
  O  O14  1  0.427533  0.242056  0.319157  1
  O  O15  1  0.073271  0.925141  0.679135  1
  O  O16  1  0.360446  0.808731  0.373871  1
  O  O17  1  0.140101  0.437508  0.624494  1
  O  O18  1  0.640149  0.192691  0.624762  1
  O  O19  1  0.860289  0.564014  0.373550  1
  O  O20  1  0.927671  0.076225  0.319402  1
  O  O21  1  0.573296  0.758974  0.679093  1
