# generated using pymatgen
data_MoAs2O7
_symmetry_space_group_name_H-M   'P 1'
_cell_length_a   7.66357576
_cell_length_b   9.44696710
_cell_length_c   10.02940649
_cell_angle_alpha   90.00000000
_cell_angle_beta   97.15563008
_cell_angle_gamma   90.00000000
_symmetry_Int_Tables_number   1
_chemical_formula_structural   MoAs2O7
_chemical_formula_sum   'Mo4 As8 O28'
_cell_volume   720.44914674
_cell_formula_units_Z   4
loop_
 _symmetry_equiv_pos_site_id
 _symmetry_equiv_pos_as_xyz
  1  'x, y, z'
loop_
 _atom_site_type_symbol
 _atom_site_label
 _atom_site_symmetry_multiplicity
 _atom_site_fract_x
 _atom_site_fract_y
 _atom_site_fract_z
 _atom_site_occupancy
  Mo  Mo0  1  0.798179  0.047548  0.694520  1
  Mo  Mo1  1  0.201821  0.547548  0.805480  1
  Mo  Mo2  1  0.201821  0.952452  0.305480  1
  Mo  Mo3  1  0.798179  0.452452  0.194520  1
  As  As4  1  0.419103  0.230250  0.768518  1
  As  As5  1  0.580897  0.730250  0.731482  1
  As  As6  1  0.580897  0.769750  0.231483  1
  As  As7  1  0.419103  0.269750  0.268518  1
  As  As8  1  0.160294  0.232295  0.993494  1
  As  As9  1  0.839706  0.732295  0.506506  1
  As  As10  1  0.839706  0.767705  0.006506  1
  As  As11  1  0.160294  0.267705  0.493494  1
  O  O12  1  0.830523  0.342879  0.061835  1
  O  O13  1  0.169477  0.842879  0.438165  1
  O  O14  1  0.169477  0.657121  0.938165  1
  O  O15  1  0.830523  0.157121  0.561835  1
  O  O16  1  0.406113  0.411510  0.759973  1
  O  O17  1  0.593887  0.911510  0.740027  1
  O  O18  1  0.593887  0.588490  0.240027  1
  O  O19  1  0.406113  0.088490  0.259973  1
  O  O20  1  0.358068  0.164121  0.918168  1
  O  O21  1  0.641932  0.664121  0.581832  1
  O  O22  1  0.641932  0.835879  0.081832  1
  O  O23  1  0.358068  0.335879  0.418168  1
  O  O24  1  0.295755  0.154031  0.628990  1
  O  O25  1  0.704245  0.654031  0.871010  1
  O  O26  1  0.704245  0.845969  0.371010  1
  O  O27  1  0.295755  0.345969  0.128990  1
  O  O28  1  0.115054  0.125408  0.381018  1
  O  O29  1  0.884946  0.625408  0.118982  1
  O  O30  1  0.884946  0.874592  0.618982  1
  O  O31  1  0.115054  0.374592  0.881018  1
  O  O32  1  0.633994  0.316434  0.270187  1
  O  O33  1  0.366006  0.816434  0.229813  1
  O  O34  1  0.366006  0.683566  0.729813  1
  O  O35  1  0.633994  0.183566  0.770187  1
  O  O36  1  0.972311  0.428687  0.320572  1
  O  O37  1  0.027689  0.928687  0.179428  1
  O  O38  1  0.027689  0.571313  0.679428  1
  O  O39  1  0.972311  0.071313  0.820572  1
