# generated using pymatgen
data_Mg2TaBiO6
_symmetry_space_group_name_H-M   'P 1'
_cell_length_a   5.61309723
_cell_length_b   5.58398971
_cell_length_c   7.98418181
_cell_angle_alpha   90.00000000
_cell_angle_beta   90.00000000
_cell_angle_gamma   86.64513598
_symmetry_Int_Tables_number   1
_chemical_formula_structural   Mg2TaBiO6
_chemical_formula_sum   'Mg4 Ta2 Bi2 O12'
_cell_volume   249.82314772
_cell_formula_units_Z   2
loop_
 _symmetry_equiv_pos_site_id
 _symmetry_equiv_pos_as_xyz
  1  'x, y, z'
loop_
 _atom_site_type_symbol
 _atom_site_label
 _atom_site_symmetry_multiplicity
 _atom_site_fract_x
 _atom_site_fract_y
 _atom_site_fract_z
 _atom_site_occupancy
  Mg  Mg0  1  0.982168  0.970360  0.250000  1
  Mg  Mg1  1  0.520791  0.473925  0.250000  1
  Mg  Mg2  1  0.479209  0.526075  0.750000  1
  Mg  Mg3  1  0.017832  0.029640  0.750000  1
  Ta  Ta4  1  0.000000  0.500000  0.000000  1
  Ta  Ta5  1  0.000000  0.500000  0.500000  1
  Bi  Bi6  1  0.500000  0.000000  0.000000  1
  Bi  Bi7  1  0.500000  0.000000  0.500000  1
  O  O8  1  0.874355  0.818619  0.571322  1
  O  O9  1  0.304405  0.635072  0.426991  1
  O  O10  1  0.125645  0.181381  0.428678  1
  O  O11  1  0.695595  0.364928  0.926991  1
  O  O12  1  0.131991  0.406771  0.750000  1
  O  O13  1  0.695595  0.364928  0.573009  1
  O  O14  1  0.304405  0.635072  0.073009  1
  O  O15  1  0.874355  0.818619  0.928678  1
  O  O16  1  0.647852  0.125058  0.250000  1
  O  O17  1  0.125645  0.181381  0.071322  1
  O  O18  1  0.352148  0.874942  0.750000  1
  O  O19  1  0.868009  0.593229  0.250000  1
