# generated using pymatgen
data_Ca(SbO2)2
_symmetry_space_group_name_H-M   'P 1'
_cell_length_a   6.98151908
_cell_length_b   6.85761611
_cell_length_c   6.85761612
_cell_angle_alpha   59.99999244
_cell_angle_beta   60.58535946
_cell_angle_gamma   60.58535421
_symmetry_Int_Tables_number   1
_chemical_formula_structural   Ca(SbO2)2
_chemical_formula_sum   'Ca2 Sb4 O8'
_cell_volume   234.18959917
_cell_formula_units_Z   2
loop_
 _symmetry_equiv_pos_site_id
 _symmetry_equiv_pos_as_xyz
  1  'x, y, z'
loop_
 _atom_site_type_symbol
 _atom_site_label
 _atom_site_symmetry_multiplicity
 _atom_site_fract_x
 _atom_site_fract_y
 _atom_site_fract_z
 _atom_site_occupancy
  Ca  Ca0  1  0.994788  0.001737  0.001737  1
  Ca  Ca1  1  0.133203  0.622265  0.622265  1
  Sb  Sb2  1  0.252642  0.249120  0.249120  1
  Sb  Sb3  1  0.632947  0.116893  0.625079  1
  Sb  Sb4  1  0.632947  0.625079  0.116893  1
  Sb  Sb5  1  0.632947  0.625079  0.625079  1
  O  O6  1  0.377866  0.376530  0.376530  1
  O  O7  1  0.377866  0.376530  0.869073  1
  O  O8  1  0.377866  0.869073  0.376530  1
  O  O9  1  0.876774  0.374408  0.374408  1
  O  O10  1  0.418087  0.860638  0.860638  1
  O  O11  1  0.847356  0.420545  0.866049  1
  O  O12  1  0.847356  0.866049  0.420545  1
  O  O13  1  0.847356  0.866049  0.866049  1
