# generated using pymatgen
data_Y(CoO2)2
_symmetry_space_group_name_H-M   'P 1'
_cell_length_a   6.22359378
_cell_length_b   6.22359391
_cell_length_c   6.22459591
_cell_angle_alpha   116.68455694
_cell_angle_beta   120.67464994
_cell_angle_gamma   92.32713457
_symmetry_Int_Tables_number   1
_chemical_formula_structural   Y(CoO2)2
_chemical_formula_sum   'Y2 Co4 O8'
_cell_volume   173.49157498
_cell_formula_units_Z   2
loop_
 _symmetry_equiv_pos_site_id
 _symmetry_equiv_pos_as_xyz
  1  'x, y, z'
loop_
 _atom_site_type_symbol
 _atom_site_label
 _atom_site_symmetry_multiplicity
 _atom_site_fract_x
 _atom_site_fract_y
 _atom_site_fract_z
 _atom_site_occupancy
  Y  Y0  1  -0.000001  0.499996  -0.000002  1
  Y  Y1  1  -0.000001  0.000002  0.500003  1
  Co  Co2  1  0.371980  0.621980  0.750000  1
  Co  Co3  1  0.628021  0.378022  0.250000  1
  Co  Co4  1  0.500003  0.000003  0.500005  1
  Co  Co5  1  -0.000001  -0.000003  -0.000005  1
  O  O6  1  0.734034  0.746026  0.506740  1
  O  O7  1  0.739287  0.227297  0.993262  1
  O  O8  1  0.246276  0.247182  0.998526  1
  O  O9  1  0.265973  0.253979  0.493270  1
  O  O10  1  0.251348  0.752252  0.498534  1
  O  O11  1  0.260710  0.772703  0.006731  1
  O  O12  1  0.748655  0.247749  0.501474  1
  O  O13  1  0.753717  0.752814  0.001465  1
