# generated using pymatgen
data_Ca2YTiO5
_symmetry_space_group_name_H-M   'P 1'
_cell_length_a   5.53835633
_cell_length_b   5.71145820
_cell_length_c   8.95250755
_cell_angle_alpha   108.58645936
_cell_angle_beta   108.03153315
_cell_angle_gamma   89.95618863
_symmetry_Int_Tables_number   1
_chemical_formula_structural   Ca2YTiO5
_chemical_formula_sum   'Ca4 Y2 Ti2 O10'
_cell_volume   253.72357294
_cell_formula_units_Z   2
loop_
 _symmetry_equiv_pos_site_id
 _symmetry_equiv_pos_as_xyz
  1  'x, y, z'
loop_
 _atom_site_type_symbol
 _atom_site_label
 _atom_site_symmetry_multiplicity
 _atom_site_fract_x
 _atom_site_fract_y
 _atom_site_fract_z
 _atom_site_occupancy
  Ca  Ca0  1  0.112038  0.627578  0.199862  1
  Ca  Ca1  1  0.410571  0.926288  0.797752  1
  Ca  Ca2  1  0.910726  0.371261  0.797910  1
  Ca  Ca3  1  0.612395  0.072438  0.200030  1
  Y  Y4  1  0.290675  0.291164  0.499008  1
  Y  Y5  1  0.790153  0.706487  0.498267  1
  Ti  Ti6  1  0.486383  0.499334  0.998796  1
  Ti  Ti7  1  0.986189  0.999132  0.998648  1
  O  O8  1  0.689149  0.334148  0.498723  1
  O  O9  1  0.189289  0.663961  0.498666  1
  O  O10  1  0.571913  0.709508  0.256512  1
  O  O11  1  0.314041  0.289261  0.741197  1
  O  O12  1  0.071815  0.046745  0.256029  1
  O  O13  1  0.813768  0.952268  0.741352  1
  O  O14  1  0.221103  0.736952  0.965087  1
  O  O15  1  0.255354  0.260027  0.031531  1
  O  O16  1  0.755669  0.271581  0.032344  1
  O  O17  1  0.721590  0.727931  0.965800  1
