# generated using pymatgen
data_MgSnP2O7
_symmetry_space_group_name_H-M   'P 1'
_cell_length_a   7.19463135
_cell_length_b   9.24091261
_cell_length_c   9.66189388
_cell_angle_alpha   90.00000000
_cell_angle_beta   114.62383574
_cell_angle_gamma   90.00000000
_symmetry_Int_Tables_number   1
_chemical_formula_structural   MgSnP2O7
_chemical_formula_sum   'Mg4 Sn4 P8 O28'
_cell_volume   583.95527158
_cell_formula_units_Z   4
loop_
 _symmetry_equiv_pos_site_id
 _symmetry_equiv_pos_as_xyz
  1  'x, y, z'
loop_
 _atom_site_type_symbol
 _atom_site_label
 _atom_site_symmetry_multiplicity
 _atom_site_fract_x
 _atom_site_fract_y
 _atom_site_fract_z
 _atom_site_occupancy
  Mg  Mg0  1  0.105718  0.943956  0.805752  1
  Mg  Mg1  1  0.394282  0.443956  0.694248  1
  Mg  Mg2  1  0.605718  0.556044  0.305752  1
  Mg  Mg3  1  0.894282  0.056044  0.194248  1
  Sn  Sn4  1  0.348327  0.087139  0.577189  1
  Sn  Sn5  1  0.651673  0.912861  0.422811  1
  Sn  Sn6  1  0.151673  0.587139  0.922811  1
  Sn  Sn7  1  0.848327  0.412861  0.077189  1
  P  P8  1  0.181129  0.751129  0.275994  1
  P  P9  1  0.440380  0.211213  0.954884  1
  P  P10  1  0.681130  0.748871  0.775994  1
  P  P11  1  0.940380  0.288787  0.454884  1
  P  P12  1  0.318871  0.251129  0.224006  1
  P  P13  1  0.059620  0.711213  0.545116  1
  P  P14  1  0.559620  0.788787  0.045116  1
  P  P15  1  0.818870  0.248871  0.724006  1
  O  O16  1  0.339776  0.189399  0.073087  1
  O  O17  1  0.617302  0.590566  0.756398  1
  O  O18  1  0.117302  0.909434  0.256398  1
  O  O19  1  0.408246  0.365823  0.892791  1
  O  O20  1  0.660224  0.810601  0.926913  1
  O  O21  1  0.442263  0.151545  0.354393  1
  O  O22  1  0.591754  0.634177  0.107209  1
  O  O23  1  0.330770  0.097046  0.832053  1
  O  O24  1  0.173196  0.315306  0.540986  1
  O  O25  1  0.557737  0.848455  0.645607  1
  O  O26  1  0.942263  0.348455  0.854393  1
  O  O27  1  0.914273  0.767412  0.818328  1
  O  O28  1  0.585727  0.267412  0.681672  1
  O  O29  1  0.839776  0.310601  0.573087  1
  O  O30  1  0.057737  0.651545  0.145607  1
  O  O31  1  0.882698  0.090566  0.743602  1
  O  O32  1  0.085727  0.232588  0.181672  1
  O  O33  1  0.669230  0.902954  0.167947  1
  O  O34  1  0.673196  0.184694  0.040986  1
  O  O35  1  0.326804  0.815306  0.959014  1
  O  O36  1  0.091754  0.865823  0.607209  1
  O  O37  1  0.830770  0.402954  0.332053  1
  O  O38  1  0.169230  0.597046  0.667947  1
  O  O39  1  0.382698  0.409434  0.243602  1
  O  O40  1  0.414273  0.732588  0.318328  1
  O  O41  1  0.908246  0.134177  0.392791  1
  O  O42  1  0.826804  0.684694  0.459014  1
  O  O43  1  0.160224  0.689399  0.426913  1
