# generated using pymatgen
data_La2TiZnO6
_symmetry_space_group_name_H-M   'P 1'
_cell_length_a   5.59127428
_cell_length_b   5.59127392
_cell_length_c   5.59127451
_cell_angle_alpha   60.94953786
_cell_angle_beta   60.94953902
_cell_angle_gamma   60.94954190
_symmetry_Int_Tables_number   1
_chemical_formula_structural   La2TiZnO6
_chemical_formula_sum   'La2 Ti1 Zn1 O6'
_cell_volume   126.24417432
_cell_formula_units_Z   1
loop_
 _symmetry_equiv_pos_site_id
 _symmetry_equiv_pos_as_xyz
  1  'x, y, z'
loop_
 _atom_site_type_symbol
 _atom_site_label
 _atom_site_symmetry_multiplicity
 _atom_site_fract_x
 _atom_site_fract_y
 _atom_site_fract_z
 _atom_site_occupancy
  La  La0  1  0.750140  0.750140  0.750140  1
  La  La1  1  0.249860  0.249860  0.249860  1
  Ti  Ti2  1  0.000000  0.000000  0.000000  1
  Zn  Zn3  1  0.500000  0.500000  0.500000  1
  O  O4  1  0.321149  0.763073  0.160698  1
  O  O5  1  0.763073  0.160698  0.321149  1
  O  O6  1  0.160698  0.321149  0.763073  1
  O  O7  1  0.678851  0.236927  0.839302  1
  O  O8  1  0.839302  0.678851  0.236927  1
  O  O9  1  0.236927  0.839302  0.678851  1
