# generated using pymatgen
data_Ca3Ni2(WO6)2
_symmetry_space_group_name_H-M   'P 1'
_cell_length_a   5.45375926
_cell_length_b   5.54886196
_cell_length_c   7.68110543
_cell_angle_alpha   90.15888419
_cell_angle_beta   89.93080052
_cell_angle_gamma   91.26192885
_symmetry_Int_Tables_number   1
_chemical_formula_structural   Ca3Ni2(WO6)2
_chemical_formula_sum   'Ca3 Ni2 W2 O12'
_cell_volume   232.38939753
_cell_formula_units_Z   1
loop_
 _symmetry_equiv_pos_site_id
 _symmetry_equiv_pos_as_xyz
  1  'x, y, z'
loop_
 _atom_site_type_symbol
 _atom_site_label
 _atom_site_symmetry_multiplicity
 _atom_site_fract_x
 _atom_site_fract_y
 _atom_site_fract_z
 _atom_site_occupancy
  Ca  Ca0  1  0.005256  0.954984  0.249915  1
  Ca  Ca1  1  0.485230  0.446831  0.251894  1
  Ca  Ca2  1  0.991017  0.046603  0.752221  1
  Ni  Ni3  1  0.998305  0.497218  0.000670  1
  Ni  Ni4  1  0.500214  0.995064  0.500266  1
  W  W5  1  0.494192  0.981581  0.990839  1
  W  W6  1  -0.001386  0.504569  0.509600  1
  O  O7  1  0.072093  0.489205  0.747604  1
  O  O8  1  0.417186  0.972816  0.752964  1
  O  O9  1  0.910764  0.514561  0.254341  1
  O  O10  1  0.583475  0.031617  0.244113  1
  O  O11  1  0.708085  0.273645  0.964358  1
  O  O12  1  0.814946  0.797737  0.529734  1
  O  O13  1  0.294456  0.715420  0.058847  1
  O  O14  1  0.200018  0.221645  0.456029  1
  O  O15  1  0.218008  0.195310  0.038944  1
  O  O16  1  0.279838  0.710233  0.441724  1
  O  O17  1  0.795109  0.807466  0.969757  1
  O  O18  1  0.720356  0.290233  0.538949  1
