# generated using pymatgen
data_MgNi2O5
_symmetry_space_group_name_H-M   'P 1'
_cell_length_a   3.51325875
_cell_length_b   5.17891151
_cell_length_c   10.81638171
_cell_angle_alpha   90.15942803
_cell_angle_beta   89.99965067
_cell_angle_gamma   90.00000688
_symmetry_Int_Tables_number   1
_chemical_formula_structural   MgNi2O5
_chemical_formula_sum   'Mg2 Ni4 O10'
_cell_volume   196.80174784
_cell_formula_units_Z   2
loop_
 _symmetry_equiv_pos_site_id
 _symmetry_equiv_pos_as_xyz
  1  'x, y, z'
loop_
 _atom_site_type_symbol
 _atom_site_label
 _atom_site_symmetry_multiplicity
 _atom_site_fract_x
 _atom_site_fract_y
 _atom_site_fract_z
 _atom_site_occupancy
  Mg  Mg0  1  0.749999  0.847215  0.249619  1
  Mg  Mg1  1  0.249999  0.153287  0.750339  1
  Ni  Ni2  1  0.249997  0.465866  0.100632  1
  Ni  Ni3  1  0.750000  0.533982  0.899447  1
  Ni  Ni4  1  0.749998  0.533251  0.600817  1
  Ni  Ni5  1  0.250001  0.466601  0.399115  1
  O  O6  1  0.749999  0.365860  0.749834  1
  O  O7  1  0.249999  0.634203  0.250170  1
  O  O8  1  0.749996  0.607683  0.072369  1
  O  O9  1  0.250001  0.392244  0.927676  1
  O  O10  1  0.750001  0.607791  0.427845  1
  O  O11  1  0.250000  0.392145  0.572115  1
  O  O12  1  0.250024  0.119213  0.317635  1
  O  O13  1  0.749981  0.880733  0.682167  1
  O  O14  1  0.750018  0.881132  0.818358  1
  O  O15  1  0.249978  0.118795  0.181860  1
