# generated using pymatgen
data_CaTi2(PO5)2
_symmetry_space_group_name_H-M   'P 1'
_cell_length_a   6.97908859
_cell_length_b   6.97908806
_cell_length_c   8.93157376
_cell_angle_alpha   102.26964073
_cell_angle_beta   102.26964055
_cell_angle_gamma   117.13371903
_symmetry_Int_Tables_number   1
_chemical_formula_structural   CaTi2(PO5)2
_chemical_formula_sum   'Ca2 Ti4 P4 O20'
_cell_volume   353.55475215
_cell_formula_units_Z   2
loop_
 _symmetry_equiv_pos_site_id
 _symmetry_equiv_pos_as_xyz
  1  'x, y, z'
loop_
 _atom_site_type_symbol
 _atom_site_label
 _atom_site_symmetry_multiplicity
 _atom_site_fract_x
 _atom_site_fract_y
 _atom_site_fract_z
 _atom_site_occupancy
  Ca  Ca0  1  0.499827  0.999827  0.500000  1
  Ca  Ca1  1  0.249827  0.249827  0.000000  1
  Ti  Ti2  1  0.875055  0.606705  0.259410  1
  Ti  Ti3  1  0.347295  0.615644  0.740590  1
  Ti  Ti4  1  0.865644  0.097295  0.240590  1
  Ti  Ti5  1  0.856705  0.625055  0.759410  1
  P  P6  1  0.036937  0.036794  0.583136  1
  P  P7  1  0.703801  0.203658  0.916864  1
  P  P8  1  0.453658  0.453801  0.416864  1
  P  P9  1  0.286794  0.786937  0.083136  1
  O  O10  1  0.584186  0.552133  0.305062  1
  O  O11  1  0.662032  0.662118  0.831444  1
  O  O12  1  0.313735  0.605558  0.969618  1
  O  O13  1  0.802133  0.334186  0.805062  1
  O  O14  1  0.216228  0.243131  0.299979  1
  O  O15  1  0.421479  0.634619  0.526089  1
  O  O16  1  0.080589  0.580674  0.668556  1
  O  O17  1  0.830674  0.830589  0.168556  1
  O  O18  1  0.912118  0.412032  0.331444  1
  O  O19  1  0.166250  0.693152  0.200021  1
  O  O20  1  0.247070  0.279125  0.694938  1
  O  O21  1  0.493131  0.966228  0.799979  1
  O  O22  1  0.943152  0.916250  0.700021  1
  O  O23  1  0.145390  0.858531  0.973911  1
  O  O24  1  0.108531  0.895389  0.473911  1
  O  O25  1  0.884619  0.171479  0.026089  1
  O  O26  1  0.855558  0.063735  0.469618  1
  O  O27  1  0.635940  0.344117  0.030382  1
  O  O28  1  0.529125  0.997070  0.194938  1
  O  O29  1  0.594117  0.385940  0.530382  1
