# generated using pymatgen
data_CaSn3O7
_symmetry_space_group_name_H-M   'P 1'
_cell_length_a   5.36997307
_cell_length_b   10.80766405
_cell_length_c   10.34878861
_cell_angle_alpha   90.00000000
_cell_angle_beta   90.00000000
_cell_angle_gamma   90.00000000
_symmetry_Int_Tables_number   1
_chemical_formula_structural   CaSn3O7
_chemical_formula_sum   'Ca4 Sn12 O28'
_cell_volume   600.61124642
_cell_formula_units_Z   4
loop_
 _symmetry_equiv_pos_site_id
 _symmetry_equiv_pos_as_xyz
  1  'x, y, z'
loop_
 _atom_site_type_symbol
 _atom_site_label
 _atom_site_symmetry_multiplicity
 _atom_site_fract_x
 _atom_site_fract_y
 _atom_site_fract_z
 _atom_site_occupancy
  Ca  Ca0  1  0.667501  0.750000  0.881123  1
  Ca  Ca1  1  0.167501  0.250000  0.618877  1
  Ca  Ca2  1  0.332499  0.250000  0.118877  1
  Ca  Ca3  1  0.832499  0.750000  0.381123  1
  Sn  Sn4  1  0.381839  0.990452  0.356235  1
  Sn  Sn5  1  0.881839  0.009548  0.143765  1
  Sn  Sn6  1  0.618161  0.490452  0.643765  1
  Sn  Sn7  1  0.118161  0.509548  0.856235  1
  Sn  Sn8  1  0.329675  0.750000  0.159623  1
  Sn  Sn9  1  0.829675  0.250000  0.340377  1
  Sn  Sn10  1  0.670325  0.250000  0.840377  1
  Sn  Sn11  1  0.170325  0.750000  0.659623  1
  Sn  Sn12  1  0.881839  0.490452  0.143765  1
  Sn  Sn13  1  0.381839  0.509548  0.356235  1
  Sn  Sn14  1  0.118161  0.990452  0.856235  1
  Sn  Sn15  1  0.618161  0.009548  0.643765  1
  O  O16  1  0.895577  0.117201  0.748275  1
  O  O17  1  0.395577  0.882799  0.751725  1
  O  O18  1  0.104423  0.617201  0.251725  1
  O  O19  1  0.604423  0.382799  0.248275  1
  O  O20  1  0.104423  0.882799  0.251725  1
  O  O21  1  0.604423  0.117201  0.248275  1
  O  O22  1  0.895577  0.382799  0.748275  1
  O  O23  1  0.395577  0.617201  0.751725  1
  O  O24  1  0.409994  0.122888  0.774187  1
  O  O25  1  0.909994  0.877112  0.725813  1
  O  O26  1  0.590006  0.622888  0.225813  1
  O  O27  1  0.090006  0.377112  0.274187  1
  O  O28  1  0.590006  0.877112  0.225813  1
  O  O29  1  0.090006  0.122888  0.274187  1
  O  O30  1  0.409994  0.377112  0.774187  1
  O  O31  1  0.909994  0.622888  0.725813  1
  O  O32  1  0.227713  0.750000  0.475168  1
  O  O33  1  0.727713  0.250000  0.024832  1
  O  O34  1  0.772287  0.250000  0.524832  1
  O  O35  1  0.272287  0.750000  0.975168  1
  O  O36  1  0.195665  0.432679  0.027217  1
  O  O37  1  0.695665  0.567321  0.472783  1
  O  O38  1  0.804335  0.932679  0.972783  1
  O  O39  1  0.304335  0.067321  0.527217  1
  O  O40  1  0.804335  0.567321  0.972783  1
  O  O41  1  0.304335  0.432679  0.527217  1
  O  O42  1  0.195665  0.067321  0.027217  1
  O  O43  1  0.695665  0.932679  0.472783  1
