# generated using pymatgen
data_Sb(WO4)2
_symmetry_space_group_name_H-M   'P 1'
_cell_length_a   5.14118100
_cell_length_b   5.83856725
_cell_length_c   9.81928764
_cell_angle_alpha   90.00000000
_cell_angle_beta   92.40926249
_cell_angle_gamma   90.00000000
_symmetry_Int_Tables_number   1
_chemical_formula_structural   Sb(WO4)2
_chemical_formula_sum   'Sb2 W4 O16'
_cell_volume   294.48630143
_cell_formula_units_Z   2
loop_
 _symmetry_equiv_pos_site_id
 _symmetry_equiv_pos_as_xyz
  1  'x, y, z'
loop_
 _atom_site_type_symbol
 _atom_site_label
 _atom_site_symmetry_multiplicity
 _atom_site_fract_x
 _atom_site_fract_y
 _atom_site_fract_z
 _atom_site_occupancy
  Sb  Sb0  1  0.750000  0.346417  0.250000  1
  Sb  Sb1  1  0.250000  0.653582  0.750000  1
  W  W2  1  0.235852  0.167857  0.507744  1
  W  W3  1  0.264147  0.167857  0.992257  1
  W  W4  1  0.764148  0.832143  0.492256  1
  W  W5  1  0.735853  0.832143  0.007743  1
  O  O6  1  0.404506  0.357657  0.127693  1
  O  O7  1  0.095493  0.357657  0.372306  1
  O  O8  1  0.595494  0.642342  0.872307  1
  O  O9  1  0.904506  0.642342  0.627694  1
  O  O10  1  0.433592  0.890705  0.598197  1
  O  O11  1  0.066408  0.890705  0.901803  1
  O  O12  1  0.566408  0.109295  0.401803  1
  O  O13  1  0.933592  0.109295  0.098197  1
  O  O14  1  0.869180  0.609109  0.125560  1
  O  O15  1  0.630820  0.609109  0.374440  1
  O  O16  1  0.130820  0.390892  0.874440  1
  O  O17  1  0.369180  0.390892  0.625560  1
  O  O18  1  0.447908  0.902680  0.108362  1
  O  O19  1  0.552092  0.097321  0.891638  1
  O  O20  1  0.052093  0.902680  0.391639  1
  O  O21  1  0.947907  0.097321  0.608361  1
