# generated using pymatgen
data_Mn2Zn3O7
_symmetry_space_group_name_H-M   'P 1'
_cell_length_a   5.18206295
_cell_length_b   5.16251943
_cell_length_c   9.40707892
_cell_angle_alpha   105.92598579
_cell_angle_beta   90.00000000
_cell_angle_gamma   90.00000000
_symmetry_Int_Tables_number   1
_chemical_formula_structural   Mn2Zn3O7
_chemical_formula_sum   'Mn4 Zn6 O14'
_cell_volume   242.00329844
_cell_formula_units_Z   2
loop_
 _symmetry_equiv_pos_site_id
 _symmetry_equiv_pos_as_xyz
  1  'x, y, z'
loop_
 _atom_site_type_symbol
 _atom_site_label
 _atom_site_symmetry_multiplicity
 _atom_site_fract_x
 _atom_site_fract_y
 _atom_site_fract_z
 _atom_site_occupancy
  Mn  Mn0  1  0.751590  0.353806  0.203718  1
  Mn  Mn1  1  0.251590  0.646194  0.796282  1
  Mn  Mn2  1  0.251590  0.849911  0.203718  1
  Mn  Mn3  1  0.751590  0.150089  0.796282  1
  Zn  Zn4  1  0.707253  0.750047  1.000000  1
  Zn  Zn5  1  0.207253  0.249953  0.000000  1
  Zn  Zn6  1  0.802518  0.576616  0.606970  1
  Zn  Zn7  1  0.302518  0.423384  0.393030  1
  Zn  Zn8  1  0.802518  0.969646  0.393030  1
  Zn  Zn9  1  0.302518  0.030354  0.606970  1
  O  O10  1  0.692967  0.945743  0.594290  1
  O  O11  1  0.192967  0.054257  0.405710  1
  O  O12  1  0.192967  0.648545  0.594290  1
  O  O13  1  0.692967  0.351455  0.405710  1
  O  O14  1  0.068073  0.300279  0.743265  1
  O  O15  1  0.568073  0.699721  0.256735  1
  O  O16  1  0.568073  0.442985  0.743265  1
  O  O17  1  0.068073  0.557015  0.256735  1
  O  O18  1  0.934163  0.853137  0.845700  1
  O  O19  1  0.434163  0.146863  0.154300  1
  O  O20  1  0.814128  0.366701  0.000000  1
  O  O21  1  0.314128  0.633299  1.000000  1
  O  O22  1  0.934163  0.007437  0.154300  1
  O  O23  1  0.434163  0.992563  0.845700  1
