# generated using pymatgen
data_Ca4V5(TeO6)3
_symmetry_space_group_name_H-M   'P 1'
_cell_length_a   9.15589858
_cell_length_b   9.15589880
_cell_length_c   11.52574506
_cell_angle_alpha   85.25309098
_cell_angle_beta   85.25309073
_cell_angle_gamma   69.64913718
_symmetry_Int_Tables_number   1
_chemical_formula_structural   Ca4V5(TeO6)3
_chemical_formula_sum   'Ca8 V10 Te6 O36'
_cell_volume   901.28374372
_cell_formula_units_Z   2
loop_
 _symmetry_equiv_pos_site_id
 _symmetry_equiv_pos_as_xyz
  1  'x, y, z'
loop_
 _atom_site_type_symbol
 _atom_site_label
 _atom_site_symmetry_multiplicity
 _atom_site_fract_x
 _atom_site_fract_y
 _atom_site_fract_z
 _atom_site_occupancy
  Ca  Ca0  1  0.852615  0.561462  0.390688  1
  Ca  Ca1  1  0.523210  0.573717  0.205941  1
  Ca  Ca2  1  0.438538  0.147385  0.609312  1
  Ca  Ca3  1  0.426283  0.476790  0.794059  1
  Ca  Ca4  1  0.163961  0.934694  0.723056  1
  Ca  Ca5  1  0.151528  0.262714  0.898893  1
  Ca  Ca6  1  0.737286  0.848472  0.101107  1
  Ca  Ca7  1  0.065306  0.836039  0.276944  1
  V  V8  1  0.792739  0.514943  0.933174  1
  V  V9  1  0.095968  0.190393  0.444781  1
  V  V10  1  0.358524  0.318725  0.319261  1
  V  V11  1  0.943797  0.732326  0.819489  1
  V  V12  1  0.681275  0.641476  0.680739  1
  V  V13  1  0.900028  0.099972  0.000000  1
  V  V14  1  0.656818  0.343182  0.500000  1
  V  V15  1  0.267674  0.056204  0.180511  1
  V  V16  1  0.809607  0.904032  0.555219  1
  V  V17  1  0.485057  0.207261  0.066826  1
  Te  Te18  1  0.447660  0.857931  0.893617  1
  Te  Te19  1  0.787202  0.214010  0.243398  1
  Te  Te20  1  0.785990  0.212798  0.756602  1
  Te  Te21  1  0.458129  0.853848  0.393608  1
  Te  Te22  1  0.146152  0.541871  0.606392  1
  Te  Te23  1  0.142069  0.552340  0.106383  1
  O  O24  1  0.340386  0.042791  0.796907  1
  O  O25  1  0.713566  0.442065  0.803923  1
  O  O26  1  0.663563  0.543810  0.544412  1
  O  O27  1  0.729911  0.091674  0.505688  1
  O  O28  1  0.557935  0.286434  0.196077  1
  O  O29  1  0.908326  0.270089  0.494312  1
  O  O30  1  0.335461  0.830873  0.268212  1
  O  O31  1  0.012537  0.103221  0.853072  1
  O  O32  1  0.579613  0.296029  0.669813  1
  O  O33  1  0.144581  0.361807  0.411037  1
  O  O34  1  0.666683  0.617384  0.047883  1
  O  O35  1  0.466768  0.005258  0.091691  1
  O  O36  1  0.906319  0.905343  0.683601  1
  O  O37  1  0.744053  0.711876  0.824456  1
  O  O38  1  0.382616  0.333317  0.952117  1
  O  O39  1  0.278999  0.538816  0.237054  1
  O  O40  1  0.936382  0.789475  0.447087  1
  O  O41  1  0.288124  0.255947  0.175544  1
  O  O42  1  0.456190  0.336437  0.455588  1
  O  O43  1  0.210525  0.063618  0.552913  1
  O  O44  1  0.643312  0.763607  0.301728  1
  O  O45  1  0.932953  0.586340  0.650676  1
  O  O46  1  0.896779  0.987463  0.146928  1
  O  O47  1  0.461184  0.721001  0.762946  1
  O  O48  1  0.936344  0.848765  0.929670  1
  O  O49  1  0.686294  0.107213  0.005994  1
  O  O50  1  0.994742  0.533232  0.908309  1
  O  O51  1  0.169127  0.664539  0.731788  1
  O  O52  1  0.094657  0.093681  0.316399  1
  O  O53  1  0.413660  0.067047  0.349324  1
  O  O54  1  0.236393  0.356688  0.698272  1
  O  O55  1  0.892787  0.313706  0.994006  1
  O  O56  1  0.703971  0.420387  0.330187  1
  O  O57  1  0.638193  0.855419  0.588963  1
  O  O58  1  0.151235  0.063656  0.070330  1
  O  O59  1  0.957209  0.659614  0.203093  1
