# generated using pymatgen
data_Zn3Cu2(Si2O7)2
_symmetry_space_group_name_H-M   'P 1'
_cell_length_a   7.67839048
_cell_length_b   9.53205830
_cell_length_c   9.58371831
_cell_angle_alpha   62.91882916
_cell_angle_beta   66.38458269
_cell_angle_gamma   66.24874845
_symmetry_Int_Tables_number   1
_chemical_formula_structural   Zn3Cu2(Si2O7)2
_chemical_formula_sum   'Zn6 Cu4 Si8 O28'
_cell_volume   550.95663079
_cell_formula_units_Z   2
loop_
 _symmetry_equiv_pos_site_id
 _symmetry_equiv_pos_as_xyz
  1  'x, y, z'
loop_
 _atom_site_type_symbol
 _atom_site_label
 _atom_site_symmetry_multiplicity
 _atom_site_fract_x
 _atom_site_fract_y
 _atom_site_fract_z
 _atom_site_occupancy
  Zn  Zn0  1  0.938691  0.866684  0.430226  1
  Zn  Zn1  1  0.235601  0.633316  0.069774  1
  Zn  Zn2  1  0.764399  0.366684  0.930226  1
  Zn  Zn3  1  0.612367  0.250000  0.750000  1
  Zn  Zn4  1  0.061309  0.133316  0.569774  1
  Zn  Zn5  1  0.387633  0.750000  0.250000  1
  Cu  Cu6  1  0.225557  0.250000  0.750000  1
  Cu  Cu7  1  0.774443  0.750000  0.250000  1
  Cu  Cu8  1  0.000000  0.000000  0.000000  1
  Cu  Cu9  1  0.000000  0.500000  0.500000  1
  Si  Si10  1  0.429202  0.305431  0.325941  1
  Si  Si11  1  0.939425  0.805431  0.825941  1
  Si  Si12  1  0.495871  0.894153  0.869080  1
  Si  Si13  1  0.740898  0.394153  0.369080  1
  Si  Si14  1  0.060575  0.194569  0.174059  1
  Si  Si15  1  0.504129  0.105847  0.130920  1
  Si  Si16  1  0.259102  0.605847  0.630920  1
  Si  Si17  1  0.570798  0.694569  0.674059  1
  O  O18  1  0.193709  0.676987  0.461441  1
  O  O19  1  0.005361  0.594795  0.283790  1
  O  O20  1  0.543328  0.907476  0.188355  1
  O  O21  1  0.116055  0.094795  0.783790  1
  O  O22  1  0.791964  0.696113  0.541061  1
  O  O23  1  0.927516  0.363858  0.212768  1
  O  O24  1  0.360840  0.407476  0.688355  1
  O  O25  1  0.029138  0.803887  0.958939  1
  O  O26  1  0.072484  0.636142  0.787232  1
  O  O27  1  0.414408  0.706932  0.589271  1
  O  O28  1  0.994639  0.405205  0.716210  1
  O  O29  1  0.208036  0.303887  0.458939  1
  O  O30  1  0.504143  0.136142  0.287232  1
  O  O31  1  0.667861  0.176987  0.961441  1
  O  O32  1  0.289390  0.206932  0.089271  1
  O  O33  1  0.970862  0.196113  0.041061  1
  O  O34  1  0.059314  0.038510  0.338276  1
  O  O35  1  0.585592  0.293068  0.410729  1
  O  O36  1  0.436099  0.461490  0.161724  1
  O  O37  1  0.710610  0.793068  0.910729  1
  O  O38  1  0.495857  0.863858  0.712768  1
  O  O39  1  0.883945  0.905205  0.216210  1
  O  O40  1  0.563901  0.538510  0.838276  1
  O  O41  1  0.456672  0.092524  0.811645  1
  O  O42  1  0.940686  0.961490  0.661724  1
  O  O43  1  0.639160  0.592524  0.311645  1
  O  O44  1  0.332139  0.823013  0.038559  1
  O  O45  1  0.806291  0.323013  0.538559  1
