# generated using pymatgen
data_MgCoSiO5
_symmetry_space_group_name_H-M   'P 1'
_cell_length_a   5.36638909
_cell_length_b   6.72849330
_cell_length_c   8.61885152
_cell_angle_alpha   89.78376040
_cell_angle_beta   36.23542877
_cell_angle_gamma   75.32392167
_symmetry_Int_Tables_number   1
_chemical_formula_structural   MgCoSiO5
_chemical_formula_sum   'Mg2 Co2 Si2 O10'
_cell_volume   166.64679334
_cell_formula_units_Z   2
loop_
 _symmetry_equiv_pos_site_id
 _symmetry_equiv_pos_as_xyz
  1  'x, y, z'
loop_
 _atom_site_type_symbol
 _atom_site_label
 _atom_site_symmetry_multiplicity
 _atom_site_fract_x
 _atom_site_fract_y
 _atom_site_fract_z
 _atom_site_occupancy
  Mg  Mg0  1  0.506794  0.234006  0.672512  1
  Mg  Mg1  1  0.499577  0.731120  0.315053  1
  Co  Co2  1  0.498789  0.486314  0.996300  1
  Co  Co3  1  0.498918  0.986251  0.995511  1
  Si  Si4  1  0.499494  0.235253  0.325932  1
  Si  Si5  1  0.496847  0.736176  0.666543  1
  O  O6  1  0.281832  0.100242  0.330800  1
  O  O7  1  0.726691  0.369229  0.109316  1
  O  O8  1  0.713771  0.872997  0.660762  1
  O  O9  1  0.268907  0.604029  0.884864  1
  O  O10  1  0.873898  0.566790  0.352328  1
  O  O11  1  0.134914  0.896244  0.714238  1
  O  O12  1  0.124621  0.403185  0.640160  1
  O  O13  1  0.863781  0.073641  0.275948  1
  O  O14  1  0.497771  0.735788  0.079069  1
  O  O15  1  0.500127  0.235864  0.912679  1
