# generated using pymatgen
data_VZn(GeO3)2
_symmetry_space_group_name_H-M   'P 1'
_cell_length_a   5.41295011
_cell_length_b   6.88799745
_cell_length_c   6.88799782
_cell_angle_alpha   85.81998663
_cell_angle_beta   78.33034997
_cell_angle_gamma   78.33035075
_symmetry_Int_Tables_number   1
_chemical_formula_structural   VZn(GeO3)2
_chemical_formula_sum   'V2 Zn2 Ge4 O12'
_cell_volume   246.17087522
_cell_formula_units_Z   2
loop_
 _symmetry_equiv_pos_site_id
 _symmetry_equiv_pos_as_xyz
  1  'x, y, z'
loop_
 _atom_site_type_symbol
 _atom_site_label
 _atom_site_symmetry_multiplicity
 _atom_site_fract_x
 _atom_site_fract_y
 _atom_site_fract_z
 _atom_site_occupancy
  V  V0  1  0.750000  0.906816  0.093184  1
  V  V1  1  0.250000  0.093184  0.906816  1
  Zn  Zn2  1  0.750000  0.250840  0.749160  1
  Zn  Zn3  1  0.250000  0.749160  0.250840  1
  Ge  Ge4  1  0.753681  0.390720  0.210728  1
  Ge  Ge5  1  0.746319  0.789272  0.609280  1
  Ge  Ge6  1  0.246319  0.609280  0.789272  1
  Ge  Ge7  1  0.253681  0.210728  0.390720  1
  O  O8  1  0.537673  0.298973  0.415027  1
  O  O9  1  0.962327  0.584973  0.701027  1
  O  O10  1  0.462327  0.701027  0.584973  1
  O  O11  1  0.037673  0.415027  0.298973  1
  O  O12  1  0.109502  0.140224  0.628908  1
  O  O13  1  0.390498  0.371092  0.859777  1
  O  O14  1  0.890498  0.859777  0.371092  1
  O  O15  1  0.609502  0.628908  0.140224  1
  O  O16  1  0.852754  0.204881  0.030599  1
  O  O17  1  0.647246  0.969401  0.795119  1
  O  O18  1  0.147246  0.795119  0.969401  1
  O  O19  1  0.352754  0.030599  0.204881  1
