# generated using pymatgen
data_Zn(AgO2)2
_symmetry_space_group_name_H-M   'P 1'
_cell_length_a   6.33869389
_cell_length_b   6.49548979
_cell_length_c   19.18423356
_cell_angle_alpha   59.47142865
_cell_angle_beta   58.90304695
_cell_angle_gamma   59.22394887
_symmetry_Int_Tables_number   1
_chemical_formula_structural   Zn(AgO2)2
_chemical_formula_sum   'Zn6 Ag12 O24'
_cell_volume   548.30845170
_cell_formula_units_Z   6
loop_
 _symmetry_equiv_pos_site_id
 _symmetry_equiv_pos_as_xyz
  1  'x, y, z'
loop_
 _atom_site_type_symbol
 _atom_site_label
 _atom_site_symmetry_multiplicity
 _atom_site_fract_x
 _atom_site_fract_y
 _atom_site_fract_z
 _atom_site_occupancy
  Zn  Zn0  1  0.147187  0.113447  0.042003  1
  Zn  Zn1  1  0.497540  0.500327  0.333978  1
  Zn  Zn2  1  0.997466  0.496824  0.169462  1
  Zn  Zn3  1  0.502003  0.500506  0.665619  1
  Zn  Zn4  1  0.999601  0.500188  0.499904  1
  Zn  Zn5  1  0.004293  0.502253  0.830626  1
  Ag  Ag6  1  0.502580  0.996242  0.166583  1
  Ag  Ag7  1  0.141044  0.111863  0.378324  1
  Ag  Ag8  1  0.500212  0.498720  0.000758  1
  Ag  Ag9  1  0.502404  0.501500  0.166496  1
  Ag  Ag10  1  0.500027  0.000495  0.499792  1
  Ag  Ag11  1  0.143345  0.113649  0.709868  1
  Ag  Ag12  1  0.500006  0.499866  0.499905  1
  Ag  Ag13  1  0.496899  0.006844  0.833274  1
  Ag  Ag14  1  0.859223  0.886664  0.289196  1
  Ag  Ag15  1  0.496597  0.496818  0.833490  1
  Ag  Ag16  1  0.858090  0.886927  0.622435  1
  Ag  Ag17  1  0.865078  0.882546  0.956403  1
  O  O18  1  0.264671  0.255844  0.086501  1
  O  O19  1  0.275261  0.263580  0.232224  1
  O  O20  1  0.266685  0.717777  0.086352  1
  O  O21  1  0.756512  0.242351  0.084815  1
  O  O22  1  0.270149  0.265717  0.422986  1
  O  O23  1  0.271273  0.743399  0.248502  1
  O  O24  1  0.268314  0.258998  0.571043  1
  O  O25  1  0.725184  0.302738  0.245149  1
  O  O26  1  0.270596  0.694732  0.423226  1
  O  O27  1  0.729575  0.737673  0.098701  1
  O  O28  1  0.715450  0.257712  0.422935  1
  O  O29  1  0.726492  0.735344  0.245441  1
  O  O30  1  0.269855  0.265662  0.757212  1
  O  O31  1  0.284486  0.742667  0.576879  1
  O  O32  1  0.730123  0.305312  0.576243  1
  O  O33  1  0.270789  0.692865  0.757228  1
  O  O34  1  0.253564  0.254151  0.912772  1
  O  O35  1  0.729367  0.742203  0.428834  1
  O  O36  1  0.720185  0.257662  0.754559  1
  O  O37  1  0.730553  0.735156  0.576249  1
  O  O38  1  0.280333  0.747992  0.908830  1
  O  O39  1  0.724398  0.304684  0.911303  1
  O  O40  1  0.727139  0.742015  0.762885  1
  O  O41  1  0.725449  0.738085  0.911016  1
