# generated using pymatgen
data_HoZn(CoO3)2
_symmetry_space_group_name_H-M   'P 1'
_cell_length_a   5.15560472
_cell_length_b   5.47485165
_cell_length_c   7.48810893
_cell_angle_alpha   90.03200863
_cell_angle_beta   88.53161996
_cell_angle_gamma   89.93252366
_symmetry_Int_Tables_number   1
_chemical_formula_structural   HoZn(CoO3)2
_chemical_formula_sum   'Ho2 Zn2 Co4 O12'
_cell_volume   211.29105300
_cell_formula_units_Z   2
loop_
 _symmetry_equiv_pos_site_id
 _symmetry_equiv_pos_as_xyz
  1  'x, y, z'
loop_
 _atom_site_type_symbol
 _atom_site_label
 _atom_site_symmetry_multiplicity
 _atom_site_fract_x
 _atom_site_fract_y
 _atom_site_fract_z
 _atom_site_occupancy
  Ho  Ho0  1  0.020218  0.922506  0.752766  1
  Ho  Ho1  1  0.519682  0.577254  0.252721  1
  Zn  Zn2  1  0.485251  0.454483  0.748261  1
  Zn  Zn3  1  0.984442  0.045626  0.248295  1
  Co  Co4  1  0.001186  0.487008  0.001183  1
  Co  Co5  1  0.999906  0.485508  0.499070  1
  Co  Co6  1  0.501177  0.012813  0.501110  1
  Co  Co7  1  0.499799  0.014483  0.999046  1
  O  O8  1  0.107973  0.449745  0.260994  1
  O  O9  1  0.198565  0.194517  0.938480  1
  O  O10  1  0.208702  0.186942  0.560641  1
  O  O11  1  0.301082  0.678245  0.940878  1
  O  O12  1  0.309935  0.682679  0.558929  1
  O  O13  1  0.368731  0.969619  0.239098  1
  O  O14  1  0.608223  0.050750  0.760896  1
  O  O15  1  0.697985  0.304308  0.438249  1
  O  O16  1  0.708332  0.313397  0.060691  1
  O  O17  1  0.809056  0.818170  0.058821  1
  O  O18  1  0.800534  0.821327  0.440864  1
  O  O19  1  0.869220  0.530618  0.739010  1
