# generated using pymatgen
data_CaSbO3
_symmetry_space_group_name_H-M   'P 1'
_cell_length_a   5.68246080
_cell_length_b   5.90012423
_cell_length_c   8.16497715
_cell_angle_alpha   90.00004502
_cell_angle_beta   89.99983708
_cell_angle_gamma   89.99993399
_symmetry_Int_Tables_number   1
_chemical_formula_structural   CaSbO3
_chemical_formula_sum   'Ca4 Sb4 O12'
_cell_volume   273.74902319
_cell_formula_units_Z   4
loop_
 _symmetry_equiv_pos_site_id
 _symmetry_equiv_pos_as_xyz
  1  'x, y, z'
loop_
 _atom_site_type_symbol
 _atom_site_label
 _atom_site_symmetry_multiplicity
 _atom_site_fract_x
 _atom_site_fract_y
 _atom_site_fract_z
 _atom_site_occupancy
  Ca  Ca0  1  0.987579  0.054502  0.250000  1
  Ca  Ca1  1  0.487581  0.445498  0.750000  1
  Ca  Ca2  1  0.512418  0.554501  0.249999  1
  Ca  Ca3  1  0.012421  0.945499  0.749999  1
  Sb  Sb4  1  0.500000  -0.000000  -0.000000  1
  Sb  Sb5  1  -0.000000  0.500000  -0.000000  1
  Sb  Sb6  1  0.000000  0.500000  0.500000  1
  Sb  Sb7  1  0.500000  -0.000000  0.500000  1
  O  O8  1  0.888727  0.547561  0.750058  1
  O  O9  1  0.388726  0.952440  0.250059  1
  O  O10  1  0.611273  0.047561  0.749942  1
  O  O11  1  0.111273  0.452439  0.249942  1
  O  O12  1  0.693144  0.303354  0.442381  1
  O  O13  1  0.193263  0.196537  0.557615  1
  O  O14  1  0.806860  0.803354  0.057619  1
  O  O15  1  0.306737  0.696535  0.942384  1
  O  O16  1  0.693263  0.303465  0.057616  1
  O  O17  1  0.193140  0.196646  0.942381  1
  O  O18  1  0.306857  0.696647  0.557620  1
  O  O19  1  0.806737  0.803463  0.442384  1
