# generated using pymatgen
data_PWO4
_symmetry_space_group_name_H-M   'P 1'
_cell_length_a   5.24792020
_cell_length_b   9.78943832
_cell_length_c   14.50216731
_cell_angle_alpha   83.86770855
_cell_angle_beta   79.57606314
_cell_angle_gamma   74.47621557
_symmetry_Int_Tables_number   1
_chemical_formula_structural   PWO4
_chemical_formula_sum   'P8 W8 O32'
_cell_volume   704.66816117
_cell_formula_units_Z   8
loop_
 _symmetry_equiv_pos_site_id
 _symmetry_equiv_pos_as_xyz
  1  'x, y, z'
loop_
 _atom_site_type_symbol
 _atom_site_label
 _atom_site_symmetry_multiplicity
 _atom_site_fract_x
 _atom_site_fract_y
 _atom_site_fract_z
 _atom_site_occupancy
  P  P0  1  0.054830  0.565261  0.857420  1
  P  P1  1  0.755249  0.410283  0.619734  1
  P  P2  1  0.944411  0.435214  0.142911  1
  P  P3  1  0.214846  0.910284  0.119810  1
  P  P4  1  0.522803  0.065379  0.357089  1
  P  P5  1  0.476843  0.935571  0.642644  1
  P  P6  1  0.244306  0.590479  0.380153  1
  P  P7  1  0.784250  0.090458  0.880456  1
  W  W8  1  0.154647  0.234921  0.987605  1
  W  W9  1  0.377092  0.265836  0.512388  1
  W  W10  1  0.844654  0.765633  0.012605  1
  W  W11  1  0.499584  0.500223  0.000193  1
  W  W12  1  0.622455  0.735047  0.487479  1
  W  W13  1  0.689728  0.750348  0.250006  1
  W  W14  1  0.309542  0.250485  0.750021  1
  W  W15  1  0.999809  0.000538  0.499821  1
  O  O16  1  0.786622  0.377813  0.074026  1
  O  O17  1  0.863299  0.934885  0.914013  1
  O  O18  1  0.761135  0.878238  0.573904  1
  O  O19  1  0.715291  0.317235  0.545331  1
  O  O20  1  0.231174  0.391830  0.074174  1
  O  O21  1  0.572436  0.387319  0.711809  1
  O  O22  1  0.577145  0.183302  0.954989  1
  O  O23  1  0.953155  0.851218  0.133102  1
  O  O24  1  0.284407  0.683398  0.454598  1
  O  O25  1  0.711194  0.565892  0.586166  1
  O  O26  1  0.847094  0.603055  0.131842  1
  O  O27  1  0.552321  0.128285  0.261386  1
  O  O28  1  0.135611  0.065848  0.086269  1
  O  O29  1  0.062867  0.351793  0.632844  1
  O  O30  1  0.212634  0.622675  0.926299  1
  O  O31  1  0.152443  0.397440  0.868396  1
  O  O32  1  0.058680  0.628302  0.761750  1
  O  O33  1  0.422209  0.817469  0.045342  1
  O  O34  1  0.417297  0.103430  0.631684  1
  O  O35  1  0.447476  0.872444  0.738264  1
  O  O36  1  0.936683  0.649024  0.367073  1
  O  O37  1  0.302658  0.892193  0.573696  1
  O  O38  1  0.046054  0.149456  0.867040  1
  O  O39  1  0.329084  0.887766  0.211747  1
  O  O40  1  0.288439  0.434819  0.413600  1
  O  O41  1  0.238484  0.122825  0.425760  1
  O  O42  1  0.940379  0.372161  0.238577  1
  O  O43  1  0.696929  0.108895  0.425985  1
  O  O44  1  0.768101  0.608572  0.926186  1
  O  O45  1  0.669624  0.113033  0.788593  1
  O  O46  1  0.427011  0.613466  0.288067  1
  O  O47  1  0.582285  0.897529  0.368206  1
