# generated using pymatgen
data_LaTaCrO6
_symmetry_space_group_name_H-M   'P 1'
_cell_length_a   5.49889183
_cell_length_b   5.49592897
_cell_length_c   5.49541729
_cell_angle_alpha   60.23397471
_cell_angle_beta   119.85235670
_cell_angle_gamma   89.72633311
_symmetry_Int_Tables_number   1
_chemical_formula_structural   LaTaCrO6
_chemical_formula_sum   'La1 Ta1 Cr1 O6'
_cell_volume   117.83163427
_cell_formula_units_Z   1
loop_
 _symmetry_equiv_pos_site_id
 _symmetry_equiv_pos_as_xyz
  1  'x, y, z'
loop_
 _atom_site_type_symbol
 _atom_site_label
 _atom_site_symmetry_multiplicity
 _atom_site_fract_x
 _atom_site_fract_y
 _atom_site_fract_z
 _atom_site_occupancy
  La  La0  1  0.756412  0.261869  0.495838  1
  Ta  Ta1  1  0.505961  0.010533  0.000079  1
  Cr  Cr2  1  0.002992  0.513202  0.994468  1
  O  O3  1  0.312828  0.256070  0.499561  1
  O  O4  1  0.213365  0.290368  0.943429  1
  O  O5  1  0.773312  0.710487  0.064809  1
  O  O6  1  0.208571  0.792834  0.949393  1
  O  O7  1  0.776632  0.240234  0.050192  1
  O  O8  1  0.710165  0.765815  0.502645  1
