# generated using pymatgen
data_CaCoBi2O7
_symmetry_space_group_name_H-M   'P 1'
_cell_length_a   7.45967180
_cell_length_b   11.45139010
_cell_length_c   14.92756017
_cell_angle_alpha   90.00000000
_cell_angle_beta   90.00000000
_cell_angle_gamma   103.75633935
_symmetry_Int_Tables_number   1
_chemical_formula_structural   CaCoBi2O7
_chemical_formula_sum   'Ca8 Co8 Bi16 O56'
_cell_volume   1238.58894170
_cell_formula_units_Z   8
loop_
 _symmetry_equiv_pos_site_id
 _symmetry_equiv_pos_as_xyz
  1  'x, y, z'
loop_
 _atom_site_type_symbol
 _atom_site_label
 _atom_site_symmetry_multiplicity
 _atom_site_fract_x
 _atom_site_fract_y
 _atom_site_fract_z
 _atom_site_occupancy
  Ca  Ca0  1  0.119722  0.792795  0.509301  1
  Ca  Ca1  1  0.316741  0.985440  0.875565  1
  Ca  Ca2  1  0.683259  0.514560  0.375565  1
  Ca  Ca3  1  0.683259  0.014560  0.124435  1
  Ca  Ca4  1  0.316741  0.485440  0.624435  1
  Ca  Ca5  1  0.119722  0.292795  0.990699  1
  Ca  Ca6  1  0.880278  0.207205  0.490699  1
  Ca  Ca7  1  0.880278  0.707205  0.009301  1
  Co  Co8  1  0.636772  0.088281  0.668340  1
  Co  Co9  1  0.363228  0.411719  0.168340  1
  Co  Co10  1  0.363228  0.911719  0.331660  1
  Co  Co11  1  0.636772  0.588281  0.831660  1
  Co  Co12  1  0.992056  0.268627  0.741733  1
  Co  Co13  1  0.007944  0.231373  0.241733  1
  Co  Co14  1  0.007944  0.731373  0.258267  1
  Co  Co15  1  0.992056  0.768627  0.758267  1
  Bi  Bi16  1  0.860905  0.018332  0.900961  1
  Bi  Bi17  1  0.378812  0.694443  0.015945  1
  Bi  Bi18  1  0.378812  0.194443  0.484055  1
  Bi  Bi19  1  0.621188  0.305557  0.984055  1
  Bi  Bi20  1  0.499240  0.789074  0.735251  1
  Bi  Bi21  1  0.500760  0.710926  0.235251  1
  Bi  Bi22  1  0.500760  0.210926  0.264749  1
  Bi  Bi23  1  0.499240  0.289074  0.764749  1
  Bi  Bi24  1  0.621188  0.805557  0.515945  1
  Bi  Bi25  1  0.898537  0.460446  0.180986  1
  Bi  Bi26  1  0.101463  0.039554  0.680986  1
  Bi  Bi27  1  0.101463  0.539554  0.819014  1
  Bi  Bi28  1  0.139095  0.481668  0.400961  1
  Bi  Bi29  1  0.860905  0.518332  0.599039  1
  Bi  Bi30  1  0.139095  0.981668  0.099039  1
  Bi  Bi31  1  0.898537  0.960446  0.319014  1
  O  O32  1  0.864957  0.910685  0.021286  1
  O  O33  1  0.135043  0.589315  0.521286  1
  O  O34  1  0.135043  0.089315  0.978714  1
  O  O35  1  0.864957  0.410685  0.478714  1
  O  O36  1  0.009010  0.917395  0.814009  1
  O  O37  1  0.990990  0.582605  0.314009  1
  O  O38  1  0.990990  0.082605  0.185991  1
  O  O39  1  0.009010  0.417395  0.685991  1
  O  O40  1  0.038395  0.140746  0.803513  1
  O  O41  1  0.961605  0.359254  0.303513  1
  O  O42  1  0.961605  0.859254  0.196487  1
  O  O43  1  0.038395  0.640746  0.696487  1
  O  O44  1  0.617697  0.918371  0.273716  1
  O  O45  1  0.382303  0.581629  0.773716  1
  O  O46  1  0.382303  0.081629  0.726284  1
  O  O47  1  0.617697  0.418371  0.226284  1
  O  O48  1  0.967573  0.145663  0.350744  1
  O  O49  1  0.032427  0.354337  0.850744  1
  O  O50  1  0.032427  0.854337  0.649256  1
  O  O51  1  0.967573  0.645663  0.149256  1
  O  O52  1  0.070824  0.842101  0.359064  1
  O  O53  1  0.398649  0.810233  0.432310  1
  O  O54  1  0.929176  0.657899  0.859064  1
  O  O55  1  0.070824  0.342101  0.140936  1
  O  O56  1  0.767824  0.663042  0.505820  1
  O  O57  1  0.232176  0.836958  0.005820  1
  O  O58  1  0.232176  0.336958  0.494180  1
  O  O59  1  0.767824  0.163043  0.994180  1
  O  O60  1  0.815319  0.953446  0.459822  1
  O  O61  1  0.184681  0.546554  0.959822  1
  O  O62  1  0.184681  0.046554  0.540178  1
  O  O63  1  0.815319  0.453446  0.040178  1
  O  O64  1  0.428322  0.199280  0.891555  1
  O  O65  1  0.571678  0.300720  0.391555  1
  O  O66  1  0.571678  0.800720  0.108445  1
  O  O67  1  0.428322  0.699280  0.608445  1
  O  O68  1  0.734296  0.212514  0.761854  1
  O  O69  1  0.265704  0.287486  0.261854  1
  O  O70  1  0.265704  0.787486  0.238146  1
  O  O71  1  0.734296  0.712514  0.738146  1
  O  O72  1  0.600660  0.440752  0.670011  1
  O  O73  1  0.399340  0.059248  0.170011  1
  O  O74  1  0.399340  0.559248  0.329989  1
  O  O75  1  0.600660  0.940752  0.829989  1
  O  O76  1  0.246569  0.298244  0.702608  1
  O  O77  1  0.753431  0.201756  0.202608  1
  O  O78  1  0.753431  0.701756  0.297392  1
  O  O79  1  0.246569  0.798244  0.797392  1
  O  O80  1  0.616831  0.424418  0.867382  1
  O  O81  1  0.383169  0.075581  0.367382  1
  O  O82  1  0.383169  0.575581  0.132618  1
  O  O83  1  0.616831  0.924419  0.632618  1
  O  O84  1  0.398649  0.310233  0.067690  1
  O  O85  1  0.601351  0.189767  0.567690  1
  O  O86  1  0.601351  0.689767  0.932310  1
  O  O87  1  0.929176  0.157899  0.640936  1
