# generated using pymatgen
data_Zn(BiO2)2
_symmetry_space_group_name_H-M   'P 1'
_cell_length_a   3.40066086
_cell_length_b   11.47874862
_cell_length_c   10.69482937
_cell_angle_alpha   89.99983842
_cell_angle_beta   90.00026739
_cell_angle_gamma   89.99880531
_symmetry_Int_Tables_number   1
_chemical_formula_structural   Zn(BiO2)2
_chemical_formula_sum   'Zn4 Bi8 O16'
_cell_volume   417.47620604
_cell_formula_units_Z   4
loop_
 _symmetry_equiv_pos_site_id
 _symmetry_equiv_pos_as_xyz
  1  'x, y, z'
loop_
 _atom_site_type_symbol
 _atom_site_label
 _atom_site_symmetry_multiplicity
 _atom_site_fract_x
 _atom_site_fract_y
 _atom_site_fract_z
 _atom_site_occupancy
  Zn  Zn0  1  0.642376  0.750003  0.141779  1
  Zn  Zn1  1  0.642369  0.250000  0.358219  1
  Zn  Zn2  1  0.357628  0.750000  0.641777  1
  Zn  Zn3  1  0.357629  0.249999  0.858221  1
  Bi  Bi4  1  0.828813  0.587378  0.377779  1
  Bi  Bi5  1  0.828865  0.087362  0.122212  1
  Bi  Bi6  1  0.171117  0.087382  0.622224  1
  Bi  Bi7  1  0.828837  0.412617  0.122220  1
  Bi  Bi8  1  0.171188  0.412639  0.622209  1
  Bi  Bi9  1  0.828836  0.912632  0.377790  1
  Bi  Bi10  1  0.171162  0.912616  0.877775  1
  Bi  Bi11  1  0.171175  0.587369  0.877794  1
  O  O12  1  0.259561  0.896346  0.534985  1
  O  O13  1  0.740446  0.103660  0.465019  1
  O  O14  1  0.256310  -0.000001  0.250002  1
  O  O15  1  0.740473  0.896341  0.034979  1
  O  O16  1  0.740449  0.603656  0.034985  1
  O  O17  1  0.139576  0.250002  0.246907  1
  O  O18  1  0.259565  0.103653  0.965013  1
  O  O19  1  0.860416  0.249998  0.746911  1
  O  O20  1  0.256276  0.499999  0.250003  1
  O  O21  1  0.743705  0.999998  0.750000  1
  O  O22  1  0.259521  0.603655  0.534981  1
  O  O23  1  0.860423  0.750002  0.753090  1
  O  O24  1  0.139591  0.750000  0.253090  1
  O  O25  1  0.743705  0.500002  0.750000  1
  O  O26  1  0.259533  0.396342  0.965019  1
  O  O27  1  0.740451  0.396350  0.465015  1
