# generated using pymatgen
data_Ca(CuO2)2
_symmetry_space_group_name_H-M   'P 1'
_cell_length_a   5.53267892
_cell_length_b   5.53267946
_cell_length_c   7.50138809
_cell_angle_alpha   111.64021028
_cell_angle_beta   111.64021801
_cell_angle_gamma   89.99999653
_symmetry_Int_Tables_number   1
_chemical_formula_structural   Ca(CuO2)2
_chemical_formula_sum   'Ca2 Cu4 O8'
_cell_volume   195.92072969
_cell_formula_units_Z   2
loop_
 _symmetry_equiv_pos_site_id
 _symmetry_equiv_pos_as_xyz
  1  'x, y, z'
loop_
 _atom_site_type_symbol
 _atom_site_label
 _atom_site_symmetry_multiplicity
 _atom_site_fract_x
 _atom_site_fract_y
 _atom_site_fract_z
 _atom_site_occupancy
  Ca  Ca0  1  0.375000  0.625000  0.750000  1
  Ca  Ca1  1  0.625000  0.375000  0.250000  1
  Cu  Cu2  1  0.000000  0.000000  0.500000  1
  Cu  Cu3  1  0.000000  0.500000  0.000000  1
  Cu  Cu4  1  0.500000  0.000000  0.500000  1
  Cu  Cu5  1  0.000000  0.000000  0.000000  1
  O  O6  1  0.754565  0.783954  0.509131  1
  O  O7  1  0.774825  0.245435  0.990869  1
  O  O8  1  0.216046  0.245435  0.990869  1
  O  O9  1  0.245435  0.216046  0.490869  1
  O  O10  1  0.245435  0.774825  0.490869  1
  O  O11  1  0.225175  0.754565  0.009131  1
  O  O12  1  0.754565  0.225175  0.509131  1
  O  O13  1  0.783954  0.754565  0.009131  1
