# generated using pymatgen
data_Zn2Co3O8
_symmetry_space_group_name_H-M   'P 1'
_cell_length_a   5.83241032
_cell_length_b   5.83240981
_cell_length_c   9.47125423
_cell_angle_alpha   90.00000000
_cell_angle_beta   90.00000000
_cell_angle_gamma   120.00000291
_symmetry_Int_Tables_number   1
_chemical_formula_structural   Zn2Co3O8
_chemical_formula_sum   'Zn4 Co6 O16'
_cell_volume   279.01928049
_cell_formula_units_Z   2
loop_
 _symmetry_equiv_pos_site_id
 _symmetry_equiv_pos_as_xyz
  1  'x, y, z'
loop_
 _atom_site_type_symbol
 _atom_site_label
 _atom_site_symmetry_multiplicity
 _atom_site_fract_x
 _atom_site_fract_y
 _atom_site_fract_z
 _atom_site_occupancy
  Zn  Zn0  1  0.666667  0.333334  0.026150  1
  Zn  Zn1  1  0.333333  0.666666  0.526151  1
  Zn  Zn2  1  0.666667  0.333334  0.424773  1
  Zn  Zn3  1  0.333333  0.666666  0.924774  1
  Co  Co4  1  0.673338  0.836670  0.243141  1
  Co  Co5  1  0.836671  0.163331  0.743141  1
  Co  Co6  1  0.163331  0.326663  0.243141  1
  Co  Co7  1  0.836669  0.673338  0.743141  1
  Co  Co8  1  0.326663  0.163331  0.743141  1
  Co  Co9  1  0.163331  0.836670  0.243141  1
  O  O10  1  0.838326  0.161675  0.144898  1
  O  O11  1  0.676652  0.838326  0.644897  1
  O  O12  1  0.161675  0.323349  0.644897  1
  O  O13  1  0.838325  0.676652  0.144898  1
  O  O14  1  0.323348  0.161675  0.144898  1
  O  O15  1  0.161675  0.838326  0.644897  1
  O  O16  1  0.518540  0.481459  0.863479  1
  O  O17  1  0.037081  0.518540  0.363478  1
  O  O18  1  0.481460  0.962920  0.363478  1
  O  O19  1  0.518540  0.037081  0.863479  1
  O  O20  1  -0.000000  -0.000000  0.355108  1
  O  O21  1  -0.000000  -0.000000  0.855108  1
  O  O22  1  0.333333  0.666666  0.132917  1
  O  O23  1  0.962918  0.481459  0.863479  1
  O  O24  1  0.481459  0.518540  0.363478  1
  O  O25  1  0.666667  0.333334  0.632917  1
