# generated using pymatgen
data_Mg2BiWO6
_symmetry_space_group_name_H-M   'P 1'
_cell_length_a   5.89741423
_cell_length_b   6.62923038
_cell_length_c   8.02125844
_cell_angle_alpha   91.23037004
_cell_angle_beta   134.27398522
_cell_angle_gamma   122.64321389
_symmetry_Int_Tables_number   1
_chemical_formula_structural   Mg2BiWO6
_chemical_formula_sum   'Mg2 Bi1 W1 O6'
_cell_volume   142.01293703
_cell_formula_units_Z   1
loop_
 _symmetry_equiv_pos_site_id
 _symmetry_equiv_pos_as_xyz
  1  'x, y, z'
loop_
 _atom_site_type_symbol
 _atom_site_label
 _atom_site_symmetry_multiplicity
 _atom_site_fract_x
 _atom_site_fract_y
 _atom_site_fract_z
 _atom_site_occupancy
  Mg  Mg0  1  0.083740  0.682379  0.335209  1
  Mg  Mg1  1  0.914914  0.590460  0.654860  1
  Bi  Bi2  1  0.992861  0.028802  0.503092  1
  W  W3  1  0.003452  0.957079  0.006244  1
  O  O4  1  0.365478  0.110092  0.416795  1
  O  O5  1  0.656229  0.767590  0.582795  1
  O  O6  1  0.563826  0.410063  0.240405  1
  O  O7  1  0.512778  0.909438  0.802161  1
  O  O8  1  0.362852  0.892317  0.086944  1
  O  O9  1  0.567293  0.515047  0.886615  1
