# generated using pymatgen
data_Zn(SnO2)2
_symmetry_space_group_name_H-M   'P 1'
_cell_length_a   6.58890939
_cell_length_b   6.58887656
_cell_length_c   19.60507538
_cell_angle_alpha   60.32212783
_cell_angle_beta   60.32338847
_cell_angle_gamma   60.23970266
_symmetry_Int_Tables_number   1
_chemical_formula_structural   Zn(SnO2)2
_chemical_formula_sum   'Zn6 Sn12 O24'
_cell_volume   605.85427532
_cell_formula_units_Z   6
loop_
 _symmetry_equiv_pos_site_id
 _symmetry_equiv_pos_as_xyz
  1  'x, y, z'
loop_
 _atom_site_type_symbol
 _atom_site_label
 _atom_site_symmetry_multiplicity
 _atom_site_fract_x
 _atom_site_fract_y
 _atom_site_fract_z
 _atom_site_occupancy
  Zn  Zn0  1  0.117089  0.117096  0.049489  1
  Zn  Zn1  1  0.108370  0.108387  0.385633  1
  Zn  Zn2  1  0.500414  0.500405  0.999655  1
  Zn  Zn3  1  0.116159  0.116168  0.713354  1
  Zn  Zn4  1  0.888683  0.888673  0.282363  1
  Zn  Zn5  1  0.887029  0.887021  0.617878  1
  Sn  Sn6  1  0.009306  0.497942  0.165354  1
  Sn  Sn7  1  0.497470  0.497475  0.165251  1
  Sn  Sn8  1  0.998890  0.499885  0.499159  1
  Sn  Sn9  1  0.497941  0.009308  0.165353  1
  Sn  Sn10  1  0.504343  0.504339  0.331862  1
  Sn  Sn11  1  0.499565  0.499565  0.499709  1
  Sn  Sn12  1  0.997015  0.500520  0.833317  1
  Sn  Sn13  1  0.499879  0.998884  0.499162  1
  Sn  Sn14  1  0.500519  0.997018  0.833322  1
  Sn  Sn15  1  0.497729  0.497697  0.665314  1
  Sn  Sn16  1  0.501087  0.501078  0.833118  1
  Sn  Sn17  1  0.883174  0.883149  0.951455  1
  O  O18  1  0.261693  0.261712  0.084854  1
  O  O19  1  0.254767  0.254769  0.246611  1
  O  O20  1  0.263215  0.720209  0.084610  1
  O  O21  1  0.720203  0.263230  0.084611  1
  O  O22  1  0.268722  0.768815  0.230779  1
  O  O23  1  0.243193  0.243217  0.428185  1
  O  O24  1  0.768812  0.268727  0.230780  1
  O  O25  1  0.725241  0.725253  0.106936  1
  O  O26  1  0.217227  0.734720  0.426379  1
  O  O27  1  0.245496  0.245506  0.576678  1
  O  O28  1  0.771806  0.771795  0.231468  1
  O  O29  1  0.734709  0.217231  0.426385  1
  O  O30  1  0.259045  0.785309  0.577716  1
  O  O31  1  0.221730  0.221739  0.770839  1
  O  O32  1  0.785320  0.259049  0.577716  1
  O  O33  1  0.764284  0.764269  0.418502  1
  O  O34  1  0.260747  0.260754  0.906675  1
  O  O35  1  0.224661  0.737029  0.771811  1
  O  O36  1  0.752599  0.752575  0.572670  1
  O  O37  1  0.737035  0.224670  0.771811  1
  O  O38  1  0.315152  0.727667  0.908865  1
  O  O39  1  0.741484  0.741503  0.756153  1
  O  O40  1  0.727672  0.315132  0.908869  1
  O  O41  1  0.730524  0.730511  0.909347  1
