# generated using pymatgen
data_MoPO4
_symmetry_space_group_name_H-M   'P 1'
_cell_length_a   5.26189651
_cell_length_b   9.66991431
_cell_length_c   14.59898820
_cell_angle_alpha   84.30003864
_cell_angle_beta   79.61775053
_cell_angle_gamma   74.21218521
_symmetry_Int_Tables_number   1
_chemical_formula_structural   MoPO4
_chemical_formula_sum   'Mo8 P8 O32'
_cell_volume   702.10826904
_cell_formula_units_Z   8
loop_
 _symmetry_equiv_pos_site_id
 _symmetry_equiv_pos_as_xyz
  1  'x, y, z'
loop_
 _atom_site_type_symbol
 _atom_site_label
 _atom_site_symmetry_multiplicity
 _atom_site_fract_x
 _atom_site_fract_y
 _atom_site_fract_z
 _atom_site_occupancy
  Mo  Mo0  1  0.161356  0.233396  0.985713  1
  Mo  Mo1  1  0.380464  0.266604  0.514287  1
  Mo  Mo2  1  0.838644  0.766604  0.014287  1
  Mo  Mo3  1  0.500000  0.500000  0.000000  1
  Mo  Mo4  1  0.619536  0.733396  0.485713  1
  Mo  Mo5  1  0.685894  0.750000  0.250000  1
  Mo  Mo6  1  0.314106  0.250000  0.750000  1
  Mo  Mo7  1  0.000000  0.000000  0.500000  1
  P  P8  1  0.056296  0.565722  0.859563  1
  P  P9  1  0.758508  0.407928  0.618766  1
  P  P10  1  0.943704  0.434278  0.140437  1
  P  P11  1  0.214798  0.907928  0.118766  1
  P  P12  1  0.518419  0.065722  0.359563  1
  P  P13  1  0.481581  0.934278  0.640437  1
  P  P14  1  0.241492  0.592072  0.381234  1
  P  P15  1  0.785202  0.092072  0.881234  1
  O  O16  1  0.787064  0.375418  0.072826  1
  O  O17  1  0.856469  0.935428  0.916974  1
  O  O18  1  0.764695  0.875418  0.572826  1
  O  O19  1  0.726598  0.309020  0.545419  1
  O  O20  1  0.228189  0.393034  0.071438  1
  O  O21  1  0.570190  0.387587  0.709283  1
  O  O22  1  0.581037  0.190980  0.954581  1
  O  O23  1  0.950325  0.852580  0.133839  1
  O  O24  1  0.273402  0.690980  0.454581  1
  O  O25  1  0.708870  0.564572  0.583026  1
  O  O26  1  0.840994  0.604357  0.131366  1
  O  O27  1  0.553370  0.128765  0.264800  1
  O  O28  1  0.143531  0.064572  0.083026  1
  O  O29  1  0.063257  0.352580  0.633839  1
  O  O30  1  0.212936  0.624582  0.927174  1
  O  O31  1  0.159006  0.395643  0.868634  1
  O  O32  1  0.053064  0.628765  0.764800  1
  O  O33  1  0.418963  0.809020  0.045419  1
  O  O34  1  0.423283  0.104357  0.631366  1
  O  O35  1  0.446630  0.871235  0.735200  1
  O  O36  1  0.936743  0.647420  0.366161  1
  O  O37  1  0.307338  0.893034  0.571438  1
  O  O38  1  0.049675  0.147420  0.866161  1
  O  O39  1  0.332941  0.887587  0.209283  1
  O  O40  1  0.291130  0.435428  0.416974  1
  O  O41  1  0.235305  0.124582  0.427174  1
  O  O42  1  0.946936  0.371235  0.235200  1
  O  O43  1  0.692662  0.106966  0.428562  1
  O  O44  1  0.771811  0.606966  0.928562  1
  O  O45  1  0.667059  0.112413  0.790717  1
  O  O46  1  0.429810  0.612413  0.290717  1
  O  O47  1  0.576718  0.895643  0.368634  1
