# generated using pymatgen
data_Zn(FeO2)2
_symmetry_space_group_name_H-M   'P 1'
_cell_length_a   5.99808842
_cell_length_b   6.00644158
_cell_length_c   5.98949900
_cell_angle_alpha   90.06981429
_cell_angle_beta   119.92776433
_cell_angle_gamma   119.99750610
_symmetry_Int_Tables_number   1
_chemical_formula_structural   Zn(FeO2)2
_chemical_formula_sum   'Zn2 Fe4 O8'
_cell_volume   152.66204299
_cell_formula_units_Z   2
loop_
 _symmetry_equiv_pos_site_id
 _symmetry_equiv_pos_as_xyz
  1  'x, y, z'
loop_
 _atom_site_type_symbol
 _atom_site_label
 _atom_site_symmetry_multiplicity
 _atom_site_fract_x
 _atom_site_fract_y
 _atom_site_fract_z
 _atom_site_occupancy
  Zn  Zn0  1  0.254517  0.127346  0.881605  1
  Zn  Zn1  1  0.745481  0.872657  0.118424  1
  Fe  Fe2  1  0.500029  0.000058  0.499989  1
  Fe  Fe3  1  0.500034  0.499972  0.499997  1
  Fe  Fe4  1  0.999994  0.499998  0.999994  1
  Fe  Fe5  1  -0.000080  0.499959  0.499955  1
  O  O6  1  0.017976  0.735092  0.252311  1
  O  O7  1  0.476156  0.738306  0.715777  1
  O  O8  1  0.472689  0.736095  0.255419  1
  O  O9  1  0.982195  0.717112  0.748729  1
  O  O10  1  0.527296  0.263893  0.744567  1
  O  O11  1  0.523909  0.261726  0.284317  1
  O  O12  1  0.017798  0.282876  0.251252  1
  O  O13  1  0.982009  0.264909  0.747666  1
