# generated using pymatgen
data_Ba2Tl2Zn2Fe3O10
_symmetry_space_group_name_H-M   'P 1'
_cell_length_a   4.01913096
_cell_length_b   3.98421828
_cell_length_c   17.81846584
_cell_angle_alpha   94.14315275
_cell_angle_beta   94.84569324
_cell_angle_gamma   90.49980145
_symmetry_Int_Tables_number   1
_chemical_formula_structural   Ba2Tl2Zn2Fe3O10
_chemical_formula_sum   'Ba2 Tl2 Zn2 Fe3 O10'
_cell_volume   283.53441285
_cell_formula_units_Z   1
loop_
 _symmetry_equiv_pos_site_id
 _symmetry_equiv_pos_as_xyz
  1  'x, y, z'
loop_
 _atom_site_type_symbol
 _atom_site_label
 _atom_site_symmetry_multiplicity
 _atom_site_fract_x
 _atom_site_fract_y
 _atom_site_fract_z
 _atom_site_occupancy
  Ba  Ba0  1  0.130149  0.151622  0.279704  1
  Ba  Ba1  1  0.817863  0.805529  0.719415  1
  Tl  Tl2  1  0.627643  0.718883  0.435725  1
  Tl  Tl3  1  0.180999  0.264635  0.563197  1
  Zn  Zn4  1  0.877841  0.948398  0.911140  1
  Zn  Zn5  1  0.969893  0.030415  0.087790  1
  Fe  Fe6  1  0.375096  0.349929  0.839644  1
  Fe  Fe7  1  0.581767  0.597574  0.160732  1
  Fe  Fe8  1  0.325523  0.582727  -0.000563  1
  O  O9  1  0.381642  0.844541  0.838883  1
  O  O10  1  0.300392  0.301836  0.681713  1
  O  O11  1  0.874672  0.314834  0.835852  1
  O  O12  1  0.841227  0.757877  0.552412  1
  O  O13  1  0.806545  0.640211  0.993016  1
  O  O14  1  0.089930  0.618242  0.162678  1
  O  O15  1  0.642029  0.669692  0.316292  1
  O  O16  1  0.620112  0.102555  0.161701  1
  O  O17  1  0.297843  0.219859  0.446287  1
  O  O18  1  0.259923  0.098601  0.005347  1
