# generated using pymatgen
data_CuTe2O7
_symmetry_space_group_name_H-M   'P 1'
_cell_length_a   9.54264468
_cell_length_b   11.16304110
_cell_length_c   10.62613591
_cell_angle_alpha   94.36507642
_cell_angle_beta   90.00000000
_cell_angle_gamma   90.00000000
_symmetry_Int_Tables_number   1
_chemical_formula_structural   CuTe2O7
_chemical_formula_sum   'Cu6 Te12 O42'
_cell_volume   1128.66502552
_cell_formula_units_Z   6
loop_
 _symmetry_equiv_pos_site_id
 _symmetry_equiv_pos_as_xyz
  1  'x, y, z'
loop_
 _atom_site_type_symbol
 _atom_site_label
 _atom_site_symmetry_multiplicity
 _atom_site_fract_x
 _atom_site_fract_y
 _atom_site_fract_z
 _atom_site_occupancy
  Cu  Cu0  1  0.936910  0.803920  0.409513  1
  Cu  Cu1  1  0.063090  0.196080  0.590487  1
  Cu  Cu2  1  0.435181  0.500000  0.250000  1
  Cu  Cu3  1  0.936910  0.196080  0.090487  1
  Cu  Cu4  1  0.564819  0.500000  0.750000  1
  Cu  Cu5  1  0.063090  0.803920  0.909513  1
  Te  Te6  1  0.211899  0.166296  0.293132  1
  Te  Te7  1  0.754874  0.161737  0.377642  1
  Te  Te8  1  0.245126  0.161737  0.877642  1
  Te  Te9  1  0.788101  0.166296  0.793132  1
  Te  Te10  1  0.284549  0.477880  0.958460  1
  Te  Te11  1  0.754874  0.838263  0.122358  1
  Te  Te12  1  0.715451  0.477880  0.458460  1
  Te  Te13  1  0.245126  0.838263  0.622358  1
  Te  Te14  1  0.284549  0.522120  0.541540  1
  Te  Te15  1  0.715451  0.522120  0.041540  1
  Te  Te16  1  0.788101  0.833704  0.706868  1
  Te  Te17  1  0.211899  0.833704  0.206868  1
  O  O18  1  0.788519  0.194731  0.967686  1
  O  O19  1  0.782644  0.826268  0.294187  1
  O  O20  1  0.853635  0.000000  0.750000  1
  O  O21  1  0.886867  0.505418  0.108790  1
  O  O22  1  0.369754  0.950169  0.583027  1
  O  O23  1  0.934552  0.246381  0.720311  1
  O  O24  1  0.343677  0.309744  0.937740  1
  O  O25  1  0.113133  0.505418  0.608790  1
  O  O26  1  0.715646  0.482610  0.868596  1
  O  O27  1  0.369754  0.049831  0.916973  1
  O  O28  1  0.715646  0.517390  0.631404  1
  O  O29  1  0.433101  0.551189  0.880673  1
  O  O30  1  0.925073  0.849378  0.038297  1
  O  O31  1  0.065448  0.246381  0.220311  1
  O  O32  1  0.656323  0.690256  0.062260  1
  O  O33  1  0.343677  0.690256  0.562260  1
  O  O34  1  0.934552  0.753619  0.779689  1
  O  O35  1  0.630246  0.049831  0.416973  1
  O  O36  1  0.211481  0.194731  0.467686  1
  O  O37  1  0.566899  0.448811  0.119327  1
  O  O38  1  0.381856  0.805625  0.272418  1
  O  O39  1  0.284354  0.517390  0.131404  1
  O  O40  1  0.074927  0.849378  0.538297  1
  O  O41  1  0.284354  0.482610  0.368596  1
  O  O42  1  0.886867  0.494582  0.391210  1
  O  O43  1  0.566899  0.551189  0.380673  1
  O  O44  1  0.113133  0.494582  0.891210  1
  O  O45  1  0.618144  0.805625  0.772418  1
  O  O46  1  0.618144  0.194375  0.727582  1
  O  O47  1  0.074927  0.150622  0.961703  1
  O  O48  1  0.065448  0.753619  0.279689  1
  O  O49  1  0.788519  0.805269  0.532314  1
  O  O50  1  0.146365  0.000000  0.250000  1
  O  O51  1  0.217356  0.826268  0.794187  1
  O  O52  1  0.630246  0.950169  0.083027  1
  O  O53  1  0.925073  0.150622  0.461703  1
  O  O54  1  0.211481  0.805269  0.032314  1
  O  O55  1  0.782644  0.173732  0.205813  1
  O  O56  1  0.433101  0.448811  0.619327  1
  O  O57  1  0.656323  0.309744  0.437740  1
  O  O58  1  0.217356  0.173732  0.705813  1
  O  O59  1  0.381856  0.194375  0.227582  1
