# generated using pymatgen
data_MgCo4(CuO4)3
_symmetry_space_group_name_H-M   'P 1'
_cell_length_a   6.23889449
_cell_length_b   6.23701976
_cell_length_c   6.23821275
_cell_angle_alpha   109.44363298
_cell_angle_beta   109.47707120
_cell_angle_gamma   109.48281630
_symmetry_Int_Tables_number   1
_chemical_formula_structural   MgCo4(CuO4)3
_chemical_formula_sum   'Mg1 Co4 Cu3 O12'
_cell_volume   186.88625102
_cell_formula_units_Z   1
loop_
 _symmetry_equiv_pos_site_id
 _symmetry_equiv_pos_as_xyz
  1  'x, y, z'
loop_
 _atom_site_type_symbol
 _atom_site_label
 _atom_site_symmetry_multiplicity
 _atom_site_fract_x
 _atom_site_fract_y
 _atom_site_fract_z
 _atom_site_occupancy
  Mg  Mg0  1  0.999996  0.999980  0.000001  1
  Co  Co1  1  -0.000003  0.000000  0.500000  1
  Co  Co2  1  0.999999  0.499997  -0.000002  1
  Co  Co3  1  0.500001  0.500000  0.499998  1
  Co  Co4  1  0.500001  0.000001  0.000001  1
  Cu  Cu5  1  0.499999  0.500002  0.999998  1
  Cu  Cu6  1  0.000002  0.500000  0.500002  1
  Cu  Cu7  1  0.499998  -0.000001  0.499997  1
  O  O8  1  0.828194  0.305762  0.133727  1
  O  O9  1  0.171810  0.694238  0.866276  1
  O  O10  1  0.828414  0.694778  0.523038  1
  O  O11  1  0.305564  0.477622  0.171845  1
  O  O12  1  0.477381  0.171966  0.305618  1
  O  O13  1  0.133719  0.827843  0.305594  1
  O  O14  1  0.694659  0.866346  0.171482  1
  O  O15  1  0.522618  0.828035  0.694378  1
  O  O16  1  0.171591  0.305226  0.476970  1
  O  O17  1  0.694443  0.522389  0.828159  1
  O  O18  1  0.866277  0.172160  0.694397  1
  O  O19  1  0.305341  0.133656  0.828518  1
