# generated using pymatgen
data_CaMo3P3O13
_symmetry_space_group_name_H-M   'P 1'
_cell_length_a   6.68475432
_cell_length_b   7.83988201
_cell_length_c   10.72022982
_cell_angle_alpha   99.84602209
_cell_angle_beta   90.00000000
_cell_angle_gamma   90.00000000
_symmetry_Int_Tables_number   1
_chemical_formula_structural   CaMo3P3O13
_chemical_formula_sum   'Ca2 Mo6 P6 O26'
_cell_volume   553.54726894
_cell_formula_units_Z   2
loop_
 _symmetry_equiv_pos_site_id
 _symmetry_equiv_pos_as_xyz
  1  'x, y, z'
loop_
 _atom_site_type_symbol
 _atom_site_label
 _atom_site_symmetry_multiplicity
 _atom_site_fract_x
 _atom_site_fract_y
 _atom_site_fract_z
 _atom_site_occupancy
  Ca  Ca0  1  0.750000  0.647862  0.194285  1
  Ca  Ca1  1  0.250000  0.352138  0.805715  1
  Mo  Mo2  1  0.250000  0.360984  0.204889  1
  Mo  Mo3  1  0.750000  0.639016  0.795111  1
  Mo  Mo4  1  0.250000  0.771200  0.441950  1
  Mo  Mo5  1  0.500000  0.000000  -0.000000  1
  Mo  Mo6  1  0.750000  0.228800  0.558050  1
  Mo  Mo7  1  0.000000  0.000000  -0.000000  1
  P  P8  1  0.250000  0.213146  0.493048  1
  P  P9  1  0.750000  0.786854  0.506952  1
  P  P10  1  0.250000  0.737481  0.766532  1
  P  P11  1  0.750000  0.262519  0.233468  1
  P  P12  1  0.750000  0.316931  0.888759  1
  P  P13  1  0.250000  0.683069  0.111241  1
  O  O14  1  0.750000  0.353389  0.748311  1
  O  O15  1  0.568636  0.751745  0.413943  1
  O  O16  1  0.250000  0.799709  0.640435  1
  O  O17  1  0.553317  0.219440  0.904570  1
  O  O18  1  0.750000  0.656128  0.599486  1
  O  O19  1  0.750000  0.880546  0.902753  1
  O  O20  1  0.250000  0.343872  0.400514  1
  O  O21  1  0.053317  0.780560  0.095430  1
  O  O22  1  0.250000  0.027816  0.415968  1
  O  O23  1  0.750000  0.972184  0.584032  1
  O  O24  1  0.070690  0.620161  0.787297  1
  O  O25  1  0.250000  0.119454  0.097247  1
  O  O26  1  0.570690  0.379839  0.212703  1
  O  O27  1  0.750000  0.503316  0.966465  1
  O  O28  1  0.750000  0.200291  0.359565  1
  O  O29  1  0.446683  0.780560  0.095430  1
  O  O30  1  0.931364  0.751745  0.413943  1
  O  O31  1  0.431364  0.248255  0.586057  1
  O  O32  1  0.429310  0.620161  0.787297  1
  O  O33  1  0.250000  0.646611  0.251689  1
  O  O34  1  0.750000  0.094769  0.127702  1
  O  O35  1  0.250000  0.905231  0.872298  1
  O  O36  1  0.929310  0.379839  0.212703  1
  O  O37  1  0.946683  0.219440  0.904570  1
  O  O38  1  0.068636  0.248255  0.586057  1
  O  O39  1  0.250000  0.496684  0.033535  1
