# generated using pymatgen
data_LaMgFeWO6
_symmetry_space_group_name_H-M   'P 1'
_cell_length_a   5.58439568
_cell_length_b   5.46108972
_cell_length_c   8.10958522
_cell_angle_alpha   89.50133889
_cell_angle_beta   90.00000000
_cell_angle_gamma   90.00000000
_symmetry_Int_Tables_number   1
_chemical_formula_structural   LaMgFeWO6
_chemical_formula_sum   'La2 Mg2 Fe2 W2 O12'
_cell_volume   247.30772801
_cell_formula_units_Z   2
loop_
 _symmetry_equiv_pos_site_id
 _symmetry_equiv_pos_as_xyz
  1  'x, y, z'
loop_
 _atom_site_type_symbol
 _atom_site_label
 _atom_site_symmetry_multiplicity
 _atom_site_fract_x
 _atom_site_fract_y
 _atom_site_fract_z
 _atom_site_occupancy
  La  La0  1  0.049638  0.993808  0.246580  1
  La  La1  1  0.450362  0.493808  0.746580  1
  Mg  Mg2  1  0.553261  0.524551  0.254062  1
  Mg  Mg3  1  0.946739  0.024551  0.754062  1
  Fe  Fe4  1  0.495508  0.998937  0.996565  1
  Fe  Fe5  1  0.004492  0.498937  0.496565  1
  W  W6  1  0.509605  0.002195  0.498998  1
  W  W7  1  0.990395  0.502195  0.998998  1
  O  O8  1  0.040238  0.650031  0.766388  1
  O  O9  1  0.186523  0.188647  0.932861  1
  O  O10  1  0.211034  0.162949  0.568843  1
  O  O11  1  0.288966  0.662949  0.068843  1
  O  O12  1  0.313477  0.688647  0.432861  1
  O  O13  1  0.459762  0.150031  0.266387  1
  O  O14  1  0.572743  0.900263  0.738662  1
  O  O15  1  0.723863  0.280714  0.565138  1
  O  O16  1  0.725849  0.297903  0.931903  1
  O  O17  1  0.774151  0.797903  0.431903  1
  O  O18  1  0.776137  0.780714  0.065138  1
  O  O19  1  0.927257  0.400263  0.238662  1
