# generated using pymatgen
data_MgNiO2
_symmetry_space_group_name_H-M   'P 1'
_cell_length_a   2.88894914
_cell_length_b   8.40928559
_cell_length_c   8.16620129
_cell_angle_alpha   83.96206267
_cell_angle_beta   79.51392517
_cell_angle_gamma   80.05114550
_symmetry_Int_Tables_number   1
_chemical_formula_structural   MgNiO2
_chemical_formula_sum   'Mg4 Ni4 O8'
_cell_volume   191.58514098
_cell_formula_units_Z   4
loop_
 _symmetry_equiv_pos_site_id
 _symmetry_equiv_pos_as_xyz
  1  'x, y, z'
loop_
 _atom_site_type_symbol
 _atom_site_label
 _atom_site_symmetry_multiplicity
 _atom_site_fract_x
 _atom_site_fract_y
 _atom_site_fract_z
 _atom_site_occupancy
  Mg  Mg0  1  0.352601  0.062974  0.244477  1
  Mg  Mg1  1  0.643168  0.916931  0.783769  1
  Mg  Mg2  1  0.081295  0.700403  0.140054  1
  Mg  Mg3  1  0.914992  0.279472  0.888206  1
  Ni  Ni4  1  0.619850  0.183855  0.571517  1
  Ni  Ni5  1  0.209364  0.375118  0.211160  1
  Ni  Ni6  1  0.786778  0.604780  0.816927  1
  Ni  Ni7  1  0.376151  0.796162  0.456697  1
  O  O8  1  0.821313  0.753532  0.605163  1
  O  O9  1  0.365569  0.432842  0.834026  1
  O  O10  1  0.630725  0.547033  0.194112  1
  O  O11  1  0.174825  0.226437  0.423033  1
  O  O12  1  0.077030  0.100259  0.734215  1
  O  O13  1  0.844024  0.201859  0.124475  1
  O  O14  1  0.918890  0.879659  0.294024  1
  O  O15  1  0.151700  0.778021  0.903761  1
