# generated using pymatgen
data_CrO3
_symmetry_space_group_name_H-M   'P 1'
_cell_length_a   3.42562610
_cell_length_b   3.42562701
_cell_length_c   10.64434455
_cell_angle_alpha   90.00000000
_cell_angle_beta   90.00000000
_cell_angle_gamma   120.00000202
_symmetry_Int_Tables_number   1
_chemical_formula_structural   CrO3
_chemical_formula_sum   'Cr2 O6'
_cell_volume   108.17566640
_cell_formula_units_Z   2
loop_
 _symmetry_equiv_pos_site_id
 _symmetry_equiv_pos_as_xyz
  1  'x, y, z'
loop_
 _atom_site_type_symbol
 _atom_site_label
 _atom_site_symmetry_multiplicity
 _atom_site_fract_x
 _atom_site_fract_y
 _atom_site_fract_z
 _atom_site_occupancy
  Cr  Cr0  1  0.666665  0.333332  0.750000  1
  Cr  Cr1  1  0.333334  0.666668  0.250000  1
  O  O2  1  0.333334  0.666668  0.410955  1
  O  O3  1  0.666665  0.333332  0.910955  1
  O  O4  1  0.666665  0.333332  0.589046  1
  O  O5  1  0.333334  0.666668  0.089045  1
  O  O6  1  0.000000  0.000000  0.250000  1
  O  O7  1  0.000000  0.000000  0.750000  1
