# generated using pymatgen
data_ZnFe4(CuO4)3
_symmetry_space_group_name_H-M   'P 1'
_cell_length_a   6.41551493
_cell_length_b   6.41553949
_cell_length_c   6.41557416
_cell_angle_alpha   109.46481431
_cell_angle_beta   109.46392437
_cell_angle_gamma   109.48299848
_symmetry_Int_Tables_number   1
_chemical_formula_structural   ZnFe4(CuO4)3
_chemical_formula_sum   'Zn1 Fe4 Cu3 O12'
_cell_volume   203.27718879
_cell_formula_units_Z   1
loop_
 _symmetry_equiv_pos_site_id
 _symmetry_equiv_pos_as_xyz
  1  'x, y, z'
loop_
 _atom_site_type_symbol
 _atom_site_label
 _atom_site_symmetry_multiplicity
 _atom_site_fract_x
 _atom_site_fract_y
 _atom_site_fract_z
 _atom_site_occupancy
  Zn  Zn0  1  0.999995  0.999987  0.999987  1
  Fe  Fe1  1  -0.000007  -0.000001  0.499990  1
  Fe  Fe2  1  -0.000002  0.499997  0.000000  1
  Fe  Fe3  1  0.500005  0.500002  0.499999  1
  Fe  Fe4  1  0.500009  0.999993  0.000005  1
  Cu  Cu5  1  0.500000  0.499991  -0.000005  1
  Cu  Cu6  1  -0.000011  0.500014  0.500007  1
  Cu  Cu7  1  0.500008  0.000011  0.500015  1
  O  O8  1  0.831938  0.311878  0.143814  1
  O  O9  1  0.168064  0.688129  0.856197  1
  O  O10  1  0.831904  0.688109  0.520040  1
  O  O11  1  0.311808  0.479850  0.168075  1
  O  O12  1  0.479909  0.168086  0.311855  1
  O  O13  1  0.143776  0.831925  0.311843  1
  O  O14  1  0.688216  0.856265  0.168059  1
  O  O15  1  0.520088  0.831912  0.688138  1
  O  O16  1  0.168095  0.311903  0.479965  1
  O  O17  1  0.688196  0.520150  0.831922  1
  O  O18  1  0.856223  0.168074  0.688156  1
  O  O19  1  0.311784  0.143726  0.831935  1
