# generated using pymatgen
data_Al4(BiS4)3
_symmetry_space_group_name_H-M   'P 1'
_cell_length_a   7.25642566
_cell_length_b   7.25642566
_cell_length_c   39.67041592
_cell_angle_alpha   90.00000000
_cell_angle_beta   90.00000000
_cell_angle_gamma   91.98614682
_symmetry_Int_Tables_number   1
_chemical_formula_structural   Al4(BiS4)3
_chemical_formula_sum   'Al16 Bi12 S48'
_cell_volume   2087.61913009
_cell_formula_units_Z   4
loop_
 _symmetry_equiv_pos_site_id
 _symmetry_equiv_pos_as_xyz
  1  'x, y, z'
loop_
 _atom_site_type_symbol
 _atom_site_label
 _atom_site_symmetry_multiplicity
 _atom_site_fract_x
 _atom_site_fract_y
 _atom_site_fract_z
 _atom_site_occupancy
  Al  Al0  1  0.250000  0.750000  -0.003339  1
  Al  Al1  1  0.250000  0.750000  0.316834  1
  Al  Al2  1  0.250000  0.750000  0.071927  1
  Al  Al3  1  0.250000  0.750000  0.740452  1
  Al  Al4  1  0.250000  0.750000  0.496661  1
  Al  Al5  1  0.250000  0.750000  0.816834  1
  Al  Al6  1  0.750000  0.250000  0.594739  1
  Al  Al7  1  0.750000  0.250000  0.926215  1
  Al  Al8  1  0.750000  0.250000  0.170006  1
  Al  Al9  1  0.750000  0.250000  0.849832  1
  Al  Al10  1  0.750000  0.250000  0.349832  1
  Al  Al11  1  0.750000  0.250000  0.670006  1
  Al  Al12  1  0.250000  0.750000  0.240452  1
  Al  Al13  1  0.250000  0.750000  0.571927  1
  Al  Al14  1  0.750000  0.250000  0.094739  1
  Al  Al15  1  0.750000  0.250000  0.426215  1
  Bi  Bi16  1  0.750000  0.750000  0.292781  1
  Bi  Bi17  1  0.750000  0.750000  0.624301  1
  Bi  Bi18  1  0.750000  0.750000  0.952820  1
  Bi  Bi19  1  0.250000  0.250000  0.042367  1
  Bi  Bi20  1  0.250000  0.250000  0.373885  1
  Bi  Bi21  1  0.250000  0.250000  0.713847  1
  Bi  Bi22  1  0.750000  0.750000  0.213847  1
  Bi  Bi23  1  0.750000  0.750000  0.542366  1
  Bi  Bi24  1  0.750000  0.750000  0.873885  1
  Bi  Bi25  1  0.250000  0.250000  0.124300  1
  Bi  Bi26  1  0.250000  0.250000  0.452820  1
  Bi  Bi27  1  0.250000  0.250000  0.792781  1
  S  S28  1  0.072857  0.583068  0.036398  1
  S  S29  1  0.057642  0.579951  0.353228  1
  S  S30  1  0.055758  0.554908  0.714992  1
  S  S31  1  0.937594  0.045018  0.193486  1
  S  S32  1  0.955500  0.081138  0.562477  1
  S  S33  1  0.926374  0.093708  0.884918  1
  S  S34  1  0.583068  0.072857  0.130268  1
  S  S35  1  0.554908  0.055758  0.451675  1
  S  S36  1  0.579951  0.057642  0.813439  1
  S  S37  1  0.093708  0.926374  0.281749  1
  S  S38  1  0.081138  0.955500  0.604189  1
  S  S39  1  0.045018  0.937594  0.973181  1
  S  S40  1  0.562406  0.454982  0.193486  1
  S  S41  1  0.544500  0.418862  0.562477  1
  S  S42  1  0.573626  0.406292  0.884918  1
  S  S43  1  0.427143  0.916932  0.036398  1
  S  S44  1  0.442358  0.920049  0.353228  1
  S  S45  1  0.444242  0.945092  0.714992  1
  S  S46  1  0.054908  0.555758  0.214992  1
  S  S47  1  0.083068  0.572857  0.536398  1
  S  S48  1  0.079951  0.557642  0.853228  1
  S  S49  1  0.916932  0.427143  0.130268  1
  S  S50  1  0.945092  0.444242  0.451675  1
  S  S51  1  0.920049  0.442358  0.813439  1
  S  S52  1  0.942358  0.420049  0.313439  1
  S  S53  1  0.927143  0.416932  0.630268  1
  S  S54  1  0.944242  0.445092  0.951675  1
  S  S55  1  0.406292  0.573626  0.281749  1
  S  S56  1  0.418862  0.544500  0.604189  1
  S  S57  1  0.454982  0.562406  0.973181  1
  S  S58  1  0.918862  0.044500  0.062477  1
  S  S59  1  0.906292  0.073626  0.384918  1
  S  S60  1  0.954982  0.062406  0.693486  1
  S  S61  1  0.581138  0.455500  0.062477  1
  S  S62  1  0.593708  0.426374  0.384918  1
  S  S63  1  0.545018  0.437594  0.693486  1
  S  S64  1  0.445092  0.944242  0.214992  1
  S  S65  1  0.416932  0.927143  0.536398  1
  S  S66  1  0.420049  0.942358  0.853228  1
  S  S67  1  0.455500  0.581138  0.104189  1
  S  S68  1  0.437594  0.545018  0.473181  1
  S  S69  1  0.426374  0.593708  0.781749  1
  S  S70  1  0.044500  0.918862  0.104189  1
  S  S71  1  0.062406  0.954982  0.473181  1
  S  S72  1  0.073626  0.906292  0.781749  1
  S  S73  1  0.557642  0.079951  0.313439  1
  S  S74  1  0.572857  0.083068  0.630268  1
  S  S75  1  0.555758  0.054908  0.951675  1
