# generated using pymatgen
data_TiZn(GeO3)2
_symmetry_space_group_name_H-M   'P 1'
_cell_length_a   5.35399898
_cell_length_b   8.52313669
_cell_length_c   12.31361126
_cell_angle_alpha   90.00000000
_cell_angle_beta   104.41640371
_cell_angle_gamma   90.00000000
_symmetry_Int_Tables_number   1
_chemical_formula_structural   TiZn(GeO3)2
_chemical_formula_sum   'Ti4 Zn4 Ge8 O24'
_cell_volume   544.21204174
_cell_formula_units_Z   4
loop_
 _symmetry_equiv_pos_site_id
 _symmetry_equiv_pos_as_xyz
  1  'x, y, z'
loop_
 _atom_site_type_symbol
 _atom_site_label
 _atom_site_symmetry_multiplicity
 _atom_site_fract_x
 _atom_site_fract_y
 _atom_site_fract_z
 _atom_site_occupancy
  Ti  Ti0  1  0.962901  0.656429  0.290559  1
  Ti  Ti1  1  0.537099  0.156429  0.709441  1
  Ti  Ti2  1  0.037099  0.343571  0.709441  1
  Ti  Ti3  1  0.462901  0.843571  0.290559  1
  Zn  Zn4  1  0.440800  0.451471  0.246384  1
  Zn  Zn5  1  0.059200  0.951471  0.753616  1
  Zn  Zn6  1  0.559200  0.548529  0.753616  1
  Zn  Zn7  1  0.940800  0.048529  0.246384  1
  Ge  Ge8  1  0.827582  0.365226  0.081960  1
  Ge  Ge9  1  0.672418  0.865226  0.918040  1
  Ge  Ge10  1  0.172418  0.634774  0.918040  1
  Ge  Ge11  1  0.327582  0.134774  0.081960  1
  Ge  Ge12  1  0.197527  0.347142  0.467498  1
  Ge  Ge13  1  0.302473  0.847142  0.532502  1
  Ge  Ge14  1  0.802473  0.652858  0.532502  1
  Ge  Ge15  1  0.697527  0.152858  0.467498  1
  O  O16  1  0.450296  0.290605  0.400952  1
  O  O17  1  0.049704  0.790605  0.599048  1
  O  O18  1  0.549704  0.709395  0.599048  1
  O  O19  1  0.950296  0.209395  0.400952  1
  O  O20  1  0.187531  0.314107  0.147973  1
  O  O21  1  0.312469  0.814107  0.852028  1
  O  O22  1  0.812469  0.685893  0.852028  1
  O  O23  1  0.687531  0.185893  0.147973  1
  O  O24  1  0.636809  0.961823  0.420867  1
  O  O25  1  0.863191  0.461823  0.579133  1
  O  O26  1  0.363191  0.038177  0.579133  1
  O  O27  1  0.136809  0.538177  0.420867  1
  O  O28  1  0.271338  0.003624  0.205763  1
  O  O29  1  0.228662  0.503624  0.794237  1
  O  O30  1  0.728662  0.996376  0.794237  1
  O  O31  1  0.771338  0.496376  0.205763  1
  O  O32  1  0.756101  0.338719  0.774567  1
  O  O33  1  0.743899  0.838719  0.225433  1
  O  O34  1  0.243899  0.661281  0.225433  1
  O  O35  1  0.256101  0.161281  0.774567  1
  O  O36  1  0.323934  0.340867  0.613592  1
  O  O37  1  0.176066  0.840867  0.386408  1
  O  O38  1  0.676066  0.659133  0.386408  1
  O  O39  1  0.823934  0.159133  0.613592  1
