# generated using pymatgen
data_SbPO4
_symmetry_space_group_name_H-M   'P 1'
_cell_length_a   5.37571587
_cell_length_b   9.65348757
_cell_length_c   16.06684704
_cell_angle_alpha   85.91728515
_cell_angle_beta   80.36957668
_cell_angle_gamma   73.83324568
_symmetry_Int_Tables_number   1
_chemical_formula_structural   SbPO4
_chemical_formula_sum   'Sb8 P8 O32'
_cell_volume   789.25567533
_cell_formula_units_Z   8
loop_
 _symmetry_equiv_pos_site_id
 _symmetry_equiv_pos_as_xyz
  1  'x, y, z'
loop_
 _atom_site_type_symbol
 _atom_site_label
 _atom_site_symmetry_multiplicity
 _atom_site_fract_x
 _atom_site_fract_y
 _atom_site_fract_z
 _atom_site_occupancy
  Sb  Sb0  1  0.151690  0.212341  0.002229  1
  Sb  Sb1  1  0.366261  0.287659  0.497771  1
  Sb  Sb2  1  0.848310  0.787659  0.997771  1
  Sb  Sb3  1  0.500000  0.500000  0.000000  1
  Sb  Sb4  1  0.633739  0.712341  0.502229  1
  Sb  Sb5  1  0.724858  0.750000  0.250000  1
  Sb  Sb6  1  0.275142  0.250000  0.750000  1
  Sb  Sb7  1  -0.000000  0.000000  0.500000  1
  P  P8  1  0.068873  0.545017  0.861252  1
  P  P9  1  0.707472  0.397323  0.613824  1
  P  P10  1  0.931127  0.454983  0.138748  1
  P  P11  1  0.281383  0.897323  0.113824  1
  P  P12  1  0.524858  0.045017  0.361252  1
  P  P13  1  0.475142  0.954983  0.638748  1
  P  P14  1  0.292528  0.602677  0.386176  1
  P  P15  1  0.718617  0.102677  0.886176  1
  O  O16  1  0.723953  0.400976  0.100130  1
  O  O17  1  0.676633  0.953455  0.917947  1
  O  O18  1  0.774942  0.900976  0.600130  1
  O  O19  1  0.711909  0.284412  0.543547  1
  O  O20  1  0.193269  0.388451  0.069238  1
  O  O21  1  0.547109  0.359548  0.697348  1
  O  O22  1  0.539867  0.215588  0.956453  1
  O  O23  1  0.001586  0.888451  0.121234  1
  O  O24  1  0.288091  0.715588  0.456453  1
  O  O25  1  0.548033  0.546545  0.582053  1
  O  O26  1  0.874037  0.623208  0.122400  1
  O  O27  1  0.602091  0.087444  0.272515  1
  O  O28  1  0.323367  0.046545  0.082053  1
  O  O29  1  0.988730  0.388451  0.621234  1
  O  O30  1  0.276047  0.599024  0.899870  1
  O  O31  1  0.125963  0.376792  0.877600  1
  O  O32  1  0.037948  0.587444  0.772515  1
  O  O33  1  0.460133  0.784412  0.043547  1
  O  O34  1  0.380355  0.123208  0.622400  1
  O  O35  1  0.397909  0.912556  0.727485  1
  O  O36  1  0.011270  0.611549  0.378766  1
  O  O37  1  0.349043  0.888451  0.569238  1
  O  O38  1  0.998414  0.111549  0.878766  1
  O  O39  1  0.395996  0.859548  0.197348  1
  O  O40  1  0.451967  0.453455  0.417947  1
  O  O41  1  0.225058  0.099024  0.399870  1
  O  O42  1  0.962052  0.412556  0.227485  1
  O  O43  1  0.650957  0.111549  0.430762  1
  O  O44  1  0.806731  0.611549  0.930762  1
  O  O45  1  0.604004  0.140452  0.802652  1
  O  O46  1  0.452891  0.640452  0.302652  1
  O  O47  1  0.619646  0.876792  0.377600  1
