# generated using pymatgen
data_ZnWO2
_symmetry_space_group_name_H-M   'P 1'
_cell_length_a   3.25740117
_cell_length_b   9.61441292
_cell_length_c   8.28741583
_cell_angle_alpha   65.23223383
_cell_angle_beta   90.96675948
_cell_angle_gamma   91.08788739
_symmetry_Int_Tables_number   1
_chemical_formula_structural   ZnWO2
_chemical_formula_sum   'Zn4 W4 O8'
_cell_volume   235.61672755
_cell_formula_units_Z   4
loop_
 _symmetry_equiv_pos_site_id
 _symmetry_equiv_pos_as_xyz
  1  'x, y, z'
loop_
 _atom_site_type_symbol
 _atom_site_label
 _atom_site_symmetry_multiplicity
 _atom_site_fract_x
 _atom_site_fract_y
 _atom_site_fract_z
 _atom_site_occupancy
  Zn  Zn0  1  0.729508  0.133936  0.108066  1
  Zn  Zn1  1  0.284089  0.843867  0.920486  1
  Zn  Zn2  1  0.791966  0.791303  0.183956  1
  Zn  Zn3  1  0.220390  0.188132  0.842830  1
  W  W4  1  0.754374  0.120851  0.564175  1
  W  W5  1  0.258026  0.456549  0.203385  1
  W  W6  1  0.746920  0.522276  0.823954  1
  W  W7  1  0.235014  0.858643  0.464393  1
  O  O8  1  0.729613  0.708945  0.591015  1
  O  O9  1  0.219933  0.418830  0.765407  1
  O  O10  1  0.774742  0.560505  0.261811  1
  O  O11  1  0.259378  0.270199  0.436165  1
  O  O12  1  0.249487  0.953231  0.658654  1
  O  O13  1  0.747573  0.367064  0.097991  1
  O  O14  1  0.740447  0.026122  0.370248  1
  O  O15  1  0.260800  0.611186  0.929385  1
