# generated using pymatgen
data_Ca(NiN)2
_symmetry_space_group_name_H-M   'P 1'
_cell_length_a   3.46260033
_cell_length_b   3.46260033
_cell_length_c   6.04300786
_cell_angle_alpha   90.00000000
_cell_angle_beta   90.00000000
_cell_angle_gamma   90.00000000
_symmetry_Int_Tables_number   1
_chemical_formula_structural   Ca(NiN)2
_chemical_formula_sum   'Ca1 Ni2 N2'
_cell_volume   72.45325336
_cell_formula_units_Z   1
loop_
 _symmetry_equiv_pos_site_id
 _symmetry_equiv_pos_as_xyz
  1  'x, y, z'
loop_
 _atom_site_type_symbol
 _atom_site_label
 _atom_site_symmetry_multiplicity
 _atom_site_fract_x
 _atom_site_fract_y
 _atom_site_fract_z
 _atom_site_occupancy
  Ca  Ca0  1  0.000000  0.000000  0.250000  1
  Ni  Ni1  1  0.500000  0.500000  0.954123  1
  Ni  Ni2  1  0.500000  0.500000  0.545877  1
  N  N3  1  0.500000  0.000000  0.531911  1
  N  N4  1  0.000000  0.500000  -0.031911  1
