# generated using pymatgen
data_Mg2TaVO6
_symmetry_space_group_name_H-M   'P 1'
_cell_length_a   5.22222757
_cell_length_b   5.44498462
_cell_length_c   7.55511634
_cell_angle_alpha   90.00000000
_cell_angle_beta   90.00000000
_cell_angle_gamma   89.69580685
_symmetry_Int_Tables_number   1
_chemical_formula_structural   Mg2TaVO6
_chemical_formula_sum   'Mg4 Ta2 V2 O12'
_cell_volume   214.82631871
_cell_formula_units_Z   2
loop_
 _symmetry_equiv_pos_site_id
 _symmetry_equiv_pos_as_xyz
  1  'x, y, z'
loop_
 _atom_site_type_symbol
 _atom_site_label
 _atom_site_symmetry_multiplicity
 _atom_site_fract_x
 _atom_site_fract_y
 _atom_site_fract_z
 _atom_site_occupancy
  Mg  Mg0  1  0.004221  0.958025  0.250000  1
  Mg  Mg1  1  0.483216  0.434908  0.250000  1
  Mg  Mg2  1  0.516784  0.565092  0.750000  1
  Mg  Mg3  1  0.995779  0.041975  0.750000  1
  Ta  Ta4  1  0.000000  0.500000  0.000000  1
  Ta  Ta5  1  0.000000  0.500000  0.500000  1
  V  V6  1  0.500000  0.000000  0.000000  1
  V  V7  1  0.500000  0.000000  0.500000  1
  O  O8  1  0.828419  0.811316  0.569287  1
  O  O9  1  0.313170  0.678869  0.430778  1
  O  O10  1  0.171581  0.188684  0.430713  1
  O  O11  1  0.686830  0.321131  0.930778  1
  O  O12  1  0.135760  0.443207  0.750000  1
  O  O13  1  0.686830  0.321131  0.569222  1
  O  O14  1  0.313170  0.678869  0.069222  1
  O  O15  1  0.828419  0.811316  0.930713  1
  O  O16  1  0.617611  0.058132  0.250000  1
  O  O17  1  0.171581  0.188684  0.069287  1
  O  O18  1  0.382389  0.941868  0.750000  1
  O  O19  1  0.864240  0.556793  0.250000  1
