# generated using pymatgen
data_ZnCu2P2O9
_symmetry_space_group_name_H-M   'P 1'
_cell_length_a   6.12679600
_cell_length_b   7.08626147
_cell_length_c   14.76007685
_cell_angle_alpha   89.94081882
_cell_angle_beta   89.97176282
_cell_angle_gamma   90.00610930
_symmetry_Int_Tables_number   1
_chemical_formula_structural   ZnCu2P2O9
_chemical_formula_sum   'Zn4 Cu8 P8 O36'
_cell_volume   640.82423048
_cell_formula_units_Z   4
loop_
 _symmetry_equiv_pos_site_id
 _symmetry_equiv_pos_as_xyz
  1  'x, y, z'
loop_
 _atom_site_type_symbol
 _atom_site_label
 _atom_site_symmetry_multiplicity
 _atom_site_fract_x
 _atom_site_fract_y
 _atom_site_fract_z
 _atom_site_occupancy
  Zn  Zn0  1  0.750104  0.899441  0.778529  1
  Zn  Zn1  1  0.750216  0.601950  0.278537  1
  Zn  Zn2  1  0.249792  0.398276  0.721471  1
  Zn  Zn3  1  0.249899  0.100701  0.221511  1
  Cu  Cu4  1  0.749449  0.355663  0.880636  1
  Cu  Cu5  1  0.250545  0.644274  0.119338  1
  Cu  Cu6  1  0.249685  0.855547  0.619245  1
  Cu  Cu7  1  0.750321  0.144377  0.380783  1
  Cu  Cu8  1  0.499971  0.000003  0.999977  1
  Cu  Cu9  1  0.500007  0.499979  0.499986  1
  Cu  Cu10  1  0.000003  0.499984  0.499984  1
  Cu  Cu11  1  0.000016  0.000008  0.999977  1
  P  P12  1  0.249824  0.368392  0.929706  1
  P  P13  1  0.750170  0.631651  0.070307  1
  P  P14  1  0.749922  0.868434  0.570180  1
  P  P15  1  0.250080  0.131551  0.429750  1
  P  P16  1  0.749911  0.381481  0.703021  1
  P  P17  1  0.750079  0.118136  0.203316  1
  P  P18  1  0.249919  0.881787  0.796774  1
  P  P19  1  0.250096  0.618375  0.296950  1
  O  O20  1  0.036434  0.615023  0.353560  1
  O  O21  1  0.536334  0.385195  0.646552  1
  O  O22  1  0.963624  0.115015  0.146626  1
  O  O23  1  0.463522  0.884710  0.853194  1
  O  O24  1  0.963526  0.385082  0.646452  1
  O  O25  1  0.463718  0.614905  0.353457  1
  O  O26  1  0.036382  0.885074  0.853457  1
  O  O27  1  0.536475  0.115376  0.146891  1
  O  O28  1  0.249769  0.328775  0.478871  1
  O  O29  1  0.750237  0.671074  0.521114  1
  O  O30  1  0.749821  0.829271  0.021217  1
  O  O31  1  0.250176  0.170868  0.978882  1
  O  O32  1  0.749291  0.128404  0.952868  1
  O  O33  1  0.250699  0.871714  0.047086  1
  O  O34  1  0.249720  0.628066  0.547069  1
  O  O35  1  0.750291  0.372015  0.452942  1
  O  O36  1  0.749932  0.198002  0.763364  1
  O  O37  1  0.250066  0.801852  0.236519  1
  O  O38  1  0.249303  0.698524  0.736364  1
  O  O39  1  0.750694  0.301410  0.263765  1
  O  O40  1  0.438851  0.128423  0.359704  1
  O  O41  1  0.938333  0.871950  0.640400  1
  O  O42  1  0.561779  0.628412  0.140608  1
  O  O43  1  0.060997  0.371568  0.859690  1
  O  O44  1  0.561019  0.871660  0.640225  1
  O  O45  1  0.061806  0.128132  0.359528  1
  O  O46  1  0.438238  0.371517  0.859390  1
  O  O47  1  0.938967  0.628358  0.140312  1
  O  O48  1  0.749892  0.474582  0.002570  1
  O  O49  1  0.249860  0.046535  0.725793  1
  O  O50  1  0.249988  0.453934  0.225933  1
  O  O51  1  0.750012  0.545726  0.774144  1
  O  O52  1  0.750188  0.025843  0.502471  1
  O  O53  1  0.249811  0.974059  0.497433  1
  O  O54  1  0.250112  0.525650  0.997344  1
  O  O55  1  0.750144  0.953282  0.274225  1
