# generated using pymatgen
data_MoO3
_symmetry_space_group_name_H-M   'P 1'
_cell_length_a   6.09609945
_cell_length_b   6.09609939
_cell_length_c   11.20545733
_cell_angle_alpha   90.00000000
_cell_angle_beta   90.00000000
_cell_angle_gamma   120.00000632
_symmetry_Int_Tables_number   1
_chemical_formula_structural   MoO3
_chemical_formula_sum   'Mo6 O18'
_cell_volume   360.63201017
_cell_formula_units_Z   6
loop_
 _symmetry_equiv_pos_site_id
 _symmetry_equiv_pos_as_xyz
  1  'x, y, z'
loop_
 _atom_site_type_symbol
 _atom_site_label
 _atom_site_symmetry_multiplicity
 _atom_site_fract_x
 _atom_site_fract_y
 _atom_site_fract_z
 _atom_site_occupancy
  Mo  Mo0  1  0.666048  0.000000  0.503241  1
  Mo  Mo1  1  0.666048  0.666048  0.003241  1
  Mo  Mo2  1  1.000000  0.333952  0.003241  1
  Mo  Mo3  1  0.000000  0.666048  0.503241  1
  Mo  Mo4  1  0.333952  0.333952  0.503241  1
  Mo  Mo5  1  0.333952  1.000000  0.003241  1
  O  O6  1  0.666667  0.333333  0.024237  1
  O  O7  1  0.333333  0.666667  0.524237  1
  O  O8  1  0.666667  0.333333  0.524237  1
  O  O9  1  0.333333  0.666667  0.024237  1
  O  O10  1  0.000000  0.000000  0.964070  1
  O  O11  1  0.000000  0.000000  0.464070  1
  O  O12  1  0.380825  1.000000  0.846328  1
  O  O13  1  0.380825  0.380825  0.346328  1
  O  O14  1  0.000000  0.619175  0.346328  1
  O  O15  1  1.000000  0.380825  0.846328  1
  O  O16  1  0.619175  0.619175  0.846328  1
  O  O17  1  0.619175  0.000000  0.346328  1
  O  O18  1  0.261422  0.000000  0.157227  1
  O  O19  1  0.261422  0.261422  0.657227  1
  O  O20  1  1.000000  0.738578  0.657227  1
  O  O21  1  0.000000  0.261422  0.157227  1
  O  O22  1  0.738578  0.738578  0.157227  1
  O  O23  1  0.738578  1.000000  0.657227  1
