# generated using pymatgen
data_Ca(CoO2)2
_symmetry_space_group_name_H-M   'P 1'
_cell_length_a   6.36827011
_cell_length_b   6.10503632
_cell_length_c   6.10503590
_cell_angle_alpha   59.99999583
_cell_angle_beta   61.35819188
_cell_angle_gamma   61.35818826
_symmetry_Int_Tables_number   1
_chemical_formula_structural   Ca(CoO2)2
_chemical_formula_sum   'Ca2 Co4 O8'
_cell_volume   171.19851331
_cell_formula_units_Z   2
loop_
 _symmetry_equiv_pos_site_id
 _symmetry_equiv_pos_as_xyz
  1  'x, y, z'
loop_
 _atom_site_type_symbol
 _atom_site_label
 _atom_site_symmetry_multiplicity
 _atom_site_fract_x
 _atom_site_fract_y
 _atom_site_fract_z
 _atom_site_occupancy
  Ca  Ca0  1  0.994904  0.001699  0.001699  1
  Ca  Ca1  1  0.122593  0.625802  0.625802  1
  Co  Co2  1  0.294919  0.235027  0.235027  1
  Co  Co3  1  0.624409  0.121303  0.627144  1
  Co  Co4  1  0.624409  0.627144  0.121303  1
  Co  Co5  1  0.624409  0.627144  0.627144  1
  O  O6  1  0.420327  0.368961  0.368961  1
  O  O7  1  0.420327  0.368961  0.841751  1
  O  O8  1  0.420327  0.841751  0.368961  1
  O  O9  1  0.854967  0.381677  0.381677  1
  O  O10  1  0.414348  0.861883  0.861883  1
  O  O11  1  0.811354  0.430548  0.879049  1
  O  O12  1  0.811354  0.879049  0.430548  1
  O  O13  1  0.811354  0.879049  0.879049  1
