# generated using pymatgen
data_ZnNi2O5
_symmetry_space_group_name_H-M   'P 1'
_cell_length_a   3.28473561
_cell_length_b   4.90546667
_cell_length_c   11.16611294
_cell_angle_alpha   90.18701233
_cell_angle_beta   90.13900775
_cell_angle_gamma   89.95959180
_symmetry_Int_Tables_number   1
_chemical_formula_structural   ZnNi2O5
_chemical_formula_sum   'Zn2 Ni4 O10'
_cell_volume   179.91984467
_cell_formula_units_Z   2
loop_
 _symmetry_equiv_pos_site_id
 _symmetry_equiv_pos_as_xyz
  1  'x, y, z'
loop_
 _atom_site_type_symbol
 _atom_site_label
 _atom_site_symmetry_multiplicity
 _atom_site_fract_x
 _atom_site_fract_y
 _atom_site_fract_z
 _atom_site_occupancy
  Zn  Zn0  1  0.751392  0.912956  0.249237  1
  Zn  Zn1  1  0.249760  0.085741  0.750853  1
  Ni  Ni2  1  0.250697  0.442770  0.100651  1
  Ni  Ni3  1  0.749885  0.554940  0.899899  1
  Ni  Ni4  1  0.752505  0.553904  0.600824  1
  Ni  Ni5  1  0.251690  0.443378  0.399694  1
  O  O6  1  0.751805  0.398549  0.750274  1
  O  O7  1  0.251123  0.598783  0.250296  1
  O  O8  1  0.751363  0.620114  0.066757  1
  O  O9  1  0.248154  0.377509  0.933849  1
  O  O10  1  0.750678  0.619620  0.434377  1
  O  O11  1  0.254106  0.377367  0.566224  1
  O  O12  1  0.245317  0.085905  0.349532  1
  O  O13  1  0.763648  0.911223  0.650866  1
  O  O14  1  0.734973  0.911774  0.850609  1
  O  O15  1  0.257291  0.085487  0.149724  1
