# generated using pymatgen
data_Ca3Sb2O7
_symmetry_space_group_name_H-M   'P 1'
_cell_length_a   5.94648712
_cell_length_b   5.74005808
_cell_length_c   10.42383681
_cell_angle_alpha   105.98186973
_cell_angle_beta   90.00000000
_cell_angle_gamma   90.00000000
_symmetry_Int_Tables_number   1
_chemical_formula_structural   Ca3Sb2O7
_chemical_formula_sum   'Ca6 Sb4 O14'
_cell_volume   342.04669028
_cell_formula_units_Z   2
loop_
 _symmetry_equiv_pos_site_id
 _symmetry_equiv_pos_as_xyz
  1  'x, y, z'
loop_
 _atom_site_type_symbol
 _atom_site_label
 _atom_site_symmetry_multiplicity
 _atom_site_fract_x
 _atom_site_fract_y
 _atom_site_fract_z
 _atom_site_occupancy
  Ca  Ca0  1  0.694557  0.769303  1.000000  1
  Ca  Ca1  1  0.194557  0.230697  0.000000  1
  Ca  Ca2  1  0.812171  0.568918  0.613675  1
  Ca  Ca3  1  0.312171  0.431082  0.386325  1
  Ca  Ca4  1  0.812171  0.955243  0.386325  1
  Ca  Ca5  1  0.312171  0.044757  0.613675  1
  Sb  Sb6  1  0.751497  0.356966  0.205535  1
  Sb  Sb7  1  0.251497  0.643034  0.794465  1
  Sb  Sb8  1  0.251497  0.848569  0.205535  1
  Sb  Sb9  1  0.751497  0.151431  0.794465  1
  O  O10  1  0.705038  0.945802  0.596182  1
  O  O11  1  0.205038  0.054198  0.403818  1
  O  O12  1  0.205038  0.650379  0.596182  1
  O  O13  1  0.705038  0.349621  0.403818  1
  O  O14  1  0.043414  0.318553  0.741726  1
  O  O15  1  0.543414  0.681447  0.258274  1
  O  O16  1  0.543414  0.423173  0.741726  1
  O  O17  1  0.043414  0.576827  0.258274  1
  O  O18  1  0.946260  0.870025  0.840673  1
  O  O19  1  0.446260  0.129975  0.159327  1
  O  O20  1  0.808683  0.376951  0.000000  1
  O  O21  1  0.308683  0.623049  1.000000  1
  O  O22  1  0.946260  0.029352  0.159327  1
  O  O23  1  0.446260  0.970648  0.840673  1
