# generated using pymatgen
data_CaP4WO12
_symmetry_space_group_name_H-M   'P 1'
_cell_length_a   7.77124436
_cell_length_b   7.75965668
_cell_length_c   10.36793956
_cell_angle_alpha   102.04113734
_cell_angle_beta   107.10367159
_cell_angle_gamma   109.17408694
_symmetry_Int_Tables_number   1
_chemical_formula_structural   CaP4WO12
_chemical_formula_sum   'Ca2 P8 W2 O24'
_cell_volume   531.17421869
_cell_formula_units_Z   2
loop_
 _symmetry_equiv_pos_site_id
 _symmetry_equiv_pos_as_xyz
  1  'x, y, z'
loop_
 _atom_site_type_symbol
 _atom_site_label
 _atom_site_symmetry_multiplicity
 _atom_site_fract_x
 _atom_site_fract_y
 _atom_site_fract_z
 _atom_site_occupancy
  Ca  Ca0  1  0.721030  0.969003  0.749181  1
  Ca  Ca1  1  0.280402  0.029979  0.248832  1
  P  P2  1  0.505721  0.326432  0.797421  1
  P  P3  1  0.030241  0.704985  0.701046  1
  P  P4  1  0.496410  0.672956  0.200603  1
  P  P5  1  0.971063  0.293567  0.297217  1
  P  P6  1  0.752874  0.718354  0.024207  1
  P  P7  1  0.194830  0.726407  0.474199  1
  P  P8  1  0.248653  0.281420  0.973408  1
  P  P9  1  0.806274  0.272191  0.523735  1
  W  W10  1  0.500905  0.499521  0.498856  1
  W  W11  1  0.500438  0.999540  0.999014  1
  O  O12  1  0.324011  0.312361  0.846853  1
  O  O13  1  0.965262  0.473411  0.650517  1
  O  O14  1  0.678048  0.687455  0.150984  1
  O  O15  1  0.035621  0.525076  0.347702  1
  O  O16  1  0.695932  0.500487  0.929846  1
  O  O17  1  0.073086  0.764889  0.569515  1
  O  O18  1  0.306084  0.499350  0.067972  1
  O  O19  1  0.928647  0.233788  0.428911  1
  O  O20  1  0.462449  0.379911  0.665189  1
  O  O21  1  0.215365  0.791381  0.833542  1
  O  O22  1  0.539843  0.618623  0.332460  1
  O  O23  1  0.785803  0.206882  0.164787  1
  O  O24  1  0.542859  0.147553  0.791173  1
  O  O25  1  0.858615  0.749735  0.707330  1
  O  O26  1  0.459385  0.851956  0.207600  1
  O  O27  1  0.142889  0.249244  0.290924  1
  O  O28  1  0.634224  0.804278  0.932705  1
  O  O29  1  0.371574  0.698370  0.565458  1
  O  O30  1  0.366507  0.194876  0.064840  1
  O  O31  1  0.630049  0.300642  0.432121  1
  O  O32  1  0.972026  0.820076  0.086835  1
  O  O33  1  0.234109  0.882589  0.410938  1
  O  O34  1  0.029409  0.180321  0.910400  1
  O  O35  1  0.766130  0.115781  0.586631  1
