# generated using pymatgen
data_Ca(MoO3)2
_symmetry_space_group_name_H-M   'P 1'
_cell_length_a   5.44982414
_cell_length_b   5.52035552
_cell_length_c   7.78738141
_cell_angle_alpha   89.99298692
_cell_angle_beta   90.00336613
_cell_angle_gamma   89.94789361
_symmetry_Int_Tables_number   1
_chemical_formula_structural   Ca(MoO3)2
_chemical_formula_sum   'Ca2 Mo4 O12'
_cell_volume   234.28301170
_cell_formula_units_Z   2
loop_
 _symmetry_equiv_pos_site_id
 _symmetry_equiv_pos_as_xyz
  1  'x, y, z'
loop_
 _atom_site_type_symbol
 _atom_site_label
 _atom_site_symmetry_multiplicity
 _atom_site_fract_x
 _atom_site_fract_y
 _atom_site_fract_z
 _atom_site_occupancy
  Ca  Ca0  1  0.506988  0.542860  0.249767  1
  Ca  Ca1  1  0.008384  0.956380  0.750194  1
  Mo  Mo2  1  0.500712  0.004233  0.000158  1
  Mo  Mo3  1  0.000443  0.495827  0.999856  1
  Mo  Mo4  1  0.001012  0.495823  0.500115  1
  Mo  Mo5  1  0.501317  0.004254  0.499843  1
  O  O6  1  0.713811  0.286970  0.468418  1
  O  O7  1  0.214044  0.213340  0.531649  1
  O  O8  1  0.778764  0.778013  0.024287  1
  O  O9  1  0.278599  0.722025  0.975936  1
  O  O10  1  0.279306  0.721923  0.524043  1
  O  O11  1  0.779419  0.778187  0.475705  1
  O  O12  1  0.213556  0.213337  0.968754  1
  O  O13  1  0.713372  0.287007  0.031174  1
  O  O14  1  0.062848  0.490384  0.250002  1
  O  O15  1  0.563230  0.009014  0.749954  1
  O  O16  1  0.453250  0.992780  0.250109  1
  O  O17  1  0.953125  0.507703  0.749928  1
