# generated using pymatgen
data_Al4Si2Ni13(SbO14)2
_symmetry_space_group_name_H-M   'P 1'
_cell_length_a   5.43777369
_cell_length_b   8.78350122
_cell_length_c   11.63227845
_cell_angle_alpha   87.51258280
_cell_angle_beta   76.48151741
_cell_angle_gamma   79.30070122
_symmetry_Int_Tables_number   1
_chemical_formula_structural   Al4Si2Ni13(SbO14)2
_chemical_formula_sum   'Al4 Si2 Ni13 Sb2 O28'
_cell_volume   530.80482554
_cell_formula_units_Z   1
loop_
 _symmetry_equiv_pos_site_id
 _symmetry_equiv_pos_as_xyz
  1  'x, y, z'
loop_
 _atom_site_type_symbol
 _atom_site_label
 _atom_site_symmetry_multiplicity
 _atom_site_fract_x
 _atom_site_fract_y
 _atom_site_fract_z
 _atom_site_occupancy
  Al  Al0  1  0.061368  0.672207  0.429474  1
  Al  Al1  1  0.509150  0.327765  0.429476  1
  Al  Al2  1  0.938632  0.327793  0.570526  1
  Al  Al3  1  0.490850  0.672235  0.570524  1
  Si  Si4  1  0.236405  0.310484  0.999989  1
  Si  Si5  1  0.763595  0.689516  0.000011  1
  Ni  Ni6  1  0.928064  0.640712  0.712064  1
  Ni  Ni7  1  0.654332  0.353061  0.138558  1
  Ni  Ni8  1  0.359921  0.359252  0.712060  1
  Ni  Ni9  1  0.071936  0.359288  0.287936  1
  Ni  Ni10  1  0.345668  0.646939  0.861442  1
  Ni  Ni11  1  0.287155  0.000003  0.425666  1
  Ni  Ni12  1  0.207135  0.646958  0.138522  1
  Ni  Ni13  1  0.000000  0.000000  0.000000  1
  Ni  Ni14  1  0.427872  0.999985  0.144142  1
  Ni  Ni15  1  0.792865  0.353042  0.861478  1
  Ni  Ni16  1  0.640079  0.640748  0.287940  1
  Ni  Ni17  1  0.572128  0.000015  0.855858  1
  Ni  Ni18  1  0.712845  0.999997  0.574334  1
  Sb  Sb19  1  0.859724  0.000013  0.280487  1
  Sb  Sb20  1  0.140276  0.999987  0.719513  1
  O  O21  1  0.684671  0.399614  0.298030  1
  O  O22  1  0.172347  0.365346  0.445218  1
  O  O23  1  0.934001  0.355242  0.999982  1
  O  O24  1  0.310738  0.120369  0.999998  1
  O  O25  1  0.827653  0.634654  0.554782  1
  O  O26  1  0.315329  0.600386  0.701970  1
  O  O27  1  0.013246  0.117544  0.580249  1
  O  O28  1  0.986754  0.882456  0.419751  1
  O  O29  1  0.689262  0.879631  0.000002  1
  O  O30  1  0.125146  0.881263  0.149046  1
  O  O31  1  0.287049  0.383918  0.120165  1
  O  O32  1  0.017275  0.600390  0.298005  1
  O  O33  1  0.406528  0.882460  0.580249  1
  O  O34  1  0.725817  0.118748  0.149042  1
  O  O35  1  0.592806  0.616072  0.120195  1
  O  O36  1  0.065999  0.644758  0.000018  1
  O  O37  1  0.274183  0.881252  0.850958  1
  O  O38  1  0.874854  0.118737  0.850954  1
  O  O39  1  0.593472  0.117540  0.419751  1
  O  O40  1  0.135859  0.122257  0.287097  1
  O  O41  1  0.864141  0.877743  0.712903  1
  O  O42  1  0.407194  0.383928  0.879805  1
  O  O43  1  0.422932  0.122257  0.712911  1
  O  O44  1  0.617546  0.365337  0.554784  1
  O  O45  1  0.712951  0.616082  0.879835  1
  O  O46  1  0.577068  0.877743  0.287089  1
  O  O47  1  0.982725  0.399610  0.701995  1
  O  O48  1  0.382454  0.634663  0.445216  1
