# generated using pymatgen
data_Mg2Sn9O13
_symmetry_space_group_name_H-M   'P 1'
_cell_length_a   3.20059983
_cell_length_b   8.19305331
_cell_length_c   15.78239610
_cell_angle_alpha   107.08866831
_cell_angle_beta   89.92646903
_cell_angle_gamma   101.34915019
_symmetry_Int_Tables_number   1
_chemical_formula_structural   Mg2Sn9O13
_chemical_formula_sum   'Mg2 Sn9 O13'
_cell_volume   387.14373049
_cell_formula_units_Z   1
loop_
 _symmetry_equiv_pos_site_id
 _symmetry_equiv_pos_as_xyz
  1  'x, y, z'
loop_
 _atom_site_type_symbol
 _atom_site_label
 _atom_site_symmetry_multiplicity
 _atom_site_fract_x
 _atom_site_fract_y
 _atom_site_fract_z
 _atom_site_occupancy
  Mg  Mg0  1  0.369362  0.741516  0.235557  1
  Mg  Mg1  1  0.630638  0.258484  0.764443  1
  Sn  Sn2  1  0.500000  -0.000000  0.500000  1
  Sn  Sn3  1  0.671770  0.344551  0.110505  1
  Sn  Sn4  1  0.328230  0.655449  0.889495  1
  Sn  Sn5  1  0.791391  0.588125  0.377079  1
  Sn  Sn6  1  0.208609  0.411875  0.622921  1
  Sn  Sn7  1  0.966949  0.934154  0.113148  1
  Sn  Sn8  1  0.033051  0.065846  0.886852  1
  Sn  Sn9  1  0.092143  0.175072  0.326594  1
  Sn  Sn10  1  0.907857  0.824928  0.673406  1
  O  O11  1  -0.000000  -0.000000  -0.000000  1
  O  O12  1  0.956771  0.914736  0.246509  1
  O  O13  1  0.043229  0.085264  0.753491  1
  O  O14  1  0.379795  0.760601  0.096700  1
  O  O15  1  0.620205  0.239399  0.903300  1
  O  O16  1  0.561998  0.125108  0.162645  1
  O  O17  1  0.438002  0.874892  0.837355  1
  O  O18  1  0.779617  0.563076  0.238574  1
  O  O19  1  0.220383  0.436924  0.761426  1
  O  O20  1  0.389721  0.782205  0.382933  1
  O  O21  1  0.610279  0.217795  0.617067  1
  O  O22  1  0.059175  0.116263  0.452841  1
  O  O23  1  0.940825  0.883737  0.547159  1
