# generated using pymatgen
data_Mg(TiS2)2
_symmetry_space_group_name_H-M   'P 1'
_cell_length_a   7.32256719
_cell_length_b   7.32934411
_cell_length_c   7.32165485
_cell_angle_alpha   60.00684826
_cell_angle_beta   59.97823486
_cell_angle_gamma   60.01159511
_symmetry_Int_Tables_number   1
_chemical_formula_structural   Mg(TiS2)2
_chemical_formula_sum   'Mg2 Ti4 S8'
_cell_volume   277.85085865
_cell_formula_units_Z   2
loop_
 _symmetry_equiv_pos_site_id
 _symmetry_equiv_pos_as_xyz
  1  'x, y, z'
loop_
 _atom_site_type_symbol
 _atom_site_label
 _atom_site_symmetry_multiplicity
 _atom_site_fract_x
 _atom_site_fract_y
 _atom_site_fract_z
 _atom_site_occupancy
  Mg  Mg0  1  0.875001  0.875044  0.874899  1
  Mg  Mg1  1  0.125000  0.124955  0.125101  1
  Ti  Ti2  1  0.500000  0.499999  0.500000  1
  Ti  Ti3  1  0.500000  0.500000  0.000000  1
  Ti  Ti4  1  0.000000  0.499999  0.500000  1
  Ti  Ti5  1  0.500001  1.000000  0.500000  1
  S  S6  1  0.740723  0.740552  0.740912  1
  S  S7  1  0.259244  0.259406  0.722064  1
  S  S8  1  0.259338  0.722129  0.259148  1
  S  S9  1  0.722165  0.259438  0.259089  1
  S  S10  1  0.740661  0.277870  0.740853  1
  S  S11  1  0.277837  0.740562  0.740911  1
  S  S12  1  0.259277  0.259448  0.259088  1
  S  S13  1  0.740756  0.740594  0.277936  1
