# generated using pymatgen
data_CaCrBiO5
_symmetry_space_group_name_H-M   'P 1'
_cell_length_a   5.85378583
_cell_length_b   8.31954184
_cell_length_c   11.81055339
_cell_angle_alpha   90.00000000
_cell_angle_beta   90.00000000
_cell_angle_gamma   111.38979284
_symmetry_Int_Tables_number   1
_chemical_formula_structural   CaCrBiO5
_chemical_formula_sum   'Ca4 Cr4 Bi4 O20'
_cell_volume   535.56540585
_cell_formula_units_Z   4
loop_
 _symmetry_equiv_pos_site_id
 _symmetry_equiv_pos_as_xyz
  1  'x, y, z'
loop_
 _atom_site_type_symbol
 _atom_site_label
 _atom_site_symmetry_multiplicity
 _atom_site_fract_x
 _atom_site_fract_y
 _atom_site_fract_z
 _atom_site_occupancy
  Ca  Ca0  1  0.642077  0.188847  0.913853  1
  Ca  Ca1  1  0.357923  0.811153  0.086147  1
  Ca  Ca2  1  0.857923  0.311153  0.413853  1
  Ca  Ca3  1  0.142077  0.688847  0.586147  1
  Cr  Cr4  1  0.800283  0.970786  0.645529  1
  Cr  Cr5  1  0.199717  0.029214  0.354471  1
  Cr  Cr6  1  0.699717  0.529214  0.145529  1
  Cr  Cr7  1  0.300283  0.470786  0.854471  1
  Bi  Bi8  1  0.134268  0.165562  0.095045  1
  Bi  Bi9  1  0.865732  0.834438  0.904955  1
  Bi  Bi10  1  0.634268  0.665562  0.404955  1
  Bi  Bi11  1  0.365732  0.334438  0.595045  1
  O  O12  1  0.561662  0.333046  0.077593  1
  O  O13  1  0.073074  0.330126  0.940170  1
  O  O14  1  0.492062  0.620791  0.182484  1
  O  O15  1  0.741109  0.511834  0.525981  1
  O  O16  1  0.804316  0.501585  0.278725  1
  O  O17  1  0.304316  0.001585  0.221275  1
  O  O18  1  0.573074  0.830125  0.559830  1
  O  O19  1  0.426926  0.169875  0.440170  1
  O  O20  1  0.258891  0.488166  0.474019  1
  O  O21  1  0.938338  0.166954  0.577593  1
  O  O22  1  0.195684  0.498415  0.721275  1
  O  O23  1  0.438338  0.666954  0.922407  1
  O  O24  1  0.061662  0.833046  0.422407  1
  O  O25  1  0.695684  0.998415  0.778725  1
  O  O26  1  0.758891  0.988166  0.025981  1
  O  O27  1  0.241109  0.011834  0.974019  1
  O  O28  1  0.507938  0.379210  0.817516  1
  O  O29  1  0.926926  0.669875  0.059830  1
  O  O30  1  0.007938  0.879209  0.682484  1
  O  O31  1  0.992062  0.120791  0.317516  1
