# generated using pymatgen
data_V3ZnP3O13
_symmetry_space_group_name_H-M   'P 1'
_cell_length_a   6.32833833
_cell_length_b   7.49484203
_cell_length_c   10.74866366
_cell_angle_alpha   99.45785175
_cell_angle_beta   90.00000000
_cell_angle_gamma   90.00000000
_symmetry_Int_Tables_number   1
_chemical_formula_structural   V3ZnP3O13
_chemical_formula_sum   'V6 Zn2 P6 O26'
_cell_volume   502.87805152
_cell_formula_units_Z   2
loop_
 _symmetry_equiv_pos_site_id
 _symmetry_equiv_pos_as_xyz
  1  'x, y, z'
loop_
 _atom_site_type_symbol
 _atom_site_label
 _atom_site_symmetry_multiplicity
 _atom_site_fract_x
 _atom_site_fract_y
 _atom_site_fract_z
 _atom_site_occupancy
  V  V0  1  0.250000  0.360437  0.204081  1
  V  V1  1  0.750000  0.639563  0.795919  1
  V  V2  1  0.250000  0.775883  0.443292  1
  V  V3  1  0.500000  -0.000000  0.000000  1
  V  V4  1  0.750000  0.224117  0.556708  1
  V  V5  1  0.000000  -0.000000  0.000000  1
  Zn  Zn6  1  0.750000  0.603126  0.139156  1
  Zn  Zn7  1  0.250000  0.396874  0.860844  1
  P  P8  1  0.250000  0.222003  0.484847  1
  P  P9  1  0.750000  0.777997  0.515153  1
  P  P10  1  0.250000  0.733721  0.766880  1
  P  P11  1  0.750000  0.266279  0.233120  1
  P  P12  1  0.750000  0.312638  0.878230  1
  P  P13  1  0.250000  0.687362  0.121770  1
  O  O14  1  0.750000  0.353227  0.742904  1
  O  O15  1  0.554666  0.735679  0.428791  1
  O  O16  1  0.250000  0.786034  0.637854  1
  O  O17  1  0.539612  0.217296  0.903267  1
  O  O18  1  0.750000  0.652895  0.615466  1
  O  O19  1  0.750000  0.880743  0.908207  1
  O  O20  1  0.250000  0.347105  0.384534  1
  O  O21  1  0.039612  0.782704  0.096733  1
  O  O22  1  0.250000  0.022495  0.416868  1
  O  O23  1  0.750000  0.977505  0.583132  1
  O  O24  1  0.063824  0.607118  0.795168  1
  O  O25  1  0.250000  0.119257  0.091793  1
  O  O26  1  0.563824  0.392882  0.204832  1
  O  O27  1  0.750000  0.508825  0.956896  1
  O  O28  1  0.750000  0.213966  0.362146  1
  O  O29  1  0.460388  0.782704  0.096733  1
  O  O30  1  0.945334  0.735679  0.428791  1
  O  O31  1  0.445334  0.264321  0.571209  1
  O  O32  1  0.436176  0.607118  0.795168  1
  O  O33  1  0.250000  0.646773  0.257096  1
  O  O34  1  0.750000  0.096269  0.126792  1
  O  O35  1  0.250000  0.903731  0.873208  1
  O  O36  1  0.936176  0.392882  0.204832  1
  O  O37  1  0.960388  0.217296  0.903267  1
  O  O38  1  0.054666  0.264321  0.571209  1
  O  O39  1  0.250000  0.491175  0.043104  1
