# generated using pymatgen
data_CaV2O6
_symmetry_space_group_name_H-M   'P 1'
_cell_length_a   5.48765662
_cell_length_b   5.44607308
_cell_length_c   7.31160638
_cell_angle_alpha   90.00001054
_cell_angle_beta   89.99937549
_cell_angle_gamma   89.99978431
_symmetry_Int_Tables_number   1
_chemical_formula_structural   CaV2O6
_chemical_formula_sum   'Ca2 V4 O12'
_cell_volume   218.51597697
_cell_formula_units_Z   2
loop_
 _symmetry_equiv_pos_site_id
 _symmetry_equiv_pos_as_xyz
  1  'x, y, z'
loop_
 _atom_site_type_symbol
 _atom_site_label
 _atom_site_symmetry_multiplicity
 _atom_site_fract_x
 _atom_site_fract_y
 _atom_site_fract_z
 _atom_site_occupancy
  Ca  Ca0  1  0.448321  0.480414  0.750001  1
  Ca  Ca1  1  0.051668  0.980412  0.250002  1
  V  V2  1  0.517668  0.959711  0.006508  1
  V  V3  1  0.982329  0.459716  0.506512  1
  V  V4  1  0.982334  0.459709  0.993492  1
  V  V5  1  0.517673  0.959702  0.493487  1
  O  O6  1  0.784351  0.793389  0.466771  1
  O  O7  1  0.293630  0.737380  0.027759  1
  O  O8  1  0.715654  0.293384  0.533227  1
  O  O9  1  0.206368  0.237378  0.972242  1
  O  O10  1  0.206362  0.237369  0.527754  1
  O  O11  1  0.715654  0.293374  0.966775  1
  O  O12  1  0.293635  0.737366  0.472247  1
  O  O13  1  0.784353  0.793379  0.033227  1
  O  O14  1  0.509950  0.960655  0.749999  1
  O  O15  1  0.011162  0.571293  0.750000  1
  O  O16  1  0.488834  0.071295  0.250002  1
  O  O17  1  0.990056  0.460641  0.250000  1
