# generated using pymatgen
data_CaV2CoO7
_symmetry_space_group_name_H-M   'P 1'
_cell_length_a   6.84555353
_cell_length_b   11.38884212
_cell_length_c   14.68363510
_cell_angle_alpha   90.00000000
_cell_angle_beta   90.00000000
_cell_angle_gamma   99.90789929
_symmetry_Int_Tables_number   1
_chemical_formula_structural   CaV2CoO7
_chemical_formula_sum   'Ca8 V16 Co8 O56'
_cell_volume   1127.70551245
_cell_formula_units_Z   8
loop_
 _symmetry_equiv_pos_site_id
 _symmetry_equiv_pos_as_xyz
  1  'x, y, z'
loop_
 _atom_site_type_symbol
 _atom_site_label
 _atom_site_symmetry_multiplicity
 _atom_site_fract_x
 _atom_site_fract_y
 _atom_site_fract_z
 _atom_site_occupancy
  Ca  Ca0  1  0.079451  0.731173  0.507966  1
  Ca  Ca1  1  0.324947  0.970863  0.870884  1
  Ca  Ca2  1  0.675053  0.529137  0.370884  1
  Ca  Ca3  1  0.675053  0.029137  0.129116  1
  Ca  Ca4  1  0.324947  0.470863  0.629116  1
  Ca  Ca5  1  0.079451  0.231173  0.992034  1
  Ca  Ca6  1  0.920549  0.268827  0.492034  1
  Ca  Ca7  1  0.920549  0.768827  0.007966  1
  V  V8  1  0.839282  0.980517  0.871466  1
  V  V9  1  0.413959  0.685204  0.012702  1
  V  V10  1  0.413959  0.185204  0.487298  1
  V  V11  1  0.586041  0.314796  0.987298  1
  V  V12  1  0.505737  0.794601  0.704483  1
  V  V13  1  0.494263  0.705399  0.204483  1
  V  V14  1  0.494263  0.205399  0.295517  1
  V  V15  1  0.505737  0.294601  0.795517  1
  V  V16  1  0.586041  0.814796  0.512702  1
  V  V17  1  0.869934  0.484129  0.136533  1
  V  V18  1  0.130067  0.015871  0.636533  1
  V  V19  1  0.130067  0.515871  0.863467  1
  V  V20  1  0.160718  0.519483  0.371466  1
  V  V21  1  0.839282  0.480517  0.628534  1
  V  V22  1  0.160718  0.019483  0.128534  1
  V  V23  1  0.869934  0.984129  0.363467  1
  Co  Co24  1  0.636755  0.074591  0.675870  1
  Co  Co25  1  0.363245  0.425409  0.175870  1
  Co  Co26  1  0.363245  0.925409  0.324130  1
  Co  Co27  1  0.636755  0.574591  0.824130  1
  Co  Co28  1  0.998769  0.246353  0.753439  1
  Co  Co29  1  0.001231  0.253647  0.253439  1
  Co  Co30  1  0.001231  0.753647  0.246561  1
  Co  Co31  1  0.998769  0.746353  0.746561  1
  O  O32  1  0.758554  0.961858  0.981474  1
  O  O33  1  0.241446  0.538142  0.481474  1
  O  O34  1  0.241446  0.038142  0.018526  1
  O  O35  1  0.758554  0.461858  0.518526  1
  O  O36  1  0.987739  0.870734  0.856388  1
  O  O37  1  0.012261  0.629266  0.356388  1
  O  O38  1  0.012261  0.129266  0.143612  1
  O  O39  1  0.987739  0.370734  0.643612  1
  O  O40  1  0.994670  0.117728  0.858848  1
  O  O41  1  0.005330  0.382272  0.358848  1
  O  O42  1  0.005330  0.882272  0.141152  1
  O  O43  1  0.994670  0.617728  0.641152  1
  O  O44  1  0.677143  0.955162  0.286700  1
  O  O45  1  0.322857  0.544838  0.786700  1
  O  O46  1  0.322857  0.044838  0.713300  1
  O  O47  1  0.677143  0.455162  0.213300  1
  O  O48  1  0.964693  0.135806  0.363994  1
  O  O49  1  0.035307  0.364194  0.863994  1
  O  O50  1  0.035307  0.864194  0.636006  1
  O  O51  1  0.964693  0.635806  0.136006  1
  O  O52  1  0.049796  0.893619  0.341358  1
  O  O53  1  0.391271  0.823455  0.440883  1
  O  O54  1  0.950204  0.606381  0.841358  1
  O  O55  1  0.049796  0.393619  0.158642  1
  O  O56  1  0.720446  0.709786  0.479356  1
  O  O57  1  0.279554  0.790214  0.979356  1
  O  O58  1  0.279554  0.290214  0.520644  1
  O  O59  1  0.720446  0.209786  0.020644  1
  O  O60  1  0.766955  0.948206  0.472587  1
  O  O61  1  0.233045  0.551794  0.972587  1
  O  O62  1  0.233045  0.051794  0.527413  1
  O  O63  1  0.766955  0.448206  0.027413  1
  O  O64  1  0.425982  0.207587  0.895194  1
  O  O65  1  0.574018  0.292413  0.395194  1
  O  O66  1  0.574018  0.792413  0.104806  1
  O  O67  1  0.425982  0.707587  0.604806  1
  O  O68  1  0.690120  0.223800  0.750803  1
  O  O69  1  0.309880  0.276200  0.250803  1
  O  O70  1  0.309880  0.776200  0.249197  1
  O  O71  1  0.690120  0.723800  0.749197  1
  O  O72  1  0.634135  0.462225  0.704161  1
  O  O73  1  0.365865  0.037775  0.204161  1
  O  O74  1  0.365865  0.537775  0.295839  1
  O  O75  1  0.634135  0.962225  0.795839  1
  O  O76  1  0.298504  0.292869  0.730405  1
  O  O77  1  0.701496  0.207131  0.230405  1
  O  O78  1  0.701496  0.707131  0.269595  1
  O  O79  1  0.298504  0.792869  0.769595  1
  O  O80  1  0.597335  0.411527  0.877860  1
  O  O81  1  0.402665  0.088473  0.377860  1
  O  O82  1  0.402665  0.588473  0.122140  1
  O  O83  1  0.597335  0.911527  0.622140  1
  O  O84  1  0.391271  0.323455  0.059117  1
  O  O85  1  0.608729  0.176545  0.559117  1
  O  O86  1  0.608729  0.676545  0.940883  1
  O  O87  1  0.950204  0.106381  0.658642  1
