# generated using pymatgen
data_CaCrP2O7
_symmetry_space_group_name_H-M   'P 1'
_cell_length_a   7.45725652
_cell_length_b   9.03721469
_cell_length_c   8.87511540
_cell_angle_alpha   90.00000000
_cell_angle_beta   111.19975220
_cell_angle_gamma   90.00000000
_symmetry_Int_Tables_number   1
_chemical_formula_structural   CaCrP2O7
_chemical_formula_sum   'Ca4 Cr4 P8 O28'
_cell_volume   557.64163352
_cell_formula_units_Z   4
loop_
 _symmetry_equiv_pos_site_id
 _symmetry_equiv_pos_as_xyz
  1  'x, y, z'
loop_
 _atom_site_type_symbol
 _atom_site_label
 _atom_site_symmetry_multiplicity
 _atom_site_fract_x
 _atom_site_fract_y
 _atom_site_fract_z
 _atom_site_occupancy
  Ca  Ca0  1  0.139150  0.954048  0.862564  1
  Ca  Ca1  1  0.360850  0.454048  0.637436  1
  Ca  Ca2  1  0.639150  0.545952  0.362564  1
  Ca  Ca3  1  0.860850  0.045952  0.137436  1
  Cr  Cr4  1  0.380735  0.076545  0.604567  1
  Cr  Cr5  1  0.619265  0.923455  0.395433  1
  Cr  Cr6  1  0.119265  0.576545  0.895433  1
  Cr  Cr7  1  0.880735  0.423455  0.104567  1
  P  P8  1  0.178914  0.721131  0.240072  1
  P  P9  1  0.445967  0.239660  0.963294  1
  P  P10  1  0.678914  0.778869  0.740072  1
  P  P11  1  0.945967  0.260340  0.463294  1
  P  P12  1  0.321086  0.221131  0.259928  1
  P  P13  1  0.054033  0.739660  0.536706  1
  P  P14  1  0.554033  0.760340  0.036706  1
  P  P15  1  0.821086  0.278869  0.759928  1
  O  O16  1  0.369558  0.178481  0.101170  1
  O  O17  1  0.582184  0.634588  0.666305  1
  O  O18  1  0.082184  0.865412  0.166305  1
  O  O19  1  0.345171  0.383166  0.891271  1
  O  O20  1  0.630442  0.821519  0.898829  1
  O  O21  1  0.404037  0.086343  0.373404  1
  O  O22  1  0.654829  0.616834  0.108729  1
  O  O23  1  0.389599  0.105432  0.847486  1
  O  O24  1  0.165708  0.243479  0.546255  1
  O  O25  1  0.595963  0.913657  0.626596  1
  O  O26  1  0.904037  0.413657  0.873404  1
  O  O27  1  0.897753  0.777386  0.801043  1
  O  O28  1  0.602247  0.277386  0.698957  1
  O  O29  1  0.869558  0.321519  0.601171  1
  O  O30  1  0.095963  0.586343  0.126596  1
  O  O31  1  0.917816  0.134588  0.833695  1
  O  O32  1  0.102247  0.222614  0.198957  1
  O  O33  1  0.610401  0.894568  0.152514  1
  O  O34  1  0.665708  0.256521  0.046255  1
  O  O35  1  0.334292  0.743479  0.953745  1
  O  O36  1  0.154829  0.883166  0.608729  1
  O  O37  1  0.889599  0.394568  0.347486  1
  O  O38  1  0.110401  0.605432  0.652514  1
  O  O39  1  0.417816  0.365412  0.333695  1
  O  O40  1  0.397753  0.722614  0.301043  1
  O  O41  1  0.845171  0.116834  0.391271  1
  O  O42  1  0.834292  0.756521  0.453745  1
  O  O43  1  0.130442  0.678481  0.398830  1
