# generated using pymatgen
data_CaV2O4
_symmetry_space_group_name_H-M   'P 1'
_cell_length_a   5.26843079
_cell_length_b   6.04057964
_cell_length_c   11.15073583
_cell_angle_alpha   89.98549343
_cell_angle_beta   90.00499910
_cell_angle_gamma   90.06838737
_symmetry_Int_Tables_number   1
_chemical_formula_structural   CaV2O4
_chemical_formula_sum   'Ca4 V8 O16'
_cell_volume   354.86494117
_cell_formula_units_Z   4
loop_
 _symmetry_equiv_pos_site_id
 _symmetry_equiv_pos_as_xyz
  1  'x, y, z'
loop_
 _atom_site_type_symbol
 _atom_site_label
 _atom_site_symmetry_multiplicity
 _atom_site_fract_x
 _atom_site_fract_y
 _atom_site_fract_z
 _atom_site_occupancy
  Ca  Ca0  1  0.844684  0.249978  0.749994  1
  Ca  Ca1  1  0.155315  0.750023  0.249999  1
  Ca  Ca2  1  0.528563  0.250158  0.250018  1
  Ca  Ca3  1  0.471437  0.749838  0.749985  1
  V  V4  1  0.510534  0.749963  0.489277  1
  V  V5  1  0.510585  0.749919  0.010720  1
  V  V6  1  0.489457  0.250045  0.510725  1
  V  V7  1  0.489404  0.250076  0.989281  1
  V  V8  1  -0.000009  0.499995  0.499998  1
  V  V9  1  0.000006  0.000001  0.000005  1
  V  V10  1  0.000020  0.000005  0.500000  1
  V  V11  1  0.000000  0.500003  0.000002  1
  O  O12  1  0.844594  0.749959  0.401118  1
  O  O13  1  0.844646  0.749886  0.098879  1
  O  O14  1  0.155406  0.250038  0.598879  1
  O  O15  1  0.155358  0.250113  0.901114  1
  O  O16  1  0.180961  0.750054  0.587708  1
  O  O17  1  0.181048  0.750173  0.912315  1
  O  O18  1  0.819039  0.249944  0.412295  1
  O  O19  1  0.818953  0.249830  0.087683  1
  O  O20  1  0.661588  0.503194  0.603804  1
  O  O21  1  0.661577  0.996241  0.896199  1
  O  O22  1  0.338389  0.003594  0.396206  1
  O  O23  1  0.338457  0.497031  0.103805  1
  O  O24  1  0.338419  0.496807  0.396198  1
  O  O25  1  0.338415  0.003762  0.103802  1
  O  O26  1  0.661612  0.996402  0.603796  1
  O  O27  1  0.661546  0.502969  0.896192  1
