# generated using pymatgen
data_Ca2CrO5
_symmetry_space_group_name_H-M   'P 1'
_cell_length_a   5.53793590
_cell_length_b   5.26868736
_cell_length_c   8.64004141
_cell_angle_alpha   108.20368080
_cell_angle_beta   108.64885292
_cell_angle_gamma   90.00816062
_symmetry_Int_Tables_number   1
_chemical_formula_structural   Ca2CrO5
_chemical_formula_sum   'Ca4 Cr2 O10'
_cell_volume   225.49983546
_cell_formula_units_Z   2
loop_
 _symmetry_equiv_pos_site_id
 _symmetry_equiv_pos_as_xyz
  1  'x, y, z'
loop_
 _atom_site_type_symbol
 _atom_site_label
 _atom_site_symmetry_multiplicity
 _atom_site_fract_x
 _atom_site_fract_y
 _atom_site_fract_z
 _atom_site_occupancy
  Ca  Ca0  1  0.184098  0.590067  0.285127  1
  Ca  Ca1  1  0.404796  0.804568  0.714034  1
  Ca  Ca2  1  0.898039  0.409343  0.714176  1
  Ca  Ca3  1  0.690982  0.194802  0.285276  1
  Cr  Cr4  1  0.542805  0.499754  0.999635  1
  Cr  Cr5  1  0.043143  0.999430  0.999621  1
  O  O6  1  0.531817  0.478561  0.498135  1
  O  O7  1  0.033349  0.520914  0.501324  1
  O  O8  1  0.548395  0.724858  0.198769  1
  O  O9  1  0.350391  0.274706  0.800894  1
  O  O10  1  0.049569  0.971453  0.195244  1
  O  O11  1  0.855018  0.028061  0.804336  1
  O  O12  1  0.206403  0.746387  0.918021  1
  O  O13  1  0.288845  0.251921  0.081504  1
  O  O14  1  0.798612  0.324114  0.087454  1
  O  O15  1  0.710274  0.676574  0.912121  1
