# generated using pymatgen
data_AlMoO3
_symmetry_space_group_name_H-M   'P 1'
_cell_length_a   5.54697129
_cell_length_b   5.54697106
_cell_length_c   12.04097594
_cell_angle_alpha   90.00000000
_cell_angle_beta   90.00000000
_cell_angle_gamma   120.00000130
_symmetry_Int_Tables_number   1
_chemical_formula_structural   AlMoO3
_chemical_formula_sum   'Al6 Mo6 O18'
_cell_volume   320.85154346
_cell_formula_units_Z   6
loop_
 _symmetry_equiv_pos_site_id
 _symmetry_equiv_pos_as_xyz
  1  'x, y, z'
loop_
 _atom_site_type_symbol
 _atom_site_label
 _atom_site_symmetry_multiplicity
 _atom_site_fract_x
 _atom_site_fract_y
 _atom_site_fract_z
 _atom_site_occupancy
  Al  Al0  1  0.666667  0.333333  0.260485  1
  Al  Al1  1  0.333333  0.666667  0.760485  1
  Al  Al2  1  0.666667  0.333333  0.760485  1
  Al  Al3  1  0.333333  0.666667  0.260485  1
  Al  Al4  1  0.000000  0.000000  0.738038  1
  Al  Al5  1  0.000000  0.000000  0.238038  1
  Mo  Mo6  1  0.701101  0.000000  0.499036  1
  Mo  Mo7  1  0.701101  0.701101  0.999036  1
  Mo  Mo8  1  0.000000  0.298899  0.999036  1
  Mo  Mo9  1  1.000000  0.701101  0.499036  1
  Mo  Mo10  1  0.298899  0.298899  0.499036  1
  Mo  Mo11  1  0.298899  0.000000  0.999036  1
  O  O12  1  0.666667  0.333333  0.034571  1
  O  O13  1  0.333333  0.666667  0.534571  1
  O  O14  1  0.666667  0.333333  0.534571  1
  O  O15  1  0.333333  0.666667  0.034571  1
  O  O16  1  0.000000  0.000000  0.896889  1
  O  O17  1  0.000000  0.000000  0.396889  1
  O  O18  1  0.426612  0.000000  0.836606  1
  O  O19  1  0.426612  0.426612  0.336606  1
  O  O20  1  1.000000  0.573388  0.336606  1
  O  O21  1  0.000000  0.426612  0.836606  1
  O  O22  1  0.573388  0.573388  0.836606  1
  O  O23  1  0.573388  0.000000  0.336606  1
  O  O24  1  0.304097  0.000000  0.181012  1
  O  O25  1  0.304097  0.304097  0.681012  1
  O  O26  1  0.000000  0.695903  0.681012  1
  O  O27  1  1.000000  0.304097  0.181012  1
  O  O28  1  0.695903  0.695903  0.181012  1
  O  O29  1  0.695903  0.000000  0.681012  1
