# generated using pymatgen
data_Sr2AlTlV2O7
_symmetry_space_group_name_H-M   'P 1'
_cell_length_a   3.74713221
_cell_length_b   3.75434339
_cell_length_c   13.30312507
_cell_angle_alpha   89.99687490
_cell_angle_beta   89.99574386
_cell_angle_gamma   90.00394280
_symmetry_Int_Tables_number   1
_chemical_formula_structural   Sr2AlTlV2O7
_chemical_formula_sum   'Sr2 Al1 Tl1 V2 O7'
_cell_volume   187.14864268
_cell_formula_units_Z   1
loop_
 _symmetry_equiv_pos_site_id
 _symmetry_equiv_pos_as_xyz
  1  'x, y, z'
loop_
 _atom_site_type_symbol
 _atom_site_label
 _atom_site_symmetry_multiplicity
 _atom_site_fract_x
 _atom_site_fract_y
 _atom_site_fract_z
 _atom_site_occupancy
  Sr  Sr0  1  0.500009  0.499999  0.818066  1
  Sr  Sr1  1  0.499992  0.500009  0.181827  1
  Al  Al2  1  0.499993  0.499991  0.500026  1
  Tl  Tl3  1  0.000011  0.000000  0.000049  1
  V  V4  1  0.000017  0.000035  0.639462  1
  V  V5  1  0.999972  -0.000032  0.360544  1
  O  O6  1  0.500022  0.000018  0.591552  1
  O  O7  1  0.000043  0.499991  0.591578  1
  O  O8  1  0.499965  0.999971  0.408437  1
  O  O9  1  0.999951  0.500001  0.408477  1
  O  O10  1  0.000021  0.000001  0.785309  1
  O  O11  1  0.999995  0.000014  0.214779  1
  O  O12  1  0.500008  0.500000  0.999893  1
