# generated using pymatgen
data_YTi(WO4)2
_symmetry_space_group_name_H-M   'P 1'
_cell_length_a   5.06643624
_cell_length_b   6.12742647
_cell_length_c   6.33005857
_cell_angle_alpha   103.09141414
_cell_angle_beta   122.87002481
_cell_angle_gamma   89.88896034
_symmetry_Int_Tables_number   1
_chemical_formula_structural   YTi(WO4)2
_chemical_formula_sum   'Y1 Ti1 W2 O8'
_cell_volume   158.99322748
_cell_formula_units_Z   1
loop_
 _symmetry_equiv_pos_site_id
 _symmetry_equiv_pos_as_xyz
  1  'x, y, z'
loop_
 _atom_site_type_symbol
 _atom_site_label
 _atom_site_symmetry_multiplicity
 _atom_site_fract_x
 _atom_site_fract_y
 _atom_site_fract_z
 _atom_site_occupancy
  Y  Y0  1  0.603071  0.744581  0.107171  1
  Ti  Ti1  1  0.103989  0.247379  0.090319  1
  W  W2  1  0.854953  0.369974  0.574876  1
  W  W3  1  0.389178  0.060014  0.613141  1
  O  O4  1  0.130346  0.648081  0.791942  1
  O  O5  1  0.487741  0.468337  0.270009  1
  O  O6  1  0.166931  0.162203  0.801565  1
  O  O7  1  0.529244  0.050369  0.352667  1
  O  O8  1  0.746871  0.975911  0.923486  1
  O  O9  1  0.132062  0.795409  0.402874  1
  O  O10  1  0.109209  0.274773  0.399969  1
  O  O11  1  0.742404  0.381466  0.868076  1
