# generated using pymatgen
data_PrZn(SnO3)2
_symmetry_space_group_name_H-M   'P 1'
_cell_length_a   5.57953934
_cell_length_b   6.13988445
_cell_length_c   8.17287236
_cell_angle_alpha   89.99994190
_cell_angle_beta   89.99933069
_cell_angle_gamma   90.00042057
_symmetry_Int_Tables_number   1
_chemical_formula_structural   PrZn(SnO3)2
_chemical_formula_sum   'Pr2 Zn2 Sn4 O12'
_cell_volume   279.98402873
_cell_formula_units_Z   2
loop_
 _symmetry_equiv_pos_site_id
 _symmetry_equiv_pos_as_xyz
  1  'x, y, z'
loop_
 _atom_site_type_symbol
 _atom_site_label
 _atom_site_symmetry_multiplicity
 _atom_site_fract_x
 _atom_site_fract_y
 _atom_site_fract_z
 _atom_site_occupancy
  Pr  Pr0  1  0.028932  0.921206  0.750003  1
  Pr  Pr1  1  0.528938  0.578787  0.249997  1
  Zn  Zn2  1  0.523356  0.620683  0.749993  1
  Zn  Zn3  1  0.023342  0.879318  0.249993  1
  Sn  Sn4  1  0.007803  0.466999  0.994365  1
  Sn  Sn5  1  0.007819  0.467022  0.505631  1
  Sn  Sn6  1  0.507805  0.032969  0.494377  1
  Sn  Sn7  1  0.507807  0.032989  0.005628  1
  O  O8  1  0.105668  0.514324  0.250002  1
  O  O9  1  0.176130  0.175071  0.943606  1
  O  O10  1  0.176142  0.175046  0.556402  1
  O  O11  1  0.304195  0.693873  0.561856  1
  O  O12  1  0.304133  0.693819  0.938131  1
  O  O13  1  0.365882  0.963579  0.250015  1
  O  O14  1  0.605673  0.985674  0.749987  1
  O  O15  1  0.676119  0.324941  0.056412  1
  O  O16  1  0.676098  0.324904  0.443608  1
  O  O17  1  0.804149  0.806171  0.061859  1
  O  O18  1  0.804123  0.806203  0.438122  1
  O  O19  1  0.865883  0.536422  0.750013  1
