# generated using pymatgen
data_CaCoSn2O7
_symmetry_space_group_name_H-M   'P 1'
_cell_length_a   7.58154974
_cell_length_b   10.91183581
_cell_length_c   15.19226800
_cell_angle_alpha   90.00000000
_cell_angle_beta   90.00000000
_cell_angle_gamma   107.80435770
_symmetry_Int_Tables_number   1
_chemical_formula_structural   CaCoSn2O7
_chemical_formula_sum   'Ca8 Co8 Sn16 O56'
_cell_volume   1196.64075477
_cell_formula_units_Z   8
loop_
 _symmetry_equiv_pos_site_id
 _symmetry_equiv_pos_as_xyz
  1  'x, y, z'
loop_
 _atom_site_type_symbol
 _atom_site_label
 _atom_site_symmetry_multiplicity
 _atom_site_fract_x
 _atom_site_fract_y
 _atom_site_fract_z
 _atom_site_occupancy
  Ca  Ca0  1  0.077024  0.770018  0.528407  1
  Ca  Ca1  1  0.301216  0.953253  0.883904  1
  Ca  Ca2  1  0.698784  0.546747  0.383904  1
  Ca  Ca3  1  0.698784  0.046747  0.116096  1
  Ca  Ca4  1  0.301216  0.453253  0.616096  1
  Ca  Ca5  1  0.077024  0.270018  0.971593  1
  Ca  Ca6  1  0.922976  0.229982  0.471593  1
  Ca  Ca7  1  0.922976  0.729982  0.028407  1
  Co  Co8  1  0.637660  0.098842  0.657174  1
  Co  Co9  1  0.362340  0.401158  0.157174  1
  Co  Co10  1  0.362340  0.901158  0.342826  1
  Co  Co11  1  0.637660  0.598842  0.842826  1
  Co  Co12  1  0.974949  0.250958  0.751330  1
  Co  Co13  1  0.025051  0.249042  0.251330  1
  Co  Co14  1  0.025051  0.749042  0.248670  1
  Co  Co15  1  0.974949  0.750958  0.748670  1
  Sn  Sn16  1  0.820516  0.960925  0.872707  1
  Sn  Sn17  1  0.400795  0.685033  0.021462  1
  Sn  Sn18  1  0.400795  0.185033  0.478538  1
  Sn  Sn19  1  0.599205  0.314967  0.978538  1
  Sn  Sn20  1  0.478991  0.771438  0.724111  1
  Sn  Sn21  1  0.521009  0.728562  0.224111  1
  Sn  Sn22  1  0.521009  0.228562  0.275889  1
  Sn  Sn23  1  0.478991  0.271438  0.775889  1
  Sn  Sn24  1  0.599205  0.814967  0.521462  1
  Sn  Sn25  1  0.855904  0.436547  0.154804  1
  Sn  Sn26  1  0.144096  0.063453  0.654804  1
  Sn  Sn27  1  0.144096  0.563453  0.845196  1
  Sn  Sn28  1  0.179484  0.539075  0.372707  1
  Sn  Sn29  1  0.820516  0.460925  0.627293  1
  Sn  Sn30  1  0.179484  0.039075  0.127293  1
  Sn  Sn31  1  0.855904  0.936547  0.345196  1
  O  O32  1  0.847073  0.943676  0.002631  1
  O  O33  1  0.152927  0.556324  0.502631  1
  O  O34  1  0.152927  0.056323  0.997369  1
  O  O35  1  0.847073  0.443677  0.497369  1
  O  O36  1  0.005171  0.877706  0.833925  1
  O  O37  1  0.994829  0.622294  0.333925  1
  O  O38  1  0.994829  0.122294  0.166075  1
  O  O39  1  0.005171  0.377706  0.666075  1
  O  O40  1  0.977173  0.138116  0.843449  1
  O  O41  1  0.022827  0.361884  0.343449  1
  O  O42  1  0.022827  0.861884  0.156551  1
  O  O43  1  0.977173  0.638116  0.656551  1
  O  O44  1  0.603632  0.915482  0.284226  1
  O  O45  1  0.396368  0.584518  0.784226  1
  O  O46  1  0.396368  0.084518  0.715774  1
  O  O47  1  0.603632  0.415482  0.215774  1
  O  O48  1  0.967001  0.128328  0.339912  1
  O  O49  1  0.032999  0.371672  0.839912  1
  O  O50  1  0.032999  0.871672  0.660088  1
  O  O51  1  0.967001  0.628328  0.160088  1
  O  O52  1  0.094899  0.884375  0.334833  1
  O  O53  1  0.374713  0.812770  0.442594  1
  O  O54  1  0.905101  0.615625  0.834833  1
  O  O55  1  0.094899  0.384375  0.165167  1
  O  O56  1  0.762417  0.712489  0.483466  1
  O  O57  1  0.237583  0.787511  0.983466  1
  O  O58  1  0.237583  0.287511  0.516534  1
  O  O59  1  0.762417  0.212489  0.016534  1
  O  O60  1  0.783373  0.974438  0.466695  1
  O  O61  1  0.216627  0.525562  0.966695  1
  O  O62  1  0.216627  0.025562  0.533305  1
  O  O63  1  0.783373  0.474438  0.033305  1
  O  O64  1  0.438449  0.177032  0.894282  1
  O  O65  1  0.561551  0.322968  0.394282  1
  O  O66  1  0.561551  0.822968  0.105718  1
  O  O67  1  0.438449  0.677032  0.605718  1
  O  O68  1  0.720770  0.221542  0.749875  1
  O  O69  1  0.279230  0.278458  0.249875  1
  O  O70  1  0.279230  0.778458  0.250125  1
  O  O71  1  0.720770  0.721542  0.750125  1
  O  O72  1  0.566124  0.411898  0.676781  1
  O  O73  1  0.433876  0.088102  0.176781  1
  O  O74  1  0.433876  0.588102  0.323219  1
  O  O75  1  0.566124  0.911898  0.823219  1
  O  O76  1  0.220186  0.253835  0.719446  1
  O  O77  1  0.779814  0.246165  0.219446  1
  O  O78  1  0.779814  0.746165  0.280554  1
  O  O79  1  0.220186  0.753835  0.780554  1
  O  O80  1  0.567717  0.418883  0.867408  1
  O  O81  1  0.432283  0.081117  0.367408  1
  O  O82  1  0.432283  0.581117  0.132592  1
  O  O83  1  0.567717  0.918883  0.632592  1
  O  O84  1  0.374713  0.312770  0.057406  1
  O  O85  1  0.625287  0.187230  0.557406  1
  O  O86  1  0.625287  0.687230  0.942594  1
  O  O87  1  0.905101  0.115625  0.665167  1
