# generated using pymatgen
data_HoZn(SnO3)2
_symmetry_space_group_name_H-M   'P 1'
_cell_length_a   5.50024484
_cell_length_b   5.97712305
_cell_length_c   8.07416581
_cell_angle_alpha   89.94646078
_cell_angle_beta   89.98003777
_cell_angle_gamma   89.96517629
_symmetry_Int_Tables_number   1
_chemical_formula_structural   HoZn(SnO3)2
_chemical_formula_sum   'Ho2 Zn2 Sn4 O12'
_cell_volume   265.44318934
_cell_formula_units_Z   2
loop_
 _symmetry_equiv_pos_site_id
 _symmetry_equiv_pos_as_xyz
  1  'x, y, z'
loop_
 _atom_site_type_symbol
 _atom_site_label
 _atom_site_symmetry_multiplicity
 _atom_site_fract_x
 _atom_site_fract_y
 _atom_site_fract_z
 _atom_site_occupancy
  Ho  Ho0  1  0.027918  0.918874  0.749659  1
  Ho  Ho1  1  0.528705  0.583067  0.250384  1
  Zn  Zn2  1  0.516707  0.587330  0.749288  1
  Zn  Zn3  1  0.017814  0.912304  0.250435  1
  Sn  Sn4  1  0.006291  0.469733  0.999330  1
  Sn  Sn5  1  0.006364  0.470368  0.500377  1
  Sn  Sn6  1  0.506945  0.032611  0.499373  1
  Sn  Sn7  1  0.506491  0.031542  0.001046  1
  O  O8  1  0.141325  0.477189  0.247739  1
  O  O9  1  0.164118  0.166838  0.936387  1
  O  O10  1  0.159103  0.165678  0.562586  1
  O  O11  1  0.299871  0.699372  0.930682  1
  O  O12  1  0.300442  0.696864  0.568314  1
  O  O13  1  0.367977  0.950352  0.246037  1
  O  O14  1  0.639630  0.020943  0.754368  1
  O  O15  1  0.664789  0.340367  0.437425  1
  O  O16  1  0.666140  0.336016  0.063749  1
  O  O17  1  0.803348  0.796657  0.068963  1
  O  O18  1  0.808453  0.794102  0.431756  1
  O  O19  1  0.867568  0.549795  0.752101  1
