# generated using pymatgen
data_Si4SbO10
_symmetry_space_group_name_H-M   'P 1'
_cell_length_a   7.41671301
_cell_length_b   7.41671301
_cell_length_c   16.27354030
_cell_angle_alpha   90.00000000
_cell_angle_beta   90.00000000
_cell_angle_gamma   90.00000000
_symmetry_Int_Tables_number   1
_chemical_formula_structural   Si4SbO10
_chemical_formula_sum   'Si16 Sb4 O40'
_cell_volume   895.16891409
_cell_formula_units_Z   4
loop_
 _symmetry_equiv_pos_site_id
 _symmetry_equiv_pos_as_xyz
  1  'x, y, z'
loop_
 _atom_site_type_symbol
 _atom_site_label
 _atom_site_symmetry_multiplicity
 _atom_site_fract_x
 _atom_site_fract_y
 _atom_site_fract_z
 _atom_site_occupancy
  Si  Si0  1  0.923784  0.506193  0.653795  1
  Si  Si1  1  0.576216  0.993807  0.653795  1
  Si  Si2  1  0.006193  0.423784  0.846205  1
  Si  Si3  1  0.506193  0.576216  0.653795  1
  Si  Si4  1  0.993807  0.923784  0.653795  1
  Si  Si5  1  0.076216  0.006193  0.846205  1
  Si  Si6  1  0.423784  0.493807  0.846205  1
  Si  Si7  1  0.493807  0.076216  0.846205  1
  Si  Si8  1  0.076216  0.493807  0.346205  1
  Si  Si9  1  0.423784  0.006193  0.346205  1
  Si  Si10  1  0.993807  0.576216  0.153795  1
  Si  Si11  1  0.493807  0.423784  0.346205  1
  Si  Si12  1  0.006193  0.076216  0.346205  1
  Si  Si13  1  0.923784  0.993807  0.153795  1
  Si  Si14  1  0.576216  0.506193  0.153795  1
  Si  Si15  1  0.506193  0.923784  0.153795  1
  Sb  Sb16  1  0.250000  0.250000  0.560152  1
  Sb  Sb17  1  0.750000  0.750000  0.939848  1
  Sb  Sb18  1  0.750000  0.750000  0.439848  1
  Sb  Sb19  1  0.250000  0.250000  0.060152  1
  O  O20  1  0.013549  0.349684  0.596822  1
  O  O21  1  0.486451  0.150316  0.596822  1
  O  O22  1  0.849684  0.513549  0.903178  1
  O  O23  1  0.349684  0.486451  0.596822  1
  O  O24  1  0.150316  0.013549  0.596822  1
  O  O25  1  0.986451  0.849684  0.903178  1
  O  O26  1  0.513549  0.650316  0.903178  1
  O  O27  1  0.650316  0.986451  0.903178  1
  O  O28  1  0.986451  0.650316  0.403178  1
  O  O29  1  0.513549  0.849684  0.403178  1
  O  O30  1  0.150316  0.486451  0.096822  1
  O  O31  1  0.650316  0.513549  0.403178  1
  O  O32  1  0.849684  0.986451  0.403178  1
  O  O33  1  0.013549  0.150316  0.096822  1
  O  O34  1  0.486451  0.349684  0.096822  1
  O  O35  1  0.001986  0.291743  0.366460  1
  O  O36  1  0.349684  0.013549  0.096822  1
  O  O37  1  0.501986  0.791743  0.633540  1
  O  O38  1  0.208257  0.498014  0.866460  1
  O  O39  1  0.708257  0.501986  0.633540  1
  O  O40  1  0.791743  0.998014  0.633540  1
  O  O41  1  0.001986  0.208257  0.866460  1
  O  O42  1  0.498014  0.291743  0.866460  1
  O  O43  1  0.291743  0.001986  0.866460  1
  O  O44  1  0.460276  0.960275  0.250000  1
  O  O45  1  0.539724  0.460276  0.250000  1
  O  O46  1  0.960275  0.039724  0.250000  1
  O  O47  1  0.039724  0.539724  0.250000  1
  O  O48  1  0.539724  0.039724  0.750000  1
  O  O49  1  0.460276  0.539724  0.750000  1
  O  O50  1  0.039724  0.960275  0.750000  1
  O  O51  1  0.960275  0.460276  0.750000  1
  O  O52  1  0.708257  0.998014  0.133540  1
  O  O53  1  0.501986  0.708257  0.133540  1
  O  O54  1  0.998014  0.791743  0.133540  1
  O  O55  1  0.208257  0.001986  0.366460  1
  O  O56  1  0.291743  0.498014  0.366460  1
  O  O57  1  0.791743  0.501986  0.133540  1
  O  O58  1  0.498014  0.208257  0.366460  1
  O  O59  1  0.998014  0.708257  0.633540  1
