# generated using pymatgen
data_MgMnPO5
_symmetry_space_group_name_H-M   'P 1'
_cell_length_a   5.41501562
_cell_length_b   6.90627216
_cell_length_c   8.37657462
_cell_angle_alpha   90.10872632
_cell_angle_beta   140.53845284
_cell_angle_gamma   74.94660159
_symmetry_Int_Tables_number   1
_chemical_formula_structural   MgMnPO5
_chemical_formula_sum   'Mg2 Mn2 P2 O10'
_cell_volume   181.91960702
_cell_formula_units_Z   2
loop_
 _symmetry_equiv_pos_site_id
 _symmetry_equiv_pos_as_xyz
  1  'x, y, z'
loop_
 _atom_site_type_symbol
 _atom_site_label
 _atom_site_symmetry_multiplicity
 _atom_site_fract_x
 _atom_site_fract_y
 _atom_site_fract_z
 _atom_site_occupancy
  Mg  Mg0  1  0.351565  0.299387  0.108030  1
  Mg  Mg1  1  0.370384  0.791701  0.749857  1
  Mn  Mn2  1  0.490479  0.492945  0.484719  1
  Mn  Mn3  1  0.495051  0.993367  0.504080  1
  P  P4  1  0.537361  0.233633  0.875292  1
  P  P5  1  0.524335  0.732891  0.156878  1
  O  O6  1  0.443293  0.064353  0.736039  1
  O  O7  1  0.710216  0.353273  0.843679  1
  O  O8  1  0.702585  0.850125  0.363292  1
  O  O9  1  0.385114  0.579388  0.181194  1
  O  O10  1  0.846964  0.613835  0.182632  1
  O  O11  1  0.149779  0.889018  0.866905  1
  O  O12  1  0.141350  0.390613  0.771163  1
  O  O13  1  0.845638  0.132680  0.172535  1
  O  O14  1  0.500394  0.736831  0.586265  1
  O  O15  1  0.516441  0.233355  0.415976  1
