# generated using pymatgen
data_Zn2Cr9O13
_symmetry_space_group_name_H-M   'P 1'
_cell_length_a   3.07874373
_cell_length_b   5.81380485
_cell_length_c   16.93665319
_cell_angle_alpha   98.54595546
_cell_angle_beta   87.11130617
_cell_angle_gamma   116.28274331
_symmetry_Int_Tables_number   1
_chemical_formula_structural   Zn2Cr9O13
_chemical_formula_sum   'Zn2 Cr9 O13'
_cell_volume   268.75429899
_cell_formula_units_Z   1
loop_
 _symmetry_equiv_pos_site_id
 _symmetry_equiv_pos_as_xyz
  1  'x, y, z'
loop_
 _atom_site_type_symbol
 _atom_site_label
 _atom_site_symmetry_multiplicity
 _atom_site_fract_x
 _atom_site_fract_y
 _atom_site_fract_z
 _atom_site_occupancy
  Zn  Zn0  1  0.976213  0.455254  0.225683  1
  Zn  Zn1  1  0.023787  0.544746  0.774317  1
  Cr  Cr2  1  0.500000  0.000000  0.500000  1
  Cr  Cr3  1  0.670494  0.280169  0.041790  1
  Cr  Cr4  1  0.329506  0.719831  0.958210  1
  Cr  Cr5  1  0.741117  0.505504  0.415970  1
  Cr  Cr6  1  0.258883  0.494496  0.584030  1
  Cr  Cr7  1  0.874230  0.869065  0.121972  1
  Cr  Cr8  1  0.125770  0.130935  0.878028  1
  Cr  Cr9  1  0.998751  0.995440  0.329658  1
  Cr  Cr10  1  0.001249  0.004560  0.670342  1
  O  O11  1  -0.000000  0.000000  -0.000000  1
  O  O12  1  0.694309  0.707891  0.222975  1
  O  O13  1  0.305691  0.292109  0.777025  1
  O  O14  1  0.205733  0.637956  0.074946  1
  O  O15  1  0.794267  0.362044  0.925054  1
  O  O16  1  0.583068  0.129167  0.146034  1
  O  O17  1  0.416932  0.870833  0.853966  1
  O  O18  1  0.712080  0.250401  0.316879  1
  O  O19  1  0.287920  0.749599  0.683121  1
  O  O20  1  0.340284  0.813599  0.385206  1
  O  O21  1  0.659716  0.186401  0.614794  1
  O  O22  1  0.201475  0.238637  0.477761  1
  O  O23  1  0.798525  0.761363  0.522239  1
