# generated using pymatgen
data_Ba2YV3O8
_symmetry_space_group_name_H-M   'P 1'
_cell_length_a   3.97715927
_cell_length_b   4.01593404
_cell_length_c   12.03759747
_cell_angle_alpha   90.00537152
_cell_angle_beta   89.99739385
_cell_angle_gamma   89.69696989
_symmetry_Int_Tables_number   1
_chemical_formula_structural   Ba2YV3O8
_chemical_formula_sum   'Ba2 Y1 V3 O8'
_cell_volume   192.26192826
_cell_formula_units_Z   1
loop_
 _symmetry_equiv_pos_site_id
 _symmetry_equiv_pos_as_xyz
  1  'x, y, z'
loop_
 _atom_site_type_symbol
 _atom_site_label
 _atom_site_symmetry_multiplicity
 _atom_site_fract_x
 _atom_site_fract_y
 _atom_site_fract_z
 _atom_site_occupancy
  Ba  Ba0  1  0.500010  0.499958  0.162488  1
  Ba  Ba1  1  0.499990  0.500038  0.836942  1
  Y  Y2  1  0.500001  0.499998  0.499972  1
  V  V3  1  -0.000001  0.999985  0.340507  1
  V  V4  1  0.999991  0.000011  0.999864  1
  V  V5  1  0.999996  0.000029  0.659392  1
  O  O6  1  0.000007  0.500037  0.383309  1
  O  O7  1  0.499992  -0.000003  0.383497  1
  O  O8  1  0.500001  0.999996  0.999959  1
  O  O9  1  0.000012  -0.000007  0.183369  1
  O  O10  1  0.999992  0.499960  0.617176  1
  O  O11  1  0.500014  1.000000  0.616913  1
  O  O12  1  -0.000004  0.999999  0.816706  1
  O  O13  1  -0.000000  0.499998  0.999909  1
