# generated using pymatgen
data_YBiO3
_symmetry_space_group_name_H-M   'P 1'
_cell_length_a   6.61361375
_cell_length_b   6.61361334
_cell_length_c   13.08213532
_cell_angle_alpha   90.00000000
_cell_angle_beta   90.00000000
_cell_angle_gamma   120.00000199
_symmetry_Int_Tables_number   1
_chemical_formula_structural   YBiO3
_chemical_formula_sum   'Y6 Bi6 O18'
_cell_volume   495.54932438
_cell_formula_units_Z   6
loop_
 _symmetry_equiv_pos_site_id
 _symmetry_equiv_pos_as_xyz
  1  'x, y, z'
loop_
 _atom_site_type_symbol
 _atom_site_label
 _atom_site_symmetry_multiplicity
 _atom_site_fract_x
 _atom_site_fract_y
 _atom_site_fract_z
 _atom_site_occupancy
  Y  Y0  1  0.666667  0.333333  0.235772  1
  Y  Y1  1  0.333333  0.666667  0.735772  1
  Y  Y2  1  0.666667  0.333333  0.735772  1
  Y  Y3  1  0.333333  0.666667  0.235772  1
  Y  Y4  1  0.000000  0.000000  0.763917  1
  Y  Y5  1  0.000000  0.000000  0.263917  1
  Bi  Bi6  1  0.667036  0.000000  0.499840  1
  Bi  Bi7  1  0.667036  0.667036  0.999840  1
  Bi  Bi8  1  0.000000  0.332964  0.999840  1
  Bi  Bi9  1  1.000000  0.667036  0.499840  1
  Bi  Bi10  1  0.332964  0.332964  0.499840  1
  Bi  Bi11  1  0.332964  0.000000  0.999840  1
  O  O12  1  0.666667  0.333333  0.041857  1
  O  O13  1  0.333333  0.666667  0.541857  1
  O  O14  1  0.666667  0.333333  0.541857  1
  O  O15  1  0.333333  0.666667  0.041857  1
  O  O16  1  0.000000  0.000000  0.952169  1
  O  O17  1  0.000000  0.000000  0.452169  1
  O  O18  1  0.374789  0.000000  0.823183  1
  O  O19  1  0.374789  0.374789  0.323183  1
  O  O20  1  0.000000  0.625211  0.323183  1
  O  O21  1  1.000000  0.374789  0.823183  1
  O  O22  1  0.625211  0.625211  0.823183  1
  O  O23  1  0.625211  0.000000  0.323183  1
  O  O24  1  0.299951  0.000000  0.178196  1
  O  O25  1  0.299951  0.299951  0.678196  1
  O  O26  1  1.000000  0.700049  0.678196  1
  O  O27  1  0.000000  0.299951  0.178196  1
  O  O28  1  0.700049  0.700049  0.178196  1
  O  O29  1  0.700049  0.000000  0.678196  1
