# generated using pymatgen
data_Si2Bi13(SbO14)2
_symmetry_space_group_name_H-M   'P 1'
_cell_length_a   6.12632019
_cell_length_b   10.21321314
_cell_length_c   12.69333026
_cell_angle_alpha   86.84869845
_cell_angle_beta   77.32488384
_cell_angle_gamma   80.31983529
_symmetry_Int_Tables_number   1
_chemical_formula_structural   Si2Bi13(SbO14)2
_chemical_formula_sum   'Si2 Bi13 Sb2 O28'
_cell_volume   763.69158744
_cell_formula_units_Z   1
loop_
 _symmetry_equiv_pos_site_id
 _symmetry_equiv_pos_as_xyz
  1  'x, y, z'
loop_
 _atom_site_type_symbol
 _atom_site_label
 _atom_site_symmetry_multiplicity
 _atom_site_fract_x
 _atom_site_fract_y
 _atom_site_fract_z
 _atom_site_occupancy
  Si  Si0  1  0.284554  0.328788  0.991885  1
  Si  Si1  1  0.719954  0.671530  0.008025  1
  Bi  Bi2  1  0.037976  0.641646  0.568843  1
  Bi  Bi3  1  0.685686  0.352760  0.156996  1
  Bi  Bi4  1  0.339939  0.371393  0.659850  1
  Bi  Bi5  1  0.960233  0.354407  0.432675  1
  Bi  Bi6  1  0.317398  0.647373  0.842704  1
  Bi  Bi7  1  0.291109  0.934136  0.445088  1
  Bi  Bi8  1  0.211237  0.641807  0.131211  1
  Bi  Bi9  1  0.000705  0.999970  0.999908  1
  Bi  Bi10  1  0.410204  0.004371  0.153237  1
  Bi  Bi11  1  0.790146  0.358061  0.870039  1
  Bi  Bi12  1  0.660299  0.625981  0.341431  1
  Bi  Bi13  1  0.590857  0.995752  0.847366  1
  Bi  Bi14  1  0.707273  0.061543  0.555147  1
  Sb  Sb15  1  0.849946  0.998350  0.287369  1
  Sb  Sb16  1  0.150029  0.999862  0.712692  1
  O  O17  1  0.696103  0.408967  0.315683  1
  O  O18  1  0.209609  0.444334  0.517499  1
  O  O19  1  0.008668  0.326429  0.010298  1
  O  O20  1  0.434655  0.178448  0.987858  1
  O  O21  1  0.788768  0.551703  0.483799  1
  O  O22  1  0.299904  0.589306  0.685687  1
  O  O23  1  0.068128  0.092395  0.578178  1
  O  O24  1  0.931504  0.903331  0.420932  1
  O  O25  1  0.571539  0.822435  0.011344  1
  O  O26  1  0.087658  0.884938  0.167003  1
  O  O27  1  0.333432  0.410656  0.091620  1
  O  O28  1  0.039675  0.580442  0.276493  1
  O  O29  1  0.392140  0.892279  0.608081  1
  O  O30  1  0.745408  0.109900  0.159236  1
  O  O31  1  0.637754  0.591084  0.124891  1
  O  O32  1  0.996483  0.673471  0.989990  1
  O  O33  1  0.255035  0.890163  0.841726  1
  O  O34  1  0.913464  0.114557  0.832493  1
  O  O35  1  0.606932  0.104373  0.392651  1
  O  O36  1  0.110121  0.099902  0.279247  1
  O  O37  1  0.890356  0.897635  0.722762  1
  O  O38  1  0.366214  0.409540  0.875031  1
  O  O39  1  0.387143  0.112725  0.730145  1
  O  O40  1  0.693971  0.281100  0.548627  1
  O  O41  1  0.672131  0.589733  0.908008  1
  O  O42  1  0.613345  0.885865  0.268317  1
  O  O43  1  0.959419  0.415876  0.723089  1
  O  O44  1  0.303928  0.714612  0.452355  1
