# generated using pymatgen
data_ZnFe2CoO7
_symmetry_space_group_name_H-M   'P 1'
_cell_length_a   6.95438323
_cell_length_b   11.04641503
_cell_length_c   13.33304667
_cell_angle_alpha   90.00000000
_cell_angle_beta   90.00000000
_cell_angle_gamma   106.34637877
_symmetry_Int_Tables_number   1
_chemical_formula_structural   ZnFe2CoO7
_chemical_formula_sum   'Zn8 Fe16 Co8 O56'
_cell_volume   982.85525037
_cell_formula_units_Z   8
loop_
 _symmetry_equiv_pos_site_id
 _symmetry_equiv_pos_as_xyz
  1  'x, y, z'
loop_
 _atom_site_type_symbol
 _atom_site_label
 _atom_site_symmetry_multiplicity
 _atom_site_fract_x
 _atom_site_fract_y
 _atom_site_fract_z
 _atom_site_occupancy
  Zn  Zn0  1  0.058417  0.808762  0.486173  1
  Zn  Zn1  1  0.319037  0.934593  0.874099  1
  Zn  Zn2  1  0.680963  0.565407  0.374099  1
  Zn  Zn3  1  0.680963  0.065407  0.125901  1
  Zn  Zn4  1  0.319037  0.434593  0.625901  1
  Zn  Zn5  1  0.058417  0.308762  0.013827  1
  Zn  Zn6  1  0.941583  0.191238  0.513827  1
  Zn  Zn7  1  0.941583  0.691238  0.986173  1
  Fe  Fe8  1  0.837465  0.988465  0.883495  1
  Fe  Fe9  1  0.410626  0.675986  -0.001480  1
  Fe  Fe10  1  0.410626  0.175986  0.501480  1
  Fe  Fe11  1  0.589374  0.324015  0.001480  1
  Fe  Fe12  1  0.474024  0.770756  0.706371  1
  Fe  Fe13  1  0.525976  0.729244  0.206371  1
  Fe  Fe14  1  0.525976  0.229244  0.293629  1
  Fe  Fe15  1  0.474024  0.270756  0.793629  1
  Fe  Fe16  1  0.589374  0.824014  0.498520  1
  Fe  Fe17  1  0.876467  0.484688  0.175254  1
  Fe  Fe18  1  0.123533  0.015312  0.675254  1
  Fe  Fe19  1  0.123533  0.515312  0.824746  1
  Fe  Fe20  1  0.162535  0.511535  0.383495  1
  Fe  Fe21  1  0.837465  0.488465  0.616505  1
  Fe  Fe22  1  0.162535  0.011535  0.116505  1
  Fe  Fe23  1  0.876467  0.984688  0.324746  1
  Co  Co24  1  0.641179  0.076759  0.686715  1
  Co  Co25  1  0.358821  0.423241  0.186715  1
  Co  Co26  1  0.358821  0.923241  0.313285  1
  Co  Co27  1  0.641179  0.576759  0.813285  1
  Co  Co28  1  0.981081  0.257709  0.776719  1
  Co  Co29  1  0.018919  0.242291  0.276719  1
  Co  Co30  1  0.018919  0.742291  0.223281  1
  Co  Co31  1  0.981081  0.757709  0.723281  1
  O  O32  1  0.751386  0.969668  0.013356  1
  O  O33  1  0.248614  0.530332  0.513356  1
  O  O34  1  0.248614  0.030332  0.986644  1
  O  O35  1  0.751386  0.469668  0.486644  1
  O  O36  1  0.014208  0.919583  0.804287  1
  O  O37  1  0.985792  0.580417  0.304287  1
  O  O38  1  0.985792  0.080417  0.195713  1
  O  O39  1  0.014208  0.419583  0.695713  1
  O  O40  1  -0.001559  0.154186  0.879609  1
  O  O41  1  0.001559  0.345814  0.379609  1
  O  O42  1  0.001559  0.845814  0.120391  1
  O  O43  1  -0.001559  0.654186  0.620391  1
  O  O44  1  0.621658  0.899323  0.274997  1
  O  O45  1  0.378342  0.600677  0.774997  1
  O  O46  1  0.378342  0.100677  0.725003  1
  O  O47  1  0.621658  0.399323  0.225003  1
  O  O48  1  0.028030  0.135806  0.381056  1
  O  O49  1  0.971970  0.364194  0.881056  1
  O  O50  1  0.971970  0.864194  0.618944  1
  O  O51  1  0.028030  0.635806  0.118944  1
  O  O52  1  0.063509  0.879105  0.325700  1
  O  O53  1  0.339450  0.829285  0.429559  1
  O  O54  1  0.936491  0.620895  0.825700  1
  O  O55  1  0.063509  0.379105  0.174300  1
  O  O56  1  0.755364  0.728680  0.455127  1
  O  O57  1  0.244636  0.771320  0.955127  1
  O  O58  1  0.244636  0.271320  0.544873  1
  O  O59  1  0.755364  0.228680  0.044873  1
  O  O60  1  0.774430  0.969991  0.454848  1
  O  O61  1  0.225570  0.530009  0.954848  1
  O  O62  1  0.225570  0.030009  0.545152  1
  O  O63  1  0.774430  0.469991  0.045152  1
  O  O64  1  0.434082  0.193051  0.921349  1
  O  O65  1  0.565918  0.306949  0.421349  1
  O  O66  1  0.565918  0.806949  0.078651  1
  O  O67  1  0.434082  0.693051  0.578651  1
  O  O68  1  0.712762  0.217251  0.764516  1
  O  O69  1  0.287238  0.282749  0.264516  1
  O  O70  1  0.287238  0.782749  0.235484  1
  O  O71  1  0.712762  0.717251  0.735484  1
  O  O72  1  0.602048  0.461526  0.695110  1
  O  O73  1  0.397952  0.038474  0.195110  1
  O  O74  1  0.397952  0.538474  0.304890  1
  O  O75  1  0.602048  0.961526  0.804890  1
  O  O76  1  0.248227  0.315990  0.753296  1
  O  O77  1  0.751773  0.184010  0.253296  1
  O  O78  1  0.751773  0.684010  0.246704  1
  O  O79  1  0.248227  0.815990  0.746704  1
  O  O80  1  0.575161  0.417605  0.878249  1
  O  O81  1  0.424839  0.082395  0.378249  1
  O  O82  1  0.424839  0.582395  0.121751  1
  O  O83  1  0.575161  0.917605  0.621751  1
  O  O84  1  0.339450  0.329285  0.070441  1
  O  O85  1  0.660550  0.170715  0.570441  1
  O  O86  1  0.660550  0.670715  0.929559  1
  O  O87  1  0.936491  0.120895  0.674300  1
