# generated using pymatgen
data_Mg2TiNb2O8
_symmetry_space_group_name_H-M   'P 1'
_cell_length_a   5.22821294
_cell_length_b   5.96638270
_cell_length_c   9.99020355
_cell_angle_alpha   107.34675177
_cell_angle_beta   90.20259487
_cell_angle_gamma   90.07372883
_symmetry_Int_Tables_number   1
_chemical_formula_structural   Mg2TiNb2O8
_chemical_formula_sum   'Mg4 Ti2 Nb4 O16'
_cell_volume   297.45326240
_cell_formula_units_Z   2
loop_
 _symmetry_equiv_pos_site_id
 _symmetry_equiv_pos_as_xyz
  1  'x, y, z'
loop_
 _atom_site_type_symbol
 _atom_site_label
 _atom_site_symmetry_multiplicity
 _atom_site_fract_x
 _atom_site_fract_y
 _atom_site_fract_z
 _atom_site_occupancy
  Mg  Mg0  1  0.760757  0.412429  0.547404  1
  Mg  Mg1  1  0.740096  0.864318  0.453188  1
  Mg  Mg2  1  0.239665  0.585323  0.453232  1
  Mg  Mg3  1  0.260468  0.131226  0.547881  1
  Ti  Ti4  1  0.754761  0.631632  0.002086  1
  Ti  Ti5  1  0.252879  0.366900  0.002735  1
  Nb  Nb6  1  0.744792  0.258693  0.233627  1
  Nb  Nb7  1  0.755675  0.031696  0.768991  1
  Nb  Nb8  1  0.257746  0.732643  0.768732  1
  Nb  Nb9  1  0.247507  0.971534  0.233529  1
  O  O10  1  0.100683  0.202263  0.133442  1
  O  O11  1  0.402828  0.066917  0.866491  1
  O  O12  1  0.903436  0.796718  0.865884  1
  O  O13  1  0.600618  0.925536  0.132541  1
  O  O14  1  0.586240  0.427977  0.111628  1
  O  O15  1  0.916557  0.316671  0.889644  1
  O  O16  1  0.417195  0.568357  0.889121  1
  O  O17  1  0.085871  0.680194  0.111135  1
  O  O18  1  0.441549  0.285977  0.373427  1
  O  O19  1  0.056947  0.914074  0.630483  1
  O  O20  1  0.378046  0.838852  0.382652  1
  O  O21  1  0.123100  0.456042  0.619513  1
  O  O22  1  0.623318  0.159532  0.619624  1
  O  O23  1  0.878055  0.540443  0.382514  1
  O  O24  1  0.941146  0.083282  0.372471  1
  O  O25  1  0.556500  0.712178  0.629647  1
