# generated using pymatgen
data_Zn(BiO2)4
_symmetry_space_group_name_H-M   'P 1'
_cell_length_a   6.34216912
_cell_length_b   6.34216982
_cell_length_c   6.34217003
_cell_angle_alpha   68.72789007
_cell_angle_beta   68.72787752
_cell_angle_gamma   68.72789898
_symmetry_Int_Tables_number   1
_chemical_formula_structural   Zn(BiO2)4
_chemical_formula_sum   'Zn1 Bi4 O8'
_cell_volume   213.53073507
_cell_formula_units_Z   1
loop_
 _symmetry_equiv_pos_site_id
 _symmetry_equiv_pos_as_xyz
  1  'x, y, z'
loop_
 _atom_site_type_symbol
 _atom_site_label
 _atom_site_symmetry_multiplicity
 _atom_site_fract_x
 _atom_site_fract_y
 _atom_site_fract_z
 _atom_site_occupancy
  Zn  Zn0  1  0.500000  0.500001  0.499999  1
  Bi  Bi1  1  0.500001  0.999999  0.500001  1
  Bi  Bi2  1  0.999999  0.500000  0.500001  1
  Bi  Bi3  1  0.500000  0.500000  0.000000  1
  Bi  Bi4  1  0.000000  -0.000000  0.000000  1
  O  O5  1  0.739452  0.276252  0.739452  1
  O  O6  1  0.260547  0.260548  0.723748  1
  O  O7  1  0.260547  0.723749  0.260547  1
  O  O8  1  0.723747  0.260548  0.260548  1
  O  O9  1  0.262192  0.262193  0.262192  1
  O  O10  1  0.737808  0.737808  0.737808  1
  O  O11  1  0.276253  0.739453  0.739452  1
  O  O12  1  0.739453  0.739453  0.276252  1
