# generated using pymatgen
data_TiZnBiO5
_symmetry_space_group_name_H-M   'P 1'
_cell_length_a   5.18774404
_cell_length_b   10.78634696
_cell_length_c   15.66662411
_cell_angle_alpha   90.00000000
_cell_angle_beta   90.00000000
_cell_angle_gamma   90.00000000
_symmetry_Int_Tables_number   1
_chemical_formula_structural   TiZnBiO5
_chemical_formula_sum   'Ti8 Zn8 Bi8 O40'
_cell_volume   876.65426409
_cell_formula_units_Z   8
loop_
 _symmetry_equiv_pos_site_id
 _symmetry_equiv_pos_as_xyz
  1  'x, y, z'
loop_
 _atom_site_type_symbol
 _atom_site_label
 _atom_site_symmetry_multiplicity
 _atom_site_fract_x
 _atom_site_fract_y
 _atom_site_fract_z
 _atom_site_occupancy
  Ti  Ti0  1  0.892359  0.347364  0.609679  1
  Ti  Ti1  1  0.607641  0.847364  0.390321  1
  Ti  Ti2  1  0.107641  0.652636  0.390321  1
  Ti  Ti3  1  0.392359  0.152636  0.609679  1
  Ti  Ti4  1  0.107641  0.152636  0.109679  1
  Ti  Ti5  1  0.892359  0.847364  0.890321  1
  Ti  Ti6  1  0.607641  0.347364  0.109679  1
  Ti  Ti7  1  0.392359  0.652636  0.890321  1
  Zn  Zn8  1  0.464257  0.366798  0.474730  1
  Zn  Zn9  1  0.964257  0.133202  0.474730  1
  Zn  Zn10  1  0.964257  0.633202  0.025270  1
  Zn  Zn11  1  0.035743  0.366798  0.974730  1
  Zn  Zn12  1  0.535743  0.133202  0.974730  1
  Zn  Zn13  1  0.035743  0.866798  0.525270  1
  Zn  Zn14  1  0.535743  0.633202  0.525270  1
  Zn  Zn15  1  0.464257  0.866798  0.025270  1
  Bi  Bi16  1  0.176157  0.860132  0.217008  1
  Bi  Bi17  1  0.823843  0.139868  0.782992  1
  Bi  Bi18  1  0.323843  0.360132  0.782992  1
  Bi  Bi19  1  0.823843  0.639868  0.717008  1
  Bi  Bi20  1  0.676157  0.139868  0.282992  1
  Bi  Bi21  1  0.676157  0.639868  0.217008  1
  Bi  Bi22  1  0.323843  0.860132  0.717008  1
  Bi  Bi23  1  0.176157  0.360132  0.282992  1
  O  O24  1  0.629806  0.285480  0.695459  1
  O  O25  1  0.297116  0.036958  0.055372  1
  O  O26  1  0.202884  0.536958  0.944628  1
  O  O27  1  0.509793  0.803013  0.141733  1
  O  O28  1  0.990207  0.303013  0.858267  1
  O  O29  1  0.629806  0.785480  0.804541  1
  O  O30  1  0.990207  0.803013  0.641733  1
  O  O31  1  0.870194  0.785480  0.304541  1
  O  O32  1  0.297116  0.536958  0.444628  1
  O  O33  1  0.370194  0.714520  0.304541  1
  O  O34  1  0.870194  0.285480  0.195459  1
  O  O35  1  0.678091  0.207333  0.542906  1
  O  O36  1  0.797116  0.963042  0.444628  1
  O  O37  1  0.490207  0.696987  0.641733  1
  O  O38  1  0.056672  0.963174  0.811657  1
  O  O39  1  0.797116  0.463042  0.055372  1
  O  O40  1  0.370194  0.214520  0.195459  1
  O  O41  1  0.009793  0.196987  0.358267  1
  O  O42  1  0.178091  0.792667  0.957094  1
  O  O43  1  0.202884  0.036958  0.555372  1
  O  O44  1  0.321909  0.792667  0.457094  1
  O  O45  1  0.943328  0.036826  0.188343  1
  O  O46  1  0.490207  0.196987  0.858267  1
  O  O47  1  0.556672  0.036826  0.688343  1
  O  O48  1  0.321909  0.292667  0.042906  1
  O  O49  1  0.178091  0.292667  0.542906  1
  O  O50  1  0.702884  0.463042  0.555372  1
  O  O51  1  0.702884  0.963042  0.944628  1
  O  O52  1  0.556672  0.536826  0.811657  1
  O  O53  1  0.821909  0.707333  0.457094  1
  O  O54  1  0.821909  0.207333  0.042906  1
  O  O55  1  0.678091  0.707333  0.957094  1
  O  O56  1  0.943328  0.536826  0.311657  1
  O  O57  1  0.009793  0.696987  0.141733  1
  O  O58  1  0.509793  0.303013  0.358267  1
  O  O59  1  0.056672  0.463174  0.688343  1
  O  O60  1  0.443328  0.463174  0.188343  1
  O  O61  1  0.129806  0.214520  0.695459  1
  O  O62  1  0.443328  0.963174  0.311657  1
  O  O63  1  0.129806  0.714520  0.804541  1
