# generated using pymatgen
data_CaNiBiO5
_symmetry_space_group_name_H-M   'P 1'
_cell_length_a   5.84738855
_cell_length_b   8.64050349
_cell_length_c   10.63317768
_cell_angle_alpha   90.00000000
_cell_angle_beta   90.00000000
_cell_angle_gamma   113.07370600
_symmetry_Int_Tables_number   1
_chemical_formula_structural   CaNiBiO5
_chemical_formula_sum   'Ca4 Ni4 Bi4 O20'
_cell_volume   494.25672405
_cell_formula_units_Z   4
loop_
 _symmetry_equiv_pos_site_id
 _symmetry_equiv_pos_as_xyz
  1  'x, y, z'
loop_
 _atom_site_type_symbol
 _atom_site_label
 _atom_site_symmetry_multiplicity
 _atom_site_fract_x
 _atom_site_fract_y
 _atom_site_fract_z
 _atom_site_occupancy
  Ca  Ca0  1  0.652271  0.193414  0.906396  1
  Ca  Ca1  1  0.347729  0.806586  0.093604  1
  Ca  Ca2  1  0.847729  0.306586  0.406396  1
  Ca  Ca3  1  0.152271  0.693414  0.593604  1
  Ni  Ni4  1  0.810822  0.954919  0.631494  1
  Ni  Ni5  1  0.189178  0.045081  0.368506  1
  Ni  Ni6  1  0.689178  0.545081  0.131494  1
  Ni  Ni7  1  0.310822  0.454919  0.868506  1
  Bi  Bi8  1  0.149632  0.156614  0.100223  1
  Bi  Bi9  1  0.850368  0.843386  0.899777  1
  Bi  Bi10  1  0.649632  0.656614  0.399777  1
  Bi  Bi11  1  0.350368  0.343386  0.600223  1
  O  O12  1  0.520401  0.334471  0.066892  1
  O  O13  1  0.063299  0.322632  0.975279  1
  O  O14  1  0.520498  0.665425  0.216099  1
  O  O15  1  0.730004  0.508540  0.543005  1
  O  O16  1  0.811681  0.516921  0.285858  1
  O  O17  1  0.311681  0.016921  0.214142  1
  O  O18  1  0.563299  0.822632  0.524721  1
  O  O19  1  0.436701  0.177368  0.475279  1
  O  O20  1  0.269996  0.491460  0.456995  1
  O  O21  1  0.979599  0.165529  0.566892  1
  O  O22  1  0.188319  0.483079  0.714142  1
  O  O23  1  0.479599  0.665529  0.933108  1
  O  O24  1  0.020401  0.834471  0.433108  1
  O  O25  1  0.688319  0.983079  0.785858  1
  O  O26  1  0.769996  0.991460  0.043005  1
  O  O27  1  0.230004  0.008540  0.956995  1
  O  O28  1  0.479502  0.334575  0.783901  1
  O  O29  1  0.936701  0.677368  0.024721  1
  O  O30  1  0.979502  0.834575  0.716099  1
  O  O31  1  0.020498  0.165425  0.283901  1
