# generated using pymatgen
data_MgV(SiO3)2
_symmetry_space_group_name_H-M   'P 1'
_cell_length_a   5.27728768
_cell_length_b   8.95328203
_cell_length_c   18.68596895
_cell_angle_alpha   90.00000000
_cell_angle_beta   90.00000000
_cell_angle_gamma   90.00000000
_symmetry_Int_Tables_number   1
_chemical_formula_structural   MgV(SiO3)2
_chemical_formula_sum   'Mg8 V8 Si16 O48'
_cell_volume   882.89418690
_cell_formula_units_Z   8
loop_
 _symmetry_equiv_pos_site_id
 _symmetry_equiv_pos_as_xyz
  1  'x, y, z'
loop_
 _atom_site_type_symbol
 _atom_site_label
 _atom_site_symmetry_multiplicity
 _atom_site_fract_x
 _atom_site_fract_y
 _atom_site_fract_z
 _atom_site_occupancy
  Mg  Mg0  1  0.628005  0.152760  0.623894  1
  Mg  Mg1  1  0.371995  0.847240  0.376106  1
  Mg  Mg2  1  0.628005  0.652760  0.876106  1
  Mg  Mg3  1  0.128005  0.847240  0.876106  1
  Mg  Mg4  1  0.871995  0.152760  0.123894  1
  Mg  Mg5  1  0.371995  0.347240  0.123894  1
  Mg  Mg6  1  0.128005  0.347240  0.623894  1
  Mg  Mg7  1  0.871995  0.652760  0.376106  1
  V  V8  1  0.357007  0.977818  0.122176  1
  V  V9  1  0.642993  0.022182  0.877824  1
  V  V10  1  0.857007  0.022182  0.377824  1
  V  V11  1  0.142993  0.977818  0.622176  1
  V  V12  1  0.357007  0.477818  0.377824  1
  V  V13  1  0.642993  0.522182  0.622176  1
  V  V14  1  0.857007  0.522182  0.122176  1
  V  V15  1  0.142993  0.477818  0.877824  1
  Si  Si16  1  0.552344  0.658207  0.231077  1
  Si  Si17  1  0.701103  0.837594  0.524496  1
  Si  Si18  1  0.798897  0.837594  0.024496  1
  Si  Si19  1  0.947656  0.158207  0.768923  1
  Si  Si20  1  0.052344  0.341793  0.268923  1
  Si  Si21  1  0.447656  0.841793  0.731077  1
  Si  Si22  1  0.201103  0.662406  0.524496  1
  Si  Si23  1  0.701103  0.337594  0.975504  1
  Si  Si24  1  0.798897  0.337594  0.475504  1
  Si  Si25  1  0.947656  0.658207  0.731077  1
  Si  Si26  1  0.447656  0.341793  0.768923  1
  Si  Si27  1  0.552344  0.158207  0.268923  1
  Si  Si28  1  0.298897  0.162406  0.475504  1
  Si  Si29  1  0.052344  0.841793  0.231077  1
  Si  Si30  1  0.298897  0.662406  0.024496  1
  Si  Si31  1  0.201103  0.162406  0.975504  1
  O  O32  1  0.961602  0.499928  0.691033  1
  O  O33  1  0.292297  0.012186  0.936509  1
  O  O34  1  0.038398  0.500072  0.308967  1
  O  O35  1  0.704333  0.335794  0.063004  1
  O  O36  1  0.204333  0.164206  0.063004  1
  O  O37  1  0.901673  0.201313  0.947830  1
  O  O38  1  0.959841  0.659832  0.818038  1
  O  O39  1  0.040159  0.840168  0.318038  1
  O  O40  1  0.704333  0.835794  0.436996  1
  O  O41  1  0.959841  0.159832  0.681962  1
  O  O42  1  0.461602  0.500072  0.808967  1
  O  O43  1  0.795667  0.335794  0.563004  1
  O  O44  1  0.707703  0.987814  0.063491  1
  O  O45  1  0.459841  0.840168  0.818038  1
  O  O46  1  0.538398  0.999928  0.308967  1
  O  O47  1  0.292297  0.512186  0.563491  1
  O  O48  1  0.461602  0.000072  0.691033  1
  O  O49  1  0.166951  0.776954  0.700413  1
  O  O50  1  0.333049  0.776954  0.200413  1
  O  O51  1  0.598327  0.701313  0.052170  1
  O  O52  1  0.795667  0.835794  0.936996  1
  O  O53  1  0.540159  0.659832  0.318038  1
  O  O54  1  0.792297  0.487814  0.936509  1
  O  O55  1  0.166951  0.276954  0.799587  1
  O  O56  1  0.295667  0.164206  0.563004  1
  O  O57  1  0.540159  0.159832  0.181962  1
  O  O58  1  0.707703  0.487814  0.436509  1
  O  O59  1  0.204333  0.664206  0.436996  1
  O  O60  1  0.207703  0.512186  0.063491  1
  O  O61  1  0.666951  0.723046  0.700413  1
  O  O62  1  0.038398  0.000072  0.191033  1
  O  O63  1  0.833049  0.723046  0.200413  1
  O  O64  1  0.833049  0.223046  0.299587  1
  O  O65  1  0.792297  0.987814  0.563491  1
  O  O66  1  0.295667  0.664206  0.936996  1
  O  O67  1  0.207703  0.012186  0.436509  1
  O  O68  1  0.333049  0.276954  0.299587  1
  O  O69  1  0.098327  0.798687  0.052170  1
  O  O70  1  0.401673  0.798687  0.552170  1
  O  O71  1  0.666951  0.223046  0.799587  1
  O  O72  1  0.401673  0.298687  0.947830  1
  O  O73  1  0.598327  0.201313  0.447830  1
  O  O74  1  0.098327  0.298687  0.447830  1
  O  O75  1  0.459841  0.340168  0.681962  1
  O  O76  1  0.538398  0.499928  0.191033  1
  O  O77  1  0.901673  0.701313  0.552170  1
  O  O78  1  0.040159  0.340168  0.181962  1
  O  O79  1  0.961602  0.999928  0.808967  1
