# generated using pymatgen
data_YFeO3
_symmetry_space_group_name_H-M   'P 1'
_cell_length_a   6.16736763
_cell_length_b   6.16736730
_cell_length_c   11.84594428
_cell_angle_alpha   90.00000000
_cell_angle_beta   90.00000000
_cell_angle_gamma   120.00000173
_symmetry_Int_Tables_number   1
_chemical_formula_structural   YFeO3
_chemical_formula_sum   'Y6 Fe6 O18'
_cell_volume   390.21140633
_cell_formula_units_Z   6
loop_
 _symmetry_equiv_pos_site_id
 _symmetry_equiv_pos_as_xyz
  1  'x, y, z'
loop_
 _atom_site_type_symbol
 _atom_site_label
 _atom_site_symmetry_multiplicity
 _atom_site_fract_x
 _atom_site_fract_y
 _atom_site_fract_z
 _atom_site_occupancy
  Y  Y0  1  0.666667  0.333333  0.233435  1
  Y  Y1  1  0.333333  0.666667  0.733435  1
  Y  Y2  1  0.666667  0.333333  0.733435  1
  Y  Y3  1  0.333333  0.666667  0.233435  1
  Y  Y4  1  0.000000  0.000000  0.775635  1
  Y  Y5  1  0.000000  0.000000  0.275635  1
  Fe  Fe6  1  0.665990  0.000000  0.500926  1
  Fe  Fe7  1  0.665990  0.665990  0.000926  1
  Fe  Fe8  1  0.000000  0.334010  0.000926  1
  Fe  Fe9  1  1.000000  0.665990  0.500926  1
  Fe  Fe10  1  0.334010  0.334010  0.500926  1
  Fe  Fe11  1  0.334010  0.000000  0.000926  1
  O  O12  1  0.666667  0.333333  0.020915  1
  O  O13  1  0.333333  0.666667  0.520915  1
  O  O14  1  0.666667  0.333333  0.520915  1
  O  O15  1  0.333333  0.666667  0.020915  1
  O  O16  1  0.000000  0.000000  0.977764  1
  O  O17  1  0.000000  0.000000  0.477764  1
  O  O18  1  0.359309  0.000000  0.837993  1
  O  O19  1  0.359309  0.359309  0.337993  1
  O  O20  1  0.000000  0.640691  0.337993  1
  O  O21  1  1.000000  0.359309  0.837993  1
  O  O22  1  0.640691  0.640691  0.837993  1
  O  O23  1  0.640691  0.000000  0.337993  1
  O  O24  1  0.307030  0.000000  0.165382  1
  O  O25  1  0.307030  0.307030  0.665382  1
  O  O26  1  0.000000  0.692970  0.665382  1
  O  O27  1  1.000000  0.307030  0.165382  1
  O  O28  1  0.692970  0.692970  0.165382  1
  O  O29  1  0.692970  0.000000  0.665382  1
