# generated using pymatgen
data_CaHo(WO3)2
_symmetry_space_group_name_H-M   'P 1'
_cell_length_a   5.49720914
_cell_length_b   5.78243786
_cell_length_c   8.11848586
_cell_angle_alpha   89.99909163
_cell_angle_beta   89.85741908
_cell_angle_gamma   90.00158836
_symmetry_Int_Tables_number   1
_chemical_formula_structural   CaHo(WO3)2
_chemical_formula_sum   'Ca2 Ho2 W4 O12'
_cell_volume   258.06370487
_cell_formula_units_Z   2
loop_
 _symmetry_equiv_pos_site_id
 _symmetry_equiv_pos_as_xyz
  1  'x, y, z'
loop_
 _atom_site_type_symbol
 _atom_site_label
 _atom_site_symmetry_multiplicity
 _atom_site_fract_x
 _atom_site_fract_y
 _atom_site_fract_z
 _atom_site_occupancy
  Ca  Ca0  1  0.489235  0.446288  0.748777  1
  Ca  Ca1  1  0.989274  0.053683  0.248749  1
  Ho  Ho2  1  0.022885  0.937154  0.749866  1
  Ho  Ho3  1  0.522932  0.562839  0.249888  1
  W  W4  1  0.001966  0.497785  0.999176  1
  W  W5  1  0.001052  0.498264  0.499997  1
  W  W6  1  0.501922  0.002227  0.499191  1
  W  W7  1  0.501017  0.001728  0.999979  1
  O  O8  1  0.136889  0.444182  0.246901  1
  O  O9  1  0.174454  0.194581  0.934572  1
  O  O10  1  0.191822  0.183809  0.567218  1
  O  O11  1  0.289406  0.701352  0.932159  1
  O  O12  1  0.307596  0.712656  0.568976  1
  O  O13  1  0.384583  0.933275  0.252327  1
  O  O14  1  0.636904  0.055898  0.746901  1
  O  O15  1  0.674566  0.305352  0.434492  1
  O  O16  1  0.691801  0.316197  0.067236  1
  O  O17  1  0.807662  0.787406  0.068975  1
  O  O18  1  0.789454  0.798690  0.432270  1
  O  O19  1  0.884576  0.566634  0.752346  1
