# generated using pymatgen
data_FeO2
_symmetry_space_group_name_H-M   'P 1'
_cell_length_a   5.92785172
_cell_length_b   5.90801257
_cell_length_c   5.90570743
_cell_angle_alpha   59.92091969
_cell_angle_beta   61.03912094
_cell_angle_gamma   60.23346550
_symmetry_Int_Tables_number   1
_chemical_formula_structural   FeO2
_chemical_formula_sum   'Fe4 O8'
_cell_volume   147.53604091
_cell_formula_units_Z   4
loop_
 _symmetry_equiv_pos_site_id
 _symmetry_equiv_pos_as_xyz
  1  'x, y, z'
loop_
 _atom_site_type_symbol
 _atom_site_label
 _atom_site_symmetry_multiplicity
 _atom_site_fract_x
 _atom_site_fract_y
 _atom_site_fract_z
 _atom_site_occupancy
  Fe  Fe0  1  0.500017  0.000038  0.499995  1
  Fe  Fe1  1  0.499851  0.500028  0.000185  1
  Fe  Fe2  1  0.000331  0.499942  0.499780  1
  Fe  Fe3  1  0.500023  0.500078  0.499881  1
  O  O4  1  0.273885  0.251171  0.271980  1
  O  O5  1  0.708227  0.263820  0.268933  1
  O  O6  1  0.272514  0.703478  0.265013  1
  O  O7  1  0.273053  0.264435  0.706439  1
  O  O8  1  0.727532  0.296162  0.735102  1
  O  O9  1  0.726983  0.735664  0.293398  1
  O  O10  1  0.291473  0.736275  0.731122  1
  O  O11  1  0.726111  0.748909  0.728172  1
