# generated using pymatgen
data_Mg2WN2
_symmetry_space_group_name_H-M   'P 1'
_cell_length_a   4.46800383
_cell_length_b   5.29953371
_cell_length_c   6.70456843
_cell_angle_alpha   59.27321225
_cell_angle_beta   70.53652500
_cell_angle_gamma   65.06771586
_symmetry_Int_Tables_number   1
_chemical_formula_structural   Mg2WN2
_chemical_formula_sum   'Mg4 W2 N4'
_cell_volume   122.32680765
_cell_formula_units_Z   2
loop_
 _symmetry_equiv_pos_site_id
 _symmetry_equiv_pos_as_xyz
  1  'x, y, z'
loop_
 _atom_site_type_symbol
 _atom_site_label
 _atom_site_symmetry_multiplicity
 _atom_site_fract_x
 _atom_site_fract_y
 _atom_site_fract_z
 _atom_site_occupancy
  Mg  Mg0  1  0.667381  0.259626  0.405612  1
  Mg  Mg1  1  0.332618  0.740374  0.594388  1
  Mg  Mg2  1  0.002638  0.735065  0.259658  1
  Mg  Mg3  1  0.997362  0.264935  0.740342  1
  W  W4  1  0.338647  0.226669  0.096039  1
  W  W5  1  0.661353  0.773331  0.903961  1
  N  N6  1  0.175306  0.252162  0.397226  1
  N  N7  1  0.824694  0.747838  0.602774  1
  N  N8  1  0.502744  0.236343  0.758169  1
  N  N9  1  0.497256  0.763657  0.241831  1
