# generated using pymatgen
data_Ca3Ni2O7
_symmetry_space_group_name_H-M   'P 1'
_cell_length_a   5.37138281
_cell_length_b   5.34304613
_cell_length_c   9.99144302
_cell_angle_alpha   105.50848114
_cell_angle_beta   90.00000000
_cell_angle_gamma   90.00000000
_symmetry_Int_Tables_number   1
_chemical_formula_structural   Ca3Ni2O7
_chemical_formula_sum   'Ca6 Ni4 O14'
_cell_volume   276.30957042
_cell_formula_units_Z   2
loop_
 _symmetry_equiv_pos_site_id
 _symmetry_equiv_pos_as_xyz
  1  'x, y, z'
loop_
 _atom_site_type_symbol
 _atom_site_label
 _atom_site_symmetry_multiplicity
 _atom_site_fract_x
 _atom_site_fract_y
 _atom_site_fract_z
 _atom_site_occupancy
  Ca  Ca0  1  0.701662  0.762454  0.000000  1
  Ca  Ca1  1  0.201662  0.237546  0.000000  1
  Ca  Ca2  1  0.790892  0.572632  0.630542  1
  Ca  Ca3  1  0.290892  0.427368  0.369458  1
  Ca  Ca4  1  0.790892  0.942089  0.369458  1
  Ca  Ca5  1  0.290892  0.057911  0.630542  1
  Ni  Ni6  1  0.749056  0.347033  0.195462  1
  Ni  Ni7  1  0.249056  0.652967  0.804538  1
  Ni  Ni8  1  0.249056  0.848428  0.195462  1
  Ni  Ni9  1  0.749056  0.151572  0.804538  1
  O  O10  1  0.747130  0.005889  0.606789  1
  O  O11  1  0.247130  0.994111  0.393211  1
  O  O12  1  0.247130  0.600900  0.606789  1
  O  O13  1  0.747130  0.399100  0.393211  1
  O  O14  1  0.033602  0.349457  0.775092  1
  O  O15  1  0.533602  0.650543  0.224908  1
  O  O16  1  0.533602  0.425635  0.775092  1
  O  O17  1  0.033602  0.574365  0.224908  1
  O  O18  1  0.958720  0.874480  0.833846  1
  O  O19  1  0.458720  0.125520  0.166154  1
  O  O20  1  0.759537  0.327556  0.000000  1
  O  O21  1  0.259537  0.672444  1.000000  1
  O  O22  1  0.958720  0.040633  0.166154  1
  O  O23  1  0.458720  0.959367  0.833846  1
