# generated using pymatgen
data_Ca3Fe2(WO6)2
_symmetry_space_group_name_H-M   'P 1'
_cell_length_a   5.53610206
_cell_length_b   5.51143723
_cell_length_c   7.75049385
_cell_angle_alpha   90.02741833
_cell_angle_beta   90.00000000
_cell_angle_gamma   90.00000000
_symmetry_Int_Tables_number   1
_chemical_formula_structural   Ca3Fe2(WO6)2
_chemical_formula_sum   'Ca3 Fe2 W2 O12'
_cell_volume   236.48210366
_cell_formula_units_Z   1
loop_
 _symmetry_equiv_pos_site_id
 _symmetry_equiv_pos_as_xyz
  1  'x, y, z'
loop_
 _atom_site_type_symbol
 _atom_site_label
 _atom_site_symmetry_multiplicity
 _atom_site_fract_x
 _atom_site_fract_y
 _atom_site_fract_z
 _atom_site_occupancy
  Ca  Ca0  1  0.000000  0.491811  0.750403  1
  Ca  Ca1  1  0.500000  0.997513  0.251117  1
  Ca  Ca2  1  0.500000  0.974170  0.751648  1
  Fe  Fe3  1  0.500000  0.481850  0.002580  1
  Fe  Fe4  1  0.000000  0.978210  0.498863  1
  W  W5  1  0.000000  0.978561  0.008232  1
  W  W6  1  0.500000  0.477586  0.493957  1
  O  O7  1  0.500000  0.396825  0.745621  1
  O  O8  1  0.500000  0.570749  0.256599  1
  O  O9  1  0.000000  0.067178  0.754658  1
  O  O10  1  0.000000  0.901855  0.244360  1
  O  O11  1  0.744749  0.722306  0.552517  1
  O  O12  1  0.255251  0.722306  0.552517  1
  O  O13  1  0.735607  0.221836  0.462169  1
  O  O14  1  0.264394  0.221836  0.462169  1
  O  O15  1  0.259382  0.207611  0.035666  1
  O  O16  1  0.740619  0.207611  0.035666  1
  O  O17  1  0.245487  0.731445  0.946614  1
  O  O18  1  0.754514  0.731445  0.946614  1
