# generated using pymatgen
data_Mo2O5
_symmetry_space_group_name_H-M   'P 1'
_cell_length_a   5.95584497
_cell_length_b   9.94959465
_cell_length_c   3.71047450
_cell_angle_alpha   90.00004503
_cell_angle_beta   90.00004831
_cell_angle_gamma   89.99698721
_symmetry_Int_Tables_number   1
_chemical_formula_structural   Mo2O5
_chemical_formula_sum   'Mo4 O10'
_cell_volume   219.87620034
_cell_formula_units_Z   2
loop_
 _symmetry_equiv_pos_site_id
 _symmetry_equiv_pos_as_xyz
  1  'x, y, z'
loop_
 _atom_site_type_symbol
 _atom_site_label
 _atom_site_symmetry_multiplicity
 _atom_site_fract_x
 _atom_site_fract_y
 _atom_site_fract_z
 _atom_site_occupancy
  Mo  Mo0  1  0.727858  0.366123  0.000001  1
  Mo  Mo1  1  0.272267  0.633855  0.000000  1
  Mo  Mo2  1  0.227804  0.133911  0.999998  1
  Mo  Mo3  1  0.772313  0.866105  0.999998  1
  O  O4  1  0.790607  0.400077  0.500000  1
  O  O5  1  0.209348  0.599961  0.500000  1
  O  O6  1  0.290631  0.099949  0.500001  1
  O  O7  1  0.709337  0.900024  0.500001  1
  O  O8  1  0.052050  0.283979  0.000001  1
  O  O9  1  0.947944  0.716027  0.000001  1
  O  O10  1  0.552071  0.216012  0.000000  1
  O  O11  1  0.447927  0.783977  1.000000  1
  O  O12  1  0.499919  0.500017  0.000000  1
  O  O13  1  0.999925  0.999982  0.000000  1
