# generated using pymatgen
data_ZnBiO3
_symmetry_space_group_name_H-M   'P 1'
_cell_length_a   5.65178646
_cell_length_b   5.59044687
_cell_length_c   8.41984743
_cell_angle_alpha   90.01840686
_cell_angle_beta   91.47850166
_cell_angle_gamma   90.00237828
_symmetry_Int_Tables_number   1
_chemical_formula_structural   ZnBiO3
_chemical_formula_sum   'Zn4 Bi4 O12'
_cell_volume   265.94501674
_cell_formula_units_Z   4
loop_
 _symmetry_equiv_pos_site_id
 _symmetry_equiv_pos_as_xyz
  1  'x, y, z'
loop_
 _atom_site_type_symbol
 _atom_site_label
 _atom_site_symmetry_multiplicity
 _atom_site_fract_x
 _atom_site_fract_y
 _atom_site_fract_z
 _atom_site_occupancy
  Zn  Zn0  1  0.021561  0.020379  0.248128  1
  Zn  Zn1  1  0.521577  0.479588  0.747900  1
  Zn  Zn2  1  0.478421  0.520411  0.252097  1
  Zn  Zn3  1  0.978439  0.979623  0.751869  1
  Bi  Bi4  1  0.499999  0.999996  0.999999  1
  Bi  Bi5  1  0.999999  0.499999  -0.000001  1
  Bi  Bi6  1  0.000000  0.500003  0.500000  1
  Bi  Bi7  1  0.500000  0.000002  0.499998  1
  O  O8  1  0.862654  0.627522  0.734063  1
  O  O9  1  0.362557  0.872476  0.234079  1
  O  O10  1  0.637446  0.127524  0.765921  1
  O  O11  1  0.137347  0.372481  0.265937  1
  O  O12  1  0.668343  0.354589  0.425169  1
  O  O13  1  0.138672  0.168775  0.585220  1
  O  O14  1  0.831662  0.854713  0.074941  1
  O  O15  1  0.361444  0.668638  0.914695  1
  O  O16  1  0.638556  0.331353  0.085309  1
  O  O17  1  0.168338  0.145282  0.925060  1
  O  O18  1  0.331655  0.645419  0.574834  1
  O  O19  1  0.861329  0.831230  0.414780  1
