# generated using pymatgen
data_Si2SnO6
_symmetry_space_group_name_H-M   'P 1'
_cell_length_a   5.14178982
_cell_length_b   10.89766561
_cell_length_c   19.13784611
_cell_angle_alpha   90.00029274
_cell_angle_beta   90.00186539
_cell_angle_gamma   90.01357597
_symmetry_Int_Tables_number   1
_chemical_formula_structural   Si2SnO6
_chemical_formula_sum   'Si16 Sn8 O48'
_cell_volume   1072.36058472
_cell_formula_units_Z   8
loop_
 _symmetry_equiv_pos_site_id
 _symmetry_equiv_pos_as_xyz
  1  'x, y, z'
loop_
 _atom_site_type_symbol
 _atom_site_label
 _atom_site_symmetry_multiplicity
 _atom_site_fract_x
 _atom_site_fract_y
 _atom_site_fract_z
 _atom_site_occupancy
  Si  Si0  1  0.621219  0.670452  0.223656  1
  Si  Si1  1  0.759037  0.828090  0.526303  1
  Si  Si2  1  0.741346  0.828233  0.026402  1
  Si  Si3  1  0.878701  0.170507  0.776322  1
  Si  Si4  1  0.121262  0.329525  0.276300  1
  Si  Si5  1  0.378744  0.829517  0.723716  1
  Si  Si6  1  0.258950  0.671808  0.526316  1
  Si  Si7  1  0.758854  0.328128  0.973676  1
  Si  Si8  1  0.741067  0.328183  0.473622  1
  Si  Si9  1  0.878684  0.670496  0.723708  1
  Si  Si10  1  0.378751  0.329530  0.776321  1
  Si  Si11  1  0.621202  0.170456  0.276298  1
  Si  Si12  1  0.240983  0.171892  0.473635  1
  Si  Si13  1  0.121261  0.829528  0.223657  1
  Si  Si14  1  0.241249  0.671872  0.026388  1
  Si  Si15  1  0.258764  0.171776  0.973671  1
  Sn  Sn16  1  0.436749  0.045429  0.125955  1
  Sn  Sn17  1  0.563229  0.954490  0.874097  1
  Sn  Sn18  1  0.936559  0.954523  0.374003  1
  Sn  Sn19  1  0.063432  0.045525  0.625955  1
  Sn  Sn20  1  0.436766  0.545493  0.374028  1
  Sn  Sn21  1  0.563217  0.454464  0.625932  1
  Sn  Sn22  1  0.936640  0.454581  0.125973  1
  Sn  Sn23  1  0.063421  0.545497  0.874059  1
  O  O24  1  0.822580  0.545291  0.679955  1
  O  O25  1  0.314222  0.047098  0.929792  1
  O  O26  1  0.177129  0.454723  0.320095  1
  O  O27  1  0.759408  0.351148  0.058282  1
  O  O28  1  0.259325  0.148762  0.058275  1
  O  O29  1  0.967979  0.220328  0.953291  1
  O  O30  1  0.864660  0.645140  0.808103  1
  O  O31  1  0.135325  0.854920  0.308040  1
  O  O32  1  0.759551  0.850982  0.441678  1
  O  O33  1  0.864729  0.145170  0.691929  1
  O  O34  1  0.322873  0.454788  0.820052  1
  O  O35  1  0.740450  0.351075  0.558252  1
  O  O36  1  0.686000  0.952891  0.070281  1
  O  O37  1  0.364632  0.854778  0.808121  1
  O  O38  1  0.676882  0.045230  0.320084  1
  O  O39  1  0.314494  0.547120  0.570164  1
  O  O40  1  0.322776  0.954756  0.679977  1
  O  O41  1  0.169228  0.721576  0.704121  1
  O  O42  1  0.330860  0.721671  0.204085  1
  O  O43  1  0.532017  0.720483  0.046794  1
  O  O44  1  0.740751  0.851231  0.941782  1
  O  O45  1  0.635397  0.645137  0.308047  1
  O  O46  1  0.814551  0.452790  0.929803  1
  O  O47  1  0.169193  0.221620  0.795936  1
  O  O48  1  0.240426  0.149019  0.558268  1
  O  O49  1  0.635426  0.145089  0.191917  1
  O  O50  1  0.685630  0.452882  0.429782  1
  O  O51  1  0.259507  0.648903  0.441695  1
  O  O52  1  0.185719  0.547212  0.070254  1
  O  O53  1  0.669273  0.778463  0.704150  1
  O  O54  1  0.177004  0.954759  0.179894  1
  O  O55  1  0.830902  0.778296  0.204052  1
  O  O56  1  0.830801  0.278361  0.295874  1
  O  O57  1  0.814845  0.952768  0.570139  1
  O  O58  1  0.240601  0.648900  0.941764  1
  O  O59  1  0.185290  0.047194  0.429810  1
  O  O60  1  0.330755  0.221605  0.295846  1
  O  O61  1  0.032078  0.779635  0.046798  1
  O  O62  1  0.468187  0.779600  0.546726  1
  O  O63  1  0.669241  0.278442  0.795893  1
  O  O64  1  0.468048  0.279555  0.953280  1
  O  O65  1  0.531786  0.220419  0.453198  1
  O  O66  1  0.031842  0.279668  0.453213  1
  O  O67  1  0.364613  0.354786  0.691923  1
  O  O68  1  0.676831  0.545206  0.179892  1
  O  O69  1  0.968122  0.720277  0.546710  1
  O  O70  1  0.135388  0.354969  0.191925  1
  O  O71  1  0.822590  0.045286  0.820061  1
