# generated using pymatgen
data_AlCoO3
_symmetry_space_group_name_H-M   'P 1'
_cell_length_a   5.41448019
_cell_length_b   5.41447998
_cell_length_c   11.55758840
_cell_angle_alpha   90.00000000
_cell_angle_beta   90.00000000
_cell_angle_gamma   120.00000124
_symmetry_Int_Tables_number   1
_chemical_formula_structural   AlCoO3
_chemical_formula_sum   'Al6 Co6 O18'
_cell_volume   293.43463340
_cell_formula_units_Z   6
loop_
 _symmetry_equiv_pos_site_id
 _symmetry_equiv_pos_as_xyz
  1  'x, y, z'
loop_
 _atom_site_type_symbol
 _atom_site_label
 _atom_site_symmetry_multiplicity
 _atom_site_fract_x
 _atom_site_fract_y
 _atom_site_fract_z
 _atom_site_occupancy
  Al  Al0  1  0.666667  0.333333  0.249685  1
  Al  Al1  1  0.333333  0.666667  0.749685  1
  Al  Al2  1  0.666667  0.333333  0.749685  1
  Al  Al3  1  0.333333  0.666667  0.249685  1
  Al  Al4  1  0.000000  0.000000  0.765137  1
  Al  Al5  1  0.000000  0.000000  0.265137  1
  Co  Co6  1  0.672489  0.000000  0.500800  1
  Co  Co7  1  0.672489  0.672489  0.000800  1
  Co  Co8  1  1.000000  0.327511  0.000800  1
  Co  Co9  1  0.000000  0.672489  0.500800  1
  Co  Co10  1  0.327511  0.327511  0.500800  1
  Co  Co11  1  0.327511  0.000000  0.000800  1
  O  O12  1  0.666667  0.333333  0.021711  1
  O  O13  1  0.333333  0.666667  0.521711  1
  O  O14  1  0.666667  0.333333  0.521711  1
  O  O15  1  0.333333  0.666667  0.021711  1
  O  O16  1  0.000000  0.000000  0.945156  1
  O  O17  1  0.000000  0.000000  0.445156  1
  O  O18  1  0.373535  0.000000  0.829678  1
  O  O19  1  0.373535  0.373535  0.329678  1
  O  O20  1  1.000000  0.626465  0.329678  1
  O  O21  1  0.000000  0.373535  0.829678  1
  O  O22  1  0.626465  0.626465  0.829678  1
  O  O23  1  0.626465  0.000000  0.329678  1
  O  O24  1  0.310155  0.000000  0.176827  1
  O  O25  1  0.310155  0.310155  0.676827  1
  O  O26  1  0.000000  0.689845  0.676827  1
  O  O27  1  1.000000  0.310155  0.176827  1
  O  O28  1  0.689845  0.689845  0.176827  1
  O  O29  1  0.689845  0.000000  0.676827  1
