# generated using pymatgen
data_AlV2O4
_symmetry_space_group_name_H-M   'P 1'
_cell_length_a   5.90628658
_cell_length_b   5.93005915
_cell_length_c   5.92979736
_cell_angle_alpha   89.22324139
_cell_angle_beta   119.76702301
_cell_angle_gamma   119.76662356
_symmetry_Int_Tables_number   1
_chemical_formula_structural   AlV2O4
_chemical_formula_sum   'Al2 V4 O8'
_cell_volume   148.83220706
_cell_formula_units_Z   2
loop_
 _symmetry_equiv_pos_site_id
 _symmetry_equiv_pos_as_xyz
  1  'x, y, z'
loop_
 _atom_site_type_symbol
 _atom_site_label
 _atom_site_symmetry_multiplicity
 _atom_site_fract_x
 _atom_site_fract_y
 _atom_site_fract_z
 _atom_site_occupancy
  Al  Al0  1  0.000005  0.999999  0.000003  1
  Al  Al1  1  0.500001  0.999997  0.000001  1
  V  V2  1  0.500001  0.999996  0.500006  1
  V  V3  1  0.499997  0.499993  0.500001  1
  V  V4  1  0.000010  0.499998  0.000010  1
  V  V5  1  -0.000001  0.499996  0.499995  1
  O  O6  1  0.026331  0.768132  0.233789  1
  O  O7  1  0.527396  0.781490  0.774466  1
  O  O8  1  0.473693  0.766237  0.231873  1
  O  O9  1  0.027353  0.774421  0.781474  1
  O  O10  1  0.526323  0.233763  0.768139  1
  O  O11  1  0.472607  0.218504  0.225538  1
  O  O12  1  0.972659  0.225573  0.218535  1
  O  O13  1  0.973675  0.231865  0.766214  1
