# generated using pymatgen
data_ZnAgAsO5
_symmetry_space_group_name_H-M   'P 1'
_cell_length_a   8.00271070
_cell_length_b   6.28579606
_cell_length_c   9.28925562
_cell_angle_alpha   89.99458273
_cell_angle_beta   89.99854577
_cell_angle_gamma   89.99483587
_symmetry_Int_Tables_number   1
_chemical_formula_structural   ZnAgAsO5
_chemical_formula_sum   'Zn4 Ag4 As4 O20'
_cell_volume   467.28120520
_cell_formula_units_Z   4
loop_
 _symmetry_equiv_pos_site_id
 _symmetry_equiv_pos_as_xyz
  1  'x, y, z'
loop_
 _atom_site_type_symbol
 _atom_site_label
 _atom_site_symmetry_multiplicity
 _atom_site_fract_x
 _atom_site_fract_y
 _atom_site_fract_z
 _atom_site_occupancy
  Zn  Zn0  1  0.033631  0.732118  0.055989  1
  Zn  Zn1  1  0.466529  0.267857  0.556007  1
  Zn  Zn2  1  0.533612  0.767949  0.943939  1
  Zn  Zn3  1  0.966480  0.232095  0.443879  1
  Ag  Ag4  1  0.999420  0.499225  0.746664  1
  Ag  Ag5  1  0.500306  0.500641  0.246657  1
  Ag  Ag6  1  0.499699  0.000682  0.253399  1
  Ag  Ag7  1  0.000016  0.999433  0.753402  1
  As  As8  1  0.636040  0.271021  0.887961  1
  As  As9  1  0.864012  0.728996  0.387876  1
  As  As10  1  0.135931  0.228891  0.112007  1
  As  As11  1  0.364144  0.771078  0.612063  1
  O  O12  1  0.828405  0.251662  0.790330  1
  O  O13  1  0.671721  0.748415  0.290180  1
  O  O14  1  0.328406  0.248401  0.209763  1
  O  O15  1  0.171721  0.751530  0.709887  1
  O  O16  1  0.481285  0.292527  0.764197  1
  O  O17  1  0.018795  0.707492  0.264183  1
  O  O18  1  0.981316  0.207458  0.235900  1
  O  O19  1  0.518786  0.792517  0.735929  1
  O  O20  1  0.627986  0.052322  0.996983  1
  O  O21  1  0.872120  0.947691  0.496942  1
  O  O22  1  0.127967  0.447677  0.003004  1
  O  O23  1  0.372215  0.552326  0.503044  1
  O  O24  1  0.648311  0.493830  0.994143  1
  O  O25  1  0.851808  0.506315  0.494056  1
  O  O26  1  0.148291  0.006152  0.005866  1
  O  O27  1  0.351901  0.993715  0.505956  1
  O  O28  1  0.901454  0.748042  0.865140  1
  O  O29  1  0.598141  0.251945  0.365184  1
  O  O30  1  0.401721  0.751953  0.134763  1
  O  O31  1  0.097823  0.248045  0.634708  1
