# generated using pymatgen
data_MgBi2O5
_symmetry_space_group_name_H-M   'P 1'
_cell_length_a   3.67585945
_cell_length_b   5.17854164
_cell_length_c   12.84137295
_cell_angle_alpha   90.49588396
_cell_angle_beta   89.86438148
_cell_angle_gamma   89.60328888
_symmetry_Int_Tables_number   1
_chemical_formula_structural   MgBi2O5
_chemical_formula_sum   'Mg2 Bi4 O10'
_cell_volume   244.42739235
_cell_formula_units_Z   2
loop_
 _symmetry_equiv_pos_site_id
 _symmetry_equiv_pos_as_xyz
  1  'x, y, z'
loop_
 _atom_site_type_symbol
 _atom_site_label
 _atom_site_symmetry_multiplicity
 _atom_site_fract_x
 _atom_site_fract_y
 _atom_site_fract_z
 _atom_site_occupancy
  Mg  Mg0  1  0.818622  0.807232  0.268426  1
  Mg  Mg1  1  0.316121  0.193158  0.774603  1
  Bi  Bi2  1  0.318267  0.291854  0.104680  1
  Bi  Bi3  1  0.803793  0.652265  0.890418  1
  Bi  Bi4  1  0.799666  0.701354  0.610793  1
  Bi  Bi5  1  0.322249  0.357994  0.388462  1
  O  O6  1  0.808463  0.430440  0.740628  1
  O  O7  1  0.316823  0.562683  0.238186  1
  O  O8  1  0.803376  0.593472  0.051594  1
  O  O9  1  0.305358  0.450594  0.897750  1
  O  O10  1  0.819357  0.561213  0.396260  1
  O  O11  1  0.317170  0.407634  0.551100  1
  O  O12  1  0.327252  0.972782  0.357234  1
  O  O13  1  0.305275  0.864249  0.696323  1
  O  O14  1  0.806329  0.039639  0.866057  1
  O  O15  1  0.814117  0.124256  0.185513  1
