# generated using pymatgen
data_Ca(WO2)2
_symmetry_space_group_name_H-M   'P 1'
_cell_length_a   6.59949249
_cell_length_b   6.69830046
_cell_length_c   6.69921581
_cell_angle_alpha   89.93607484
_cell_angle_beta   120.56902417
_cell_angle_gamma   120.54548638
_symmetry_Int_Tables_number   1
_chemical_formula_structural   Ca(WO2)2
_chemical_formula_sum   'Ca2 W4 O8'
_cell_volume   205.94843434
_cell_formula_units_Z   2
loop_
 _symmetry_equiv_pos_site_id
 _symmetry_equiv_pos_as_xyz
  1  'x, y, z'
loop_
 _atom_site_type_symbol
 _atom_site_label
 _atom_site_symmetry_multiplicity
 _atom_site_fract_x
 _atom_site_fract_y
 _atom_site_fract_z
 _atom_site_occupancy
  Ca  Ca0  1  0.255048  0.127573  0.877263  1
  Ca  Ca1  1  0.754462  0.876954  0.127792  1
  W  W2  1  0.504008  0.002235  0.500802  1
  W  W3  1  0.504510  0.502526  0.502175  1
  W  W4  1  0.002871  0.500746  0.001762  1
  W  W5  1  0.005505  0.503190  0.503286  1
  O  O6  1  0.025672  0.726768  0.262479  1
  O  O7  1  0.483976  0.742552  0.705841  1
  O  O8  1  0.481021  0.740469  0.275810  1
  O  O9  1  0.982841  0.705669  0.742115  1
  O  O10  1  0.524699  0.261796  0.725638  1
  O  O11  1  0.527251  0.264706  0.298792  1
  O  O12  1  0.025885  0.298635  0.264169  1
  O  O13  1  0.982469  0.276876  0.741277  1
