# generated using pymatgen
data_Ca2Sb2O5
_symmetry_space_group_name_H-M   'P 1'
_cell_length_a   4.27186328
_cell_length_b   6.40225899
_cell_length_c   10.30064101
_cell_angle_alpha   89.99979857
_cell_angle_beta   89.99996591
_cell_angle_gamma   90.00042619
_symmetry_Int_Tables_number   1
_chemical_formula_structural   Ca2Sb2O5
_chemical_formula_sum   'Ca4 Sb4 O10'
_cell_volume   281.71815476
_cell_formula_units_Z   2
loop_
 _symmetry_equiv_pos_site_id
 _symmetry_equiv_pos_as_xyz
  1  'x, y, z'
loop_
 _atom_site_type_symbol
 _atom_site_label
 _atom_site_symmetry_multiplicity
 _atom_site_fract_x
 _atom_site_fract_y
 _atom_site_fract_z
 _atom_site_occupancy
  Ca  Ca0  1  0.499997  0.160360  0.860702  1
  Ca  Ca1  1  0.500004  0.839642  0.139298  1
  Ca  Ca2  1  0.500002  0.660358  0.639297  1
  Ca  Ca3  1  0.500005  0.339644  0.360702  1
  Sb  Sb4  1  0.999999  0.218925  0.607692  1
  Sb  Sb5  1  0.000003  0.781074  0.392308  1
  Sb  Sb6  1  0.000002  0.281073  0.107692  1
  Sb  Sb7  1  0.000001  0.718927  0.892308  1
  O  O8  1  0.999993  0.500000  0.500000  1
  O  O9  1  0.000002  0.181717  0.290903  1
  O  O10  1  0.000001  0.681716  0.209097  1
  O  O11  1  0.999995  0.318282  0.790903  1
  O  O12  1  0.500003  0.213490  0.121744  1
  O  O13  1  0.500001  0.786512  0.878256  1
  O  O14  1  0.000004  0.818282  0.709097  1
  O  O15  1  0.499994  0.286511  0.621745  1
  O  O16  1  0.000002  0.999999  0.000001  1
  O  O17  1  0.500000  0.713488  0.378256  1
