# generated using pymatgen
data_MgCoAs2O7
_symmetry_space_group_name_H-M   'P 1'
_cell_length_a   7.31030198
_cell_length_b   8.65191597
_cell_length_c   9.70597514
_cell_angle_alpha   90.00000000
_cell_angle_beta   113.87771926
_cell_angle_gamma   90.00000000
_symmetry_Int_Tables_number   1
_chemical_formula_structural   MgCoAs2O7
_chemical_formula_sum   'Mg4 Co4 As8 O28'
_cell_volume   561.34315793
_cell_formula_units_Z   4
loop_
 _symmetry_equiv_pos_site_id
 _symmetry_equiv_pos_as_xyz
  1  'x, y, z'
loop_
 _atom_site_type_symbol
 _atom_site_label
 _atom_site_symmetry_multiplicity
 _atom_site_fract_x
 _atom_site_fract_y
 _atom_site_fract_z
 _atom_site_occupancy
  Mg  Mg0  1  0.275606  0.921453  0.895022  1
  Mg  Mg1  1  0.724394  0.421453  0.604978  1
  Mg  Mg2  1  0.724394  0.078547  0.104978  1
  Mg  Mg3  1  0.275606  0.578547  0.395022  1
  Co  Co4  1  0.819469  0.054003  0.684077  1
  Co  Co5  1  0.180531  0.554003  0.815923  1
  Co  Co6  1  0.180531  0.945997  0.315923  1
  Co  Co7  1  0.819469  0.445997  0.184077  1
  As  As8  1  0.432964  0.226855  0.749492  1
  As  As9  1  0.567036  0.726855  0.750508  1
  As  As10  1  0.567036  0.773145  0.250508  1
  As  As11  1  0.432964  0.273145  0.249491  1
  As  As12  1  0.015981  0.278129  0.957948  1
  As  As13  1  0.984019  0.778129  0.542052  1
  As  As14  1  0.984019  0.721871  0.042052  1
  As  As15  1  0.015981  0.221871  0.457948  1
  O  O16  1  0.857516  0.270446  0.048191  1
  O  O17  1  0.142484  0.770446  0.451809  1
  O  O18  1  0.142484  0.729554  0.951809  1
  O  O19  1  0.857516  0.229554  0.548191  1
  O  O20  1  0.347066  0.404272  0.763617  1
  O  O21  1  0.652934  0.904272  0.736383  1
  O  O22  1  0.652934  0.595728  0.236383  1
  O  O23  1  0.347066  0.095728  0.263617  1
  O  O24  1  0.463731  0.099951  0.892206  1
  O  O25  1  0.536269  0.599951  0.607794  1
  O  O26  1  0.536269  0.900049  0.107794  1
  O  O27  1  0.463731  0.400049  0.392206  1
  O  O28  1  0.250176  0.141878  0.580740  1
  O  O29  1  0.749824  0.641878  0.919260  1
  O  O30  1  0.749824  0.858122  0.419260  1
  O  O31  1  0.250176  0.358122  0.080740  1
  O  O32  1  0.961289  0.081575  0.322936  1
  O  O33  1  0.038711  0.581575  0.177064  1
  O  O34  1  0.038711  0.918425  0.677064  1
  O  O35  1  0.961289  0.418425  0.822936  1
  O  O36  1  0.635855  0.263741  0.204935  1
  O  O37  1  0.364145  0.763741  0.295065  1
  O  O38  1  0.364145  0.736259  0.795065  1
  O  O39  1  0.635855  0.236259  0.704935  1
  O  O40  1  0.046942  0.398300  0.391540  1
  O  O41  1  0.953058  0.898300  0.108460  1
  O  O42  1  0.953058  0.601700  0.608460  1
  O  O43  1  0.046942  0.101700  0.891540  1
