# generated using pymatgen
data_CaBiF5
_symmetry_space_group_name_H-M   'P 1'
_cell_length_a   6.08652777
_cell_length_b   6.09113676
_cell_length_c   8.53245655
_cell_angle_alpha   97.13677615
_cell_angle_beta   111.61898433
_cell_angle_gamma   107.98154789
_symmetry_Int_Tables_number   1
_chemical_formula_structural   CaBiF5
_chemical_formula_sum   'Ca2 Bi2 F10'
_cell_volume   269.39432056
_cell_formula_units_Z   2
loop_
 _symmetry_equiv_pos_site_id
 _symmetry_equiv_pos_as_xyz
  1  'x, y, z'
loop_
 _atom_site_type_symbol
 _atom_site_label
 _atom_site_symmetry_multiplicity
 _atom_site_fract_x
 _atom_site_fract_y
 _atom_site_fract_z
 _atom_site_occupancy
  Ca  Ca0  1  0.280754  0.528333  0.751488  1
  Ca  Ca1  1  0.723918  0.471875  0.251346  1
  Bi  Bi2  1  0.002328  -0.001101  0.001857  1
  Bi  Bi3  1  0.501862  0.000177  0.501507  1
  F  F4  1  0.385238  0.136402  0.253277  1
  F  F5  1  0.620826  0.870254  0.752466  1
  F  F6  1  0.595802  0.728179  0.366879  1
  F  F7  1  0.861425  0.229276  0.133338  1
  F  F8  1  0.742186  0.676649  0.045976  1
  F  F9  1  0.133037  0.696735  0.457982  1
  F  F10  1  0.255448  0.318910  0.952693  1
  F  F11  1  0.870231  0.299648  0.547059  1
  F  F12  1  0.141654  0.770089  0.868577  1
  F  F13  1  0.410146  0.277849  0.633740  1
