# generated using pymatgen
data_Ca2AlVO5
_symmetry_space_group_name_H-M   'P 1'
_cell_length_a   5.42464567
_cell_length_b   5.69131712
_cell_length_c   8.23563478
_cell_angle_alpha   110.22675193
_cell_angle_beta   109.26268644
_cell_angle_gamma   90.02248492
_symmetry_Int_Tables_number   1
_chemical_formula_structural   Ca2AlVO5
_chemical_formula_sum   'Ca4 Al2 V2 O10'
_cell_volume   223.33730945
_cell_formula_units_Z   2
loop_
 _symmetry_equiv_pos_site_id
 _symmetry_equiv_pos_as_xyz
  1  'x, y, z'
loop_
 _atom_site_type_symbol
 _atom_site_label
 _atom_site_symmetry_multiplicity
 _atom_site_fract_x
 _atom_site_fract_y
 _atom_site_fract_z
 _atom_site_occupancy
  Ca  Ca0  1  0.124376  0.642391  0.220895  1
  Ca  Ca1  1  0.403373  0.921538  0.779826  1
  Ca  Ca2  1  0.901583  0.357837  0.780200  1
  Ca  Ca3  1  0.624513  0.078780  0.220111  1
  Al  Al4  1  0.292507  0.325590  0.499972  1
  Al  Al5  1  0.793065  0.673830  0.500169  1
  V  V6  1  0.499578  0.500263  0.999797  1
  V  V7  1  0.000110  0.000008  0.999765  1
  O  O8  1  0.621820  0.398182  0.499745  1
  O  O9  1  0.122343  0.601233  0.500068  1
  O  O10  1  0.623100  0.718858  0.292981  1
  O  O11  1  0.325841  0.280766  0.706322  1
  O  O12  1  0.121383  0.074530  0.292253  1
  O  O13  1  0.826766  0.924538  0.706898  1
  O  O14  1  0.238559  0.738865  0.968538  1
  O  O15  1  0.267949  0.264343  0.031886  1
  O  O16  1  0.767542  0.267858  0.030290  1
  O  O17  1  0.738339  0.730217  0.968454  1
