# generated using pymatgen
data_MgTiCu(PO4)3
_symmetry_space_group_name_H-M   'P 1'
_cell_length_a   8.48374433
_cell_length_b   8.48374455
_cell_length_c   8.48374417
_cell_angle_alpha   60.92541057
_cell_angle_beta   60.92541457
_cell_angle_gamma   60.92542366
_symmetry_Int_Tables_number   1
_chemical_formula_structural   MgTiCu(PO4)3
_chemical_formula_sum   'Mg2 Ti2 Cu2 P6 O24'
_cell_volume   440.76991562
_cell_formula_units_Z   2
loop_
 _symmetry_equiv_pos_site_id
 _symmetry_equiv_pos_as_xyz
  1  'x, y, z'
loop_
 _atom_site_type_symbol
 _atom_site_label
 _atom_site_symmetry_multiplicity
 _atom_site_fract_x
 _atom_site_fract_y
 _atom_site_fract_z
 _atom_site_occupancy
  Mg  Mg0  1  0.996009  0.996009  0.996009  1
  Mg  Mg1  1  0.496009  0.496009  0.496009  1
  Ti  Ti2  1  0.143414  0.143414  0.143414  1
  Ti  Ti3  1  0.643414  0.643414  0.643414  1
  Cu  Cu4  1  0.355217  0.355217  0.355217  1
  Cu  Cu5  1  0.855217  0.855217  0.855217  1
  P  P6  1  0.045098  0.455465  0.751102  1
  P  P7  1  0.455465  0.751102  0.045098  1
  P  P8  1  0.751102  0.045098  0.455465  1
  P  P9  1  0.251102  0.955465  0.545098  1
  P  P10  1  0.545098  0.251102  0.955465  1
  P  P11  1  0.955465  0.545098  0.251102  1
  O  O12  1  0.109593  0.512441  0.317038  1
  O  O13  1  0.317038  0.109593  0.512441  1
  O  O14  1  0.055034  0.256513  0.910935  1
  O  O15  1  0.512441  0.317038  0.109593  1
  O  O16  1  0.012441  0.609593  0.817038  1
  O  O17  1  0.239685  0.443405  0.588754  1
  O  O18  1  0.256513  0.910935  0.055034  1
  O  O19  1  0.443405  0.588754  0.239685  1
  O  O20  1  0.186738  0.004769  0.378786  1
  O  O21  1  0.588754  0.239685  0.443405  1
  O  O22  1  0.088754  0.943405  0.739685  1
  O  O23  1  0.378786  0.186738  0.004769  1
  O  O24  1  0.609593  0.817038  0.012441  1
  O  O25  1  0.910935  0.055034  0.256513  1
  O  O26  1  0.410935  0.756513  0.555034  1
  O  O27  1  0.817038  0.012441  0.609593  1
  O  O28  1  0.555034  0.410935  0.756513  1
  O  O29  1  0.739685  0.088754  0.943405  1
  O  O30  1  0.756513  0.555034  0.410935  1
  O  O31  1  0.004769  0.378786  0.186738  1
  O  O32  1  0.504769  0.686738  0.878786  1
  O  O33  1  0.943405  0.739685  0.088754  1
  O  O34  1  0.686738  0.878786  0.504769  1
  O  O35  1  0.878786  0.504769  0.686738  1
