# generated using pymatgen
data_BaYSn4O7
_symmetry_space_group_name_H-M   'P 1'
_cell_length_a   6.46563818
_cell_length_b   6.46563787
_cell_length_c   14.61110398
_cell_angle_alpha   90.00000000
_cell_angle_beta   90.00000000
_cell_angle_gamma   120.00000592
_symmetry_Int_Tables_number   1
_chemical_formula_structural   BaYSn4O7
_chemical_formula_sum   'Ba2 Y2 Sn8 O14'
_cell_volume   528.97654028
_cell_formula_units_Z   2
loop_
 _symmetry_equiv_pos_site_id
 _symmetry_equiv_pos_as_xyz
  1  'x, y, z'
loop_
 _atom_site_type_symbol
 _atom_site_label
 _atom_site_symmetry_multiplicity
 _atom_site_fract_x
 _atom_site_fract_y
 _atom_site_fract_z
 _atom_site_occupancy
  Ba  Ba0  1  0.666667  0.333333  0.440783  1
  Ba  Ba1  1  0.333333  0.666667  0.940783  1
  Y  Y2  1  0.666667  0.333333  0.876940  1
  Y  Y3  1  0.333333  0.666667  0.376940  1
  Sn  Sn4  1  0.828419  0.171582  0.203689  1
  Sn  Sn5  1  0.656834  0.828418  0.703690  1
  Sn  Sn6  1  0.171582  0.343166  0.703690  1
  Sn  Sn7  1  0.828419  0.656834  0.203689  1
  Sn  Sn8  1  0.343165  0.171582  0.203689  1
  Sn  Sn9  1  0.171582  0.828418  0.703690  1
  Sn  Sn10  1  -0.000000  0.000000  0.435889  1
  Sn  Sn11  1  -0.000000  0.000000  0.935889  1
  O  O12  1  0.829819  0.170182  0.966632  1
  O  O13  1  0.659639  0.829818  0.466631  1
  O  O14  1  0.170181  0.340360  0.466631  1
  O  O15  1  0.829820  0.659640  0.966632  1
  O  O16  1  0.340360  0.170182  0.966632  1
  O  O17  1  0.170181  0.829818  0.466631  1
  O  O18  1  -0.000000  0.000000  0.795591  1
  O  O19  1  -0.000000  0.000000  0.295592  1
  O  O20  1  0.510316  0.489686  0.291278  1
  O  O21  1  0.020630  0.510316  0.791278  1
  O  O22  1  0.489685  0.979370  0.791278  1
  O  O23  1  0.510316  0.020630  0.291278  1
  O  O24  1  0.489686  0.510316  0.791278  1
  O  O25  1  0.979370  0.489686  0.291278  1
