# generated using pymatgen
data_Zn(SnO2)4
_symmetry_space_group_name_H-M   'P 1'
_cell_length_a   3.22285357
_cell_length_b   7.81027735
_cell_length_c   7.93676931
_cell_angle_alpha   83.52905108
_cell_angle_beta   78.29628868
_cell_angle_gamma   78.09175570
_symmetry_Int_Tables_number   1
_chemical_formula_structural   Zn(SnO2)4
_chemical_formula_sum   'Zn1 Sn4 O8'
_cell_volume   190.89202284
_cell_formula_units_Z   1
loop_
 _symmetry_equiv_pos_site_id
 _symmetry_equiv_pos_as_xyz
  1  'x, y, z'
loop_
 _atom_site_type_symbol
 _atom_site_label
 _atom_site_symmetry_multiplicity
 _atom_site_fract_x
 _atom_site_fract_y
 _atom_site_fract_z
 _atom_site_occupancy
  Zn  Zn0  1  0.472889  0.011141  0.043036  1
  Sn  Sn1  1  0.631351  0.179964  0.557479  1
  Sn  Sn2  1  0.143812  0.496863  0.216172  1
  Sn  Sn3  1  0.826491  0.498307  0.848499  1
  Sn  Sn4  1  0.339202  0.814072  0.507679  1
  O  O5  1  0.844204  0.679393  0.632325  1
  O  O6  1  0.445925  0.352173  0.755690  1
  O  O7  1  0.524644  0.642019  0.309208  1
  O  O8  1  0.127346  0.314021  0.431466  1
  O  O9  1  0.149969  0.032339  0.667932  1
  O  O10  1  0.764380  0.367288  0.104320  1
  O  O11  1  0.820907  0.961657  0.396467  1
  O  O12  1  0.206365  0.626869  0.960374  1
