# generated using pymatgen
data_CaCuMo2O7
_symmetry_space_group_name_H-M   'P 1'
_cell_length_a   9.11016179
_cell_length_b   10.64679194
_cell_length_c   10.96314149
_cell_angle_alpha   94.72257662
_cell_angle_beta   90.00000000
_cell_angle_gamma   90.00000000
_symmetry_Int_Tables_number   1
_chemical_formula_structural   CaCuMo2O7
_chemical_formula_sum   'Ca6 Cu6 Mo12 O42'
_cell_volume   1059.74883436
_cell_formula_units_Z   6
loop_
 _symmetry_equiv_pos_site_id
 _symmetry_equiv_pos_as_xyz
  1  'x, y, z'
loop_
 _atom_site_type_symbol
 _atom_site_label
 _atom_site_symmetry_multiplicity
 _atom_site_fract_x
 _atom_site_fract_y
 _atom_site_fract_z
 _atom_site_occupancy
  Ca  Ca0  1  0.434997  0.180240  0.574959  1
  Ca  Ca1  1  0.930737  0.500000  0.750000  1
  Ca  Ca2  1  0.434997  0.819760  0.925041  1
  Ca  Ca3  1  0.069263  0.500000  0.250000  1
  Ca  Ca4  1  0.565003  0.819760  0.425041  1
  Ca  Ca5  1  0.565003  0.180240  0.074959  1
  Cu  Cu6  1  0.935756  0.794905  0.411468  1
  Cu  Cu7  1  0.064243  0.205095  0.588532  1
  Cu  Cu8  1  0.445150  0.500000  0.250000  1
  Cu  Cu9  1  0.935756  0.205095  0.088532  1
  Cu  Cu10  1  0.554850  0.500000  0.750000  1
  Cu  Cu11  1  0.064243  0.794905  0.911468  1
  Mo  Mo12  1  0.208122  0.171106  0.290334  1
  Mo  Mo13  1  0.741065  0.157911  0.382254  1
  Mo  Mo14  1  0.258935  0.157911  0.882254  1
  Mo  Mo15  1  0.791878  0.171106  0.790334  1
  Mo  Mo16  1  0.288374  0.486574  0.963148  1
  Mo  Mo17  1  0.741065  0.842089  0.117746  1
  Mo  Mo18  1  0.711626  0.486574  0.463148  1
  Mo  Mo19  1  0.258935  0.842089  0.617746  1
  Mo  Mo20  1  0.288374  0.513426  0.536852  1
  Mo  Mo21  1  0.711626  0.513426  0.036852  1
  Mo  Mo22  1  0.791878  0.828893  0.709666  1
  Mo  Mo23  1  0.208122  0.828893  0.209666  1
  O  O24  1  0.782310  0.198341  0.960830  1
  O  O25  1  0.763241  0.841626  0.281157  1
  O  O26  1  0.850451  -0.000000  0.750000  1
  O  O27  1  0.883330  0.511579  0.112480  1
  O  O28  1  0.389778  0.953909  0.570530  1
  O  O29  1  0.927745  0.272654  0.714819  1
  O  O30  1  0.351002  0.308047  0.941537  1
  O  O31  1  0.116670  0.511579  0.612480  1
  O  O32  1  0.716243  0.473850  0.870624  1
  O  O33  1  0.389778  0.046091  0.929470  1
  O  O34  1  0.716243  0.526150  0.629376  1
  O  O35  1  0.424298  0.583100  0.883121  1
  O  O36  1  0.912324  0.858431  0.044213  1
  O  O37  1  0.072255  0.272654  0.214819  1
  O  O38  1  0.648998  0.691953  0.058463  1
  O  O39  1  0.351002  0.691953  0.558463  1
  O  O40  1  0.927745  0.727346  0.785181  1
  O  O41  1  0.610222  0.046091  0.429470  1
  O  O42  1  0.217690  0.198341  0.460830  1
  O  O43  1  0.575702  0.416900  0.116879  1
  O  O44  1  0.381864  0.812964  0.284412  1
  O  O45  1  0.283757  0.526150  0.129376  1
  O  O46  1  0.087676  0.858431  0.544213  1
  O  O47  1  0.283757  0.473850  0.370624  1
  O  O48  1  0.883330  0.488421  0.387520  1
  O  O49  1  0.575702  0.583100  0.383121  1
  O  O50  1  0.116670  0.488421  0.887520  1
  O  O51  1  0.618136  0.812964  0.784412  1
  O  O52  1  0.618136  0.187036  0.715588  1
  O  O53  1  0.087676  0.141569  0.955787  1
  O  O54  1  0.072255  0.727346  0.285181  1
  O  O55  1  0.782310  0.801659  0.539170  1
  O  O56  1  0.149549  -0.000000  0.250000  1
  O  O57  1  0.236759  0.841626  0.781157  1
  O  O58  1  0.610222  0.953909  0.070530  1
  O  O59  1  0.912324  0.141569  0.455787  1
  O  O60  1  0.217690  0.801659  0.039170  1
  O  O61  1  0.763241  0.158374  0.218843  1
  O  O62  1  0.424298  0.416900  0.616879  1
  O  O63  1  0.648998  0.308047  0.441537  1
  O  O64  1  0.236759  0.158374  0.718843  1
  O  O65  1  0.381864  0.187036  0.215588  1
