# generated using pymatgen
data_CaV2(CuO4)2
_symmetry_space_group_name_H-M   'P 1'
_cell_length_a   6.61291156
_cell_length_b   8.78781901
_cell_length_c   12.36059030
_cell_angle_alpha   90.00000000
_cell_angle_beta   86.80284996
_cell_angle_gamma   90.00000000
_symmetry_Int_Tables_number   1
_chemical_formula_structural   CaV2(CuO4)2
_chemical_formula_sum   'Ca4 V8 Cu8 O32'
_cell_volume   717.19382422
_cell_formula_units_Z   4
loop_
 _symmetry_equiv_pos_site_id
 _symmetry_equiv_pos_as_xyz
  1  'x, y, z'
loop_
 _atom_site_type_symbol
 _atom_site_label
 _atom_site_symmetry_multiplicity
 _atom_site_fract_x
 _atom_site_fract_y
 _atom_site_fract_z
 _atom_site_occupancy
  Ca  Ca0  1  0.134791  0.167193  0.036671  1
  Ca  Ca1  1  0.865209  0.832807  0.963329  1
  Ca  Ca2  1  0.865209  0.667193  0.463329  1
  Ca  Ca3  1  0.134791  0.332807  0.536671  1
  V  V4  1  0.092512  0.462905  0.841045  1
  V  V5  1  0.092512  0.037095  0.341045  1
  V  V6  1  0.605737  0.090972  0.140983  1
  V  V7  1  0.907488  0.962905  0.658955  1
  V  V8  1  0.394263  0.909028  0.859017  1
  V  V9  1  0.394263  0.590972  0.359017  1
  V  V10  1  0.605737  0.409028  0.640983  1
  V  V11  1  0.907488  0.537095  0.158955  1
  Cu  Cu12  1  0.761998  0.183243  0.852048  1
  Cu  Cu13  1  0.393770  0.052210  0.633518  1
  Cu  Cu14  1  0.606230  0.947790  0.366482  1
  Cu  Cu15  1  0.238003  0.816757  0.147952  1
  Cu  Cu16  1  0.761998  0.316757  0.352048  1
  Cu  Cu17  1  0.393770  0.447790  0.133518  1
  Cu  Cu18  1  0.238003  0.683243  0.647952  1
  Cu  Cu19  1  0.606230  0.552210  0.866482  1
  O  O20  1  0.019242  0.225091  0.377261  1
  O  O21  1  0.677579  0.002814  0.603756  1
  O  O22  1  0.194525  0.584618  0.457271  1
  O  O23  1  0.805475  0.084618  0.042729  1
  O  O24  1  0.019242  0.274909  0.877261  1
  O  O25  1  0.980758  0.774909  0.622739  1
  O  O26  1  0.103079  0.089208  0.612980  1
  O  O27  1  0.496886  0.913048  0.133213  1
  O  O28  1  0.496886  0.586952  0.633213  1
  O  O29  1  0.330219  0.873278  0.721062  1
  O  O30  1  0.669781  0.373278  0.778938  1
  O  O31  1  0.503114  0.086952  0.866787  1
  O  O32  1  0.896921  0.910792  0.387020  1
  O  O33  1  0.878027  0.518536  0.299197  1
  O  O34  1  0.439984  0.266780  0.604555  1
  O  O35  1  0.439984  0.233220  0.104555  1
  O  O36  1  0.121973  0.018536  0.200803  1
  O  O37  1  0.503114  0.413048  0.366787  1
  O  O38  1  0.121973  0.481464  0.700803  1
  O  O39  1  0.805475  0.415382  0.542729  1
  O  O40  1  0.677579  0.497186  0.103756  1
  O  O41  1  0.669781  0.126722  0.278938  1
  O  O42  1  0.980758  0.725091  0.122739  1
  O  O43  1  0.103079  0.410792  0.112980  1
  O  O44  1  0.194525  0.915382  0.957271  1
  O  O45  1  0.560016  0.766780  0.895445  1
  O  O46  1  0.322421  0.997186  0.396244  1
  O  O47  1  0.322421  0.502814  0.896244  1
  O  O48  1  0.896921  0.589208  0.887020  1
  O  O49  1  0.560016  0.733220  0.395445  1
  O  O50  1  0.330219  0.626722  0.221062  1
  O  O51  1  0.878027  0.981464  0.799197  1
