# generated using pymatgen
data_Sr2YGaCu2O7
_symmetry_space_group_name_H-M   'P 1'
_cell_length_a   5.41779348
_cell_length_b   5.52519344
_cell_length_c   12.23605227
_cell_angle_alpha   103.05365695
_cell_angle_beta   102.78693012
_cell_angle_gamma   90.00065530
_symmetry_Int_Tables_number   1
_chemical_formula_structural   Sr2YGaCu2O7
_chemical_formula_sum   'Sr4 Y2 Ga2 Cu4 O14'
_cell_volume   347.48203278
_cell_formula_units_Z   2
loop_
 _symmetry_equiv_pos_site_id
 _symmetry_equiv_pos_as_xyz
  1  'x, y, z'
loop_
 _atom_site_type_symbol
 _atom_site_label
 _atom_site_symmetry_multiplicity
 _atom_site_fract_x
 _atom_site_fract_y
 _atom_site_fract_z
 _atom_site_occupancy
  Sr  Sr0  1  0.148173  0.168312  0.302701  1
  Sr  Sr1  1  0.845534  0.831691  0.697297  1
  Sr  Sr2  1  0.648176  0.634392  0.302694  1
  Sr  Sr3  1  0.345535  0.365615  0.697299  1
  Y  Y4  1  0.500079  0.500010  0.999994  1
  Y  Y5  1  0.000079  0.999993  0.999995  1
  Ga  Ga6  1  0.209821  0.819835  0.499980  1
  Ga  Ga7  1  0.709788  0.180146  0.500001  1
  Cu  Cu8  1  0.428486  0.929063  0.856582  1
  Cu  Cu9  1  0.071747  0.572622  0.143517  1
  Cu  Cu10  1  0.928402  0.427320  0.856446  1
  Cu  Cu11  1  0.571711  0.070964  0.143492  1
  O  O12  1  0.810583  0.312514  0.122830  1
  O  O13  1  0.857516  0.865064  0.499987  1
  O  O14  1  0.310627  0.310345  0.122816  1
  O  O15  1  0.849364  0.367306  0.646828  1
  O  O16  1  0.685896  0.185853  0.871596  1
  O  O17  1  0.185989  0.185516  0.871569  1
  O  O18  1  0.357496  0.134954  0.499981  1
  O  O19  1  0.187929  0.689729  0.877189  1
  O  O20  1  0.687822  0.687505  0.877190  1
  O  O21  1  0.349381  0.779510  0.646774  1
  O  O22  1  0.202674  0.632673  0.353172  1
  O  O23  1  0.702649  0.220500  0.353202  1
  O  O24  1  0.814265  0.814151  0.128440  1
  O  O25  1  0.314277  0.814416  0.128427  1
