# generated using pymatgen
data_CaMnIrO6
_symmetry_space_group_name_H-M   'P 1'
_cell_length_a   5.22785600
_cell_length_b   5.35912086
_cell_length_c   7.48985093
_cell_angle_alpha   90.00000000
_cell_angle_beta   90.10297761
_cell_angle_gamma   90.00000000
_symmetry_Int_Tables_number   1
_chemical_formula_structural   CaMnIrO6
_chemical_formula_sum   'Ca2 Mn2 Ir2 O12'
_cell_volume   209.84065857
_cell_formula_units_Z   2
loop_
 _symmetry_equiv_pos_site_id
 _symmetry_equiv_pos_as_xyz
  1  'x, y, z'
loop_
 _atom_site_type_symbol
 _atom_site_label
 _atom_site_symmetry_multiplicity
 _atom_site_fract_x
 _atom_site_fract_y
 _atom_site_fract_z
 _atom_site_occupancy
  Ca  Ca0  1  0.485309  0.440525  0.251501  1
  Ca  Ca1  1  0.985309  0.059475  0.751501  1
  Mn  Mn2  1  0.996451  0.506479  0.998676  1
  Mn  Mn3  1  0.496451  0.993521  0.498677  1
  Ir  Ir4  1  0.999038  0.507849  0.499899  1
  Ir  Ir5  1  0.499038  0.992151  -0.000101  1
  O  O6  1  0.089229  0.491317  0.751371  1
  O  O7  1  0.202144  0.205746  0.041602  1
  O  O8  1  0.204177  0.206437  0.458837  1
  O  O9  1  0.297591  0.699604  0.046586  1
  O  O10  1  0.299458  0.706661  0.452831  1
  O  O11  1  0.411509  0.980095  0.748552  1
  O  O12  1  0.589229  0.008683  0.251372  1
  O  O13  1  0.702144  0.294254  0.541602  1
  O  O14  1  0.704177  0.293563  0.958837  1
  O  O15  1  0.799458  0.793339  0.952831  1
  O  O16  1  0.797591  0.800396  0.546586  1
  O  O17  1  0.911509  0.519905  0.248552  1
