# generated using pymatgen
data_CaPr(CuO3)2
_symmetry_space_group_name_H-M   'P 1'
_cell_length_a   5.43936675
_cell_length_b   5.46040626
_cell_length_c   7.64087259
_cell_angle_alpha   90.00922665
_cell_angle_beta   89.98823518
_cell_angle_gamma   90.15948922
_symmetry_Int_Tables_number   1
_chemical_formula_structural   CaPr(CuO3)2
_chemical_formula_sum   'Ca2 Pr2 Cu4 O12'
_cell_volume   226.94183348
_cell_formula_units_Z   2
loop_
 _symmetry_equiv_pos_site_id
 _symmetry_equiv_pos_as_xyz
  1  'x, y, z'
loop_
 _atom_site_type_symbol
 _atom_site_label
 _atom_site_symmetry_multiplicity
 _atom_site_fract_x
 _atom_site_fract_y
 _atom_site_fract_z
 _atom_site_occupancy
  Ca  Ca0  1  0.490715  0.455575  0.749940  1
  Ca  Ca1  1  0.990847  0.044751  0.250008  1
  Pr  Pr2  1  0.007962  0.962701  0.749992  1
  Pr  Pr3  1  0.508220  0.536889  0.250067  1
  Cu  Cu4  1  0.000314  0.499309  -0.000300  1
  Cu  Cu5  1  0.000304  0.499273  0.500314  1
  Cu  Cu6  1  0.500324  0.000710  0.499652  1
  Cu  Cu7  1  0.500288  0.000728  0.000358  1
  O  O8  1  0.070836  0.482981  0.250010  1
  O  O9  1  0.220216  0.220054  0.962771  1
  O  O10  1  0.220192  0.220132  0.537228  1
  O  O11  1  0.283798  0.716773  0.541233  1
  O  O12  1  0.283875  0.716845  0.958779  1
  O  O13  1  0.421868  0.986378  0.249783  1
  O  O14  1  0.570867  0.016725  0.750200  1
  O  O15  1  0.719990  0.280074  0.037177  1
  O  O16  1  0.720053  0.280152  0.462797  1
  O  O17  1  0.783672  0.783102  0.041354  1
  O  O18  1  0.783740  0.783053  0.458643  1
  O  O19  1  0.921915  0.513797  0.749993  1
