# generated using pymatgen
data_TaZn2AgO6
_symmetry_space_group_name_H-M   'P 1'
_cell_length_a   5.62109410
_cell_length_b   5.69465334
_cell_length_c   7.51989355
_cell_angle_alpha   90.00000000
_cell_angle_beta   90.00000000
_cell_angle_gamma   76.99243158
_symmetry_Int_Tables_number   1
_chemical_formula_structural   TaZn2AgO6
_chemical_formula_sum   'Ta2 Zn4 Ag2 O12'
_cell_volume   234.53654582
_cell_formula_units_Z   2
loop_
 _symmetry_equiv_pos_site_id
 _symmetry_equiv_pos_as_xyz
  1  'x, y, z'
loop_
 _atom_site_type_symbol
 _atom_site_label
 _atom_site_symmetry_multiplicity
 _atom_site_fract_x
 _atom_site_fract_y
 _atom_site_fract_z
 _atom_site_occupancy
  Ta  Ta0  1  0.000000  0.500000  0.000000  1
  Ta  Ta1  1  0.000000  0.500000  0.500000  1
  Zn  Zn2  1  0.034079  0.945004  0.250000  1
  Zn  Zn3  1  0.522835  0.458921  0.250000  1
  Zn  Zn4  1  0.477165  0.541079  0.750000  1
  Zn  Zn5  1  0.965921  0.054996  0.750000  1
  Ag  Ag6  1  0.500000  0.000000  0.000000  1
  Ag  Ag7  1  0.500000  0.000000  0.500000  1
  O  O8  1  0.845901  0.843190  0.562046  1
  O  O9  1  0.276597  0.629713  0.423627  1
  O  O10  1  0.154099  0.156810  0.437954  1
  O  O11  1  0.723403  0.370287  0.923627  1
  O  O12  1  0.146246  0.450673  0.750000  1
  O  O13  1  0.723403  0.370287  0.576373  1
  O  O14  1  0.276597  0.629713  0.076373  1
  O  O15  1  0.845901  0.843190  0.937954  1
  O  O16  1  0.641104  0.092186  0.250000  1
  O  O17  1  0.154099  0.156810  0.062046  1
  O  O18  1  0.358896  0.907814  0.750000  1
  O  O19  1  0.853754  0.549327  0.250000  1
