# generated using pymatgen
data_YTi2O4
_symmetry_space_group_name_H-M   'P 1'
_cell_length_a   6.29379268
_cell_length_b   6.29379288
_cell_length_c   6.30383808
_cell_angle_alpha   117.67380104
_cell_angle_beta   122.16497713
_cell_angle_gamma   90.09240948
_symmetry_Int_Tables_number   1
_chemical_formula_structural   YTi2O4
_chemical_formula_sum   'Y2 Ti4 O8'
_cell_volume   176.58542986
_cell_formula_units_Z   2
loop_
 _symmetry_equiv_pos_site_id
 _symmetry_equiv_pos_as_xyz
  1  'x, y, z'
loop_
 _atom_site_type_symbol
 _atom_site_label
 _atom_site_symmetry_multiplicity
 _atom_site_fract_x
 _atom_site_fract_y
 _atom_site_fract_z
 _atom_site_occupancy
  Y  Y0  1  0.000000  0.500001  0.000001  1
  Y  Y1  1  0.000001  -0.000000  0.500000  1
  Ti  Ti2  1  0.372851  0.622851  0.750000  1
  Ti  Ti3  1  0.627149  0.377150  0.250000  1
  Ti  Ti4  1  0.500001  -0.000000  0.500000  1
  Ti  Ti5  1  0.000000  -0.000000  -0.000000  1
  O  O6  1  0.739216  0.745187  0.507255  1
  O  O7  1  0.737934  0.231963  0.992747  1
  O  O8  1  0.254002  0.239662  0.012229  1
  O  O9  1  0.260784  0.254813  0.492746  1
  O  O10  1  0.272567  0.758227  0.512228  1
  O  O11  1  0.262066  0.768038  0.007255  1
  O  O12  1  0.727432  0.241772  0.487771  1
  O  O13  1  0.745998  0.760339  0.987771  1
