# generated using pymatgen
data_Mg(WO2)4
_symmetry_space_group_name_H-M   'P 1'
_cell_length_a   3.24706378
_cell_length_b   7.74733187
_cell_length_c   7.89715148
_cell_angle_alpha   79.10532814
_cell_angle_beta   77.84298313
_cell_angle_gamma   78.14588140
_symmetry_Int_Tables_number   1
_chemical_formula_structural   Mg(WO2)4
_chemical_formula_sum   'Mg1 W4 O8'
_cell_volume   187.84624598
_cell_formula_units_Z   1
loop_
 _symmetry_equiv_pos_site_id
 _symmetry_equiv_pos_as_xyz
  1  'x, y, z'
loop_
 _atom_site_type_symbol
 _atom_site_label
 _atom_site_symmetry_multiplicity
 _atom_site_fract_x
 _atom_site_fract_y
 _atom_site_fract_z
 _atom_site_occupancy
  Mg  Mg0  1  0.325347  0.142433  0.212447  1
  W  W1  1  0.628758  0.166642  0.569106  1
  W  W2  1  0.136121  0.509172  0.201733  1
  W  W3  1  0.844049  0.481793  0.834275  1
  W  W4  1  0.361577  0.803872  0.489539  1
  O  O5  1  0.867459  0.660603  0.615964  1
  O  O6  1  0.467768  0.326565  0.756583  1
  O  O7  1  0.526743  0.649184  0.283544  1
  O  O8  1  0.121192  0.293516  0.423113  1
  O  O9  1  0.177051  0.011928  0.662009  1
  O  O10  1  0.784282  0.320905  0.097093  1
  O  O11  1  0.830849  0.998228  0.356484  1
  O  O12  1  0.226286  0.611266  0.928757  1
