# generated using pymatgen
data_Ca2Nb2SnO8
_symmetry_space_group_name_H-M   'P 1'
_cell_length_a   5.51274340
_cell_length_b   6.88389626
_cell_length_c   10.68630184
_cell_angle_alpha   108.84702145
_cell_angle_beta   88.09684673
_cell_angle_gamma   89.97628540
_symmetry_Int_Tables_number   1
_chemical_formula_structural   Ca2Nb2SnO8
_chemical_formula_sum   'Ca4 Nb4 Sn2 O16'
_cell_volume   383.55475592
_cell_formula_units_Z   2
loop_
 _symmetry_equiv_pos_site_id
 _symmetry_equiv_pos_as_xyz
  1  'x, y, z'
loop_
 _atom_site_type_symbol
 _atom_site_label
 _atom_site_symmetry_multiplicity
 _atom_site_fract_x
 _atom_site_fract_y
 _atom_site_fract_z
 _atom_site_occupancy
  Ca  Ca0  1  0.744039  0.433902  0.568330  1
  Ca  Ca1  1  0.754826  0.865676  0.430830  1
  Ca  Ca2  1  0.254455  0.567379  0.431782  1
  Ca  Ca3  1  0.243585  0.135666  0.569017  1
  Nb  Nb4  1  0.749124  0.270601  0.247140  1
  Nb  Nb5  1  0.749564  0.023807  0.752480  1
  Nb  Nb6  1  0.249689  0.730194  0.753009  1
  Nb  Nb7  1  0.249087  0.977123  0.247420  1
  Sn  Sn8  1  0.749704  0.698949  0.999664  1
  Sn  Sn9  1  0.249703  0.301351  0.000330  1
  O  O10  1  0.076894  0.175196  0.153771  1
  O  O11  1  0.421920  0.022470  0.846157  1
  O  O12  1  0.922097  0.825575  0.846311  1
  O  O13  1  0.576965  0.977925  0.154153  1
  O  O14  1  0.598375  0.391986  0.141077  1
  O  O15  1  0.899858  0.252202  0.857497  1
  O  O16  1  0.400363  0.607849  0.858521  1
  O  O17  1  0.098099  0.748780  0.142620  1
  O  O18  1  0.481296  0.268943  0.381067  1
  O  O19  1  0.017331  0.887149  0.618576  1
  O  O20  1  0.360335  0.855963  0.378205  1
  O  O21  1  0.138049  0.478036  0.622417  1
  O  O22  1  0.637905  0.145208  0.621892  1
  O  O23  1  0.860427  0.523173  0.377355  1
  O  O24  1  0.981235  0.114189  0.381454  1
  O  O25  1  0.517395  0.732188  0.618980  1
