# generated using pymatgen
data_BaMg(CoO2)4
_symmetry_space_group_name_H-M   'P 1'
_cell_length_a   5.31058701
_cell_length_b   5.31058736
_cell_length_c   7.33932009
_cell_angle_alpha   90.00000000
_cell_angle_beta   90.00000000
_cell_angle_gamma   119.99999789
_symmetry_Int_Tables_number   1
_chemical_formula_structural   BaMg(CoO2)4
_chemical_formula_sum   'Ba1 Mg1 Co4 O8'
_cell_volume   179.25511465
_cell_formula_units_Z   1
loop_
 _symmetry_equiv_pos_site_id
 _symmetry_equiv_pos_as_xyz
  1  'x, y, z'
loop_
 _atom_site_type_symbol
 _atom_site_label
 _atom_site_symmetry_multiplicity
 _atom_site_fract_x
 _atom_site_fract_y
 _atom_site_fract_z
 _atom_site_occupancy
  Ba  Ba0  1  0.000000  -0.000000  -0.000000  1
  Mg  Mg1  1  0.000000  -0.000000  0.500000  1
  Co  Co2  1  0.333333  0.666667  0.747033  1
  Co  Co3  1  0.666667  0.333333  0.747033  1
  Co  Co4  1  0.333333  0.666667  0.252967  1
  Co  Co5  1  0.666667  0.333333  0.252967  1
  O  O6  1  0.317119  0.317119  0.678084  1
  O  O7  1  0.682881  -0.000000  0.678084  1
  O  O8  1  0.000000  0.682881  0.678084  1
  O  O9  1  0.682881  0.682881  0.321916  1
  O  O10  1  1.000000  0.317119  0.321916  1
  O  O11  1  0.317119  0.000000  0.321916  1
  O  O12  1  0.333333  0.666667  -0.000000  1
  O  O13  1  0.666667  0.333333  -0.000000  1
