# generated using pymatgen
data_Ca2Sb3O8
_symmetry_space_group_name_H-M   'P 1'
_cell_length_a   6.73300039
_cell_length_b   6.73300026
_cell_length_c   10.34413916
_cell_angle_alpha   90.00000000
_cell_angle_beta   90.00000000
_cell_angle_gamma   120.00000477
_symmetry_Int_Tables_number   1
_chemical_formula_structural   Ca2Sb3O8
_chemical_formula_sum   'Ca4 Sb6 O16'
_cell_volume   406.10864623
_cell_formula_units_Z   2
loop_
 _symmetry_equiv_pos_site_id
 _symmetry_equiv_pos_as_xyz
  1  'x, y, z'
loop_
 _atom_site_type_symbol
 _atom_site_label
 _atom_site_symmetry_multiplicity
 _atom_site_fract_x
 _atom_site_fract_y
 _atom_site_fract_z
 _atom_site_occupancy
  Ca  Ca0  1  0.666667  0.333334  0.030094  1
  Ca  Ca1  1  0.333333  0.666666  0.530095  1
  Ca  Ca2  1  0.666667  0.333334  0.402372  1
  Ca  Ca3  1  0.333333  0.666666  0.902373  1
  Sb  Sb4  1  0.670600  0.835301  0.244397  1
  Sb  Sb5  1  0.835302  0.164700  0.744397  1
  Sb  Sb6  1  0.164700  0.329401  0.244397  1
  Sb  Sb7  1  0.835300  0.670600  0.744397  1
  Sb  Sb8  1  0.329401  0.164700  0.744397  1
  Sb  Sb9  1  0.164700  0.835301  0.244397  1
  O  O10  1  0.837613  0.162388  0.156579  1
  O  O11  1  0.675225  0.837613  0.656578  1
  O  O12  1  0.162388  0.324776  0.656578  1
  O  O13  1  0.837612  0.675225  0.156579  1
  O  O14  1  0.324775  0.162388  0.156579  1
  O  O15  1  0.162388  0.837613  0.656578  1
  O  O16  1  0.524508  0.475491  0.860762  1
  O  O17  1  0.049017  0.524508  0.360761  1
  O  O18  1  0.475492  0.950984  0.360761  1
  O  O19  1  0.524508  0.049017  0.860762  1
  O  O20  1  0.000000  0.000000  0.343937  1
  O  O21  1  0.000000  0.000000  0.843937  1
  O  O22  1  0.333333  0.666666  0.131883  1
  O  O23  1  0.950982  0.475491  0.860762  1
  O  O24  1  0.475491  0.524508  0.360761  1
  O  O25  1  0.666667  0.333334  0.631883  1
