# generated using pymatgen
data_Zn(BiO2)2
_symmetry_space_group_name_H-M   'P 1'
_cell_length_a   6.73852114
_cell_length_b   6.95360534
_cell_length_c   6.95360504
_cell_angle_alpha   59.99999250
_cell_angle_beta   58.93840764
_cell_angle_gamma   58.93840624
_symmetry_Int_Tables_number   1
_chemical_formula_structural   Zn(BiO2)2
_chemical_formula_sum   'Zn2 Bi4 O8'
_cell_volume   226.62682210
_cell_formula_units_Z   2
loop_
 _symmetry_equiv_pos_site_id
 _symmetry_equiv_pos_as_xyz
  1  'x, y, z'
loop_
 _atom_site_type_symbol
 _atom_site_label
 _atom_site_symmetry_multiplicity
 _atom_site_fract_x
 _atom_site_fract_y
 _atom_site_fract_z
 _atom_site_occupancy
  Zn  Zn0  1  0.994707  0.001765  0.001765  1
  Zn  Zn1  1  0.128590  0.623803  0.623803  1
  Bi  Bi2  1  0.270993  0.243002  0.243002  1
  Bi  Bi3  1  0.629224  0.117435  0.626670  1
  Bi  Bi4  1  0.629224  0.626670  0.117435  1
  Bi  Bi5  1  0.629224  0.626670  0.626670  1
  O  O6  1  0.361304  0.400180  0.400180  1
  O  O7  1  0.361304  0.400180  0.838335  1
  O  O8  1  0.361304  0.838335  0.400180  1
  O  O9  1  0.865916  0.378028  0.378028  1
  O  O10  1  0.372924  0.875691  0.875691  1
  O  O11  1  0.881763  0.377817  0.870211  1
  O  O12  1  0.881763  0.870211  0.377817  1
  O  O13  1  0.881763  0.870211  0.870211  1
