# generated using pymatgen
data_MnZnPO5
_symmetry_space_group_name_H-M   'P 1'
_cell_length_a   5.43095391
_cell_length_b   7.01275587
_cell_length_c   8.03321703
_cell_angle_alpha   89.98900547
_cell_angle_beta   42.31544992
_cell_angle_gamma   74.02261274
_symmetry_Int_Tables_number   1
_chemical_formula_structural   MnZnPO5
_chemical_formula_sum   'Mn2 Zn2 P2 O10'
_cell_volume   187.98684066
_cell_formula_units_Z   2
loop_
 _symmetry_equiv_pos_site_id
 _symmetry_equiv_pos_as_xyz
  1  'x, y, z'
loop_
 _atom_site_type_symbol
 _atom_site_label
 _atom_site_symmetry_multiplicity
 _atom_site_fract_x
 _atom_site_fract_y
 _atom_site_fract_z
 _atom_site_occupancy
  Mn  Mn0  1  0.500008  0.485810  0.995163  1
  Mn  Mn1  1  0.500405  0.985685  0.995212  1
  Zn  Zn2  1  0.507475  0.231443  0.660041  1
  Zn  Zn3  1  0.504781  0.730035  0.324488  1
  P  P4  1  0.497413  0.236859  0.333842  1
  P  P5  1  0.497313  0.735510  0.659528  1
  O  O6  1  0.335160  0.107598  0.303283  1
  O  O7  1  0.661587  0.366706  0.141295  1
  O  O8  1  0.659607  0.866270  0.688645  1
  O  O9  1  0.330771  0.608266  0.854652  1
  O  O10  1  0.829804  0.589856  0.373582  1
  O  O11  1  0.169422  0.877854  0.700543  1
  O  O12  1  0.167497  0.380106  0.620229  1
  O  O13  1  0.828774  0.092909  0.289320  1
  O  O14  1  0.496793  0.736420  0.093578  1
  O  O15  1  0.499920  0.235802  0.898612  1
