# generated using pymatgen
data_Ba2Mn2AlF11
_symmetry_space_group_name_H-M   'P 1'
_cell_length_a   7.47206332
_cell_length_b   7.47626910
_cell_length_c   14.92124251
_cell_angle_alpha   89.99190372
_cell_angle_beta   90.06579386
_cell_angle_gamma   120.02415674
_symmetry_Int_Tables_number   1
_chemical_formula_structural   Ba2Mn2AlF11
_chemical_formula_sum   'Ba6 Mn6 Al3 F33'
_cell_volume   721.69713508
_cell_formula_units_Z   3
loop_
 _symmetry_equiv_pos_site_id
 _symmetry_equiv_pos_as_xyz
  1  'x, y, z'
loop_
 _atom_site_type_symbol
 _atom_site_label
 _atom_site_symmetry_multiplicity
 _atom_site_fract_x
 _atom_site_fract_y
 _atom_site_fract_z
 _atom_site_occupancy
  Ba  Ba0  1  0.526551  0.185487  0.662988  1
  Ba  Ba1  1  0.171938  0.478526  0.797491  1
  Ba  Ba2  1  0.658850  0.472736  0.996268  1
  Ba  Ba3  1  0.521887  0.695293  0.464237  1
  Ba  Ba4  1  0.306766  0.828311  0.131130  1
  Ba  Ba5  1  0.816075  0.341629  0.329800  1
  Mn  Mn6  1  0.626536  0.993219  0.885554  1
  Mn  Mn7  1  0.803778  0.770184  0.724827  1
  Mn  Mn8  1  0.228904  0.033177  0.391500  1
  Mn  Mn9  1  0.368136  0.373880  0.219286  1
  Mn  Mn10  1  0.966634  0.195975  0.057946  1
  Mn  Mn11  1  0.006348  0.631764  0.551693  1
  Al  Al12  1  0.161138  0.004734  0.872185  1
  Al  Al13  1  0.842650  0.838979  0.205754  1
  Al  Al14  1  0.995469  0.156504  0.539213  1
  F  F15  1  0.652679  0.080836  0.022365  1
  F  F16  1  0.495855  0.686015  0.917364  1
  F  F17  1  0.428279  0.346219  0.356240  1
  F  F18  1  0.097740  0.417358  0.486898  1
  F  F19  1  0.538386  0.233449  0.187334  1
  F  F20  1  0.902136  0.632922  0.200283  1
  F  F21  1  0.582408  0.677858  0.153464  1
  F  F22  1  0.370392  0.268757  0.866400  1
  F  F23  1  0.696684  0.462246  0.518350  1
  F  F24  1  0.278960  0.326660  0.084002  1
  F  F25  1  0.321422  0.905066  0.821110  1
  F  F26  1  0.918427  0.572691  0.688679  1
  F  F27  1  0.244120  0.968977  0.978042  1
  F  F28  1  0.021021  0.492394  0.033119  1
  F  F29  1  0.721867  0.752981  0.311021  1
  F  F30  1  0.313824  0.809556  0.584757  1
  F  F31  1  0.991744  0.108292  0.915749  1
  F  F32  1  0.047948  0.720995  0.415893  1
  F  F33  1  0.958868  0.060228  0.423455  1
  F  F34  1  0.030647  0.278622  0.644207  1
  F  F35  1  0.101451  0.041256  0.756167  1
  F  F36  1  0.507602  0.527483  0.700827  1
  F  F37  1  0.472493  0.980648  0.367839  1
  F  F38  1  0.115889  0.009739  0.249321  1
  F  F39  1  0.671541  0.950416  0.749638  1
  F  F40  1  0.767875  0.303679  0.852704  1
  F  F41  1  0.192616  0.505525  0.252114  1
  F  F42  1  0.926478  0.751144  0.865972  1
  F  F43  1  0.822327  0.072664  0.200254  1
  F  F44  1  0.936467  0.898843  0.089780  1
  F  F45  1  0.730249  0.098565  0.533481  1
  F  F46  1  0.891429  0.883371  0.583196  1
  F  F47  1  0.248526  0.174141  0.534005  1
