# generated using pymatgen
data_CaAsWO5
_symmetry_space_group_name_H-M   'P 1'
_cell_length_a   8.37836840
_cell_length_b   6.02236227
_cell_length_c   9.74458231
_cell_angle_alpha   90.00446502
_cell_angle_beta   89.98016838
_cell_angle_gamma   89.43302468
_symmetry_Int_Tables_number   1
_chemical_formula_structural   CaAsWO5
_chemical_formula_sum   'Ca4 As4 W4 O20'
_cell_volume   491.66383687
_cell_formula_units_Z   4
loop_
 _symmetry_equiv_pos_site_id
 _symmetry_equiv_pos_as_xyz
  1  'x, y, z'
loop_
 _atom_site_type_symbol
 _atom_site_label
 _atom_site_symmetry_multiplicity
 _atom_site_fract_x
 _atom_site_fract_y
 _atom_site_fract_z
 _atom_site_occupancy
  Ca  Ca0  1  0.921279  0.784521  0.115247  1
  Ca  Ca1  1  0.579604  0.215554  0.614761  1
  Ca  Ca2  1  0.403504  0.725441  0.893014  1
  Ca  Ca3  1  0.096474  0.274735  0.393540  1
  As  As4  1  0.621731  0.270968  0.955417  1
  As  As5  1  0.877903  0.729100  0.455703  1
  As  As6  1  0.130982  0.232104  0.046430  1
  As  As7  1  0.369342  0.768261  0.546136  1
  W  W8  1  0.994223  0.465722  0.756503  1
  W  W9  1  0.505593  0.534270  0.256222  1
  W  W10  1  0.490642  0.031158  0.243185  1
  W  W11  1  0.009421  0.968759  0.743577  1
  O  O12  1  0.836307  0.200055  0.741069  1
  O  O13  1  0.663748  0.799691  0.240430  1
  O  O14  1  0.335429  0.303299  0.258523  1
  O  O15  1  0.164504  0.696494  0.758371  1
  O  O16  1  0.503148  0.359734  0.817040  1
  O  O17  1  0.996976  0.640030  0.317642  1
  O  O18  1  0.015943  0.139706  0.185525  1
  O  O19  1  0.484373  0.860377  0.685201  1
  O  O20  1  0.489201  0.054108  0.037131  1
  O  O21  1  0.010426  0.945630  0.537521  1
  O  O22  1  0.995019  0.448233  0.962581  1
  O  O23  1  0.505090  0.551770  0.462301  1
  O  O24  1  0.559792  0.515873  0.056130  1
  O  O25  1  0.938697  0.483913  0.556570  1
  O  O26  1  0.075118  0.985652  0.941963  1
  O  O27  1  0.425717  0.014469  0.441823  1
  O  O28  1  0.850405  0.736473  0.787838  1
  O  O29  1  0.649704  0.263653  0.287040  1
  O  O30  1  0.346149  0.766354  0.202958  1
  O  O31  1  0.153554  0.233897  0.702607  1
