# generated using pymatgen
data_Ni(WO4)2
_symmetry_space_group_name_H-M   'P 1'
_cell_length_a   4.91751700
_cell_length_b   6.64906934
_cell_length_c   5.95330227
_cell_angle_alpha   106.70713530
_cell_angle_beta   125.02491412
_cell_angle_gamma   90.33637627
_symmetry_Int_Tables_number   1
_chemical_formula_structural   Ni(WO4)2
_chemical_formula_sum   'Ni1 W2 O8'
_cell_volume   149.00742548
_cell_formula_units_Z   1
loop_
 _symmetry_equiv_pos_site_id
 _symmetry_equiv_pos_as_xyz
  1  'x, y, z'
loop_
 _atom_site_type_symbol
 _atom_site_label
 _atom_site_symmetry_multiplicity
 _atom_site_fract_x
 _atom_site_fract_y
 _atom_site_fract_z
 _atom_site_occupancy
  Ni  Ni0  1  0.124771  0.223241  0.099772  1
  W  W1  1  0.894463  0.404122  0.617792  1
  W  W2  1  0.354957  0.042341  0.581596  1
  O  O3  1  0.150489  0.659412  0.811869  1
  O  O4  1  0.488348  0.462928  0.341026  1
  O  O5  1  0.189527  0.192044  0.810663  1
  O  O6  1  0.454755  0.078118  0.319583  1
  O  O7  1  0.761032  0.983504  0.858389  1
  O  O8  1  0.098641  0.787116  0.387270  1
  O  O9  1  0.059920  0.254437  0.388770  1
  O  O10  1  0.794756  0.368369  0.879883  1
