# generated using pymatgen
data_ZnSi2SnO6
_symmetry_space_group_name_H-M   'P 1'
_cell_length_a   5.42986619
_cell_length_b   9.26288979
_cell_length_c   19.63756384
_cell_angle_alpha   90.00000000
_cell_angle_beta   90.00000000
_cell_angle_gamma   90.00000000
_symmetry_Int_Tables_number   1
_chemical_formula_structural   ZnSi2SnO6
_chemical_formula_sum   'Zn8 Si16 Sn8 O48'
_cell_volume   987.69586138
_cell_formula_units_Z   8
loop_
 _symmetry_equiv_pos_site_id
 _symmetry_equiv_pos_as_xyz
  1  'x, y, z'
loop_
 _atom_site_type_symbol
 _atom_site_label
 _atom_site_symmetry_multiplicity
 _atom_site_fract_x
 _atom_site_fract_y
 _atom_site_fract_z
 _atom_site_occupancy
  Zn  Zn0  1  0.619122  0.144292  0.626300  1
  Zn  Zn1  1  0.380878  0.855708  0.373700  1
  Zn  Zn2  1  0.619122  0.644292  0.873700  1
  Zn  Zn3  1  0.119122  0.855708  0.873700  1
  Zn  Zn4  1  0.880878  0.144292  0.126300  1
  Zn  Zn5  1  0.380878  0.355708  0.126300  1
  Zn  Zn6  1  0.119122  0.355708  0.626300  1
  Zn  Zn7  1  0.880878  0.644292  0.373700  1
  Si  Si8  1  0.522686  0.659994  0.235797  1
  Si  Si9  1  0.697080  0.838991  0.515060  1
  Si  Si10  1  0.802920  0.838991  0.015061  1
  Si  Si11  1  0.977314  0.159994  0.764203  1
  Si  Si12  1  0.022686  0.340006  0.264203  1
  Si  Si13  1  0.477314  0.840006  0.735797  1
  Si  Si14  1  0.197080  0.661009  0.515060  1
  Si  Si15  1  0.697080  0.338991  0.984940  1
  Si  Si16  1  0.802920  0.338991  0.484940  1
  Si  Si17  1  0.977314  0.659994  0.735797  1
  Si  Si18  1  0.477314  0.340006  0.764203  1
  Si  Si19  1  0.522686  0.159994  0.264203  1
  Si  Si20  1  0.302920  0.161009  0.484940  1
  Si  Si21  1  0.022686  0.840006  0.235797  1
  Si  Si22  1  0.302920  0.661009  0.015061  1
  Si  Si23  1  0.197080  0.161009  0.984940  1
  Sn  Sn24  1  0.381687  0.966804  0.120771  1
  Sn  Sn25  1  0.618313  0.033196  0.879229  1
  Sn  Sn26  1  0.881687  0.033196  0.379229  1
  Sn  Sn27  1  0.118313  0.966804  0.620771  1
  Sn  Sn28  1  0.381687  0.466804  0.379229  1
  Sn  Sn29  1  0.618313  0.533196  0.620771  1
  Sn  Sn30  1  0.881687  0.533196  0.120771  1
  Sn  Sn31  1  0.118313  0.466804  0.879229  1
  O  O32  1  0.958966  0.505679  0.696644  1
  O  O33  1  0.239769  0.006550  0.948005  1
  O  O34  1  0.041033  0.494321  0.303356  1
  O  O35  1  0.708162  0.336625  0.069498  1
  O  O36  1  0.208162  0.163375  0.069498  1
  O  O37  1  0.930940  0.232603  0.960506  1
  O  O38  1  0.959596  0.658255  0.820284  1
  O  O39  1  0.040404  0.841745  0.320284  1
  O  O40  1  0.708162  0.836625  0.430502  1
  O  O41  1  0.959596  0.158255  0.679716  1
  O  O42  1  0.458967  0.494321  0.803356  1
  O  O43  1  0.791838  0.336625  0.569498  1
  O  O44  1  0.760231  0.993450  0.051995  1
  O  O45  1  0.459596  0.841745  0.820284  1
  O  O46  1  0.541034  0.005679  0.303356  1
  O  O47  1  0.239769  0.506550  0.551995  1
  O  O48  1  0.458967  0.994321  0.696644  1
  O  O49  1  0.235282  0.741174  0.711950  1
  O  O50  1  0.264718  0.741174  0.211950  1
  O  O51  1  0.569060  0.732603  0.039494  1
  O  O52  1  0.791838  0.836625  0.930502  1
  O  O53  1  0.540404  0.658255  0.320284  1
  O  O54  1  0.739769  0.493450  0.948005  1
  O  O55  1  0.235282  0.241174  0.788050  1
  O  O56  1  0.291838  0.163375  0.569498  1
  O  O57  1  0.540404  0.158255  0.179716  1
  O  O58  1  0.760231  0.493450  0.448005  1
  O  O59  1  0.208162  0.663375  0.430502  1
  O  O60  1  0.260231  0.506550  0.051995  1
  O  O61  1  0.735282  0.758826  0.711950  1
  O  O62  1  0.041033  0.994321  0.196644  1
  O  O63  1  0.764718  0.758826  0.211950  1
  O  O64  1  0.764718  0.258826  0.288050  1
  O  O65  1  0.739769  0.993450  0.551995  1
  O  O66  1  0.291838  0.663375  0.930502  1
  O  O67  1  0.260231  0.006550  0.448005  1
  O  O68  1  0.264718  0.241174  0.288050  1
  O  O69  1  0.069060  0.767397  0.039494  1
  O  O70  1  0.430940  0.767397  0.539494  1
  O  O71  1  0.735282  0.258826  0.788050  1
  O  O72  1  0.430940  0.267397  0.960506  1
  O  O73  1  0.569060  0.232603  0.460506  1
  O  O74  1  0.069060  0.267397  0.460506  1
  O  O75  1  0.459596  0.341745  0.679716  1
  O  O76  1  0.541034  0.505679  0.196644  1
  O  O77  1  0.930940  0.732603  0.539494  1
  O  O78  1  0.040404  0.341745  0.179716  1
  O  O79  1  0.958966  0.005679  0.803356  1
