# generated using pymatgen
data_Ca(BiO2)2
_symmetry_space_group_name_H-M   'P 1'
_cell_length_a   7.07475056
_cell_length_b   7.05849055
_cell_length_c   7.05176033
_cell_angle_alpha   90.08117724
_cell_angle_beta   119.87489259
_cell_angle_gamma   119.88683322
_symmetry_Int_Tables_number   1
_chemical_formula_structural   Ca(BiO2)2
_chemical_formula_sum   'Ca2 Bi4 O8'
_cell_volume   249.72258004
_cell_formula_units_Z   2
loop_
 _symmetry_equiv_pos_site_id
 _symmetry_equiv_pos_as_xyz
  1  'x, y, z'
loop_
 _atom_site_type_symbol
 _atom_site_label
 _atom_site_symmetry_multiplicity
 _atom_site_fract_x
 _atom_site_fract_y
 _atom_site_fract_z
 _atom_site_occupancy
  Ca  Ca0  1  0.249743  0.125039  0.875177  1
  Ca  Ca1  1  0.750263  0.874779  0.124717  1
  Bi  Bi2  1  0.500486  -0.000026  0.499702  1
  Bi  Bi3  1  0.499926  0.499906  0.499983  1
  Bi  Bi4  1  0.999482  0.499485  0.999921  1
  Bi  Bi5  1  0.000231  0.500491  0.500101  1
  O  O6  1  0.017847  0.743997  0.258261  1
  O  O7  1  0.482403  0.742704  0.726045  1
  O  O8  1  0.482756  0.739758  0.255729  1
  O  O9  1  0.982891  0.727014  0.739872  1
  O  O10  1  0.518973  0.262096  0.745690  1
  O  O11  1  0.516904  0.257102  0.273783  1
  O  O12  1  0.016673  0.272719  0.259248  1
  O  O13  1  0.981423  0.254939  0.741771  1
