# generated using pymatgen
data_CaCu2(NiO4)2
_symmetry_space_group_name_H-M   'P 1'
_cell_length_a   6.39584045
_cell_length_b   8.50354679
_cell_length_c   12.12046037
_cell_angle_alpha   90.00000000
_cell_angle_beta   85.96147710
_cell_angle_gamma   90.00000000
_symmetry_Int_Tables_number   1
_chemical_formula_structural   CaCu2(NiO4)2
_chemical_formula_sum   'Ca4 Cu8 Ni8 O32'
_cell_volume   657.56261759
_cell_formula_units_Z   4
loop_
 _symmetry_equiv_pos_site_id
 _symmetry_equiv_pos_as_xyz
  1  'x, y, z'
loop_
 _atom_site_type_symbol
 _atom_site_label
 _atom_site_symmetry_multiplicity
 _atom_site_fract_x
 _atom_site_fract_y
 _atom_site_fract_z
 _atom_site_occupancy
  Ca  Ca0  1  0.169826  0.178751  0.015911  1
  Ca  Ca1  1  0.830174  0.821249  0.984089  1
  Ca  Ca2  1  0.830174  0.678751  0.484089  1
  Ca  Ca3  1  0.169826  0.321249  0.515911  1
  Cu  Cu4  1  0.731238  0.193969  0.882172  1
  Cu  Cu5  1  0.414904  0.039229  0.641491  1
  Cu  Cu6  1  0.585096  0.960771  0.358509  1
  Cu  Cu7  1  0.268762  0.806031  0.117828  1
  Cu  Cu8  1  0.731238  0.306031  0.382172  1
  Cu  Cu9  1  0.414904  0.460771  0.141491  1
  Cu  Cu10  1  0.268762  0.693969  0.617828  1
  Cu  Cu11  1  0.585096  0.539229  0.858509  1
  Ni  Ni12  1  0.080680  0.475608  0.826056  1
  Ni  Ni13  1  0.080680  0.024392  0.326056  1
  Ni  Ni14  1  0.614885  0.102051  0.135793  1
  Ni  Ni15  1  0.919320  0.975608  0.673944  1
  Ni  Ni16  1  0.385115  0.897949  0.864207  1
  Ni  Ni17  1  0.385115  0.602051  0.364207  1
  Ni  Ni18  1  0.614885  0.397949  0.635793  1
  Ni  Ni19  1  0.919320  0.524392  0.173944  1
  O  O20  1  0.989250  0.212687  0.379650  1
  O  O21  1  0.686037  0.976916  0.601339  1
  O  O22  1  0.185177  0.598706  0.480154  1
  O  O23  1  0.814823  0.098706  0.019846  1
  O  O24  1  0.989250  0.287313  0.879650  1
  O  O25  1  0.010750  0.787313  0.620350  1
  O  O26  1  0.139760  0.104942  0.650544  1
  O  O27  1  0.531343  0.899760  0.118791  1
  O  O28  1  0.531343  0.600240  0.618791  1
  O  O29  1  0.356749  0.852076  0.715532  1
  O  O30  1  0.643251  0.352076  0.784468  1
  O  O31  1  0.468657  0.100240  0.881209  1
  O  O32  1  0.860240  0.895058  0.349456  1
  O  O33  1  0.844700  0.511923  0.313865  1
  O  O34  1  0.472651  0.230769  0.580698  1
  O  O35  1  0.472651  0.269231  0.080698  1
  O  O36  1  0.155300  0.011923  0.186135  1
  O  O37  1  0.468657  0.399760  0.381209  1
  O  O38  1  0.155300  0.488077  0.686135  1
  O  O39  1  0.814823  0.401294  0.519846  1
  O  O40  1  0.686037  0.523084  0.101339  1
  O  O41  1  0.643251  0.147924  0.284468  1
  O  O42  1  0.010750  0.712687  0.120350  1
  O  O43  1  0.139760  0.395058  0.150544  1
  O  O44  1  0.185177  0.901294  0.980154  1
  O  O45  1  0.527349  0.730769  0.919302  1
  O  O46  1  0.313963  0.023084  0.398661  1
  O  O47  1  0.313963  0.476916  0.898661  1
  O  O48  1  0.860240  0.604942  0.849456  1
  O  O49  1  0.527349  0.769231  0.419302  1
  O  O50  1  0.356749  0.647924  0.215532  1
  O  O51  1  0.844700  0.988077  0.813865  1
