# generated using pymatgen
data_V2Zn(CuO4)2
_symmetry_space_group_name_H-M   'P 1'
_cell_length_a   6.51214990
_cell_length_b   8.42366768
_cell_length_c   11.83114664
_cell_angle_alpha   90.00000000
_cell_angle_beta   90.50814926
_cell_angle_gamma   90.00000000
_symmetry_Int_Tables_number   1
_chemical_formula_structural   V2Zn(CuO4)2
_chemical_formula_sum   'V8 Zn4 Cu8 O32'
_cell_volume   648.98606378
_cell_formula_units_Z   4
loop_
 _symmetry_equiv_pos_site_id
 _symmetry_equiv_pos_as_xyz
  1  'x, y, z'
loop_
 _atom_site_type_symbol
 _atom_site_label
 _atom_site_symmetry_multiplicity
 _atom_site_fract_x
 _atom_site_fract_y
 _atom_site_fract_z
 _atom_site_occupancy
  V  V0  1  0.101933  0.459167  0.845006  1
  V  V1  1  0.101933  0.040833  0.345006  1
  V  V2  1  0.607926  0.087964  0.134157  1
  V  V3  1  0.898067  0.959167  0.654994  1
  V  V4  1  0.392074  0.912036  0.865843  1
  V  V5  1  0.392074  0.587964  0.365843  1
  V  V6  1  0.607926  0.412036  0.634157  1
  V  V7  1  0.898067  0.540833  0.154994  1
  Zn  Zn8  1  0.108695  0.166052  0.052105  1
  Zn  Zn9  1  0.891305  0.833948  0.947895  1
  Zn  Zn10  1  0.891305  0.666052  0.447895  1
  Zn  Zn11  1  0.108695  0.333948  0.552105  1
  Cu  Cu12  1  0.764078  0.184089  0.872547  1
  Cu  Cu13  1  0.379662  0.058003  0.629905  1
  Cu  Cu14  1  0.620338  0.941997  0.370095  1
  Cu  Cu15  1  0.235922  0.815911  0.127453  1
  Cu  Cu16  1  0.764078  0.315911  0.372547  1
  Cu  Cu17  1  0.379662  0.441997  0.129905  1
  Cu  Cu18  1  0.235922  0.684089  0.627453  1
  Cu  Cu19  1  0.620338  0.558003  0.870095  1
  O  O20  1  0.036147  0.233614  0.396085  1
  O  O21  1  0.663202  0.013258  0.599106  1
  O  O22  1  0.192057  0.580718  0.469812  1
  O  O23  1  0.807943  0.080718  0.030188  1
  O  O24  1  0.036147  0.266386  0.896085  1
  O  O25  1  0.963853  0.766386  0.603915  1
  O  O26  1  0.086408  0.102959  0.616847  1
  O  O27  1  0.504977  0.903297  0.138979  1
  O  O28  1  0.504977  0.596703  0.638979  1
  O  O29  1  0.315335  0.868157  0.723681  1
  O  O30  1  0.684665  0.368157  0.776319  1
  O  O31  1  0.495023  0.096703  0.861021  1
  O  O32  1  0.913592  0.897041  0.383153  1
  O  O33  1  0.880281  0.538611  0.300023  1
  O  O34  1  0.418359  0.280328  0.587406  1
  O  O35  1  0.418359  0.219672  0.087406  1
  O  O36  1  0.119719  0.038611  0.199977  1
  O  O37  1  0.495023  0.403297  0.361021  1
  O  O38  1  0.119719  0.461389  0.699977  1
  O  O39  1  0.807943  0.419282  0.530188  1
  O  O40  1  0.663202  0.486742  0.099106  1
  O  O41  1  0.684665  0.131843  0.276319  1
  O  O42  1  0.963853  0.733614  0.103915  1
  O  O43  1  0.086408  0.397041  0.116847  1
  O  O44  1  0.192057  0.919282  0.969812  1
  O  O45  1  0.581641  0.780328  0.912594  1
  O  O46  1  0.336798  0.986742  0.400894  1
  O  O47  1  0.336798  0.513258  0.900894  1
  O  O48  1  0.913592  0.602959  0.883153  1
  O  O49  1  0.581641  0.719672  0.412594  1
  O  O50  1  0.315335  0.631843  0.223681  1
  O  O51  1  0.880281  0.961389  0.800023  1
