# generated using pymatgen
data_MnZn(SiO3)2
_symmetry_space_group_name_H-M   'P 1'
_cell_length_a   5.36365535
_cell_length_b   6.92087703
_cell_length_c   6.92087729
_cell_angle_alpha   87.16267773
_cell_angle_beta   75.28300024
_cell_angle_gamma   75.28300472
_symmetry_Int_Tables_number   1
_chemical_formula_structural   MnZn(SiO3)2
_chemical_formula_sum   'Mn2 Zn2 Si4 O12'
_cell_volume   240.29946106
_cell_formula_units_Z   2
loop_
 _symmetry_equiv_pos_site_id
 _symmetry_equiv_pos_as_xyz
  1  'x, y, z'
loop_
 _atom_site_type_symbol
 _atom_site_label
 _atom_site_symmetry_multiplicity
 _atom_site_fract_x
 _atom_site_fract_y
 _atom_site_fract_z
 _atom_site_occupancy
  Mn  Mn0  1  0.249995  0.108686  0.891324  1
  Mn  Mn1  1  0.749995  0.891325  0.108685  1
  Zn  Zn2  1  0.750003  0.241418  0.758571  1
  Zn  Zn3  1  0.250004  0.758571  0.241419  1
  Si  Si4  1  0.231158  0.216589  0.383671  1
  Si  Si5  1  0.268839  0.616332  0.783408  1
  Si  Si6  1  0.731158  0.383671  0.216589  1
  Si  Si7  1  0.768840  0.783408  0.616332  1
  O  O8  1  0.480949  0.318463  0.378021  1
  O  O9  1  0.019039  0.621972  0.681548  1
  O  O10  1  0.519040  0.681548  0.621973  1
  O  O11  1  0.980948  0.378022  0.318462  1
  O  O12  1  0.119724  0.151046  0.611944  1
  O  O13  1  0.380286  0.388059  0.848950  1
  O  O14  1  0.880286  0.848951  0.388060  1
  O  O15  1  0.619723  0.611944  0.151047  1
  O  O16  1  0.842503  0.216246  0.034223  1
  O  O17  1  0.657502  0.965777  0.783752  1
  O  O18  1  0.342502  0.034223  0.216247  1
  O  O19  1  0.157503  0.783753  0.965777  1
