# generated using pymatgen
data_ZnSbAs2SeO7
_symmetry_space_group_name_H-M   'P 1'
_cell_length_a   10.60798513
_cell_length_b   13.73413177
_cell_length_c   13.74898208
_cell_angle_alpha   81.39315153
_cell_angle_beta   67.27860362
_cell_angle_gamma   67.30886748
_symmetry_Int_Tables_number   1
_chemical_formula_structural   ZnSbAs2SeO7
_chemical_formula_sum   'Zn8 Sb8 As16 Se8 O56'
_cell_volume   1704.64274890
_cell_formula_units_Z   8
loop_
 _symmetry_equiv_pos_site_id
 _symmetry_equiv_pos_as_xyz
  1  'x, y, z'
loop_
 _atom_site_type_symbol
 _atom_site_label
 _atom_site_symmetry_multiplicity
 _atom_site_fract_x
 _atom_site_fract_y
 _atom_site_fract_z
 _atom_site_occupancy
  Zn  Zn0  1  0.185354  0.386129  0.347648  1
  Zn  Zn1  1  0.071154  0.347811  0.113848  1
  Zn  Zn2  1  0.466709  0.847849  0.614897  1
  Zn  Zn3  1  0.928846  0.652189  0.886152  1
  Zn  Zn4  1  0.814646  0.613871  0.652352  1
  Zn  Zn5  1  0.081774  0.886929  0.846294  1
  Zn  Zn6  1  0.533291  0.152151  0.385103  1
  Zn  Zn7  1  0.918226  0.113071  0.153706  1
  Sb  Sb8  1  0.263025  0.615583  0.757539  1
  Sb  Sb9  1  0.635260  0.884120  0.744109  1
  Sb  Sb10  1  0.736975  0.384417  0.242461  1
  Sb  Sb11  1  0.980170  0.257367  0.384102  1
  Sb  Sb12  1  0.364740  0.115880  0.255891  1
  Sb  Sb13  1  0.019830  0.742633  0.615898  1
  Sb  Sb14  1  0.622809  0.242198  0.114352  1
  Sb  Sb15  1  0.377191  0.757802  0.885648  1
  As  As16  1  0.625659  0.467495  0.832033  1
  As  As17  1  0.905687  0.589765  0.213788  1
  As  As18  1  0.291591  0.088754  0.714529  1
  As  As19  1  0.457634  0.668175  0.467840  1
  As  As20  1  0.120392  0.285484  0.589400  1
  As  As21  1  0.927692  0.032630  0.666383  1
  As  As22  1  0.407802  0.168921  0.967251  1
  As  As23  1  0.879607  0.714516  0.410600  1
  As  As24  1  0.592198  0.831079  0.032749  1
  As  As25  1  0.072308  0.967370  0.333617  1
  As  As26  1  0.094313  0.410235  0.786212  1
  As  As27  1  0.995614  0.213066  0.911406  1
  As  As28  1  0.374341  0.532505  0.167967  1
  As  As29  1  0.708409  0.911246  0.285471  1
  As  As30  1  0.004386  0.786934  0.088594  1
  As  As31  1  0.542366  0.331825  0.532160  1
  Se  Se32  1  0.744232  0.490014  0.498211  1
  Se  Se33  1  0.733818  0.008783  0.001470  1
  Se  Se34  1  0.756308  0.999083  0.511678  1
  Se  Se35  1  0.734247  0.498473  0.009752  1
  Se  Se36  1  0.243692  0.000917  0.488322  1
  Se  Se37  1  0.255768  0.509986  0.501789  1
  Se  Se38  1  0.265753  0.501527  0.990248  1
  Se  Se39  1  0.266182  0.991217  0.998530  1
  O  O40  1  0.934291  0.865006  0.990675  1
  O  O41  1  0.094740  0.125447  0.796662  1
  O  O42  1  0.626065  0.905885  0.598469  1
  O  O43  1  0.055920  0.045302  0.224610  1
  O  O44  1  0.031220  0.597251  0.594652  1
  O  O45  1  0.777977  0.096818  0.094089  1
  O  O46  1  0.416624  0.526832  0.863607  1
  O  O47  1  0.674178  0.545642  0.723242  1
  O  O48  1  0.057778  0.705401  0.751256  1
  O  O49  1  0.279862  0.277465  0.044852  1
  O  O50  1  0.736913  0.248709  0.205191  1
  O  O51  1  0.398246  0.776470  0.546156  1
  O  O52  1  0.905260  0.874553  0.203338  1
  O  O53  1  0.222023  0.903182  0.905911  1
  O  O54  1  0.926831  0.508164  0.863733  1
  O  O55  1  0.095288  0.949742  0.563564  1
  O  O56  1  0.983475  0.626681  0.295639  1
  O  O57  1  0.193673  0.025622  0.363429  1
  O  O58  1  0.073169  0.491836  0.136267  1
  O  O59  1  0.065709  0.134994  0.009325  1
  O  O60  1  0.555705  0.136660  0.027781  1
  O  O61  1  0.016525  0.373319  0.704362  1
  O  O62  1  0.944080  0.954698  0.775390  1
  O  O63  1  0.210055  0.363373  0.491464  1
  O  O64  1  0.389957  0.450780  0.065010  1
  O  O65  1  0.263087  0.751291  0.794809  1
  O  O66  1  0.513644  0.794764  0.749904  1
  O  O67  1  0.545236  0.564377  0.548974  1
  O  O68  1  0.191482  0.251386  0.293745  1
  O  O69  1  0.890055  0.704733  0.125650  1
  O  O70  1  0.942222  0.294599  0.248744  1
  O  O71  1  0.444295  0.863340  0.972219  1
  O  O72  1  0.454764  0.435623  0.451026  1
  O  O73  1  0.720088  0.796158  0.373457  1
  O  O74  1  0.601754  0.223530  0.453844  1
  O  O75  1  0.720246  0.363362  0.472674  1
  O  O76  1  0.373935  0.094115  0.401531  1
  O  O77  1  0.340575  0.065684  0.048224  1
  O  O78  1  0.659425  0.934316  0.951776  1
  O  O79  1  0.871196  0.405540  0.097139  1
  O  O80  1  0.583376  0.473168  0.136393  1
  O  O81  1  0.128804  0.594460  0.902861  1
  O  O82  1  0.808518  0.748614  0.706255  1
  O  O83  1  0.279754  0.636638  0.527326  1
  O  O84  1  0.904712  0.050258  0.436436  1
  O  O85  1  0.789945  0.636627  0.508536  1
  O  O86  1  0.610043  0.549220  0.934990  1
  O  O87  1  0.279912  0.203842  0.626543  1
  O  O88  1  0.325822  0.454358  0.276758  1
  O  O89  1  0.806327  0.974378  0.636571  1
  O  O90  1  0.298961  0.991157  0.637361  1
  O  O91  1  0.701039  0.008843  0.362639  1
  O  O92  1  0.968780  0.402749  0.405348  1
  O  O93  1  0.109945  0.295267  0.874350  1
  O  O94  1  0.486356  0.205236  0.250096  1
  O  O95  1  0.720138  0.722535  0.955148  1
