# generated using pymatgen
data_CaNi2O5
_symmetry_space_group_name_H-M   'P 1'
_cell_length_a   3.96893456
_cell_length_b   6.29740437
_cell_length_c   10.91613826
_cell_angle_alpha   90.00000000
_cell_angle_beta   90.00000000
_cell_angle_gamma   108.36833832
_symmetry_Int_Tables_number   1
_chemical_formula_structural   CaNi2O5
_chemical_formula_sum   'Ca2 Ni4 O10'
_cell_volume   258.93679922
_cell_formula_units_Z   2
loop_
 _symmetry_equiv_pos_site_id
 _symmetry_equiv_pos_as_xyz
  1  'x, y, z'
loop_
 _atom_site_type_symbol
 _atom_site_label
 _atom_site_symmetry_multiplicity
 _atom_site_fract_x
 _atom_site_fract_y
 _atom_site_fract_z
 _atom_site_occupancy
  Ca  Ca0  1  0.894898  0.789795  0.750000  1
  Ca  Ca1  1  0.105103  0.210206  0.250000  1
  Ni  Ni2  1  0.242064  0.484128  0.596989  1
  Ni  Ni3  1  0.757936  0.515873  0.403010  1
  Ni  Ni4  1  0.757936  0.515873  0.096990  1
  Ni  Ni5  1  0.242064  0.484128  0.903011  1
  O  O6  1  0.680091  0.360181  0.250000  1
  O  O7  1  0.319910  0.639820  0.750000  1
  O  O8  1  0.225809  0.451615  0.077124  1
  O  O9  1  0.774193  0.548386  0.922876  1
  O  O10  1  0.774193  0.548386  0.577124  1
  O  O11  1  0.225809  0.451615  0.422875  1
  O  O12  1  0.088993  0.177985  0.688211  1
  O  O13  1  0.911007  0.822014  0.311789  1
  O  O14  1  0.088993  0.177985  0.811789  1
  O  O15  1  0.911007  0.822014  0.188212  1
