# generated using pymatgen
data_CaTi2F10
_symmetry_space_group_name_H-M   'P 1'
_cell_length_a   5.63500413
_cell_length_b   5.63500399
_cell_length_c   7.79540756
_cell_angle_alpha   69.54640428
_cell_angle_beta   69.54639993
_cell_angle_gamma   72.01608901
_symmetry_Int_Tables_number   1
_chemical_formula_structural   CaTi2F10
_chemical_formula_sum   'Ca1 Ti2 F10'
_cell_volume   212.33522095
_cell_formula_units_Z   1
loop_
 _symmetry_equiv_pos_site_id
 _symmetry_equiv_pos_as_xyz
  1  'x, y, z'
loop_
 _atom_site_type_symbol
 _atom_site_label
 _atom_site_symmetry_multiplicity
 _atom_site_fract_x
 _atom_site_fract_y
 _atom_site_fract_z
 _atom_site_occupancy
  Ca  Ca0  1  0.457056  0.542944  0.750000  1
  Ti  Ti1  1  0.991038  0.995761  0.006552  1
  Ti  Ti2  1  0.004239  0.008962  0.493448  1
  F  F3  1  0.203519  0.248233  0.885716  1
  F  F4  1  0.751767  0.796481  0.614284  1
  F  F5  1  0.790653  0.761907  0.117640  1
  F  F6  1  0.238093  0.209347  0.382360  1
  F  F7  1  0.067993  0.932007  0.750000  1
  F  F8  1  0.945616  0.054384  0.250000  1
  F  F9  1  0.262441  0.707349  0.491774  1
  F  F10  1  0.292651  0.737559  0.008226  1
  F  F11  1  0.737765  0.283606  0.558173  1
  F  F12  1  0.716394  0.262235  0.941827  1
