# generated using pymatgen
data_Ba2AlFe3O7
_symmetry_space_group_name_H-M   'P 1'
_cell_length_a   3.68197715
_cell_length_b   4.49308013
_cell_length_c   11.07459722
_cell_angle_alpha   92.96561799
_cell_angle_beta   87.52638513
_cell_angle_gamma   91.35332059
_symmetry_Int_Tables_number   1
_chemical_formula_structural   Ba2AlFe3O7
_chemical_formula_sum   'Ba2 Al1 Fe3 O7'
_cell_volume   182.75385081
_cell_formula_units_Z   1
loop_
 _symmetry_equiv_pos_site_id
 _symmetry_equiv_pos_as_xyz
  1  'x, y, z'
loop_
 _atom_site_type_symbol
 _atom_site_label
 _atom_site_symmetry_multiplicity
 _atom_site_fract_x
 _atom_site_fract_y
 _atom_site_fract_z
 _atom_site_occupancy
  Ba  Ba0  1  0.514693  0.478583  0.816833  1
  Ba  Ba1  1  0.485559  0.521859  0.183405  1
  Al  Al2  1  0.493999  0.501221  0.498752  1
  Fe  Fe3  1  0.040695  0.960104  0.634801  1
  Fe  Fe4  1  0.955469  0.040518  0.367548  1
  Fe  Fe5  1  0.000390  0.000344  0.999655  1
  O  O6  1  0.999738  0.499734  0.998526  1
  O  O7  1  0.539162  0.818877  0.607208  1
  O  O8  1  0.459754  0.182880  0.392853  1
  O  O9  1  0.103974  0.374984  0.604854  1
  O  O10  1  0.903690  0.621932  0.399835  1
  O  O11  1  0.999301  0.973879  0.818860  1
  O  O12  1  0.003577  0.025086  0.176868  1
