# generated using pymatgen
data_Ba2TlFe2O7
_symmetry_space_group_name_H-M   'P 1'
_cell_length_a   3.76433287
_cell_length_b   3.76071530
_cell_length_c   13.40898847
_cell_angle_alpha   90.00002020
_cell_angle_beta   89.99939002
_cell_angle_gamma   90.00004506
_symmetry_Int_Tables_number   1
_chemical_formula_structural   Ba2TlFe2O7
_chemical_formula_sum   'Ba2 Tl1 Fe2 O7'
_cell_volume   189.82547456
_cell_formula_units_Z   1
loop_
 _symmetry_equiv_pos_site_id
 _symmetry_equiv_pos_as_xyz
  1  'x, y, z'
loop_
 _atom_site_type_symbol
 _atom_site_label
 _atom_site_symmetry_multiplicity
 _atom_site_fract_x
 _atom_site_fract_y
 _atom_site_fract_z
 _atom_site_occupancy
  Ba  Ba0  1  -0.000001  1.000000  0.706439  1
  Ba  Ba1  1  0.999991  0.000001  0.292741  1
  Tl  Tl2  1  0.499990  0.500002  0.499678  1
  Fe  Fe3  1  0.499998  0.500000  0.893142  1
  Fe  Fe4  1  0.500026  0.500000  0.107937  1
  O  O5  1  -0.000004  0.999998  0.499838  1
  O  O6  1  0.499989  0.000000  0.869385  1
  O  O7  1  -0.000003  0.500000  0.867989  1
  O  O8  1  0.500020  1.000000  0.133468  1
  O  O9  1  0.000009  0.500001  0.129767  1
  O  O10  1  0.500002  0.499999  0.655029  1
  O  O11  1  0.499979  0.500001  0.344551  1
