# generated using pymatgen
data_Y(VS2)2
_symmetry_space_group_name_H-M   'P 1'
_cell_length_a   7.43427835
_cell_length_b   7.43427788
_cell_length_c   7.44352741
_cell_angle_alpha   118.10622067
_cell_angle_beta   120.69982463
_cell_angle_gamma   90.98157170
_symmetry_Int_Tables_number   1
_chemical_formula_structural   Y(VS2)2
_chemical_formula_sum   'Y2 V4 S8'
_cell_volume   293.46799036
_cell_formula_units_Z   2
loop_
 _symmetry_equiv_pos_site_id
 _symmetry_equiv_pos_as_xyz
  1  'x, y, z'
loop_
 _atom_site_type_symbol
 _atom_site_label
 _atom_site_symmetry_multiplicity
 _atom_site_fract_x
 _atom_site_fract_y
 _atom_site_fract_z
 _atom_site_occupancy
  Y  Y0  1  0.000000  0.500001  0.000001  1
  Y  Y1  1  0.000001  0.000000  0.500000  1
  V  V2  1  0.363177  0.613177  0.750000  1
  V  V3  1  0.636823  0.386824  0.250000  1
  V  V4  1  0.500001  0.000000  0.500000  1
  V  V5  1  0.000000  0.000000  0.000000  1
  S  S6  1  0.739434  0.764847  0.526009  1
  S  S7  1  0.738840  0.213427  0.973993  1
  S  S8  1  0.248944  0.238164  0.009142  1
  S  S9  1  0.260566  0.235153  0.473992  1
  S  S10  1  0.270979  0.760198  0.509141  1
  S  S11  1  0.261160  0.786574  0.026009  1
  S  S12  1  0.729020  0.239801  0.490858  1
  S  S13  1  0.751056  0.761837  0.990858  1
