# generated using pymatgen
data_CaMnFeO5
_symmetry_space_group_name_H-M   'P 1'
_cell_length_a   5.41578278
_cell_length_b   5.66063895
_cell_length_c   13.99798814
_cell_angle_alpha   90.00200647
_cell_angle_beta   89.99244649
_cell_angle_gamma   90.01001287
_symmetry_Int_Tables_number   1
_chemical_formula_structural   CaMnFeO5
_chemical_formula_sum   'Ca4 Mn4 Fe4 O20'
_cell_volume   429.13338563
_cell_formula_units_Z   4
loop_
 _symmetry_equiv_pos_site_id
 _symmetry_equiv_pos_as_xyz
  1  'x, y, z'
loop_
 _atom_site_type_symbol
 _atom_site_label
 _atom_site_symmetry_multiplicity
 _atom_site_fract_x
 _atom_site_fract_y
 _atom_site_fract_z
 _atom_site_occupancy
  Ca  Ca0  1  0.994423  0.460226  0.097146  1
  Ca  Ca1  1  0.494612  0.039036  0.402744  1
  Ca  Ca2  1  0.505439  0.960412  0.903138  1
  Ca  Ca3  1  0.005899  0.539542  0.596942  1
  Mn  Mn4  1  0.998862  0.978004  0.003813  1
  Mn  Mn5  1  0.499055  0.521125  0.496214  1
  Mn  Mn6  1  0.500552  0.478338  0.996291  1
  Mn  Mn7  1  0.000531  0.020988  0.503610  1
  Fe  Fe8  1  0.054423  0.082063  0.751584  1
  Fe  Fe9  1  0.554306  0.419275  0.748333  1
  Fe  Fe10  1  0.446335  0.580750  0.248606  1
  Fe  Fe11  1  0.946153  0.918742  0.251528  1
  O  O12  1  0.745882  0.746373  0.019787  1
  O  O13  1  0.246238  0.753518  0.480081  1
  O  O14  1  0.753488  0.246482  0.980717  1
  O  O15  1  0.253413  0.253257  0.519046  1
  O  O16  1  0.247033  0.244413  0.983686  1
  O  O17  1  0.747307  0.255022  0.516578  1
  O  O18  1  0.252431  0.744451  0.016568  1
  O  O19  1  0.752637  0.755304  0.483702  1
  O  O20  1  0.974387  0.942487  0.866260  1
  O  O21  1  0.474734  0.558635  0.633618  1
  O  O22  1  0.524258  0.440812  0.133883  1
  O  O23  1  0.023128  0.060051  0.366044  1
  O  O24  1  0.011380  0.062763  0.136872  1
  O  O25  1  0.511824  0.436431  0.363231  1
  O  O26  1  0.489431  0.563271  0.863103  1
  O  O27  1  0.990353  0.936892  0.636931  1
  O  O28  1  0.896633  0.372682  0.739733  1
  O  O29  1  0.396776  0.128649  0.760407  1
  O  O30  1  0.603869  0.871848  0.259675  1
  O  O31  1  0.104206  0.628158  0.240128  1
