# generated using pymatgen
data_Pr(SbO3)2
_symmetry_space_group_name_H-M   'P 1'
_cell_length_a   5.60235062
_cell_length_b   5.80742794
_cell_length_c   8.03652693
_cell_angle_alpha   89.99535703
_cell_angle_beta   89.99355245
_cell_angle_gamma   89.98266649
_symmetry_Int_Tables_number   1
_chemical_formula_structural   Pr(SbO3)2
_chemical_formula_sum   'Pr2 Sb4 O12'
_cell_volume   261.47037810
_cell_formula_units_Z   2
loop_
 _symmetry_equiv_pos_site_id
 _symmetry_equiv_pos_as_xyz
  1  'x, y, z'
loop_
 _atom_site_type_symbol
 _atom_site_label
 _atom_site_symmetry_multiplicity
 _atom_site_fract_x
 _atom_site_fract_y
 _atom_site_fract_z
 _atom_site_occupancy
  Pr  Pr0  1  0.018559  0.939669  0.750010  1
  Pr  Pr1  1  0.518436  0.560327  0.249985  1
  Sb  Sb2  1  0.004068  0.487401  0.999383  1
  Sb  Sb3  1  0.004106  0.487424  0.500585  1
  Sb  Sb4  1  0.504208  0.012619  0.499400  1
  Sb  Sb5  1  0.504232  0.012605  0.000589  1
  O  O6  1  0.098086  0.485436  0.250084  1
  O  O7  1  0.203040  0.201425  0.949754  1
  O  O8  1  0.202970  0.201382  0.550262  1
  O  O9  1  0.272004  0.731297  0.536360  1
  O  O10  1  0.271864  0.731250  0.963624  1
  O  O11  1  0.435604  0.976567  0.249947  1
  O  O12  1  0.598143  0.014683  0.750066  1
  O  O13  1  0.703043  0.298609  0.050362  1
  O  O14  1  0.702931  0.298583  0.449656  1
  O  O15  1  0.771990  0.768665  0.036369  1
  O  O16  1  0.771995  0.768675  0.463604  1
  O  O17  1  0.935592  0.523384  0.749963  1
