# generated using pymatgen
data_Al2V3(SiO4)3
_symmetry_space_group_name_H-M   'P 1'
_cell_length_a   10.17775690
_cell_length_b   10.17775648
_cell_length_c   10.17775660
_cell_angle_alpha   109.47122085
_cell_angle_beta   109.47122001
_cell_angle_gamma   109.47122208
_symmetry_Int_Tables_number   1
_chemical_formula_structural   Al2V3(SiO4)3
_chemical_formula_sum   'Al8 V12 Si12 O48'
_cell_volume   811.58552632
_cell_formula_units_Z   4
loop_
 _symmetry_equiv_pos_site_id
 _symmetry_equiv_pos_as_xyz
  1  'x, y, z'
loop_
 _atom_site_type_symbol
 _atom_site_label
 _atom_site_symmetry_multiplicity
 _atom_site_fract_x
 _atom_site_fract_y
 _atom_site_fract_z
 _atom_site_occupancy
  Al  Al0  1  0.500000  0.000000  0.000000  1
  Al  Al1  1  0.000000  0.000000  0.000000  1
  Al  Al2  1  0.000000  0.500000  0.000000  1
  Al  Al3  1  0.000000  0.000000  0.500000  1
  Al  Al4  1  0.000000  0.500000  0.500001  1
  Al  Al5  1  0.500000  0.000000  0.500001  1
  Al  Al6  1  0.500000  0.500000  0.000000  1
  Al  Al7  1  0.500000  0.500000  0.500000  1
  V  V8  1  0.250000  0.875001  0.625000  1
  V  V9  1  0.875000  0.625000  0.250000  1
  V  V10  1  0.625001  0.875001  0.750001  1
  V  V11  1  0.875001  0.750001  0.625001  1
  V  V12  1  0.625000  0.250000  0.875000  1
  V  V13  1  0.750000  0.625000  0.875000  1
  V  V14  1  0.750000  0.125000  0.375000  1
  V  V15  1  0.125000  0.375000  0.750000  1
  V  V16  1  0.375000  0.125000  0.250000  1
  V  V17  1  0.125000  0.250000  0.375000  1
  V  V18  1  0.375000  0.750001  0.125000  1
  V  V19  1  0.250000  0.375000  0.125000  1
  Si  Si20  1  0.250000  0.125000  0.875000  1
  Si  Si21  1  0.875000  0.250000  0.125000  1
  Si  Si22  1  0.625000  0.750001  0.375000  1
  Si  Si23  1  0.250000  0.625000  0.375001  1
  Si  Si24  1  0.375000  0.625000  0.750000  1
  Si  Si25  1  0.750000  0.375000  0.625000  1
  Si  Si26  1  0.875000  0.125000  0.750000  1
  Si  Si27  1  0.125000  0.750001  0.875000  1
  Si  Si28  1  0.125000  0.875001  0.250000  1
  Si  Si29  1  0.625000  0.375000  0.250000  1
  Si  Si30  1  0.375000  0.250000  0.625000  1
  Si  Si31  1  0.750000  0.875001  0.125000  1
  O  O32  1  0.300240  0.487748  0.381710  1
  O  O33  1  0.012252  0.312493  0.893962  1
  O  O34  1  0.118290  0.606038  0.918531  1
  O  O35  1  0.199759  0.581469  0.187507  1
  O  O36  1  0.199759  0.118289  0.012251  1
  O  O37  1  0.581468  0.187506  0.199759  1
  O  O38  1  0.606037  0.187506  0.487748  1
  O  O39  1  0.187507  0.199759  0.581470  1
  O  O40  1  0.893963  0.381710  0.581469  1
  O  O41  1  0.312494  0.918531  0.300241  1
  O  O42  1  0.918531  0.300241  0.312494  1
  O  O43  1  0.012252  0.199759  0.118289  1
  O  O44  1  0.187507  0.487748  0.606038  1
  O  O45  1  0.581469  0.893963  0.381711  1
  O  O46  1  0.118289  0.012251  0.199759  1
  O  O47  1  0.487748  0.606038  0.187506  1
  O  O48  1  0.381710  0.581469  0.893962  1
  O  O49  1  0.893962  0.012251  0.312493  1
  O  O50  1  0.606037  0.918531  0.118290  1
  O  O51  1  0.106037  0.618289  0.418531  1
  O  O52  1  0.487748  0.381710  0.300240  1
  O  O53  1  0.381710  0.300241  0.487748  1
  O  O54  1  0.312494  0.893963  0.012252  1
  O  O55  1  0.300240  0.312493  0.918530  1
  O  O56  1  0.699759  0.512251  0.618290  1
  O  O57  1  0.987748  0.687506  0.106037  1
  O  O58  1  0.881711  0.393963  0.081469  1
  O  O59  1  0.800241  0.418531  0.812494  1
  O  O60  1  0.800240  0.881711  0.987749  1
  O  O61  1  0.418531  0.812493  0.800240  1
  O  O62  1  0.393963  0.812493  0.512251  1
  O  O63  1  0.812494  0.800241  0.418531  1
  O  O64  1  0.699759  0.687506  0.081469  1
  O  O65  1  0.687507  0.106038  0.987748  1
  O  O66  1  0.618289  0.699760  0.512252  1
  O  O67  1  0.512252  0.618289  0.699759  1
  O  O68  1  0.081469  0.881711  0.393962  1
  O  O69  1  0.393962  0.081468  0.881710  1
  O  O70  1  0.106038  0.987748  0.687506  1
  O  O71  1  0.618290  0.418531  0.106037  1
  O  O72  1  0.512252  0.393963  0.812494  1
  O  O73  1  0.881711  0.987748  0.800241  1
  O  O74  1  0.418532  0.106038  0.618290  1
  O  O75  1  0.812493  0.512251  0.393963  1
  O  O76  1  0.987748  0.800241  0.881711  1
  O  O77  1  0.081470  0.699760  0.687507  1
  O  O78  1  0.687506  0.081468  0.699759  1
  O  O79  1  0.918531  0.118289  0.606037  1
