# generated using pymatgen
data_Ba2Mg3Ti4Tl2O12
_symmetry_space_group_name_H-M   'P 1'
_cell_length_a   3.88220759
_cell_length_b   3.88220752
_cell_length_c   22.88727478
_cell_angle_alpha   94.86518070
_cell_angle_beta   94.86518136
_cell_angle_gamma   89.99999521
_symmetry_Int_Tables_number   1
_chemical_formula_structural   Ba2Mg3Ti4Tl2O12
_chemical_formula_sum   'Ba2 Mg3 Ti4 Tl2 O12'
_cell_volume   342.45619530
_cell_formula_units_Z   1
loop_
 _symmetry_equiv_pos_site_id
 _symmetry_equiv_pos_as_xyz
  1  'x, y, z'
loop_
 _atom_site_type_symbol
 _atom_site_label
 _atom_site_symmetry_multiplicity
 _atom_site_fract_x
 _atom_site_fract_y
 _atom_site_fract_z
 _atom_site_occupancy
  Ba  Ba0  1  0.172548  0.172548  0.345095  1
  Ba  Ba1  1  0.827452  0.827452  0.654905  1
  Mg  Mg2  1  0.078492  0.078492  0.156985  1
  Mg  Mg3  1  0.921508  0.921508  0.843015  1
  Mg  Mg4  1  0.000000  0.000000  0.000000  1
  Ti  Ti5  1  0.529474  0.529474  0.058948  1
  Ti  Ti6  1  0.390311  0.390311  0.780622  1
  Ti  Ti7  1  0.609689  0.609689  0.219378  1
  Ti  Ti8  1  0.470526  0.470526  0.941052  1
  Tl  Tl9  1  0.724380  0.724380  0.448758  1
  Tl  Tl10  1  0.275620  0.275620  0.551242  1
  O  O11  1  0.402573  0.902573  0.805147  1
  O  O12  1  0.531308  0.031308  0.062617  1
  O  O13  1  0.225899  0.225899  0.451797  1
  O  O14  1  0.968692  0.468692  0.937383  1
  O  O15  1  0.774101  0.774101  0.548203  1
  O  O16  1  0.097427  0.597427  0.194853  1
  O  O17  1  0.597427  0.097427  0.194853  1
  O  O18  1  0.350796  0.350796  0.701592  1
  O  O19  1  0.902573  0.402573  0.805147  1
  O  O20  1  0.031308  0.531308  0.062617  1
  O  O21  1  0.468692  0.968692  0.937383  1
  O  O22  1  0.649204  0.649204  0.298408  1
