# generated using pymatgen
data_CaMn2CoO7
_symmetry_space_group_name_H-M   'P 1'
_cell_length_a   6.79467100
_cell_length_b   11.09862395
_cell_length_c   14.50396595
_cell_angle_alpha   90.00000000
_cell_angle_beta   90.00000000
_cell_angle_gamma   101.18135554
_symmetry_Int_Tables_number   1
_chemical_formula_structural   CaMn2CoO7
_chemical_formula_sum   'Ca8 Mn16 Co8 O56'
_cell_volume   1073.00427752
_cell_formula_units_Z   8
loop_
 _symmetry_equiv_pos_site_id
 _symmetry_equiv_pos_as_xyz
  1  'x, y, z'
loop_
 _atom_site_type_symbol
 _atom_site_label
 _atom_site_symmetry_multiplicity
 _atom_site_fract_x
 _atom_site_fract_y
 _atom_site_fract_z
 _atom_site_occupancy
  Ca  Ca0  1  0.083219  0.737281  0.507935  1
  Ca  Ca1  1  0.322721  0.977112  0.873885  1
  Ca  Ca2  1  0.677279  0.522888  0.373885  1
  Ca  Ca3  1  0.677279  0.022888  0.126115  1
  Ca  Ca4  1  0.322721  0.477112  0.626115  1
  Ca  Ca5  1  0.083219  0.237281  0.992065  1
  Ca  Ca6  1  0.916781  0.262719  0.492065  1
  Ca  Ca7  1  0.916781  0.762719  0.007935  1
  Mn  Mn8  1  0.834276  0.980358  0.869025  1
  Mn  Mn9  1  0.414151  0.685196  0.015592  1
  Mn  Mn10  1  0.414151  0.185196  0.484408  1
  Mn  Mn11  1  0.585849  0.314804  0.984408  1
  Mn  Mn12  1  0.503401  0.797224  0.709731  1
  Mn  Mn13  1  0.496599  0.702776  0.209731  1
  Mn  Mn14  1  0.496599  0.202776  0.290269  1
  Mn  Mn15  1  0.503401  0.297224  0.790269  1
  Mn  Mn16  1  0.585849  0.814804  0.515592  1
  Mn  Mn17  1  0.871936  0.477252  0.141394  1
  Mn  Mn18  1  0.128064  0.022748  0.641394  1
  Mn  Mn19  1  0.128064  0.522748  0.858606  1
  Mn  Mn20  1  0.165724  0.519642  0.369025  1
  Mn  Mn21  1  0.834276  0.480358  0.630975  1
  Mn  Mn22  1  0.165724  0.019642  0.130975  1
  Mn  Mn23  1  0.871936  0.977252  0.358606  1
  Co  Co24  1  0.630064  0.075380  0.674597  1
  Co  Co25  1  0.369936  0.424620  0.174597  1
  Co  Co26  1  0.369936  0.924620  0.325403  1
  Co  Co27  1  0.630064  0.575380  0.825403  1
  Co  Co28  1  0.993480  0.252825  0.753831  1
  Co  Co29  1  0.006520  0.247175  0.253831  1
  Co  Co30  1  0.006520  0.747175  0.246169  1
  Co  Co31  1  0.993480  0.752825  0.746169  1
  O  O32  1  0.760435  0.957748  0.978987  1
  O  O33  1  0.239565  0.542252  0.478987  1
  O  O34  1  0.239565  0.042252  0.021013  1
  O  O35  1  0.760435  0.457748  0.521013  1
  O  O36  1  0.985405  0.871578  0.856264  1
  O  O37  1  0.014595  0.628422  0.356264  1
  O  O38  1  0.014595  0.128422  0.143736  1
  O  O39  1  0.985405  0.371578  0.643736  1
  O  O40  1  0.999302  0.116863  0.855274  1
  O  O41  1  0.000698  0.383137  0.355274  1
  O  O42  1  0.000698  0.883137  0.144726  1
  O  O43  1  0.999302  0.616863  0.644726  1
  O  O44  1  0.668203  0.949540  0.286151  1
  O  O45  1  0.331797  0.550460  0.786151  1
  O  O46  1  0.331797  0.050460  0.713849  1
  O  O47  1  0.668203  0.449540  0.213849  1
  O  O48  1  0.976797  0.133026  0.359027  1
  O  O49  1  0.023203  0.366974  0.859027  1
  O  O50  1  0.023203  0.866974  0.640973  1
  O  O51  1  0.976797  0.633026  0.140973  1
  O  O52  1  0.050021  0.883331  0.340841  1
  O  O53  1  0.391324  0.827546  0.441037  1
  O  O54  1  0.949979  0.616669  0.840841  1
  O  O55  1  0.050021  0.383331  0.159159  1
  O  O56  1  0.724263  0.709923  0.482253  1
  O  O57  1  0.275737  0.790077  0.982253  1
  O  O58  1  0.275737  0.290077  0.517747  1
  O  O59  1  0.724263  0.209923  0.017747  1
  O  O60  1  0.774072  0.954207  0.467630  1
  O  O61  1  0.225928  0.545793  0.967630  1
  O  O62  1  0.225928  0.045793  0.532370  1
  O  O63  1  0.774072  0.454207  0.032370  1
  O  O64  1  0.415508  0.207684  0.896919  1
  O  O65  1  0.584492  0.292316  0.396919  1
  O  O66  1  0.584492  0.792316  0.103081  1
  O  O67  1  0.415508  0.707684  0.603081  1
  O  O68  1  0.710404  0.216037  0.758242  1
  O  O69  1  0.289596  0.283963  0.258242  1
  O  O70  1  0.289596  0.783963  0.241758  1
  O  O71  1  0.710404  0.716037  0.741758  1
  O  O72  1  0.625673  0.450916  0.705864  1
  O  O73  1  0.374327  0.049084  0.205864  1
  O  O74  1  0.374327  0.549084  0.294136  1
  O  O75  1  0.625673  0.950916  0.794136  1
  O  O76  1  0.269859  0.294818  0.733318  1
  O  O77  1  0.730141  0.205182  0.233318  1
  O  O78  1  0.730141  0.705182  0.266682  1
  O  O79  1  0.269859  0.794818  0.766682  1
  O  O80  1  0.617152  0.410708  0.880631  1
  O  O81  1  0.382848  0.089292  0.380631  1
  O  O82  1  0.382848  0.589292  0.119369  1
  O  O83  1  0.617152  0.910708  0.619369  1
  O  O84  1  0.391324  0.327546  0.058963  1
  O  O85  1  0.608676  0.172454  0.558963  1
  O  O86  1  0.608676  0.672454  0.941037  1
  O  O87  1  0.949979  0.116669  0.659159  1
