# generated using pymatgen
data_HoMg(FeO3)2
_symmetry_space_group_name_H-M   'P 1'
_cell_length_a   5.18843120
_cell_length_b   5.45249242
_cell_length_c   7.56880986
_cell_angle_alpha   90.00102600
_cell_angle_beta   89.99971221
_cell_angle_gamma   89.99253823
_symmetry_Int_Tables_number   1
_chemical_formula_structural   HoMg(FeO3)2
_chemical_formula_sum   'Ho2 Mg2 Fe4 O12'
_cell_volume   214.12073450
_cell_formula_units_Z   2
loop_
 _symmetry_equiv_pos_site_id
 _symmetry_equiv_pos_as_xyz
  1  'x, y, z'
loop_
 _atom_site_type_symbol
 _atom_site_label
 _atom_site_symmetry_multiplicity
 _atom_site_fract_x
 _atom_site_fract_y
 _atom_site_fract_z
 _atom_site_occupancy
  Ho  Ho0  1  0.016645  0.932183  0.749983  1
  Ho  Ho1  1  0.516639  0.567904  0.249925  1
  Mg  Mg2  1  0.484641  0.439359  0.749900  1
  Mg  Mg3  1  0.984624  0.060562  0.249850  1
  Fe  Fe4  1  0.000819  0.493475  0.998833  1
  Fe  Fe5  1  0.000676  0.493507  0.501182  1
  Fe  Fe6  1  0.500755  0.006512  0.498836  1
  Fe  Fe7  1  0.500759  0.006496  0.001190  1
  O  O8  1  0.107534  0.448491  0.250105  1
  O  O9  1  0.197999  0.197152  0.938731  1
  O  O10  1  0.197902  0.197288  0.561390  1
  O  O11  1  0.310950  0.687949  0.939170  1
  O  O12  1  0.310570  0.687839  0.560966  1
  O  O13  1  0.372057  0.962311  0.249931  1
  O  O14  1  0.607621  0.051544  0.750063  1
  O  O15  1  0.697995  0.302949  0.438702  1
  O  O16  1  0.698031  0.302797  0.061356  1
  O  O17  1  0.810750  0.812106  0.060885  1
  O  O18  1  0.810911  0.811915  0.439106  1
  O  O19  1  0.872120  0.537660  0.749894  1
