# generated using pymatgen
data_Zn2FeN2
_symmetry_space_group_name_H-M   'P 1'
_cell_length_a   3.73789326
_cell_length_b   6.44371277
_cell_length_c   5.90548553
_cell_angle_alpha   71.21938445
_cell_angle_beta   71.41468064
_cell_angle_gamma   73.07336159
_symmetry_Int_Tables_number   1
_chemical_formula_structural   Zn2FeN2
_chemical_formula_sum   'Zn4 Fe2 N4'
_cell_volume   124.79420644
_cell_formula_units_Z   2
loop_
 _symmetry_equiv_pos_site_id
 _symmetry_equiv_pos_as_xyz
  1  'x, y, z'
loop_
 _atom_site_type_symbol
 _atom_site_label
 _atom_site_symmetry_multiplicity
 _atom_site_fract_x
 _atom_site_fract_y
 _atom_site_fract_z
 _atom_site_occupancy
  Zn  Zn0  1  0.690172  0.215337  0.410121  1
  Zn  Zn1  1  0.322836  0.782546  0.589617  1
  Zn  Zn2  1  0.059788  0.662219  0.229456  1
  Zn  Zn3  1  0.957613  0.335956  0.761880  1
  Fe  Fe4  1  0.374051  0.126802  0.131575  1
  Fe  Fe5  1  0.637606  0.872167  0.866635  1
  N  N6  1  0.175045  0.327616  0.328142  1
  N  N7  1  0.835893  0.671296  0.673901  1
  N  N8  1  0.513258  0.190093  0.795340  1
  N  N9  1  0.498060  0.810502  0.205272  1
