# generated using pymatgen
data_Sr2YTlCo2O7
_symmetry_space_group_name_H-M   'P 1'
_cell_length_a   3.85669047
_cell_length_b   3.85668585
_cell_length_c   12.22365081
_cell_angle_alpha   90.00000000
_cell_angle_beta   90.00000000
_cell_angle_gamma   90.00000000
_symmetry_Int_Tables_number   1
_chemical_formula_structural   Sr2YTlCo2O7
_chemical_formula_sum   'Sr2 Y1 Tl1 Co2 O7'
_cell_volume   181.81511465
_cell_formula_units_Z   1
loop_
 _symmetry_equiv_pos_site_id
 _symmetry_equiv_pos_as_xyz
  1  'x, y, z'
loop_
 _atom_site_type_symbol
 _atom_site_label
 _atom_site_symmetry_multiplicity
 _atom_site_fract_x
 _atom_site_fract_y
 _atom_site_fract_z
 _atom_site_occupancy
  Sr  Sr0  1  0.500000  0.500000  0.794750  1
  Sr  Sr1  1  0.500000  0.500000  0.205250  1
  Y  Y2  1  0.500000  0.500000  0.500000  1
  Tl  Tl3  1  0.000000  0.000000  0.000000  1
  Co  Co4  1  0.000000  0.000000  0.646066  1
  Co  Co5  1  0.000000  0.000000  0.353934  1
  O  O6  1  0.500000  0.000000  0.618873  1
  O  O7  1  0.000000  0.500000  0.618873  1
  O  O8  1  0.500000  0.000000  0.381127  1
  O  O9  1  0.000000  0.500000  0.381127  1
  O  O10  1  0.000000  0.000000  0.818422  1
  O  O11  1  0.000000  0.000000  0.181578  1
  O  O12  1  0.500000  0.500000  0.000000  1
