# generated using pymatgen
data_Mg2Fe2O5
_symmetry_space_group_name_H-M   'P 1'
_cell_length_a   3.53551081
_cell_length_b   5.60980953
_cell_length_c   10.60172907
_cell_angle_alpha   90.00576490
_cell_angle_beta   90.00009483
_cell_angle_gamma   90.00004381
_symmetry_Int_Tables_number   1
_chemical_formula_structural   Mg2Fe2O5
_chemical_formula_sum   'Mg4 Fe4 O10'
_cell_volume   210.26984020
_cell_formula_units_Z   2
loop_
 _symmetry_equiv_pos_site_id
 _symmetry_equiv_pos_as_xyz
  1  'x, y, z'
loop_
 _atom_site_type_symbol
 _atom_site_label
 _atom_site_symmetry_multiplicity
 _atom_site_fract_x
 _atom_site_fract_y
 _atom_site_fract_z
 _atom_site_occupancy
  Mg  Mg0  1  0.500000  0.291298  0.902408  1
  Mg  Mg1  1  0.500001  0.708602  0.097613  1
  Mg  Mg2  1  0.500001  0.791441  0.597641  1
  Mg  Mg3  1  0.500002  0.208576  0.402364  1
  Fe  Fe4  1  -0.000002  0.260392  0.639828  1
  Fe  Fe5  1  0.000002  0.739613  0.360152  1
  Fe  Fe6  1  -0.000004  0.239725  0.139819  1
  Fe  Fe7  1  0.999997  0.760266  0.860177  1
  O  O8  1  0.999998  0.500001  0.499987  1
  O  O9  1  0.000002  0.139566  0.309462  1
  O  O10  1  0.000001  0.639619  0.190562  1
  O  O11  1  0.000000  0.360447  0.809444  1
  O  O12  1  0.500002  0.334114  0.090378  1
  O  O13  1  0.500000  0.665792  0.909670  1
  O  O14  1  0.000002  0.860424  0.690558  1
  O  O15  1  0.500002  0.165921  0.590327  1
  O  O16  1  0.000002  0.000084  0.999937  1
  O  O17  1  0.500002  0.834118  0.409674  1
