# generated using pymatgen
data_YNiF5
_symmetry_space_group_name_H-M   'P 1'
_cell_length_a   4.17300710
_cell_length_b   5.73212413
_cell_length_c   5.73212369
_cell_angle_alpha   74.11886762
_cell_angle_beta   68.65384177
_cell_angle_gamma   68.65382832
_symmetry_Int_Tables_number   1
_chemical_formula_structural   YNiF5
_chemical_formula_sum   'Y1 Ni1 F5'
_cell_volume   117.36139529
_cell_formula_units_Z   1
loop_
 _symmetry_equiv_pos_site_id
 _symmetry_equiv_pos_as_xyz
  1  'x, y, z'
loop_
 _atom_site_type_symbol
 _atom_site_label
 _atom_site_symmetry_multiplicity
 _atom_site_fract_x
 _atom_site_fract_y
 _atom_site_fract_z
 _atom_site_occupancy
  Y  Y0  1  0.500000  0.500000  0.500000  1
  Ni  Ni1  1  0.000000  0.000000  0.000000  1
  F  F2  1  0.500000  0.817147  0.182853  1
  F  F3  1  0.500000  0.182853  0.817147  1
  F  F4  1  0.769684  0.230316  0.230316  1
  F  F5  1  0.230316  0.769684  0.769684  1
  F  F6  1  0.000000  0.500000  0.500000  1
