# generated using pymatgen
data_ZnFe2O5
_symmetry_space_group_name_H-M   'P 1'
_cell_length_a   3.75862899
_cell_length_b   5.57547477
_cell_length_c   11.03824192
_cell_angle_alpha   90.00000000
_cell_angle_beta   90.00000000
_cell_angle_gamma   109.69833777
_symmetry_Int_Tables_number   1
_chemical_formula_structural   ZnFe2O5
_chemical_formula_sum   'Zn2 Fe4 O10'
_cell_volume   217.78224478
_cell_formula_units_Z   2
loop_
 _symmetry_equiv_pos_site_id
 _symmetry_equiv_pos_as_xyz
  1  'x, y, z'
loop_
 _atom_site_type_symbol
 _atom_site_label
 _atom_site_symmetry_multiplicity
 _atom_site_fract_x
 _atom_site_fract_y
 _atom_site_fract_z
 _atom_site_occupancy
  Zn  Zn0  1  0.893815  0.787630  0.750000  1
  Zn  Zn1  1  0.106186  0.212371  0.250000  1
  Fe  Fe2  1  0.202833  0.405666  0.599865  1
  Fe  Fe3  1  0.797168  0.594335  0.400134  1
  Fe  Fe4  1  0.797168  0.594335  0.099866  1
  Fe  Fe5  1  0.202833  0.405666  0.900135  1
  O  O6  1  0.693387  0.386773  0.250000  1
  O  O7  1  0.306614  0.613228  0.750000  1
  O  O8  1  0.248248  0.496494  0.076022  1
  O  O9  1  0.751754  0.503507  0.923978  1
  O  O10  1  0.751754  0.503507  0.576022  1
  O  O11  1  0.248248  0.496494  0.423977  1
  O  O12  1  0.036907  0.073813  0.637501  1
  O  O13  1  0.963093  0.926186  0.362499  1
  O  O14  1  0.036907  0.073813  0.862499  1
  O  O15  1  0.963093  0.926186  0.137502  1
