# generated using pymatgen
data_Ba2Ti2F11
_symmetry_space_group_name_H-M   'P 1'
_cell_length_a   7.67639511
_cell_length_b   7.67639502
_cell_length_c   14.06669966
_cell_angle_alpha   90.00000000
_cell_angle_beta   90.00000000
_cell_angle_gamma   119.99999215
_symmetry_Int_Tables_number   1
_chemical_formula_structural   Ba2Ti2F11
_chemical_formula_sum   'Ba6 Ti6 F33'
_cell_volume   717.85629954
_cell_formula_units_Z   3
loop_
 _symmetry_equiv_pos_site_id
 _symmetry_equiv_pos_as_xyz
  1  'x, y, z'
loop_
 _atom_site_type_symbol
 _atom_site_label
 _atom_site_symmetry_multiplicity
 _atom_site_fract_x
 _atom_site_fract_y
 _atom_site_fract_z
 _atom_site_occupancy
  Ba  Ba0  1  0.526469  0.156458  0.664032  1
  Ba  Ba1  1  0.138259  0.426334  0.811342  1
  Ba  Ba2  1  0.629989  0.473531  0.997365  1
  Ba  Ba3  1  0.573666  0.711925  0.478008  1
  Ba  Ba4  1  0.288075  0.861741  0.144675  1
  Ba  Ba5  1  0.843542  0.370011  0.330698  1
  Ti  Ti6  1  0.571926  0.981422  0.902947  1
  Ti  Ti7  1  0.847961  0.799302  0.731186  1
  Ti  Ti8  1  0.200698  0.048658  0.397852  1
  Ti  Ti9  1  0.409497  0.428074  0.236280  1
  Ti  Ti10  1  0.951342  0.152039  0.064519  1
  Ti  Ti11  1  0.018578  0.590502  0.569613  1
  F  F12  1  0.662305  0.066398  0.045558  1
  F  F13  1  0.473276  0.713296  0.949225  1
  F  F14  1  0.404095  0.337695  0.378891  1
  F  F15  1  0.134146  0.495342  0.477027  1
  F  F16  1  0.544237  0.290339  0.182478  1
  F  F17  1  0.951577  0.579571  0.175968  1
  F  F18  1  0.504658  0.638803  0.143694  1
  F  F19  1  0.420429  0.372007  0.842635  1
  F  F20  1  0.746103  0.455763  0.515811  1
  F  F21  1  0.236829  0.292554  0.098144  1
  F  F22  1  0.361196  0.865854  0.810361  1
  F  F23  1  0.933602  0.595905  0.712225  1
  F  F24  1  0.378868  0.032868  0.965134  1
  F  F25  1  0.018632  0.402513  0.000679  1
  F  F26  1  0.654000  0.621132  0.298467  1
  F  F27  1  0.286704  0.759981  0.615891  1
  F  F28  1  0.871626  0.057564  0.926606  1
  F  F29  1  0.055725  0.763171  0.431477  1
  F  F30  1  0.950304  0.037082  0.402201  1
  F  F31  1  0.967132  0.346000  0.631800  1
  F  F32  1  0.086777  0.049696  0.735535  1
  F  F33  1  0.597487  0.616117  0.667346  1
  F  F34  1  0.383883  0.981368  0.334012  1
  F  F35  1  0.185938  0.128374  0.259939  1
  F  F36  1  0.707446  0.944275  0.764811  1
  F  F37  1  0.709660  0.253897  0.849145  1
  F  F38  1  0.240019  0.526724  0.282558  1
  F  F39  1  0.838593  0.714730  0.853539  1
  F  F40  1  0.876137  0.161407  0.186872  1
  F  F41  1  0.962918  0.913223  0.068868  1
  F  F42  1  0.627993  0.048423  0.509301  1
  F  F43  1  0.942436  0.814062  0.593272  1
  F  F44  1  0.285270  0.123863  0.520205  1
