# generated using pymatgen
data_YTe(WO4)2
_symmetry_space_group_name_H-M   'P 1'
_cell_length_a   5.16735560
_cell_length_b   6.06340109
_cell_length_c   6.60798642
_cell_angle_alpha   109.82122793
_cell_angle_beta   112.93421545
_cell_angle_gamma   90.77019436
_symmetry_Int_Tables_number   1
_chemical_formula_structural   YTe(WO4)2
_chemical_formula_sum   'Y1 Te1 W2 O8'
_cell_volume   176.82718952
_cell_formula_units_Z   1
loop_
 _symmetry_equiv_pos_site_id
 _symmetry_equiv_pos_as_xyz
  1  'x, y, z'
loop_
 _atom_site_type_symbol
 _atom_site_label
 _atom_site_symmetry_multiplicity
 _atom_site_fract_x
 _atom_site_fract_y
 _atom_site_fract_z
 _atom_site_occupancy
  Y  Y0  1  0.624535  0.723213  0.099561  1
  Te  Te1  1  0.124859  0.223408  0.099794  1
  W  W2  1  0.874029  0.399040  0.598543  1
  W  W3  1  0.375368  0.047234  0.600809  1
  O  O4  1  0.143473  0.643265  0.839929  1
  O  O5  1  0.679198  0.520239  0.374504  1
  O  O6  1  0.151161  0.194860  0.776362  1
  O  O7  1  0.618049  0.045704  0.430531  1
  O  O8  1  0.569971  0.925929  0.824713  1
  O  O9  1  0.105531  0.803330  0.359431  1
  O  O10  1  0.098466  0.251766  0.423111  1
  O  O11  1  0.631359  0.400508  0.768808  1
