# generated using pymatgen
data_ZnNiO2
_symmetry_space_group_name_H-M   'P 1'
_cell_length_a   2.88758515
_cell_length_b   8.49934822
_cell_length_c   8.30729655
_cell_angle_alpha   82.07311006
_cell_angle_beta   79.80906139
_cell_angle_gamma   80.11162071
_symmetry_Int_Tables_number   1
_chemical_formula_structural   ZnNiO2
_chemical_formula_sum   'Zn4 Ni4 O8'
_cell_volume   196.46566627
_cell_formula_units_Z   4
loop_
 _symmetry_equiv_pos_site_id
 _symmetry_equiv_pos_as_xyz
  1  'x, y, z'
loop_
 _atom_site_type_symbol
 _atom_site_label
 _atom_site_symmetry_multiplicity
 _atom_site_fract_x
 _atom_site_fract_y
 _atom_site_fract_z
 _atom_site_occupancy
  Zn  Zn0  1  0.351517  0.061379  0.245949  1
  Zn  Zn1  1  0.644306  0.918535  0.782274  1
  Zn  Zn2  1  0.078193  0.703446  0.141818  1
  Zn  Zn3  1  0.918045  0.276451  0.886392  1
  Ni  Ni4  1  0.623654  0.181526  0.567283  1
  Ni  Ni5  1  0.212416  0.372899  0.205881  1
  Ni  Ni6  1  0.783801  0.607010  0.822345  1
  Ni  Ni7  1  0.372327  0.798414  0.460888  1
  O  O8  1  0.817348  0.757482  0.608400  1
  O  O9  1  0.365074  0.438147  0.830709  1
  O  O10  1  0.631077  0.541766  0.197518  1
  O  O11  1  0.178617  0.222481  0.419781  1
  O  O12  1  0.077307  0.106682  0.731721  1
  O  O13  1  0.839957  0.206583  0.123588  1
  O  O14  1  0.918667  0.873226  0.296454  1
  O  O15  1  0.155969  0.773309  0.904614  1
