# generated using pymatgen
data_Mn4ZnO8
_symmetry_space_group_name_H-M   'P 1'
_cell_length_a   6.07330515
_cell_length_b   6.07330484
_cell_length_c   6.07330552
_cell_angle_alpha   59.18445468
_cell_angle_beta   59.18445513
_cell_angle_gamma   59.18445874
_symmetry_Int_Tables_number   1
_chemical_formula_structural   Mn4ZnO8
_chemical_formula_sum   'Mn4 Zn1 O8'
_cell_volume   155.45832800
_cell_formula_units_Z   1
loop_
 _symmetry_equiv_pos_site_id
 _symmetry_equiv_pos_as_xyz
  1  'x, y, z'
loop_
 _atom_site_type_symbol
 _atom_site_label
 _atom_site_symmetry_multiplicity
 _atom_site_fract_x
 _atom_site_fract_y
 _atom_site_fract_z
 _atom_site_occupancy
  Mn  Mn0  1  0.500001  0.999999  0.500001  1
  Mn  Mn1  1  0.999999  0.500000  0.500001  1
  Mn  Mn2  1  0.500000  0.500000  0.000000  1
  Mn  Mn3  1  0.000000  0.000000  0.000000  1
  Zn  Zn4  1  0.500000  0.500001  0.499999  1
  O  O5  1  0.749308  0.295824  0.749308  1
  O  O6  1  0.250691  0.250692  0.704176  1
  O  O7  1  0.250691  0.704177  0.250691  1
  O  O8  1  0.704175  0.250692  0.250692  1
  O  O9  1  0.268875  0.268876  0.268875  1
  O  O10  1  0.731125  0.731125  0.731125  1
  O  O11  1  0.295825  0.749309  0.749308  1
  O  O12  1  0.749309  0.749309  0.295824  1
