# generated using pymatgen
data_BaZn(WO2)4
_symmetry_space_group_name_H-M   'P 1'
_cell_length_a   5.76166489
_cell_length_b   5.76166545
_cell_length_c   7.31953795
_cell_angle_alpha   90.00000000
_cell_angle_beta   90.00000000
_cell_angle_gamma   119.99999683
_symmetry_Int_Tables_number   1
_chemical_formula_structural   BaZn(WO2)4
_chemical_formula_sum   'Ba1 Zn1 W4 O8'
_cell_volume   210.43130347
_cell_formula_units_Z   1
loop_
 _symmetry_equiv_pos_site_id
 _symmetry_equiv_pos_as_xyz
  1  'x, y, z'
loop_
 _atom_site_type_symbol
 _atom_site_label
 _atom_site_symmetry_multiplicity
 _atom_site_fract_x
 _atom_site_fract_y
 _atom_site_fract_z
 _atom_site_occupancy
  Ba  Ba0  1  -0.000000  0.000000  0.000000  1
  Zn  Zn1  1  -0.000000  0.000000  0.500000  1
  W  W2  1  0.333333  0.666667  0.717251  1
  W  W3  1  0.666667  0.333333  0.717251  1
  W  W4  1  0.333333  0.666667  0.282749  1
  W  W5  1  0.666667  0.333333  0.282749  1
  O  O6  1  0.291531  0.291531  0.685855  1
  O  O7  1  0.708469  0.000000  0.685855  1
  O  O8  1  0.000000  0.708469  0.685855  1
  O  O9  1  0.708469  0.708469  0.314145  1
  O  O10  1  1.000000  0.291531  0.314145  1
  O  O11  1  0.291531  0.000000  0.314145  1
  O  O12  1  0.333333  0.666667  0.000000  1
  O  O13  1  0.666667  0.333333  0.000000  1
