# generated using pymatgen
data_Zn2IrWO6
_symmetry_space_group_name_H-M   'P 1'
_cell_length_a   5.31559078
_cell_length_b   5.30602099
_cell_length_c   7.75241101
_cell_angle_alpha   90.00000000
_cell_angle_beta   91.12660988
_cell_angle_gamma   90.00000000
_symmetry_Int_Tables_number   1
_chemical_formula_structural   Zn2IrWO6
_chemical_formula_sum   'Zn4 Ir2 W2 O12'
_cell_volume   218.61166407
_cell_formula_units_Z   2
loop_
 _symmetry_equiv_pos_site_id
 _symmetry_equiv_pos_as_xyz
  1  'x, y, z'
loop_
 _atom_site_type_symbol
 _atom_site_label
 _atom_site_symmetry_multiplicity
 _atom_site_fract_x
 _atom_site_fract_y
 _atom_site_fract_z
 _atom_site_occupancy
  Zn  Zn0  1  0.983821  0.979306  0.252009  1
  Zn  Zn1  1  0.516179  0.479306  0.247991  1
  Zn  Zn2  1  0.483821  0.520694  0.752009  1
  Zn  Zn3  1  0.016179  0.020694  0.747991  1
  Ir  Ir4  1  0.000000  0.500000  0.500000  1
  Ir  Ir5  1  0.500000  0.000000  0.000000  1
  W  W6  1  0.000000  0.500000  0.000000  1
  W  W7  1  0.500000  0.000000  0.500000  1
  O  O8  1  0.115029  0.399311  0.752533  1
  O  O9  1  0.169295  0.176615  0.074023  1
  O  O10  1  0.178354  0.168394  0.443109  1
  O  O11  1  0.321646  0.668394  0.056891  1
  O  O12  1  0.330705  0.676615  0.425977  1
  O  O13  1  0.384971  0.899311  0.747467  1
  O  O14  1  0.615029  0.100689  0.252533  1
  O  O15  1  0.669295  0.323385  0.574023  1
  O  O16  1  0.678354  0.331606  0.943109  1
  O  O17  1  0.830705  0.823385  0.925977  1
  O  O18  1  0.821646  0.831606  0.556891  1
  O  O19  1  0.884971  0.600689  0.247467  1
