# generated using pymatgen
data_TiMo(PO4)3
_symmetry_space_group_name_H-M   'P 1'
_cell_length_a   8.84748678
_cell_length_b   8.84747472
_cell_length_c   8.84750473
_cell_angle_alpha   59.02569883
_cell_angle_beta   59.02577902
_cell_angle_gamma   59.02578576
_symmetry_Int_Tables_number   1
_chemical_formula_structural   TiMo(PO4)3
_chemical_formula_sum   'Ti2 Mo2 P6 O24'
_cell_volume   478.83552427
_cell_formula_units_Z   2
loop_
 _symmetry_equiv_pos_site_id
 _symmetry_equiv_pos_as_xyz
  1  'x, y, z'
loop_
 _atom_site_type_symbol
 _atom_site_label
 _atom_site_symmetry_multiplicity
 _atom_site_fract_x
 _atom_site_fract_y
 _atom_site_fract_z
 _atom_site_occupancy
  Ti  Ti0  1  0.139458  0.139461  0.139456  1
  Ti  Ti1  1  0.639458  0.639456  0.639459  1
  Mo  Mo2  1  0.358654  0.358658  0.358650  1
  Mo  Mo3  1  0.858654  0.858653  0.858651  1
  P  P4  1  0.031720  0.464601  0.750749  1
  P  P5  1  0.464601  0.750748  0.031722  1
  P  P6  1  0.750749  0.031722  0.464601  1
  P  P7  1  0.250748  0.964600  0.531722  1
  P  P8  1  0.531719  0.250748  0.964601  1
  P  P9  1  0.964601  0.531721  0.250748  1
  O  O10  1  0.133866  0.508053  0.282473  1
  O  O11  1  0.282472  0.133865  0.508053  1
  O  O12  1  0.062160  0.287322  0.920941  1
  O  O13  1  0.508057  0.282473  0.133863  1
  O  O14  1  0.008053  0.633865  0.782471  1
  O  O15  1  0.213760  0.441091  0.578566  1
  O  O16  1  0.287323  0.920940  0.062161  1
  O  O17  1  0.441088  0.578564  0.213761  1
  O  O18  1  0.213185  0.000807  0.364338  1
  O  O19  1  0.578566  0.213758  0.441091  1
  O  O20  1  0.078565  0.941091  0.713760  1
  O  O21  1  0.364337  0.213186  0.000808  1
  O  O22  1  0.633863  0.782472  0.008054  1
  O  O23  1  0.920942  0.062160  0.287322  1
  O  O24  1  0.420942  0.787324  0.562161  1
  O  O25  1  0.782472  0.008054  0.633864  1
  O  O26  1  0.562161  0.420940  0.787324  1
  O  O27  1  0.713759  0.078566  0.941091  1
  O  O28  1  0.787324  0.562161  0.420941  1
  O  O29  1  0.000806  0.364338  0.213186  1
  O  O30  1  0.500808  0.713184  0.864337  1
  O  O31  1  0.941091  0.713759  0.078567  1
  O  O32  1  0.713184  0.864337  0.500807  1
  O  O33  1  0.864337  0.500807  0.713186  1
