# generated using pymatgen
data_Sr2CoCu2O7
_symmetry_space_group_name_H-M   'P 1'
_cell_length_a   5.13956219
_cell_length_b   5.17184299
_cell_length_c   12.83986197
_cell_angle_alpha   101.62960619
_cell_angle_beta   101.37169505
_cell_angle_gamma   90.01735642
_symmetry_Int_Tables_number   1
_chemical_formula_structural   Sr2CoCu2O7
_chemical_formula_sum   'Sr4 Co2 Cu4 O14'
_cell_volume   327.44235657
_cell_formula_units_Z   2
loop_
 _symmetry_equiv_pos_site_id
 _symmetry_equiv_pos_as_xyz
  1  'x, y, z'
loop_
 _atom_site_type_symbol
 _atom_site_label
 _atom_site_symmetry_multiplicity
 _atom_site_fract_x
 _atom_site_fract_y
 _atom_site_fract_z
 _atom_site_occupancy
  Sr  Sr0  1  0.331383  0.350120  0.704470  1
  Sr  Sr1  1  0.629271  0.649542  0.295973  1
  Sr  Sr2  1  0.831248  0.854034  0.704512  1
  Sr  Sr3  1  0.129386  0.145830  0.295904  1
  Co  Co4  1  0.272272  0.683894  0.500339  1
  Co  Co5  1  0.772273  0.315348  0.500236  1
  Cu  Cu6  1  0.921294  0.442495  0.883499  1
  Cu  Cu7  1  0.043830  0.557751  0.117286  1
  Cu  Cu8  1  0.420944  0.941237  0.883272  1
  Cu  Cu9  1  0.543883  0.058872  0.117284  1
  O  O10  1  0.139357  0.344919  0.500254  1
  O  O11  1  0.639349  0.654041  0.500270  1
  O  O12  1  0.155701  0.176007  0.850704  1
  O  O13  1  0.310354  0.824167  0.149713  1
  O  O14  1  0.655990  0.175059  0.851065  1
  O  O15  1  0.810521  0.825083  0.149798  1
  O  O16  1  0.653953  0.674487  0.849779  1
  O  O17  1  0.809639  0.325933  0.150994  1
  O  O18  1  0.153924  0.675239  0.849476  1
  O  O19  1  0.309620  0.324514  0.150906  1
  O  O20  1  0.295593  0.826962  0.637539  1
  O  O21  1  0.660344  0.172194  0.363046  1
  O  O22  1  0.795362  0.309272  0.637366  1
  O  O23  1  0.160213  0.690241  0.363223  1
