# generated using pymatgen
data_ZnCo2O5
_symmetry_space_group_name_H-M   'P 1'
_cell_length_a   3.21446945
_cell_length_b   4.86936325
_cell_length_c   11.45025786
_cell_angle_alpha   89.58110422
_cell_angle_beta   90.00425306
_cell_angle_gamma   90.11020090
_symmetry_Int_Tables_number   1
_chemical_formula_structural   ZnCo2O5
_chemical_formula_sum   'Zn2 Co4 O10'
_cell_volume   179.21911675
_cell_formula_units_Z   2
loop_
 _symmetry_equiv_pos_site_id
 _symmetry_equiv_pos_as_xyz
  1  'x, y, z'
loop_
 _atom_site_type_symbol
 _atom_site_label
 _atom_site_symmetry_multiplicity
 _atom_site_fract_x
 _atom_site_fract_y
 _atom_site_fract_z
 _atom_site_occupancy
  Zn  Zn0  1  0.750196  0.893243  0.249906  1
  Zn  Zn1  1  0.249560  0.106364  0.747906  1
  Co  Co2  1  0.248430  0.419890  0.100901  1
  Co  Co3  1  0.751897  0.580608  0.898750  1
  Co  Co4  1  0.751252  0.579607  0.600575  1
  Co  Co5  1  0.249158  0.419992  0.400576  1
  O  O6  1  0.749442  0.412913  0.750116  1
  O  O7  1  0.249860  0.588146  0.250485  1
  O  O8  1  0.751929  0.618470  0.063787  1
  O  O9  1  0.248847  0.381665  0.935600  1
  O  O10  1  0.750996  0.620778  0.435987  1
  O  O11  1  0.249165  0.377499  0.566005  1
  O  O12  1  0.250902  0.085907  0.359809  1
  O  O13  1  0.749563  0.914914  0.640190  1
  O  O14  1  0.748035  0.915815  0.855644  1
  O  O15  1  0.250758  0.084186  0.143760  1
