# generated using pymatgen
data_ZnCr2O4
_symmetry_space_group_name_H-M   'P 1'
_cell_length_a   2.94625166
_cell_length_b   9.00905860
_cell_length_c   10.57362630
_cell_angle_alpha   90.00011070
_cell_angle_beta   90.00011263
_cell_angle_gamma   90.00035494
_symmetry_Int_Tables_number   1
_chemical_formula_structural   ZnCr2O4
_chemical_formula_sum   'Zn4 Cr8 O16'
_cell_volume   280.65527496
_cell_formula_units_Z   4
loop_
 _symmetry_equiv_pos_site_id
 _symmetry_equiv_pos_as_xyz
  1  'x, y, z'
loop_
 _atom_site_type_symbol
 _atom_site_label
 _atom_site_symmetry_multiplicity
 _atom_site_fract_x
 _atom_site_fract_y
 _atom_site_fract_z
 _atom_site_occupancy
  Zn  Zn0  1  0.749998  0.240314  0.346450  1
  Zn  Zn1  1  0.250002  0.759687  0.653551  1
  Zn  Zn2  1  0.750001  0.740318  0.153549  1
  Zn  Zn3  1  0.249992  0.259684  0.846453  1
  Cr  Cr4  1  0.250021  0.412208  0.101376  1
  Cr  Cr5  1  0.749997  0.087780  0.601388  1
  Cr  Cr6  1  0.250018  0.912213  0.398620  1
  Cr  Cr7  1  0.750012  0.587782  0.898605  1
  Cr  Cr8  1  0.749998  0.558397  0.381679  1
  Cr  Cr9  1  0.249971  0.441610  0.618318  1
  Cr  Cr10  1  0.750009  0.058399  0.118334  1
  Cr  Cr11  1  0.249988  0.941615  0.881680  1
  O  O12  1  0.250007  0.910191  0.072975  1
  O  O13  1  0.750011  0.089815  0.927027  1
  O  O14  1  0.249990  0.410190  0.427025  1
  O  O15  1  0.749997  0.589805  0.572974  1
  O  O16  1  0.250012  0.032684  0.713409  1
  O  O17  1  0.749984  0.967318  0.286587  1
  O  O18  1  0.249999  0.532670  0.786590  1
  O  O19  1  0.749997  0.467322  0.213409  1
  O  O20  1  0.249999  0.622179  0.032891  1
  O  O21  1  0.749992  0.377821  0.967110  1
  O  O22  1  0.250004  0.122179  0.467104  1
  O  O23  1  0.749992  0.877822  0.532893  1
  O  O24  1  0.750003  0.797421  0.825896  1
  O  O25  1  0.250008  0.202581  0.174107  1
  O  O26  1  0.249988  0.702572  0.325890  1
  O  O27  1  0.750003  0.297424  0.674110  1
