# generated using pymatgen
data_CaFe5O7
_symmetry_space_group_name_H-M   'P 1'
_cell_length_a   3.09412988
_cell_length_b   5.36842180
_cell_length_c   18.37853924
_cell_angle_alpha   90.00000000
_cell_angle_beta   90.00000000
_cell_angle_gamma   106.74895023
_symmetry_Int_Tables_number   1
_chemical_formula_structural   CaFe5O7
_chemical_formula_sum   'Ca2 Fe10 O14'
_cell_volume   292.32752120
_cell_formula_units_Z   2
loop_
 _symmetry_equiv_pos_site_id
 _symmetry_equiv_pos_as_xyz
  1  'x, y, z'
loop_
 _atom_site_type_symbol
 _atom_site_label
 _atom_site_symmetry_multiplicity
 _atom_site_fract_x
 _atom_site_fract_y
 _atom_site_fract_z
 _atom_site_occupancy
  Ca  Ca0  1  0.789169  0.578336  0.750000  1
  Ca  Ca1  1  0.210832  0.421663  0.250000  1
  Fe  Fe2  1  0.273228  0.546455  0.574699  1
  Fe  Fe3  1  0.000000  0.000000  0.500000  1
  Fe  Fe4  1  0.000000  0.000000  0.000000  1
  Fe  Fe5  1  0.726772  0.453544  0.425301  1
  Fe  Fe6  1  0.726772  0.453544  0.074699  1
  Fe  Fe7  1  0.273228  0.546455  0.925301  1
  Fe  Fe8  1  0.459534  0.919068  0.156228  1
  Fe  Fe9  1  0.540466  0.080931  0.843773  1
  Fe  Fe10  1  0.540466  0.080931  0.656227  1
  Fe  Fe11  1  0.459534  0.919068  0.343773  1
  O  O12  1  0.649797  0.299593  0.966676  1
  O  O13  1  0.350204  0.700408  0.033324  1
  O  O14  1  0.350204  0.700408  0.466676  1
  O  O15  1  0.649797  0.299593  0.533324  1
  O  O16  1  0.182650  0.365302  0.834018  1
  O  O17  1  0.817350  0.634698  0.165982  1
  O  O18  1  0.817350  0.634698  0.334019  1
  O  O19  1  0.182650  0.365302  0.665982  1
  O  O20  1  0.903135  0.806269  0.902097  1
  O  O21  1  0.096865  0.193731  0.097903  1
  O  O22  1  0.096865  0.193731  0.402097  1
  O  O23  1  0.903135  0.806269  0.597903  1
  O  O24  1  0.449956  0.899912  0.750000  1
  O  O25  1  0.550045  0.100090  0.250000  1
