# generated using pymatgen
data_Ca2TeO5
_symmetry_space_group_name_H-M   'P 1'
_cell_length_a   5.77187469
_cell_length_b   4.89816169
_cell_length_c   9.22526072
_cell_angle_alpha   105.37062683
_cell_angle_beta   108.16849417
_cell_angle_gamma   90.00086245
_symmetry_Int_Tables_number   1
_chemical_formula_structural   Ca2TeO5
_chemical_formula_sum   'Ca4 Te2 O10'
_cell_volume   237.97103189
_cell_formula_units_Z   2
loop_
 _symmetry_equiv_pos_site_id
 _symmetry_equiv_pos_as_xyz
  1  'x, y, z'
loop_
 _atom_site_type_symbol
 _atom_site_label
 _atom_site_symmetry_multiplicity
 _atom_site_fract_x
 _atom_site_fract_y
 _atom_site_fract_z
 _atom_site_occupancy
  Ca  Ca0  1  0.194813  0.569939  0.315447  1
  Ca  Ca1  1  0.378239  0.754317  0.683809  1
  Ca  Ca2  1  0.878348  0.429666  0.683965  1
  Ca  Ca3  1  0.694889  0.244827  0.315618  1
  Te  Te4  1  0.496889  0.499573  0.999498  1
  Te  Te5  1  0.997506  0.999657  -0.000091  1
  O  O6  1  0.530799  0.485045  0.499724  1
  O  O7  1  0.030782  0.514350  0.499708  1
  O  O8  1  0.586547  0.741495  0.207720  1
  O  O9  1  0.379966  0.258237  0.791964  1
  O  O10  1  0.086465  0.965679  0.207572  1
  O  O11  1  0.879837  0.033821  0.791741  1
  O  O12  1  0.206667  0.712862  0.913090  1
  O  O13  1  0.294054  0.285318  0.086404  1
  O  O14  1  0.794062  0.300611  0.086439  1
  O  O15  1  0.706670  0.700115  0.913063  1
