# generated using pymatgen
data_VO2
_symmetry_space_group_name_H-M   'P 1'
_cell_length_a   2.99646758
_cell_length_b   2.93995634
_cell_length_c   10.38064888
_cell_angle_alpha   88.47598356
_cell_angle_beta   90.73075049
_cell_angle_gamma   119.35845554
_symmetry_Int_Tables_number   1
_chemical_formula_structural   VO2
_chemical_formula_sum   'V2 O4'
_cell_volume   79.67523066
_cell_formula_units_Z   2
loop_
 _symmetry_equiv_pos_site_id
 _symmetry_equiv_pos_as_xyz
  1  'x, y, z'
loop_
 _atom_site_type_symbol
 _atom_site_label
 _atom_site_symmetry_multiplicity
 _atom_site_fract_x
 _atom_site_fract_y
 _atom_site_fract_z
 _atom_site_occupancy
  V  V0  1  0.997784  0.999719  0.501807  1
  V  V1  1  0.997829  0.999870  0.002364  1
  O  O2  1  0.673472  0.330650  0.408757  1
  O  O3  1  0.673601  0.345093  0.095458  1
  O  O4  1  0.322119  0.668803  0.594840  1
  O  O5  1  0.321870  0.654304  0.909233  1
