# generated using pymatgen
data_Mg2IrWO6
_symmetry_space_group_name_H-M   'P 1'
_cell_length_a   5.26618493
_cell_length_b   5.37662911
_cell_length_c   7.65781176
_cell_angle_alpha   90.00000000
_cell_angle_beta   90.32846340
_cell_angle_gamma   90.00000000
_symmetry_Int_Tables_number   1
_chemical_formula_structural   Mg2IrWO6
_chemical_formula_sum   'Mg4 Ir2 W2 O12'
_cell_volume   216.82219411
_cell_formula_units_Z   2
loop_
 _symmetry_equiv_pos_site_id
 _symmetry_equiv_pos_as_xyz
  1  'x, y, z'
loop_
 _atom_site_type_symbol
 _atom_site_label
 _atom_site_symmetry_multiplicity
 _atom_site_fract_x
 _atom_site_fract_y
 _atom_site_fract_z
 _atom_site_occupancy
  Mg  Mg0  1  0.993229  0.959461  0.258239  1
  Mg  Mg1  1  0.506771  0.459461  0.241761  1
  Mg  Mg2  1  0.493229  0.540539  0.758239  1
  Mg  Mg3  1  0.006771  0.040539  0.741761  1
  Ir  Ir4  1  0.000000  0.500000  0.500000  1
  Ir  Ir5  1  0.500000  0.000000  0.000000  1
  W  W6  1  0.000000  0.500000  0.000000  1
  W  W7  1  0.500000  0.000000  0.500000  1
  O  O8  1  0.127044  0.408822  0.753399  1
  O  O9  1  0.169880  0.181865  0.079063  1
  O  O10  1  0.179607  0.170876  0.443727  1
  O  O11  1  0.320393  0.670876  0.056273  1
  O  O12  1  0.330120  0.681865  0.420937  1
  O  O13  1  0.372956  0.908822  0.746601  1
  O  O14  1  0.627044  0.091178  0.253399  1
  O  O15  1  0.669880  0.318135  0.579063  1
  O  O16  1  0.679607  0.329124  0.943727  1
  O  O17  1  0.830120  0.818135  0.920937  1
  O  O18  1  0.820393  0.829124  0.556273  1
  O  O19  1  0.872956  0.591178  0.246601  1
