# generated using pymatgen
data_CaSnP2O7
_symmetry_space_group_name_H-M   'P 1'
_cell_length_a   6.56147234
_cell_length_b   7.03048638
_cell_length_c   7.05787531
_cell_angle_alpha   86.48412648
_cell_angle_beta   88.30216770
_cell_angle_gamma   67.35558819
_symmetry_Int_Tables_number   1
_chemical_formula_structural   CaSnP2O7
_chemical_formula_sum   'Ca2 Sn2 P4 O14'
_cell_volume   299.91178468
_cell_formula_units_Z   2
loop_
 _symmetry_equiv_pos_site_id
 _symmetry_equiv_pos_as_xyz
  1  'x, y, z'
loop_
 _atom_site_type_symbol
 _atom_site_label
 _atom_site_symmetry_multiplicity
 _atom_site_fract_x
 _atom_site_fract_y
 _atom_site_fract_z
 _atom_site_occupancy
  Ca  Ca0  1  0.312104  0.704600  0.633358  1
  Ca  Ca1  1  0.687898  0.295399  0.366644  1
  Sn  Sn2  1  0.262339  0.116463  0.149710  1
  Sn  Sn3  1  0.737661  0.883537  0.850290  1
  P  P4  1  0.183352  0.660033  0.146572  1
  P  P5  1  0.816648  0.339966  0.853428  1
  P  P6  1  0.222397  0.232928  0.603508  1
  P  P7  1  0.777602  0.767072  0.396492  1
  O  O8  1  0.124605  0.738496  0.938052  1
  O  O9  1  0.875395  0.261503  0.061948  1
  O  O10  1  0.229036  0.815477  0.266333  1
  O  O11  1  0.770964  0.184523  0.733667  1
  O  O12  1  0.357580  0.441739  0.166867  1
  O  O13  1  0.642420  0.558261  0.833133  1
  O  O14  1  0.646853  0.631160  0.435634  1
  O  O15  1  0.353147  0.368840  0.564366  1
  O  O16  1  0.091247  0.217494  0.428282  1
  O  O17  1  0.908753  0.782506  0.571719  1
  O  O18  1  0.044288  0.352675  0.762672  1
  O  O19  1  0.640663  0.986489  0.315147  1
  O  O20  1  0.359337  0.013511  0.684853  1
  O  O21  1  0.955712  0.647324  0.237328  1
