# generated using pymatgen
data_SrMgMn(PO4)2
_symmetry_space_group_name_H-M   'P 1'
_cell_length_a   5.56536820
_cell_length_b   7.00574778
_cell_length_c   9.53612460
_cell_angle_alpha   110.95375781
_cell_angle_beta   101.53567554
_cell_angle_gamma   97.82172123
_symmetry_Int_Tables_number   1
_chemical_formula_structural   SrMgMn(PO4)2
_chemical_formula_sum   'Sr2 Mg2 Mn2 P4 O16'
_cell_volume   331.33509293
_cell_formula_units_Z   2
loop_
 _symmetry_equiv_pos_site_id
 _symmetry_equiv_pos_as_xyz
  1  'x, y, z'
loop_
 _atom_site_type_symbol
 _atom_site_label
 _atom_site_symmetry_multiplicity
 _atom_site_fract_x
 _atom_site_fract_y
 _atom_site_fract_z
 _atom_site_occupancy
  Sr  Sr0  1  0.249169  0.802389  0.048985  1
  Sr  Sr1  1  0.750831  0.197611  0.951015  1
  Mg  Mg2  1  0.991719  0.381892  0.652054  1
  Mg  Mg3  1  0.008281  0.618108  0.347946  1
  Mn  Mn4  1  0.630524  0.838003  0.558906  1
  Mn  Mn5  1  0.369476  0.161997  0.441094  1
  P  P6  1  0.389257  0.421172  0.229423  1
  P  P7  1  0.610743  0.578828  0.770577  1
  P  P8  1  0.840125  0.022563  0.301101  1
  P  P9  1  0.159875  0.977437  0.698899  1
  O  O10  1  0.817536  0.548885  0.891464  1
  O  O11  1  0.658638  0.474366  0.211485  1
  O  O12  1  0.668450  0.802948  0.775906  1
  O  O13  1  0.961749  0.118650  0.695711  1
  O  O14  1  0.341362  0.525634  0.788515  1
  O  O15  1  0.010632  0.751077  0.576543  1
  O  O16  1  0.989368  0.248923  0.423457  1
  O  O17  1  0.255080  0.993266  0.864568  1
  O  O18  1  0.331550  0.197052  0.224094  1
  O  O19  1  0.744920  0.006734  0.135432  1
  O  O20  1  0.182464  0.451115  0.108536  1
  O  O21  1  0.364130  0.577380  0.390448  1
  O  O22  1  0.635870  0.422620  0.609552  1
  O  O23  1  0.616090  0.948390  0.359990  1
  O  O24  1  0.038251  0.881350  0.304289  1
  O  O25  1  0.383910  0.051610  0.640011  1
