# generated using pymatgen
data_YTi2O4
_symmetry_space_group_name_H-M   'P 1'
_cell_length_a   6.45180523
_cell_length_b   6.20771217
_cell_length_c   6.19968133
_cell_angle_alpha   87.97663081
_cell_angle_beta   121.35194130
_cell_angle_gamma   121.28600072
_symmetry_Int_Tables_number   1
_chemical_formula_structural   YTi2O4
_chemical_formula_sum   'Y2 Ti4 O8'
_cell_volume   171.57088209
_cell_formula_units_Z   2
loop_
 _symmetry_equiv_pos_site_id
 _symmetry_equiv_pos_as_xyz
  1  'x, y, z'
loop_
 _atom_site_type_symbol
 _atom_site_label
 _atom_site_symmetry_multiplicity
 _atom_site_fract_x
 _atom_site_fract_y
 _atom_site_fract_z
 _atom_site_occupancy
  Y  Y0  1  0.000004  0.999995  -0.000002  1
  Y  Y1  1  0.500006  0.999994  0.000010  1
  Ti  Ti2  1  0.499983  0.999990  0.499983  1
  Ti  Ti3  1  0.499999  0.499991  0.500002  1
  Ti  Ti4  1  0.000019  0.500018  0.000017  1
  Ti  Ti5  1  0.000014  0.500001  0.499999  1
  O  O6  1  0.034854  0.736398  0.263715  1
  O  O7  1  0.481350  0.733335  0.729483  1
  O  O8  1  0.465094  0.735898  0.263521  1
  O  O9  1  0.981380  0.729102  0.733367  1
  O  O10  1  0.534936  0.264087  0.736502  1
  O  O11  1  0.518666  0.266678  0.270525  1
  O  O12  1  0.018623  0.270885  0.266625  1
  O  O13  1  0.965121  0.263591  0.736292  1
