# generated using pymatgen
data_Pr(FeO3)2
_symmetry_space_group_name_H-M   'P 1'
_cell_length_a   5.42616960
_cell_length_b   5.42472941
_cell_length_c   7.68590163
_cell_angle_alpha   89.99159172
_cell_angle_beta   89.99639535
_cell_angle_gamma   89.98413021
_symmetry_Int_Tables_number   1
_chemical_formula_structural   Pr(FeO3)2
_chemical_formula_sum   'Pr2 Fe4 O12'
_cell_volume   226.23835970
_cell_formula_units_Z   2
loop_
 _symmetry_equiv_pos_site_id
 _symmetry_equiv_pos_as_xyz
  1  'x, y, z'
loop_
 _atom_site_type_symbol
 _atom_site_label
 _atom_site_symmetry_multiplicity
 _atom_site_fract_x
 _atom_site_fract_y
 _atom_site_fract_z
 _atom_site_occupancy
  Pr  Pr0  1  0.007767  0.977913  0.750019  1
  Pr  Pr1  1  0.507711  0.522120  0.249989  1
  Fe  Fe2  1  0.001109  0.495254  0.001038  1
  Fe  Fe3  1  0.001130  0.495296  0.498950  1
  Fe  Fe4  1  0.501272  0.004746  0.501044  1
  Fe  Fe5  1  0.501160  0.004701  0.998937  1
  O  O6  1  0.053614  0.497793  0.250017  1
  O  O7  1  0.227403  0.227294  0.973059  1
  O  O8  1  0.227427  0.227278  0.526902  1
  O  O9  1  0.263389  0.737999  0.520754  1
  O  O10  1  0.263372  0.737962  0.979253  1
  O  O11  1  0.465049  0.993668  0.249993  1
  O  O12  1  0.553666  0.002064  0.750010  1
  O  O13  1  0.727442  0.272680  0.026813  1
  O  O14  1  0.727541  0.272672  0.473234  1
  O  O15  1  0.763484  0.762057  0.020913  1
  O  O16  1  0.763457  0.762044  0.479092  1
  O  O17  1  0.964877  0.506461  0.749983  1
