# generated using pymatgen
data_YTi3F15
_symmetry_space_group_name_H-M   'P 1'
_cell_length_a   10.21887325
_cell_length_b   6.14459041
_cell_length_c   10.35748723
_cell_angle_alpha   90.00000000
_cell_angle_beta   90.00000000
_cell_angle_gamma   108.92458846
_symmetry_Int_Tables_number   1
_chemical_formula_structural   YTi3F15
_chemical_formula_sum   'Y2 Ti6 F30'
_cell_volume   615.20070362
_cell_formula_units_Z   2
loop_
 _symmetry_equiv_pos_site_id
 _symmetry_equiv_pos_as_xyz
  1  'x, y, z'
loop_
 _atom_site_type_symbol
 _atom_site_label
 _atom_site_symmetry_multiplicity
 _atom_site_fract_x
 _atom_site_fract_y
 _atom_site_fract_z
 _atom_site_occupancy
  Y  Y0  1  0.956344  0.503003  0.250000  1
  Y  Y1  1  0.376989  0.496997  0.750000  1
  Ti  Ti2  1  0.166667  -0.000000  0.500000  1
  Ti  Ti3  1  0.514083  0.964942  0.435744  1
  Ti  Ti4  1  0.819250  0.035058  0.564256  1
  Ti  Ti5  1  0.166667  -0.000000  0.000000  1
  Ti  Ti6  1  0.514083  0.964942  0.064256  1
  Ti  Ti7  1  0.819250  0.035058  0.935744  1
  F  F8  1  0.166491  0.602360  0.250000  1
  F  F9  1  0.498343  0.882343  0.250000  1
  F  F10  1  0.777600  0.587751  0.250000  1
  F  F11  1  0.166842  0.397640  0.750000  1
  F  F12  1  0.555734  0.412249  0.750000  1
  F  F13  1  0.834990  0.117657  0.750000  1
  F  F14  1  0.012948  0.087662  0.585325  1
  F  F15  1  0.313387  0.200108  0.599303  1
  F  F16  1  0.658576  0.121630  0.586139  1
  F  F17  1  0.320386  0.912338  0.414675  1
  F  F18  1  0.674757  0.878370  0.413861  1
  F  F19  1  0.019946  0.799892  0.400697  1
  F  F20  1  0.146638  0.770418  0.885514  1
  F  F21  1  0.453109  0.760580  0.923977  1
  F  F22  1  0.786769  0.741795  0.905454  1
  F  F23  1  0.186696  0.229582  0.114486  1
  F  F24  1  0.546564  0.258205  0.094546  1
  F  F25  1  0.880224  0.239420  0.076023  1
  F  F26  1  0.186696  0.229582  0.385514  1
  F  F27  1  0.546564  0.258205  0.405454  1
  F  F28  1  0.880224  0.239420  0.423977  1
  F  F29  1  0.146638  0.770418  0.614486  1
  F  F30  1  0.453109  0.760580  0.576023  1
  F  F31  1  0.786769  0.741795  0.594546  1
  F  F32  1  0.012948  0.087662  0.914675  1
  F  F33  1  0.313387  0.200108  0.900697  1
  F  F34  1  0.658576  0.121630  0.913861  1
  F  F35  1  0.320386  0.912338  0.085325  1
  F  F36  1  0.674757  0.878370  0.086139  1
  F  F37  1  0.019946  0.799892  0.099303  1
