# generated using pymatgen
data_YV2O4
_symmetry_space_group_name_H-M   'P 1'
_cell_length_a   6.36043868
_cell_length_b   6.36043890
_cell_length_c   6.36547550
_cell_angle_alpha   117.99346159
_cell_angle_beta   120.96117338
_cell_angle_gamma   90.88199397
_symmetry_Int_Tables_number   1
_chemical_formula_structural   YV2O4
_chemical_formula_sum   'Y2 V4 O8'
_cell_volume   183.42585923
_cell_formula_units_Z   2
loop_
 _symmetry_equiv_pos_site_id
 _symmetry_equiv_pos_as_xyz
  1  'x, y, z'
loop_
 _atom_site_type_symbol
 _atom_site_label
 _atom_site_symmetry_multiplicity
 _atom_site_fract_x
 _atom_site_fract_y
 _atom_site_fract_z
 _atom_site_occupancy
  Y  Y0  1  -0.000000  0.500001  0.000001  1
  Y  Y1  1  0.000001  -0.000000  0.500000  1
  V  V2  1  0.372778  0.622778  0.750000  1
  V  V3  1  0.627222  0.377223  0.250000  1
  V  V4  1  0.500001  -0.000000  0.500000  1
  V  V5  1  -0.000000  -0.000000  0.000000  1
  O  O6  1  0.744534  0.751572  0.508003  1
  O  O7  1  0.743569  0.236532  0.991999  1
  O  O8  1  0.242703  0.243632  0.998283  1
  O  O9  1  0.255466  0.248428  0.491998  1
  O  O10  1  0.254651  0.755580  0.498282  1
  O  O11  1  0.256431  0.763469  0.008003  1
  O  O12  1  0.745348  0.244419  0.501717  1
  O  O13  1  0.757297  0.756369  0.001717  1
