# generated using pymatgen
data_MgTi(GeO3)2
_symmetry_space_group_name_H-M   'P 1'
_cell_length_a   5.36389690
_cell_length_b   8.50588229
_cell_length_c   12.04452124
_cell_angle_alpha   90.00000000
_cell_angle_beta   104.47532765
_cell_angle_gamma   90.00000000
_symmetry_Int_Tables_number   1
_chemical_formula_structural   MgTi(GeO3)2
_chemical_formula_sum   'Mg4 Ti4 Ge8 O24'
_cell_volume   532.08283046
_cell_formula_units_Z   4
loop_
 _symmetry_equiv_pos_site_id
 _symmetry_equiv_pos_as_xyz
  1  'x, y, z'
loop_
 _atom_site_type_symbol
 _atom_site_label
 _atom_site_symmetry_multiplicity
 _atom_site_fract_x
 _atom_site_fract_y
 _atom_site_fract_z
 _atom_site_occupancy
  Mg  Mg0  1  0.451746  0.456593  0.256364  1
  Mg  Mg1  1  0.048254  0.956593  0.743636  1
  Mg  Mg2  1  0.548254  0.543407  0.743636  1
  Mg  Mg3  1  0.951746  0.043407  0.256364  1
  Ti  Ti4  1  0.957380  0.655758  0.280546  1
  Ti  Ti5  1  0.542620  0.155758  0.719454  1
  Ti  Ti6  1  0.042620  0.344242  0.719454  1
  Ti  Ti7  1  0.457380  0.844242  0.280546  1
  Ge  Ge8  1  0.839387  0.357176  0.076156  1
  Ge  Ge9  1  0.660613  0.857176  0.923844  1
  Ge  Ge10  1  0.160613  0.642824  0.923844  1
  Ge  Ge11  1  0.339387  0.142824  0.076156  1
  Ge  Ge12  1  0.207829  0.349095  0.469307  1
  Ge  Ge13  1  0.292171  0.849095  0.530693  1
  Ge  Ge14  1  0.792171  0.650905  0.530693  1
  Ge  Ge15  1  0.707829  0.150905  0.469307  1
  O  O16  1  0.462425  0.290704  0.402383  1
  O  O17  1  0.037575  0.790704  0.597617  1
  O  O18  1  0.537575  0.709296  0.597617  1
  O  O19  1  0.962425  0.209296  0.402383  1
  O  O20  1  0.199615  0.317181  0.148835  1
  O  O21  1  0.300385  0.817181  0.851166  1
  O  O22  1  0.800385  0.682819  0.851166  1
  O  O23  1  0.699615  0.182819  0.148835  1
  O  O24  1  0.646093  0.962891  0.415039  1
  O  O25  1  0.853907  0.462891  0.584961  1
  O  O26  1  0.353907  0.037109  0.584961  1
  O  O27  1  0.146093  0.537109  0.415039  1
  O  O28  1  0.270704  0.003396  0.197764  1
  O  O29  1  0.229296  0.503396  0.802236  1
  O  O30  1  0.729296  0.996604  0.802236  1
  O  O31  1  0.770704  0.496604  0.197764  1
  O  O32  1  0.758749  0.336223  0.782329  1
  O  O33  1  0.741251  0.836223  0.217671  1
  O  O34  1  0.241251  0.663777  0.217671  1
  O  O35  1  0.258749  0.163777  0.782329  1
  O  O36  1  0.330147  0.350422  0.619187  1
  O  O37  1  0.169853  0.850422  0.380813  1
  O  O38  1  0.669853  0.649578  0.380813  1
  O  O39  1  0.830147  0.149578  0.619187  1
