# generated using pymatgen
data_BaAlCuAgO5
_symmetry_space_group_name_H-M   'P 1'
_cell_length_a   3.76863163
_cell_length_b   3.76843412
_cell_length_c   8.31789735
_cell_angle_alpha   90.00032087
_cell_angle_beta   89.99953009
_cell_angle_gamma   89.98073869
_symmetry_Int_Tables_number   1
_chemical_formula_structural   BaAlCuAgO5
_chemical_formula_sum   'Ba1 Al1 Cu1 Ag1 O5'
_cell_volume   118.12944099
_cell_formula_units_Z   1
loop_
 _symmetry_equiv_pos_site_id
 _symmetry_equiv_pos_as_xyz
  1  'x, y, z'
loop_
 _atom_site_type_symbol
 _atom_site_label
 _atom_site_symmetry_multiplicity
 _atom_site_fract_x
 _atom_site_fract_y
 _atom_site_fract_z
 _atom_site_occupancy
  Ba  Ba0  1  0.000000  -0.000002  0.007060  1
  Al  Al1  1  0.000006  0.000007  0.458597  1
  Cu  Cu2  1  0.499999  0.500001  0.251407  1
  Ag  Ag3  1  0.499999  0.499998  0.694156  1
  O  O4  1  0.000001  0.499994  0.590841  1
  O  O5  1  0.499999  0.999997  0.590809  1
  O  O6  1  0.999998  0.500000  0.307530  1
  O  O7  1  0.499994  0.000001  0.307502  1
  O  O8  1  0.500000  0.500000  0.980014  1
