# generated using pymatgen
data_Mg2Ni2O5
_symmetry_space_group_name_H-M   'P 1'
_cell_length_a   3.73062766
_cell_length_b   4.92596804
_cell_length_c   10.29721366
_cell_angle_alpha   89.99864035
_cell_angle_beta   89.99966091
_cell_angle_gamma   90.00027449
_symmetry_Int_Tables_number   1
_chemical_formula_structural   Mg2Ni2O5
_chemical_formula_sum   'Mg4 Ni4 O10'
_cell_volume   189.23140754
_cell_formula_units_Z   2
loop_
 _symmetry_equiv_pos_site_id
 _symmetry_equiv_pos_as_xyz
  1  'x, y, z'
loop_
 _atom_site_type_symbol
 _atom_site_label
 _atom_site_symmetry_multiplicity
 _atom_site_fract_x
 _atom_site_fract_y
 _atom_site_fract_z
 _atom_site_occupancy
  Mg  Mg0  1  0.499999  0.246724  0.902634  1
  Mg  Mg1  1  0.500001  0.753307  0.097509  1
  Mg  Mg2  1  0.500000  0.746643  0.597414  1
  Mg  Mg3  1  0.500006  0.253253  0.402542  1
  Ni  Ni4  1  -0.000001  0.217447  0.637813  1
  Ni  Ni5  1  0.000005  0.782396  0.362104  1
  Ni  Ni6  1  0.999988  0.282497  0.137873  1
  Ni  Ni7  1  0.000007  0.717490  0.862262  1
  O  O8  1  0.000002  0.500062  0.500036  1
  O  O9  1  0.000005  0.169482  0.321017  1
  O  O10  1  0.999997  0.669663  0.178876  1
  O  O11  1  0.000002  0.330615  0.820942  1
  O  O12  1  0.499987  0.305847  0.103343  1
  O  O13  1  0.500006  0.693749  0.896946  1
  O  O14  1  1.000000  0.830486  0.679085  1
  O  O15  1  0.500000  0.193831  0.603172  1
  O  O16  1  -0.000001  0.000573  0.999709  1
  O  O17  1  0.500004  0.805934  0.396724  1
