# generated using pymatgen
data_Ca2NiN2
_symmetry_space_group_name_H-M   'P 1'
_cell_length_a   4.97021198
_cell_length_b   5.93755464
_cell_length_c   6.48632353
_cell_angle_alpha   65.71452261
_cell_angle_beta   67.52343483
_cell_angle_gamma   65.33554678
_symmetry_Int_Tables_number   1
_chemical_formula_structural   Ca2NiN2
_chemical_formula_sum   'Ca4 Ni2 N4'
_cell_volume   153.34621485
_cell_formula_units_Z   2
loop_
 _symmetry_equiv_pos_site_id
 _symmetry_equiv_pos_as_xyz
  1  'x, y, z'
loop_
 _atom_site_type_symbol
 _atom_site_label
 _atom_site_symmetry_multiplicity
 _atom_site_fract_x
 _atom_site_fract_y
 _atom_site_fract_z
 _atom_site_occupancy
  Ca  Ca0  1  0.678716  0.231542  0.403104  1
  Ca  Ca1  1  0.318288  0.760546  0.595561  1
  Ca  Ca2  1  0.040804  0.679113  0.232818  1
  Ca  Ca3  1  0.955492  0.310303  0.769257  1
  Ni  Ni4  1  0.372370  0.120819  0.123412  1
  Ni  Ni5  1  0.625319  0.873752  0.875323  1
  N  N6  1  0.185613  0.231643  0.389642  1
  N  N7  1  0.814288  0.759666  0.606760  1
  N  N8  1  0.471151  0.243850  0.802689  1
  N  N9  1  0.524456  0.746590  0.196970  1
