# generated using pymatgen
data_Ba2Mn2ZnCuF14
_symmetry_space_group_name_H-M   'P 1'
_cell_length_a   5.36788959
_cell_length_b   7.44177415
_cell_length_c   14.81924695
_cell_angle_alpha   93.02001203
_cell_angle_beta   90.09552442
_cell_angle_gamma   111.25341825
_symmetry_Int_Tables_number   1
_chemical_formula_structural   Ba2Mn2ZnCuF14
_chemical_formula_sum   'Ba4 Mn4 Zn2 Cu2 F28'
_cell_volume   550.81277493
_cell_formula_units_Z   2
loop_
 _symmetry_equiv_pos_site_id
 _symmetry_equiv_pos_as_xyz
  1  'x, y, z'
loop_
 _atom_site_type_symbol
 _atom_site_label
 _atom_site_symmetry_multiplicity
 _atom_site_fract_x
 _atom_site_fract_y
 _atom_site_fract_z
 _atom_site_occupancy
  Ba  Ba0  1  0.114128  0.375333  0.626549  1
  Ba  Ba1  1  0.257795  0.373818  0.126179  1
  Ba  Ba2  1  0.883528  0.626145  0.374112  1
  Ba  Ba3  1  0.739940  0.624557  0.874730  1
  Mn  Mn4  1  0.099724  0.238491  0.874187  1
  Mn  Mn5  1  0.897982  0.759878  0.126229  1
  Mn  Mn6  1  0.137329  0.240633  0.374403  1
  Mn  Mn7  1  0.858858  0.760756  0.626539  1
  Zn  Zn8  1  0.434725  0.999683  0.750143  1
  Zn  Zn9  1  0.564809  0.003053  0.250641  1
  Cu  Cu10  1  0.499424  -0.000164  0.000051  1
  Cu  Cu11  1  0.498280  0.001017  0.500578  1
  F  F12  1  0.903186  0.991442  0.339561  1
  F  F13  1  0.871880  0.280709  0.455367  1
  F  F14  1  0.125621  0.721569  0.545346  1
  F  F15  1  0.652809  0.503871  0.595534  1
  F  F16  1  0.601974  0.097148  0.626028  1
  F  F17  1  0.503630  0.903151  0.874270  1
  F  F18  1  0.405338  0.277878  0.955367  1
  F  F19  1  0.915658  0.008664  0.161324  1
  F  F20  1  0.376867  0.326357  0.771965  1
  F  F21  1  0.343423  0.497389  0.404093  1
  F  F22  1  0.813094  0.228577  0.790605  1
  F  F23  1  0.152392  0.495640  0.904042  1
  F  F24  1  0.410820  0.229869  0.290385  1
  F  F25  1  0.184101  0.771620  0.210380  1
  F  F26  1  0.494793  0.096474  0.126114  1
  F  F27  1  0.619798  0.671469  0.228586  1
  F  F28  1  0.127926  0.839002  0.011221  1
  F  F29  1  0.092959  0.008465  0.661727  1
  F  F30  1  0.870782  0.160080  0.989061  1
  F  F31  1  0.709196  0.840665  0.511561  1
  F  F32  1  0.593372  0.720500  0.045164  1
  F  F33  1  0.582177  0.770284  0.709556  1
  F  F34  1  0.944105  0.325491  0.271693  1
  F  F35  1  0.286645  0.161151  0.489606  1
  F  F36  1  0.395583  0.905614  0.374672  1
  F  F37  1  0.081278  0.989919  0.839252  1
  F  F38  1  0.046151  0.671245  0.728569  1
  F  F39  1  0.847222  0.503195  0.096010  1
