# generated using pymatgen
data_VO2
_symmetry_space_group_name_H-M   'P 1'
_cell_length_a   5.15007857
_cell_length_b   5.15007835
_cell_length_c   5.15007823
_cell_angle_alpha   33.74955976
_cell_angle_beta   33.74956079
_cell_angle_gamma   33.74956312
_symmetry_Int_Tables_number   1
_chemical_formula_structural   VO2
_chemical_formula_sum   'V1 O2'
_cell_volume   37.56557963
_cell_formula_units_Z   1
loop_
 _symmetry_equiv_pos_site_id
 _symmetry_equiv_pos_as_xyz
  1  'x, y, z'
loop_
 _atom_site_type_symbol
 _atom_site_label
 _atom_site_symmetry_multiplicity
 _atom_site_fract_x
 _atom_site_fract_y
 _atom_site_fract_z
 _atom_site_occupancy
  V  V0  1  0.500002  0.499999  0.500000  1
  O  O1  1  0.768008  0.768005  0.768006  1
  O  O2  1  0.231995  0.231992  0.231993  1
