# generated using pymatgen
data_MgCrF4
_symmetry_space_group_name_H-M   'P 1'
_cell_length_a   5.09909743
_cell_length_b   5.18773724
_cell_length_c   6.33211666
_cell_angle_alpha   114.17916061
_cell_angle_beta   113.35358181
_cell_angle_gamma   89.99551491
_symmetry_Int_Tables_number   1
_chemical_formula_structural   MgCrF4
_chemical_formula_sum   'Mg2 Cr2 F8'
_cell_volume   137.62964594
_cell_formula_units_Z   2
loop_
 _symmetry_equiv_pos_site_id
 _symmetry_equiv_pos_as_xyz
  1  'x, y, z'
loop_
 _atom_site_type_symbol
 _atom_site_label
 _atom_site_symmetry_multiplicity
 _atom_site_fract_x
 _atom_site_fract_y
 _atom_site_fract_z
 _atom_site_occupancy
  Mg  Mg0  1  0.248623  0.248364  0.498534  1
  Mg  Mg1  1  0.748541  0.753081  0.498457  1
  Cr  Cr2  1  0.997368  0.500949  0.998389  1
  Cr  Cr3  1  0.498193  0.001179  0.999890  1
  F  F4  1  0.925394  0.443407  0.269848  1
  F  F5  1  0.656171  0.175086  0.724196  1
  F  F6  1  0.074393  0.551899  0.726472  1
  F  F7  1  0.156883  0.051922  0.725377  1
  F  F8  1  0.334161  0.830753  0.272541  1
  F  F9  1  0.426590  0.329679  0.271859  1
  F  F10  1  0.834818  0.944712  0.273949  1
  F  F11  1  0.575727  0.677933  0.728487  1
