# generated using pymatgen
data_SrZnFe(PO4)2
_symmetry_space_group_name_H-M   'P 1'
_cell_length_a   5.52889017
_cell_length_b   6.95250116
_cell_length_c   9.51890171
_cell_angle_alpha   110.33719821
_cell_angle_beta   102.13582981
_cell_angle_gamma   98.08322582
_symmetry_Int_Tables_number   1
_chemical_formula_structural   SrZnFe(PO4)2
_chemical_formula_sum   'Sr2 Zn2 Fe2 P4 O16'
_cell_volume   326.18706953
_cell_formula_units_Z   2
loop_
 _symmetry_equiv_pos_site_id
 _symmetry_equiv_pos_as_xyz
  1  'x, y, z'
loop_
 _atom_site_type_symbol
 _atom_site_label
 _atom_site_symmetry_multiplicity
 _atom_site_fract_x
 _atom_site_fract_y
 _atom_site_fract_z
 _atom_site_occupancy
  Sr  Sr0  1  0.250690  0.797614  0.050118  1
  Sr  Sr1  1  0.749310  0.202386  0.949882  1
  Zn  Zn2  1  0.996456  0.380198  0.641479  1
  Zn  Zn3  1  0.003544  0.619802  0.358521  1
  Fe  Fe4  1  0.626039  0.842869  0.555100  1
  Fe  Fe5  1  0.373961  0.157131  0.444900  1
  P  P6  1  0.390743  0.419822  0.229648  1
  P  P7  1  0.609257  0.580178  0.770352  1
  P  P8  1  0.844026  0.022548  0.300071  1
  P  P9  1  0.155974  0.977452  0.699929  1
  O  O10  1  0.806829  0.561586  0.902356  1
  O  O11  1  0.664653  0.474687  0.213879  1
  O  O12  1  0.662271  0.801488  0.765739  1
  O  O13  1  0.950919  0.114393  0.693016  1
  O  O14  1  0.335347  0.525313  0.786121  1
  O  O15  1  0.004229  0.747813  0.582358  1
  O  O16  1  0.995771  0.252187  0.417642  1
  O  O17  1  0.255869  0.996302  0.866977  1
  O  O18  1  0.337729  0.198512  0.234261  1
  O  O19  1  0.744131  0.003698  0.133023  1
  O  O20  1  0.193171  0.438414  0.097644  1
  O  O21  1  0.362929  0.584969  0.386632  1
  O  O22  1  0.637071  0.415031  0.613368  1
  O  O23  1  0.621435  0.947864  0.361105  1
  O  O24  1  0.049081  0.885607  0.306984  1
  O  O25  1  0.378565  0.052136  0.638895  1
