# generated using pymatgen
data_V2ZnS4
_symmetry_space_group_name_H-M   'P 1'
_cell_length_a   7.06907649
_cell_length_b   7.06907763
_cell_length_c   7.15252432
_cell_angle_alpha   119.61480718
_cell_angle_beta   119.61481091
_cell_angle_gamma   89.99999361
_symmetry_Int_Tables_number   1
_chemical_formula_structural   V2ZnS4
_chemical_formula_sum   'V4 Zn2 S8'
_cell_volume   255.65220626
_cell_formula_units_Z   2
loop_
 _symmetry_equiv_pos_site_id
 _symmetry_equiv_pos_as_xyz
  1  'x, y, z'
loop_
 _atom_site_type_symbol
 _atom_site_label
 _atom_site_symmetry_multiplicity
 _atom_site_fract_x
 _atom_site_fract_y
 _atom_site_fract_z
 _atom_site_occupancy
  V  V0  1  0.000000  0.000000  0.500000  1
  V  V1  1  0.000000  0.500000  0.000000  1
  V  V2  1  0.500000  0.000000  0.500000  1
  V  V3  1  0.000000  0.000000  0.000000  1
  Zn  Zn4  1  0.375000  0.625000  0.750000  1
  Zn  Zn5  1  0.625000  0.375000  0.250000  1
  S  S6  1  0.761528  0.775329  0.523056  1
  S  S7  1  0.752274  0.238472  0.976944  1
  S  S8  1  0.224671  0.238472  0.976944  1
  S  S9  1  0.238472  0.224671  0.476944  1
  S  S10  1  0.238472  0.752274  0.476944  1
  S  S11  1  0.247726  0.761528  0.023056  1
  S  S12  1  0.761528  0.247726  0.523056  1
  S  S13  1  0.775329  0.761528  0.023056  1
