# generated using pymatgen
data_AlNiO3
_symmetry_space_group_name_H-M   'P 1'
_cell_length_a   5.41073896
_cell_length_b   5.41073875
_cell_length_c   11.02935713
_cell_angle_alpha   90.00000000
_cell_angle_beta   90.00000000
_cell_angle_gamma   120.00000128
_symmetry_Int_Tables_number   1
_chemical_formula_structural   AlNiO3
_chemical_formula_sum   'Al6 Ni6 O18'
_cell_volume   279.63657393
_cell_formula_units_Z   6
loop_
 _symmetry_equiv_pos_site_id
 _symmetry_equiv_pos_as_xyz
  1  'x, y, z'
loop_
 _atom_site_type_symbol
 _atom_site_label
 _atom_site_symmetry_multiplicity
 _atom_site_fract_x
 _atom_site_fract_y
 _atom_site_fract_z
 _atom_site_occupancy
  Al  Al0  1  0.666667  0.333333  0.243830  1
  Al  Al1  1  0.333333  0.666667  0.743830  1
  Al  Al2  1  0.666667  0.333333  0.743830  1
  Al  Al3  1  0.333333  0.666667  0.243830  1
  Al  Al4  1  0.000000  0.000000  0.764947  1
  Al  Al5  1  0.000000  0.000000  0.264947  1
  Ni  Ni6  1  0.667137  0.000000  0.501050  1
  Ni  Ni7  1  0.667137  0.667137  0.001050  1
  Ni  Ni8  1  0.000000  0.332863  0.001050  1
  Ni  Ni9  1  1.000000  0.667137  0.501050  1
  Ni  Ni10  1  0.332863  0.332863  0.501050  1
  Ni  Ni11  1  0.332863  0.000000  0.001050  1
  O  O12  1  0.666667  0.333333  0.021434  1
  O  O13  1  0.333333  0.666667  0.521434  1
  O  O14  1  0.666667  0.333333  0.521434  1
  O  O15  1  0.333333  0.666667  0.021434  1
  O  O16  1  0.000000  0.000000  0.966388  1
  O  O17  1  0.000000  0.000000  0.466388  1
  O  O18  1  0.359357  0.000000  0.830640  1
  O  O19  1  0.359357  0.359357  0.330640  1
  O  O20  1  0.000000  0.640643  0.330640  1
  O  O21  1  1.000000  0.359357  0.830640  1
  O  O22  1  0.640643  0.640643  0.830640  1
  O  O23  1  0.640643  0.000000  0.330640  1
  O  O24  1  0.312163  0.000000  0.172689  1
  O  O25  1  0.312163  0.312163  0.672689  1
  O  O26  1  1.000000  0.687837  0.672689  1
  O  O27  1  0.000000  0.312163  0.172689  1
  O  O28  1  0.687837  0.687837  0.172689  1
  O  O29  1  0.687837  0.000000  0.672689  1
