# generated using pymatgen
data_Ti5O7
_symmetry_space_group_name_H-M   'P 1'
_cell_length_a   2.90988763
_cell_length_b   5.16611956
_cell_length_c   19.21497398
_cell_angle_alpha   90.00000000
_cell_angle_beta   90.00000000
_cell_angle_gamma   106.35762280
_symmetry_Int_Tables_number   1
_chemical_formula_structural   Ti5O7
_chemical_formula_sum   'Ti10 O14'
_cell_volume   277.16325432
_cell_formula_units_Z   2
loop_
 _symmetry_equiv_pos_site_id
 _symmetry_equiv_pos_as_xyz
  1  'x, y, z'
loop_
 _atom_site_type_symbol
 _atom_site_label
 _atom_site_symmetry_multiplicity
 _atom_site_fract_x
 _atom_site_fract_y
 _atom_site_fract_z
 _atom_site_occupancy
  Ti  Ti0  1  0.273881  0.547759  0.571231  1
  Ti  Ti1  1  -0.000000  0.000000  0.500000  1
  Ti  Ti2  1  -0.000000  0.000000  0.000000  1
  Ti  Ti3  1  0.726119  0.452241  0.428769  1
  Ti  Ti4  1  0.726119  0.452241  0.071231  1
  Ti  Ti5  1  0.273881  0.547759  0.928769  1
  Ti  Ti6  1  0.479177  0.958354  0.159885  1
  Ti  Ti7  1  0.520823  0.041645  0.840116  1
  Ti  Ti8  1  0.520823  0.041645  0.659884  1
  Ti  Ti9  1  0.479177  0.958354  0.340116  1
  O  O10  1  0.640140  0.280280  0.969375  1
  O  O11  1  0.359861  0.719721  0.030625  1
  O  O12  1  0.359861  0.719721  0.469375  1
  O  O13  1  0.640140  0.280280  0.530625  1
  O  O14  1  0.156379  0.312759  0.845795  1
  O  O15  1  0.843621  0.687241  0.154205  1
  O  O16  1  0.843621  0.687241  0.345796  1
  O  O17  1  0.156379  0.312759  0.654205  1
  O  O18  1  0.911660  0.823318  0.893972  1
  O  O19  1  0.088340  0.176682  0.106028  1
  O  O20  1  0.088340  0.176682  0.393972  1
  O  O21  1  0.911660  0.823318  0.606028  1
  O  O22  1  0.466269  0.932538  0.750000  1
  O  O23  1  0.533732  0.067464  0.250000  1
