# generated using pymatgen
data_Ca3Mn2(WO6)2
_symmetry_space_group_name_H-M   'P 1'
_cell_length_a   5.51847624
_cell_length_b   5.61483257
_cell_length_c   7.62882498
_cell_angle_alpha   90.62201597
_cell_angle_beta   89.67410686
_cell_angle_gamma   93.97093836
_symmetry_Int_Tables_number   1
_chemical_formula_structural   Ca3Mn2(WO6)2
_chemical_formula_sum   'Ca3 Mn2 W2 O12'
_cell_volume   235.79732110
_cell_formula_units_Z   1
loop_
 _symmetry_equiv_pos_site_id
 _symmetry_equiv_pos_as_xyz
  1  'x, y, z'
loop_
 _atom_site_type_symbol
 _atom_site_label
 _atom_site_symmetry_multiplicity
 _atom_site_fract_x
 _atom_site_fract_y
 _atom_site_fract_z
 _atom_site_occupancy
  Ca  Ca0  1  0.998926  0.045713  0.253330  1
  Ca  Ca1  1  0.001016  0.956535  0.751196  1
  Ca  Ca2  1  0.482659  0.451047  0.750122  1
  Mn  Mn3  1  0.500494  0.990187  0.999312  1
  Mn  Mn4  1  0.994999  0.499181  0.502182  1
  W  W5  1  0.500685  0.989450  0.491555  1
  W  W6  1  0.995355  0.502280  0.009930  1
  O  O7  1  0.717896  0.274748  0.464223  1
  O  O8  1  0.826801  0.790100  0.030358  1
  O  O9  1  0.284988  0.711972  0.552008  1
  O  O10  1  0.194135  0.235574  0.954583  1
  O  O11  1  0.228981  0.188584  0.540656  1
  O  O12  1  0.285111  0.714145  0.944304  1
  O  O13  1  0.784245  0.813145  0.470252  1
  O  O14  1  0.718730  0.279873  0.037198  1
  O  O15  1  0.065850  0.490618  0.252017  1
  O  O16  1  0.418618  0.974518  0.248988  1
  O  O17  1  0.576195  0.021387  0.750701  1
  O  O18  1  0.910189  0.515293  0.750388  1
