# generated using pymatgen
data_Al5(BiS4)3
_symmetry_space_group_name_H-M   'P 1'
_cell_length_a   7.59775473
_cell_length_b   7.59775473
_cell_length_c   36.18337594
_cell_angle_alpha   90.00000000
_cell_angle_beta   90.00000000
_cell_angle_gamma   90.00000000
_symmetry_Int_Tables_number   1
_chemical_formula_structural   Al5(BiS4)3
_chemical_formula_sum   'Al20 Bi12 S48'
_cell_volume   2088.71710669
_cell_formula_units_Z   4
loop_
 _symmetry_equiv_pos_site_id
 _symmetry_equiv_pos_as_xyz
  1  'x, y, z'
loop_
 _atom_site_type_symbol
 _atom_site_label
 _atom_site_symmetry_multiplicity
 _atom_site_fract_x
 _atom_site_fract_y
 _atom_site_fract_z
 _atom_site_occupancy
  Al  Al0  1  0.250000  0.750000  -0.000020  1
  Al  Al1  1  0.250000  0.750000  0.333353  1
  Al  Al2  1  0.250000  0.750000  0.084363  1
  Al  Al3  1  0.250000  0.750000  0.416667  1
  Al  Al4  1  0.250000  0.750000  0.748970  1
  Al  Al5  1  0.250000  0.750000  0.499980  1
  Al  Al6  1  0.250000  0.750000  0.833353  1
  Al  Al7  1  0.750000  0.250000  0.249763  1
  Al  Al8  1  0.750000  0.250000  0.583570  1
  Al  Al9  1  0.750000  0.250000  0.166667  1
  Al  Al10  1  0.750000  0.250000  0.499342  1
  Al  Al11  1  0.750000  0.250000  0.833991  1
  Al  Al12  1  0.750000  0.250000  0.999342  1
  Al  Al13  1  0.750000  0.250000  0.333991  1
  Al  Al14  1  0.750000  0.250000  0.666667  1
  Al  Al15  1  0.250000  0.750000  0.248970  1
  Al  Al16  1  0.250000  0.750000  0.584363  1
  Al  Al17  1  0.250000  0.750000  0.916667  1
  Al  Al18  1  0.750000  0.250000  0.083570  1
  Al  Al19  1  0.750000  0.250000  0.749763  1
  Bi  Bi20  1  0.750000  0.750000  0.293634  1
  Bi  Bi21  1  0.750000  0.750000  0.628165  1
  Bi  Bi22  1  0.750000  0.750000  0.959438  1
  Bi  Bi23  1  0.250000  0.250000  0.039699  1
  Bi  Bi24  1  0.250000  0.250000  0.373895  1
  Bi  Bi25  1  0.250000  0.250000  0.705169  1
  Bi  Bi26  1  0.750000  0.750000  0.205169  1
  Bi  Bi27  1  0.750000  0.750000  0.539699  1
  Bi  Bi28  1  0.750000  0.750000  0.873895  1
  Bi  Bi29  1  0.250000  0.250000  0.128165  1
  Bi  Bi30  1  0.250000  0.250000  0.459438  1
  Bi  Bi31  1  0.250000  0.250000  0.793634  1
  S  S32  1  0.091121  0.589754  0.041461  1
  S  S33  1  0.091097  0.588655  0.374988  1
  S  S34  1  0.096296  0.583317  0.709475  1
  S  S35  1  0.909028  0.088934  0.208254  1
  S  S36  1  0.907864  0.088970  0.541909  1
  S  S37  1  0.900218  0.080030  0.873384  1
  S  S38  1  0.588934  0.090972  0.125079  1
  S  S39  1  0.580030  0.099782  0.459950  1
  S  S40  1  0.588970  0.092136  0.791424  1
  S  S41  1  0.089754  0.908879  0.291872  1
  S  S42  1  0.083317  0.903704  0.623858  1
  S  S43  1  0.088655  0.908903  0.958346  1
  S  S44  1  0.590972  0.411066  0.208254  1
  S  S45  1  0.592136  0.411030  0.541909  1
  S  S46  1  0.599782  0.419970  0.873384  1
  S  S47  1  0.408879  0.910246  0.041461  1
  S  S48  1  0.408903  0.911345  0.374988  1
  S  S49  1  0.403704  0.916683  0.709475  1
  S  S50  1  0.083317  0.596296  0.209475  1
  S  S51  1  0.089754  0.591121  0.541461  1
  S  S52  1  0.088655  0.591097  0.874988  1
  S  S53  1  0.911066  0.409028  0.125079  1
  S  S54  1  0.919970  0.400218  0.459950  1
  S  S55  1  0.911030  0.407864  0.791424  1
  S  S56  1  0.907864  0.411030  0.291424  1
  S  S57  1  0.909028  0.411066  0.625079  1
  S  S58  1  0.900218  0.419970  0.959950  1
  S  S59  1  0.410246  0.591121  0.291872  1
  S  S60  1  0.416683  0.596296  0.623858  1
  S  S61  1  0.411345  0.591097  0.958346  1
  S  S62  1  0.911030  0.092136  0.041909  1
  S  S63  1  0.919970  0.099782  0.373384  1
  S  S64  1  0.911066  0.090972  0.708254  1
  S  S65  1  0.588970  0.407864  0.041909  1
  S  S66  1  0.580030  0.400218  0.373384  1
  S  S67  1  0.588934  0.409028  0.708254  1
  S  S68  1  0.416683  0.903704  0.209475  1
  S  S69  1  0.410246  0.908879  0.541461  1
  S  S70  1  0.411345  0.908903  0.874988  1
  S  S71  1  0.403704  0.583317  0.123858  1
  S  S72  1  0.408903  0.588655  0.458346  1
  S  S73  1  0.408879  0.589754  0.791872  1
  S  S74  1  0.096296  0.916683  0.123858  1
  S  S75  1  0.091097  0.911345  0.458346  1
  S  S76  1  0.091121  0.910246  0.791872  1
  S  S77  1  0.592136  0.088970  0.291424  1
  S  S78  1  0.590972  0.088934  0.625079  1
  S  S79  1  0.599782  0.080030  0.959950  1
