# generated using pymatgen
data_Fe(WO4)2
_symmetry_space_group_name_H-M   'P 1'
_cell_length_a   5.08013482
_cell_length_b   5.86281026
_cell_length_c   9.46452615
_cell_angle_alpha   90.00000000
_cell_angle_beta   90.81425372
_cell_angle_gamma   90.00000000
_symmetry_Int_Tables_number   1
_chemical_formula_structural   Fe(WO4)2
_chemical_formula_sum   'Fe2 W4 O16'
_cell_volume   281.86171865
_cell_formula_units_Z   2
loop_
 _symmetry_equiv_pos_site_id
 _symmetry_equiv_pos_as_xyz
  1  'x, y, z'
loop_
 _atom_site_type_symbol
 _atom_site_label
 _atom_site_symmetry_multiplicity
 _atom_site_fract_x
 _atom_site_fract_y
 _atom_site_fract_z
 _atom_site_occupancy
  Fe  Fe0  1  0.750000  0.341346  0.250000  1
  Fe  Fe1  1  0.250000  0.658653  0.750000  1
  W  W2  1  0.248504  0.172617  0.505681  1
  W  W3  1  0.251495  0.172617  0.994320  1
  W  W4  1  0.751496  0.827383  0.494319  1
  W  W5  1  0.748505  0.827383  0.005680  1
  O  O6  1  0.419183  0.336183  0.136730  1
  O  O7  1  0.080816  0.336183  0.363269  1
  O  O8  1  0.580817  0.663816  0.863270  1
  O  O9  1  0.919183  0.663816  0.636731  1
  O  O10  1  0.422955  0.891168  0.605928  1
  O  O11  1  0.077045  0.891168  0.894072  1
  O  O12  1  0.577045  0.108832  0.394072  1
  O  O13  1  0.922955  0.108832  0.105928  1
  O  O14  1  0.862887  0.597935  0.119940  1
  O  O15  1  0.637113  0.597935  0.380060  1
  O  O16  1  0.137113  0.402066  0.880060  1
  O  O17  1  0.362887  0.402066  0.619940  1
  O  O18  1  0.441868  0.895937  0.108584  1
  O  O19  1  0.558132  0.104064  0.891416  1
  O  O20  1  0.058133  0.895937  0.391417  1
  O  O21  1  0.941867  0.104064  0.608583  1
