# generated using pymatgen
data_Cr2(SiO4)3
_symmetry_space_group_name_H-M   'P 1'
_cell_length_a   10.05655920
_cell_length_b   10.05655910
_cell_length_c   10.05655867
_cell_angle_alpha   109.47122338
_cell_angle_beta   109.47122311
_cell_angle_gamma   109.47121832
_symmetry_Int_Tables_number   1
_chemical_formula_structural   Cr2(SiO4)3
_chemical_formula_sum   'Cr8 Si12 O48'
_cell_volume   782.93608584
_cell_formula_units_Z   4
loop_
 _symmetry_equiv_pos_site_id
 _symmetry_equiv_pos_as_xyz
  1  'x, y, z'
loop_
 _atom_site_type_symbol
 _atom_site_label
 _atom_site_symmetry_multiplicity
 _atom_site_fract_x
 _atom_site_fract_y
 _atom_site_fract_z
 _atom_site_occupancy
  Cr  Cr0  1  0.000000  0.000000  0.000000  1
  Cr  Cr1  1  0.000000  0.500000  0.000000  1
  Cr  Cr2  1  0.000000  0.000000  0.500000  1
  Cr  Cr3  1  0.000000  0.500000  0.500000  1
  Cr  Cr4  1  0.500000  0.000000  0.500000  1
  Cr  Cr5  1  0.500000  0.500000  0.000000  1
  Cr  Cr6  1  0.500000  0.500000  0.500000  1
  Cr  Cr7  1  0.500000  0.000000  0.000000  1
  Si  Si8  1  0.250000  0.125000  0.875000  1
  Si  Si9  1  0.750000  0.875000  0.125000  1
  Si  Si10  1  0.375000  0.250000  0.625000  1
  Si  Si11  1  0.625000  0.375000  0.250000  1
  Si  Si12  1  0.125000  0.750000  0.875000  1
  Si  Si13  1  0.875000  0.125000  0.750000  1
  Si  Si14  1  0.750000  0.375000  0.625000  1
  Si  Si15  1  0.375000  0.625000  0.750000  1
  Si  Si16  1  0.125000  0.875000  0.250000  1
  Si  Si17  1  0.875000  0.250000  0.125000  1
  Si  Si18  1  0.625000  0.750000  0.375000  1
  Si  Si19  1  0.250000  0.625000  0.375000  1
  O  O20  1  0.307327  0.493292  0.392303  1
  O  O21  1  0.006708  0.314035  0.899011  1
  O  O22  1  0.107697  0.600989  0.915024  1
  O  O23  1  0.192673  0.584976  0.185965  1
  O  O24  1  0.192673  0.107697  0.006708  1
  O  O25  1  0.584976  0.185965  0.192673  1
  O  O26  1  0.600989  0.185965  0.493292  1
  O  O27  1  0.185965  0.192673  0.584976  1
  O  O28  1  0.899011  0.392303  0.584976  1
  O  O29  1  0.314035  0.915024  0.307327  1
  O  O30  1  0.915024  0.307327  0.314035  1
  O  O31  1  0.006708  0.192673  0.107697  1
  O  O32  1  0.185965  0.493292  0.600989  1
  O  O33  1  0.584976  0.899011  0.392303  1
  O  O34  1  0.107697  0.006708  0.192673  1
  O  O35  1  0.493292  0.600989  0.185965  1
  O  O36  1  0.392303  0.584976  0.899011  1
  O  O37  1  0.899011  0.006708  0.314035  1
  O  O38  1  0.600989  0.915024  0.107697  1
  O  O39  1  0.100989  0.607697  0.415024  1
  O  O40  1  0.915024  0.107697  0.600989  1
  O  O41  1  0.392303  0.307327  0.493292  1
  O  O42  1  0.314035  0.899011  0.006708  1
  O  O43  1  0.307327  0.314035  0.915024  1
  O  O44  1  0.692673  0.506708  0.607697  1
  O  O45  1  0.993292  0.685965  0.100989  1
  O  O46  1  0.892303  0.399011  0.084976  1
  O  O47  1  0.807327  0.415024  0.814035  1
  O  O48  1  0.807327  0.892303  0.993292  1
  O  O49  1  0.415024  0.814035  0.807327  1
  O  O50  1  0.399011  0.814035  0.506708  1
  O  O51  1  0.814035  0.807327  0.415024  1
  O  O52  1  0.692673  0.685965  0.084976  1
  O  O53  1  0.685965  0.100989  0.993292  1
  O  O54  1  0.607697  0.692673  0.506708  1
  O  O55  1  0.506708  0.607697  0.692673  1
  O  O56  1  0.084976  0.892303  0.399011  1
  O  O57  1  0.399011  0.084976  0.892303  1
  O  O58  1  0.100989  0.993292  0.685965  1
  O  O59  1  0.607697  0.415024  0.100989  1
  O  O60  1  0.506708  0.399011  0.814035  1
  O  O61  1  0.892303  0.993292  0.807327  1
  O  O62  1  0.415024  0.100989  0.607697  1
  O  O63  1  0.814035  0.506708  0.399011  1
  O  O64  1  0.993292  0.807327  0.892303  1
  O  O65  1  0.084976  0.692673  0.685965  1
  O  O66  1  0.685965  0.084976  0.692673  1
  O  O67  1  0.493292  0.392303  0.307327  1
