# generated using pymatgen
data_CaSn(GeO3)2
_symmetry_space_group_name_H-M   'P 1'
_cell_length_a   5.61184351
_cell_length_b   7.37297805
_cell_length_c   7.37297775
_cell_angle_alpha   85.19783387
_cell_angle_beta   80.64113655
_cell_angle_gamma   80.64113339
_symmetry_Int_Tables_number   1
_chemical_formula_structural   CaSn(GeO3)2
_chemical_formula_sum   'Ca2 Sn2 Ge4 O12'
_cell_volume   296.48271402
_cell_formula_units_Z   2
loop_
 _symmetry_equiv_pos_site_id
 _symmetry_equiv_pos_as_xyz
  1  'x, y, z'
loop_
 _atom_site_type_symbol
 _atom_site_label
 _atom_site_symmetry_multiplicity
 _atom_site_fract_x
 _atom_site_fract_y
 _atom_site_fract_z
 _atom_site_occupancy
  Ca  Ca0  1  0.750000  0.311822  0.688178  1
  Ca  Ca1  1  0.250000  0.688178  0.311822  1
  Sn  Sn2  1  0.750000  0.890780  0.109220  1
  Sn  Sn3  1  0.250000  0.109220  0.890780  1
  Ge  Ge4  1  0.766527  0.389531  0.194223  1
  Ge  Ge5  1  0.733473  0.805777  0.610469  1
  Ge  Ge6  1  0.233473  0.610469  0.805777  1
  Ge  Ge7  1  0.266527  0.194223  0.389531  1
  O  O8  1  0.525124  0.319466  0.378207  1
  O  O9  1  0.974876  0.621793  0.680534  1
  O  O10  1  0.474876  0.680534  0.621793  1
  O  O11  1  0.025124  0.378207  0.319466  1
  O  O12  1  0.138330  0.157639  0.619376  1
  O  O13  1  0.361670  0.380624  0.842361  1
  O  O14  1  0.861670  0.842361  0.380624  1
  O  O15  1  0.638330  0.619376  0.157639  1
  O  O16  1  0.842525  0.267980  0.996880  1
  O  O17  1  0.657475  0.003120  0.732020  1
  O  O18  1  0.157475  0.732020  0.003120  1
  O  O19  1  0.342525  0.996880  0.267980  1
