# generated using pymatgen
data_Sr2MnSO3
_symmetry_space_group_name_H-M   'P 1'
_cell_length_a   4.00477149
_cell_length_b   4.00315775
_cell_length_c   14.59609118
_cell_angle_alpha   90.00007708
_cell_angle_beta   90.00001204
_cell_angle_gamma   89.99246205
_symmetry_Int_Tables_number   1
_chemical_formula_structural   Sr2MnSO3
_chemical_formula_sum   'Sr4 Mn2 S2 O6'
_cell_volume   234.00062026
_cell_formula_units_Z   2
loop_
 _symmetry_equiv_pos_site_id
 _symmetry_equiv_pos_as_xyz
  1  'x, y, z'
loop_
 _atom_site_type_symbol
 _atom_site_label
 _atom_site_symmetry_multiplicity
 _atom_site_fract_x
 _atom_site_fract_y
 _atom_site_fract_z
 _atom_site_occupancy
  Sr  Sr0  1  0.750000  0.749998  0.164453  1
  Sr  Sr1  1  0.249999  0.250000  0.835313  1
  Sr  Sr2  1  0.750000  0.749999  0.408591  1
  Sr  Sr3  1  0.250001  0.249999  0.591440  1
  Mn  Mn4  1  0.250004  0.249987  0.292146  1
  Mn  Mn5  1  0.749994  0.750019  0.707861  1
  S  S6  1  0.250002  0.250000  0.117298  1
  S  S7  1  0.750000  0.750000  0.882755  1
  O  O8  1  0.749998  0.249999  0.287486  1
  O  O9  1  0.250002  0.749999  0.287470  1
  O  O10  1  0.250000  0.749999  0.712591  1
  O  O11  1  0.750000  0.250000  0.712606  1
  O  O12  1  0.250000  0.249999  0.424324  1
  O  O13  1  0.750001  0.749999  0.575668  1
