# generated using pymatgen
data_Ca2Ta2SnO8
_symmetry_space_group_name_H-M   'P 1'
_cell_length_a   5.50178521
_cell_length_b   6.77244456
_cell_length_c   10.71462808
_cell_angle_alpha   108.42336944
_cell_angle_beta   89.80056469
_cell_angle_gamma   89.99068518
_symmetry_Int_Tables_number   1
_chemical_formula_structural   Ca2Ta2SnO8
_chemical_formula_sum   'Ca4 Ta4 Sn2 O16'
_cell_volume   378.76834547
_cell_formula_units_Z   2
loop_
 _symmetry_equiv_pos_site_id
 _symmetry_equiv_pos_as_xyz
  1  'x, y, z'
loop_
 _atom_site_type_symbol
 _atom_site_label
 _atom_site_symmetry_multiplicity
 _atom_site_fract_x
 _atom_site_fract_y
 _atom_site_fract_z
 _atom_site_occupancy
  Ca  Ca0  1  0.749802  0.431451  0.570018  1
  Ca  Ca1  1  0.752211  0.862799  0.430399  1
  Ca  Ca2  1  0.251671  0.565019  0.431981  1
  Ca  Ca3  1  0.249308  0.133340  0.571676  1
  Ta  Ta4  1  0.745708  0.265760  0.247986  1
  Ta  Ta5  1  0.754774  0.016201  0.753235  1
  Ta  Ta6  1  0.254659  0.730751  0.754025  1
  Ta  Ta7  1  0.245652  0.979633  0.248736  1
  Sn  Sn8  1  0.749656  0.686040  0.001791  1
  Sn  Sn9  1  0.248489  0.309342  0.000329  1
  O  O10  1  0.068020  0.174858  0.158417  1
  O  O11  1  0.431381  0.017378  0.842756  1
  O  O12  1  0.931958  0.820669  0.843196  1
  O  O13  1  0.568430  0.979239  0.158781  1
  O  O14  1  0.606487  0.398022  0.140957  1
  O  O15  1  0.895925  0.255000  0.860348  1
  O  O16  1  0.394313  0.599465  0.861599  1
  O  O17  1  0.104717  0.740664  0.142167  1
  O  O18  1  0.473025  0.265277  0.376524  1
  O  O19  1  0.027622  0.886997  0.624703  1
  O  O20  1  0.354545  0.858137  0.381429  1
  O  O21  1  0.146791  0.476562  0.621332  1
  O  O22  1  0.647142  0.138381  0.620693  1
  O  O23  1  0.854841  0.519532  0.380752  1
  O  O24  1  0.973369  0.109146  0.377326  1
  O  O25  1  0.528050  0.731202  0.625581  1
