# generated using pymatgen
data_SiMoO4
_symmetry_space_group_name_H-M   'P 1'
_cell_length_a   9.99226145
_cell_length_b   9.99226099
_cell_length_c   9.99226113
_cell_angle_alpha   109.47122300
_cell_angle_beta   109.47122211
_cell_angle_gamma   109.47122014
_symmetry_Int_Tables_number   1
_chemical_formula_structural   SiMoO4
_chemical_formula_sum   'Si12 Mo12 O48'
_cell_volume   768.01450877
_cell_formula_units_Z   12
loop_
 _symmetry_equiv_pos_site_id
 _symmetry_equiv_pos_as_xyz
  1  'x, y, z'
loop_
 _atom_site_type_symbol
 _atom_site_label
 _atom_site_symmetry_multiplicity
 _atom_site_fract_x
 _atom_site_fract_y
 _atom_site_fract_z
 _atom_site_occupancy
  Si  Si0  1  0.250000  0.125000  0.875000  1
  Si  Si1  1  0.875000  0.250000  0.125000  1
  Si  Si2  1  0.625000  0.750001  0.375000  1
  Si  Si3  1  0.250000  0.625000  0.375001  1
  Si  Si4  1  0.375000  0.625000  0.750000  1
  Si  Si5  1  0.750000  0.375000  0.625000  1
  Si  Si6  1  0.875000  0.125000  0.750000  1
  Si  Si7  1  0.125000  0.750001  0.875000  1
  Si  Si8  1  0.125000  0.875001  0.250000  1
  Si  Si9  1  0.625000  0.375000  0.250000  1
  Si  Si10  1  0.375000  0.250000  0.625000  1
  Si  Si11  1  0.750000  0.875001  0.125000  1
  Mo  Mo12  1  0.250000  0.875001  0.625000  1
  Mo  Mo13  1  0.875000  0.625000  0.250000  1
  Mo  Mo14  1  0.625001  0.875001  0.750001  1
  Mo  Mo15  1  0.875001  0.750001  0.625001  1
  Mo  Mo16  1  0.625000  0.250000  0.875000  1
  Mo  Mo17  1  0.750000  0.625000  0.875000  1
  Mo  Mo18  1  0.750000  0.125000  0.375000  1
  Mo  Mo19  1  0.125000  0.375000  0.750000  1
  Mo  Mo20  1  0.375000  0.125000  0.250000  1
  Mo  Mo21  1  0.125000  0.250000  0.375000  1
  Mo  Mo22  1  0.375000  0.750001  0.125000  1
  Mo  Mo23  1  0.250000  0.375000  0.125000  1
  O  O24  1  0.274939  0.468392  0.369541  1
  O  O25  1  0.031608  0.306547  0.901148  1
  O  O26  1  0.130459  0.598852  0.905399  1
  O  O27  1  0.225060  0.594601  0.193453  1
  O  O28  1  0.225060  0.130458  0.031607  1
  O  O29  1  0.594600  0.193452  0.225060  1
  O  O30  1  0.598851  0.193452  0.468392  1
  O  O31  1  0.193453  0.225060  0.594602  1
  O  O32  1  0.901149  0.369541  0.594601  1
  O  O33  1  0.306548  0.905399  0.274940  1
  O  O34  1  0.905399  0.274940  0.306548  1
  O  O35  1  0.031608  0.225060  0.130458  1
  O  O36  1  0.193453  0.468392  0.598852  1
  O  O37  1  0.594601  0.901149  0.369542  1
  O  O38  1  0.130458  0.031607  0.225060  1
  O  O39  1  0.468392  0.598852  0.193452  1
  O  O40  1  0.369541  0.594601  0.901148  1
  O  O41  1  0.901148  0.031607  0.306547  1
  O  O42  1  0.598851  0.905399  0.130459  1
  O  O43  1  0.098851  0.630458  0.405399  1
  O  O44  1  0.468392  0.369541  0.274939  1
  O  O45  1  0.369541  0.274940  0.468392  1
  O  O46  1  0.306548  0.901149  0.031608  1
  O  O47  1  0.274939  0.306547  0.905398  1
  O  O48  1  0.725060  0.531607  0.630458  1
  O  O49  1  0.968392  0.693452  0.098851  1
  O  O50  1  0.869542  0.401149  0.094601  1
  O  O51  1  0.774940  0.405399  0.806548  1
  O  O52  1  0.774939  0.869542  0.968393  1
  O  O53  1  0.405399  0.806547  0.774939  1
  O  O54  1  0.401149  0.806547  0.531607  1
  O  O55  1  0.806548  0.774940  0.405399  1
  O  O56  1  0.725060  0.693452  0.094601  1
  O  O57  1  0.693453  0.098852  0.968392  1
  O  O58  1  0.630458  0.725061  0.531608  1
  O  O59  1  0.531608  0.630458  0.725060  1
  O  O60  1  0.094601  0.869542  0.401148  1
  O  O61  1  0.401148  0.094600  0.869541  1
  O  O62  1  0.098852  0.968392  0.693452  1
  O  O63  1  0.630459  0.405399  0.098851  1
  O  O64  1  0.531608  0.401149  0.806548  1
  O  O65  1  0.869542  0.968392  0.774940  1
  O  O66  1  0.405399  0.098852  0.630459  1
  O  O67  1  0.806547  0.531607  0.401149  1
  O  O68  1  0.968392  0.774940  0.869542  1
  O  O69  1  0.094601  0.725061  0.693453  1
  O  O70  1  0.693452  0.094600  0.725060  1
  O  O71  1  0.905399  0.130458  0.598851  1
