# generated using pymatgen
data_Y2Cr3O9
_symmetry_space_group_name_H-M   'P 1'
_cell_length_a   5.25416473
_cell_length_b   16.32470543
_cell_length_c   7.55172780
_cell_angle_alpha   89.88536763
_cell_angle_beta   89.89322472
_cell_angle_gamma   90.16524410
_symmetry_Int_Tables_number   1
_chemical_formula_structural   Y2Cr3O9
_chemical_formula_sum   'Y8 Cr12 O36'
_cell_volume   647.72689705
_cell_formula_units_Z   4
loop_
 _symmetry_equiv_pos_site_id
 _symmetry_equiv_pos_as_xyz
  1  'x, y, z'
loop_
 _atom_site_type_symbol
 _atom_site_label
 _atom_site_symmetry_multiplicity
 _atom_site_fract_x
 _atom_site_fract_y
 _atom_site_fract_z
 _atom_site_occupancy
  Y  Y0  1  0.011750  0.649838  0.752316  1
  Y  Y1  1  0.019119  0.978752  0.754828  1
  Y  Y2  1  0.510776  0.183989  0.250509  1
  Y  Y3  1  0.517075  0.853596  0.244920  1
  Y  Y4  1  0.488876  0.149466  0.749793  1
  Y  Y5  1  0.483028  0.479872  0.751424  1
  Y  Y6  1  0.979957  0.354548  0.247881  1
  Y  Y7  1  0.988300  0.683409  0.247479  1
  Cr  Cr8  1  0.000477  0.166363  0.499915  1
  Cr  Cr9  1  0.990522  0.501628  0.496159  1
  Cr  Cr10  1  0.011674  0.830802  0.503746  1
  Cr  Cr11  1  0.511569  0.000793  0.494779  1
  Cr  Cr12  1  0.492362  0.332852  0.508689  1
  Cr  Cr13  1  0.500421  0.666569  0.499815  1
  Cr  Cr14  1  0.505330  0.000762  0.009553  1
  Cr  Cr15  1  0.490348  0.332752  0.994133  1
  Cr  Cr16  1  0.499553  0.666651  0.999775  1
  Cr  Cr17  1  0.999199  0.166723  0.999822  1
  Cr  Cr18  1  0.994362  0.501632  0.009517  1
  Cr  Cr19  1  0.003943  0.832044  0.989859  1
  O  O20  1  0.692011  0.103282  0.466008  1
  O  O21  1  0.723225  0.429072  0.459061  1
  O  O22  1  0.714494  0.764689  0.435146  1
  O  O23  1  0.216370  0.069135  0.563456  1
  O  O24  1  0.219895  0.406370  0.535021  1
  O  O25  1  0.183264  0.731574  0.533833  1
  O  O26  1  0.782843  0.263824  0.062552  1
  O  O27  1  0.811538  0.604257  0.033263  1
  O  O28  1  0.784726  0.930585  0.034893  1
  O  O29  1  0.306167  0.229316  0.966869  1
  O  O30  1  0.284074  0.568871  0.938490  1
  O  O31  1  0.286767  0.902870  0.964399  1
  O  O32  1  0.306246  0.228331  0.533620  1
  O  O33  1  0.286161  0.569368  0.564678  1
  O  O34  1  0.274774  0.905847  0.540747  1
  O  O35  1  0.782448  0.264138  0.437756  1
  O  O36  1  0.818882  0.602068  0.466810  1
  O  O37  1  0.774505  0.926978  0.463701  1
  O  O38  1  0.217365  0.069626  0.938053  1
  O  O39  1  0.220989  0.403570  0.964260  1
  O  O40  1  0.188776  0.728815  0.967085  1
  O  O41  1  0.695641  0.105281  0.033492  1
  O  O42  1  0.714002  0.429020  0.035905  1
  O  O43  1  0.716454  0.764101  0.061336  1
  O  O44  1  0.082739  0.158943  0.250909  1
  O  O45  1  0.078365  0.493065  0.243531  1
  O  O46  1  0.102792  0.821840  0.248061  1
  O  O47  1  0.602867  0.012116  0.750975  1
  O  O48  1  0.572240  0.338070  0.746315  1
  O  O49  1  0.583319  0.673374  0.755620  1
  O  O50  1  0.396871  0.321362  0.251149  1
  O  O51  1  0.417116  0.659874  0.244454  1
  O  O52  1  0.426944  0.994957  0.246607  1
  O  O53  1  0.916618  0.174422  0.749085  1
  O  O54  1  0.897519  0.511369  0.752490  1
  O  O55  1  0.922353  0.839911  0.755457  1
