# generated using pymatgen
data_Ca3Sn3(AsO4)4
_symmetry_space_group_name_H-M   'P 1'
_cell_length_a   5.53972066
_cell_length_b   9.81768647
_cell_length_c   15.77879655
_cell_angle_alpha   86.63395787
_cell_angle_beta   90.00000000
_cell_angle_gamma   90.00000000
_symmetry_Int_Tables_number   1
_chemical_formula_structural   Ca3Sn3(AsO4)4
_chemical_formula_sum   'Ca6 Sn6 As8 O32'
_cell_volume   856.68469908
_cell_formula_units_Z   2
loop_
 _symmetry_equiv_pos_site_id
 _symmetry_equiv_pos_as_xyz
  1  'x, y, z'
loop_
 _atom_site_type_symbol
 _atom_site_label
 _atom_site_symmetry_multiplicity
 _atom_site_fract_x
 _atom_site_fract_y
 _atom_site_fract_z
 _atom_site_occupancy
  Ca  Ca0  1  0.933299  0.071036  0.744044  1
  Ca  Ca1  1  0.433299  0.428964  0.755956  1
  Ca  Ca2  1  0.066701  0.928964  0.255956  1
  Ca  Ca3  1  0.566701  0.571036  0.244044  1
  Ca  Ca4  1  0.000000  -0.000000  0.000000  1
  Ca  Ca5  1  0.500000  0.500000  0.500000  1
  Sn  Sn6  1  0.980682  0.313768  0.134595  1
  Sn  Sn7  1  0.019318  0.686232  0.865405  1
  Sn  Sn8  1  0.480682  0.186232  0.365405  1
  Sn  Sn9  1  0.519318  0.813768  0.634595  1
  Sn  Sn10  1  0.500000  0.500000  0.000000  1
  Sn  Sn11  1  0.000000  -0.000000  0.500000  1
  As  As12  1  0.470109  0.889215  0.857247  1
  As  As13  1  0.972486  0.338372  0.887812  1
  As  As14  1  0.472486  0.161628  0.612188  1
  As  As15  1  0.527514  0.838372  0.387812  1
  As  As16  1  0.529891  0.110785  0.142753  1
  As  As17  1  0.027514  0.661628  0.112188  1
  As  As18  1  0.029891  0.389215  0.357247  1
  As  As19  1  0.970109  0.610785  0.642753  1
  O  O20  1  0.110761  0.587644  0.741139  1
  O  O21  1  0.465665  0.264405  0.521830  1
  O  O22  1  0.086666  0.266811  0.800277  1
  O  O23  1  0.915326  0.787416  0.624790  1
  O  O24  1  0.913334  0.733189  0.199723  1
  O  O25  1  0.389239  0.087644  0.241139  1
  O  O26  1  0.586666  0.233189  0.699723  1
  O  O27  1  0.808144  0.913064  0.371356  1
  O  O28  1  0.845437  0.461865  0.425573  1
  O  O29  1  0.889239  0.412356  0.258861  1
  O  O30  1  0.584674  0.287416  0.124790  1
  O  O31  1  0.191856  0.086936  0.628644  1
  O  O32  1  0.168978  0.475031  0.905088  1
  O  O33  1  0.154563  0.538135  0.574427  1
  O  O34  1  0.823723  0.048145  0.146196  1
  O  O35  1  0.323723  0.451855  0.353804  1
  O  O36  1  0.668978  0.024969  0.594912  1
  O  O37  1  0.413334  0.766811  0.300277  1
  O  O38  1  0.345437  0.038135  0.074427  1
  O  O39  1  0.308144  0.586936  0.128644  1
  O  O40  1  0.676277  0.548145  0.646196  1
  O  O41  1  0.176277  0.951855  0.853804  1
  O  O42  1  0.534335  0.735595  0.478170  1
  O  O43  1  0.965665  0.235595  0.978170  1
  O  O44  1  0.831022  0.524969  0.094912  1
  O  O45  1  0.610761  0.912356  0.758861  1
  O  O46  1  0.084674  0.212584  0.375210  1
  O  O47  1  0.654563  0.961865  0.925573  1
  O  O48  1  0.034335  0.764405  0.021830  1
  O  O49  1  0.691856  0.413064  0.871356  1
  O  O50  1  0.331022  0.975031  0.405088  1
  O  O51  1  0.415326  0.712584  0.875210  1
