# generated using pymatgen
data_Mn9Zn2O13
_symmetry_space_group_name_H-M   'P 1'
_cell_length_a   3.15015154
_cell_length_b   5.15123002
_cell_length_c   17.48749343
_cell_angle_alpha   97.91822263
_cell_angle_beta   92.82498643
_cell_angle_gamma   97.14274034
_symmetry_Int_Tables_number   1
_chemical_formula_structural   Mn9Zn2O13
_chemical_formula_sum   'Mn9 Zn2 O13'
_cell_volume   278.24792978
_cell_formula_units_Z   1
loop_
 _symmetry_equiv_pos_site_id
 _symmetry_equiv_pos_as_xyz
  1  'x, y, z'
loop_
 _atom_site_type_symbol
 _atom_site_label
 _atom_site_symmetry_multiplicity
 _atom_site_fract_x
 _atom_site_fract_y
 _atom_site_fract_z
 _atom_site_occupancy
  Mn  Mn0  1  0.500000  -0.000000  0.500000  1
  Mn  Mn1  1  0.005985  0.873072  0.128858  1
  Mn  Mn2  1  -0.005985  0.126928  0.871142  1
  Mn  Mn3  1  0.019510  0.977494  0.325128  1
  Mn  Mn4  1  0.980490  0.022506  0.674872  1
  Mn  Mn5  1  0.648640  0.287265  0.040029  1
  Mn  Mn6  1  0.351360  0.712735  0.959971  1
  Mn  Mn7  1  0.765674  0.498609  0.417258  1
  Mn  Mn8  1  0.234326  0.501391  0.582742  1
  Zn  Zn9  1  0.497325  0.446191  0.227801  1
  Zn  Zn10  1  0.502675  0.553809  0.772199  1
  O  O11  1  0.000000  -0.000000  0.000000  1
  O  O12  1  0.044978  0.690755  0.228170  1
  O  O13  1  0.955022  0.309245  0.771830  1
  O  O14  1  0.338080  0.592792  0.064355  1
  O  O15  1  0.661920  0.407208  0.935645  1
  O  O16  1  0.575960  0.158372  0.139785  1
  O  O17  1  0.424040  0.841628  0.860215  1
  O  O18  1  0.578036  0.251740  0.319384  1
  O  O19  1  0.421964  0.748260  0.680616  1
  O  O20  1  0.411097  0.780918  0.395959  1
  O  O21  1  0.588903  0.219082  0.604041  1
  O  O22  1  0.130267  0.266417  0.470799  1
  O  O23  1  0.869733  0.733583  0.529201  1
