# generated using pymatgen
data_Zn3Cu3(AsO4)4
_symmetry_space_group_name_H-M   'P 1'
_cell_length_a   5.12770937
_cell_length_b   8.71199769
_cell_length_c   14.82136965
_cell_angle_alpha   101.18369281
_cell_angle_beta   90.00000000
_cell_angle_gamma   90.00000000
_symmetry_Int_Tables_number   1
_chemical_formula_structural   Zn3Cu3(AsO4)4
_chemical_formula_sum   'Zn6 Cu6 As8 O32'
_cell_volume   649.53581539
_cell_formula_units_Z   2
loop_
 _symmetry_equiv_pos_site_id
 _symmetry_equiv_pos_as_xyz
  1  'x, y, z'
loop_
 _atom_site_type_symbol
 _atom_site_label
 _atom_site_symmetry_multiplicity
 _atom_site_fract_x
 _atom_site_fract_y
 _atom_site_fract_z
 _atom_site_occupancy
  Zn  Zn0  1  0.978299  0.009213  0.730534  1
  Zn  Zn1  1  0.478299  0.490787  0.769466  1
  Zn  Zn2  1  0.021701  0.990787  0.269466  1
  Zn  Zn3  1  0.521701  0.509213  0.230534  1
  Zn  Zn4  1  0.000000  0.000000  0.000000  1
  Zn  Zn5  1  0.500000  0.500000  0.500000  1
  Cu  Cu6  1  0.004964  0.333176  0.120734  1
  Cu  Cu7  1  0.995036  0.666824  0.879266  1
  Cu  Cu8  1  0.504964  0.166824  0.379266  1
  Cu  Cu9  1  0.495036  0.833176  0.620734  1
  Cu  Cu10  1  0.500000  0.500000  0.000000  1
  Cu  Cu11  1  0.000000  0.000000  0.500000  1
  As  As12  1  0.507704  0.889667  0.848701  1
  As  As13  1  0.994351  0.318705  0.899776  1
  As  As14  1  0.494351  0.181295  0.600224  1
  As  As15  1  0.505649  0.818705  0.399776  1
  As  As16  1  0.492296  0.110333  0.151299  1
  As  As17  1  0.005649  0.681295  0.100224  1
  As  As18  1  0.992296  0.389667  0.348701  1
  As  As19  1  0.007704  0.610333  0.651299  1
  O  O20  1  0.100010  0.562563  0.757138  1
  O  O21  1  0.565873  0.266384  0.506451  1
  O  O22  1  0.096579  0.207813  0.800046  1
  O  O23  1  0.108730  0.803652  0.653556  1
  O  O24  1  0.903421  0.792187  0.199954  1
  O  O25  1  0.399990  0.062563  0.257138  1
  O  O26  1  0.596579  0.292187  0.699954  1
  O  O27  1  0.821496  0.887525  0.393087  1
  O  O28  1  0.825560  0.520742  0.426195  1
  O  O29  1  0.899990  0.437437  0.242862  1
  O  O30  1  0.391270  0.303652  0.153556  1
  O  O31  1  0.178504  0.112475  0.606913  1
  O  O32  1  0.192142  0.490359  0.919862  1
  O  O33  1  0.174440  0.479258  0.573805  1
  O  O34  1  0.827414  0.100966  0.140230  1
  O  O35  1  0.327414  0.399034  0.359770  1
  O  O36  1  0.692142  0.009641  0.580138  1
  O  O37  1  0.403421  0.707813  0.300046  1
  O  O38  1  0.325560  0.979258  0.073805  1
  O  O39  1  0.321496  0.612475  0.106913  1
  O  O40  1  0.672586  0.600966  0.640230  1
  O  O41  1  0.172586  0.899034  0.859770  1
  O  O42  1  0.434127  0.733616  0.493549  1
  O  O43  1  0.065873  0.233616  0.993549  1
  O  O44  1  0.807858  0.509641  0.080138  1
  O  O45  1  0.600010  0.937437  0.742862  1
  O  O46  1  0.891270  0.196348  0.346444  1
  O  O47  1  0.674440  0.020742  0.926195  1
  O  O48  1  0.934127  0.766384  0.006451  1
  O  O49  1  0.678504  0.387525  0.893087  1
  O  O50  1  0.307858  0.990359  0.419862  1
  O  O51  1  0.608730  0.696348  0.846444  1
