# generated using pymatgen
data_Ca(BiO2)2
_symmetry_space_group_name_H-M   'P 1'
_cell_length_a   7.02588331
_cell_length_b   7.02075355
_cell_length_c   28.09227274
_cell_angle_alpha   60.01089917
_cell_angle_beta   60.08244514
_cell_angle_gamma   60.02414943
_symmetry_Int_Tables_number   1
_chemical_formula_structural   Ca(BiO2)2
_chemical_formula_sum   'Ca8 Bi16 O32'
_cell_volume   980.71208162
_cell_formula_units_Z   8
loop_
 _symmetry_equiv_pos_site_id
 _symmetry_equiv_pos_as_xyz
  1  'x, y, z'
loop_
 _atom_site_type_symbol
 _atom_site_label
 _atom_site_symmetry_multiplicity
 _atom_site_fract_x
 _atom_site_fract_y
 _atom_site_fract_z
 _atom_site_occupancy
  Ca  Ca0  1  0.131229  0.123646  0.030370  1
  Ca  Ca1  1  0.001056  0.499232  0.125120  1
  Ca  Ca2  1  0.130886  0.122266  0.281145  1
  Ca  Ca3  1  0.000170  0.498368  0.375773  1
  Ca  Ca4  1  0.000265  0.500132  0.624867  1
  Ca  Ca5  1  0.499760  0.499977  0.500072  1
  Ca  Ca6  1  0.001191  0.500958  0.874223  1
  Ca  Ca7  1  0.501254  0.501664  0.748854  1
  Bi  Bi8  1  0.495366  0.498428  0.125302  1
  Bi  Bi9  1  0.492945  0.496586  0.253470  1
  Bi  Bi10  1  0.495366  0.004997  0.125302  1
  Bi  Bi11  1  0.128293  0.120281  0.532786  1
  Bi  Bi12  1  0.499759  0.498434  0.376139  1
  Bi  Bi13  1  0.867189  0.877971  0.219217  1
  Bi  Bi14  1  0.129340  0.121791  0.781769  1
  Bi  Bi15  1  0.499759  0.997253  0.376139  1
  Bi  Bi16  1  0.500742  0.500431  0.624687  1
  Bi  Bi17  1  0.870857  0.879253  0.467659  1
  Bi  Bi18  1  0.500742  0.000080  0.624687  1
  Bi  Bi19  1  0.497007  0.007502  0.873843  1
  Bi  Bi20  1  0.497007  0.500120  0.873843  1
  Bi  Bi21  1  0.871462  0.879029  0.717619  1
  Bi  Bi22  1  0.494689  0.498849  0.001903  1
  Bi  Bi23  1  0.867686  0.877344  0.969406  1
  O  O24  1  0.261149  0.259732  0.064542  1
  O  O25  1  0.261774  0.258189  0.180462  1
  O  O26  1  0.261149  0.720954  0.064542  1
  O  O27  1  0.727540  0.257286  0.064472  1
  O  O28  1  0.258952  0.747816  0.186354  1
  O  O29  1  0.259363  0.261193  0.314966  1
  O  O30  1  0.748308  0.270372  0.184719  1
  O  O31  1  0.253694  0.256313  0.433420  1
  O  O32  1  0.259363  0.719582  0.314966  1
  O  O33  1  0.747353  0.740742  0.067790  1
  O  O34  1  0.728537  0.257050  0.314341  1
  O  O35  1  0.748308  0.742443  0.184719  1
  O  O36  1  0.260133  0.258495  0.564714  1
  O  O37  1  0.269327  0.742238  0.436549  1
  O  O38  1  0.741170  0.275204  0.435567  1
  O  O39  1  0.254710  0.258077  0.682284  1
  O  O40  1  0.260133  0.722514  0.564714  1
  O  O41  1  0.741963  0.739732  0.319643  1
  O  O42  1  0.726959  0.259059  0.563731  1
  O  O43  1  0.741170  0.741360  0.435567  1
  O  O44  1  0.272171  0.741478  0.686218  1
  O  O45  1  0.261452  0.257657  0.814143  1
  O  O46  1  0.740546  0.277448  0.685202  1
  O  O47  1  0.262113  0.260241  0.929351  1
  O  O48  1  0.261452  0.724316  0.814143  1
  O  O49  1  0.744753  0.741765  0.567929  1
  O  O50  1  0.726068  0.259414  0.813776  1
  O  O51  1  0.740546  0.741198  0.685202  1
  O  O52  1  0.262340  0.746652  0.936089  1
  O  O53  1  0.747169  0.273142  0.934546  1
  O  O54  1  0.749143  0.742242  0.816593  1
  O  O55  1  0.747169  0.741504  0.934546  1
