# generated using pymatgen
data_Ba2Tl2Zn2Cr3O10
_symmetry_space_group_name_H-M   'P 1'
_cell_length_a   3.90188351
_cell_length_b   3.89008911
_cell_length_c   19.79437311
_cell_angle_alpha   91.11344956
_cell_angle_beta   101.49464090
_cell_angle_gamma   89.63599482
_symmetry_Int_Tables_number   1
_chemical_formula_structural   Ba2Tl2Zn2Cr3O10
_chemical_formula_sum   'Ba2 Tl2 Zn2 Cr3 O10'
_cell_volume   294.36974120
_cell_formula_units_Z   1
loop_
 _symmetry_equiv_pos_site_id
 _symmetry_equiv_pos_as_xyz
  1  'x, y, z'
loop_
 _atom_site_type_symbol
 _atom_site_label
 _atom_site_symmetry_multiplicity
 _atom_site_fract_x
 _atom_site_fract_y
 _atom_site_fract_z
 _atom_site_occupancy
  Ba  Ba0  1  0.104734  0.206660  0.297172  1
  Ba  Ba1  1  0.851971  0.845481  0.700117  1
  Tl  Tl2  1  0.694212  0.742781  0.440763  1
  Tl  Tl3  1  0.274994  0.271816  0.555548  1
  Zn  Zn4  1  0.024413  0.876057  0.885228  1
  Zn  Zn5  1  0.917247  0.186856  0.113287  1
  Cr  Cr6  1  0.466664  0.369551  0.819061  1
  Cr  Cr7  1  0.488765  0.702380  0.180296  1
  Cr  Cr8  1  0.281473  0.375039  0.001069  1
  O  O9  1  0.490929  0.871846  0.838286  1
  O  O10  1  0.364883  0.355485  0.720336  1
  O  O11  1  0.989898  0.371869  0.841538  1
  O  O12  1  0.896053  0.783390  0.566815  1
  O  O13  1  0.794802  0.358948  0.018759  1
  O  O14  1  0.970953  0.711828  0.162305  1
  O  O15  1  0.591053  0.702452  0.279318  1
  O  O16  1  0.462834  0.201470  0.157143  1
  O  O17  1  0.086818  0.215800  0.431009  1
  O  O18  1  0.248393  0.868252  0.982911  1
