# generated using pymatgen
data_Ca(AgO2)2
_symmetry_space_group_name_H-M   'P 1'
_cell_length_a   6.65794474
_cell_length_b   6.05229866
_cell_length_c   6.05891930
_cell_angle_alpha   89.91389874
_cell_angle_beta   117.05146246
_cell_angle_gamma   117.02192488
_symmetry_Int_Tables_number   1
_chemical_formula_structural   Ca(AgO2)2
_chemical_formula_sum   'Ca2 Ag4 O8'
_cell_volume   187.11584146
_cell_formula_units_Z   2
loop_
 _symmetry_equiv_pos_site_id
 _symmetry_equiv_pos_as_xyz
  1  'x, y, z'
loop_
 _atom_site_type_symbol
 _atom_site_label
 _atom_site_symmetry_multiplicity
 _atom_site_fract_x
 _atom_site_fract_y
 _atom_site_fract_z
 _atom_site_occupancy
  Ca  Ca0  1  0.250005  0.124669  0.874800  1
  Ca  Ca1  1  0.749939  0.875406  0.125167  1
  Ag  Ag2  1  0.500046  0.000049  0.499924  1
  Ag  Ag3  1  0.499948  0.499956  0.499938  1
  Ag  Ag4  1  -0.000022  0.499790  -0.000044  1
  Ag  Ag5  1  0.000006  0.499942  0.499999  1
  O  O6  1  0.146925  0.869612  0.171469  1
  O  O7  1  0.353099  0.828594  0.723130  1
  O  O8  1  0.352926  0.523284  0.130064  1
  O  O9  1  0.853193  0.723228  0.524590  1
  O  O10  1  0.647035  0.476736  0.869934  1
  O  O11  1  0.646933  0.171384  0.276929  1
  O  O12  1  0.146723  0.276720  0.475385  1
  O  O13  1  0.853245  0.130634  0.828712  1
