# generated using pymatgen
data_Mg2Nb2NiO8
_symmetry_space_group_name_H-M   'P 1'
_cell_length_a   5.17976248
_cell_length_b   6.00259857
_cell_length_c   9.96792454
_cell_angle_alpha   107.52120226
_cell_angle_beta   89.66741573
_cell_angle_gamma   89.99731519
_symmetry_Int_Tables_number   1
_chemical_formula_structural   Mg2Nb2NiO8
_chemical_formula_sum   'Mg4 Nb4 Ni2 O16'
_cell_volume   295.53886397
_cell_formula_units_Z   2
loop_
 _symmetry_equiv_pos_site_id
 _symmetry_equiv_pos_as_xyz
  1  'x, y, z'
loop_
 _atom_site_type_symbol
 _atom_site_label
 _atom_site_symmetry_multiplicity
 _atom_site_fract_x
 _atom_site_fract_y
 _atom_site_fract_z
 _atom_site_occupancy
  Mg  Mg0  1  0.755379  0.413993  0.542986  1
  Mg  Mg1  1  0.749743  0.871203  0.457204  1
  Mg  Mg2  1  0.249820  0.587895  0.457241  1
  Mg  Mg3  1  0.255178  0.130652  0.543103  1
  Nb  Nb4  1  0.745578  0.284869  0.229060  1
  Nb  Nb5  1  0.758922  0.055471  0.771152  1
  Nb  Nb6  1  0.259029  0.717253  0.771154  1
  Nb  Nb7  1  0.245664  0.946392  0.229141  1
  Ni  Ni8  1  0.752244  0.646109  0.000120  1
  Ni  Ni9  1  0.252125  0.355894  0.000074  1
  O  O10  1  0.084347  0.184316  0.139866  1
  O  O11  1  0.420090  0.044476  0.860355  1
  O  O12  1  0.920073  0.817299  0.860285  1
  O  O13  1  0.584578  0.957495  0.140065  1
  O  O14  1  0.586080  0.435366  0.114631  1
  O  O15  1  0.918111  0.320559  0.885618  1
  O  O16  1  0.418248  0.566665  0.885619  1
  O  O17  1  0.086312  0.681447  0.114644  1
  O  O18  1  0.461508  0.292981  0.374569  1
  O  O19  1  0.043491  0.918258  0.625749  1
  O  O20  1  0.387085  0.836766  0.381490  1
  O  O21  1  0.117988  0.455304  0.618745  1
  O  O22  1  0.617833  0.165198  0.618798  1
  O  O23  1  0.887205  0.546655  0.381376  1
  O  O24  1  0.961577  0.083806  0.374780  1
  O  O25  1  0.543584  0.709094  0.625711  1
