# generated using pymatgen
data_Zn2AgWO6
_symmetry_space_group_name_H-M   'P 1'
_cell_length_a   6.04057283
_cell_length_b   6.13384300
_cell_length_c   7.54754708
_cell_angle_alpha   85.38418331
_cell_angle_beta   131.11567126
_cell_angle_gamma   130.23766501
_symmetry_Int_Tables_number   1
_chemical_formula_structural   Zn2AgWO6
_chemical_formula_sum   'Zn2 Ag1 W1 O6'
_cell_volume   128.82571503
_cell_formula_units_Z   1
loop_
 _symmetry_equiv_pos_site_id
 _symmetry_equiv_pos_as_xyz
  1  'x, y, z'
loop_
 _atom_site_type_symbol
 _atom_site_label
 _atom_site_symmetry_multiplicity
 _atom_site_fract_x
 _atom_site_fract_y
 _atom_site_fract_z
 _atom_site_occupancy
  Zn  Zn0  1  0.044377  0.583093  0.269354  1
  Zn  Zn1  1  -0.000625  0.525268  0.803269  1
  Ag  Ag2  1  0.998920  0.978650  0.499234  1
  W  W3  1  0.990753  0.984768  0.988887  1
  O  O4  1  0.279290  0.061214  0.373133  1
  O  O5  1  0.687017  0.841904  0.607882  1
  O  O6  1  0.285359  0.435795  0.107051  1
  O  O7  1  0.420546  0.745344  0.811549  1
  O  O8  1  0.511193  0.137746  0.138050  1
  O  O9  1  0.732861  0.508709  0.885264  1
