# generated using pymatgen
data_VZn2WO6
_symmetry_space_group_name_H-M   'P 1'
_cell_length_a   5.30195457
_cell_length_b   5.59760586
_cell_length_c   7.69970356
_cell_angle_alpha   94.20639258
_cell_angle_beta   133.50591466
_cell_angle_gamma   118.29124047
_symmetry_Int_Tables_number   1
_chemical_formula_structural   VZn2WO6
_chemical_formula_sum   'V1 Zn2 W1 O6'
_cell_volume   113.84188512
_cell_formula_units_Z   1
loop_
 _symmetry_equiv_pos_site_id
 _symmetry_equiv_pos_as_xyz
  1  'x, y, z'
loop_
 _atom_site_type_symbol
 _atom_site_label
 _atom_site_symmetry_multiplicity
 _atom_site_fract_x
 _atom_site_fract_y
 _atom_site_fract_z
 _atom_site_occupancy
  V  V0  1  0.001598  0.980201  0.503681  1
  Zn  Zn1  1  0.000141  0.542461  0.219730  1
  Zn  Zn2  1  0.000059  0.493362  0.746933  1
  W  W3  1  0.001871  0.987659  0.000612  1
  O  O4  1  0.730782  0.832556  0.104538  1
  O  O5  1  0.274210  0.116825  0.903147  1
  O  O6  1  0.342048  0.455271  0.242385  1
  O  O7  1  0.391413  0.844014  0.628673  1
  O  O8  1  0.594935  0.100778  0.375808  1
  O  O9  1  0.681961  0.508435  0.785900  1
