# generated using pymatgen
data_Cu3(GeO3)4
_symmetry_space_group_name_H-M   'P 1'
_cell_length_a   6.27048763
_cell_length_b   6.27037042
_cell_length_c   6.27015449
_cell_angle_alpha   109.42434217
_cell_angle_beta   109.47117463
_cell_angle_gamma   109.51856369
_symmetry_Int_Tables_number   1
_chemical_formula_structural   Cu3(GeO3)4
_chemical_formula_sum   'Cu3 Ge4 O12'
_cell_volume   189.77910769
_cell_formula_units_Z   1
loop_
 _symmetry_equiv_pos_site_id
 _symmetry_equiv_pos_as_xyz
  1  'x, y, z'
loop_
 _atom_site_type_symbol
 _atom_site_label
 _atom_site_symmetry_multiplicity
 _atom_site_fract_x
 _atom_site_fract_y
 _atom_site_fract_z
 _atom_site_occupancy
  Cu  Cu0  1  0.499999  0.500006  0.000006  1
  Cu  Cu1  1  -0.000004  0.499997  0.500001  1
  Cu  Cu2  1  0.500000  -0.000005  0.500002  1
  Ge  Ge3  1  0.500000  0.500002  0.499999  1
  Ge  Ge4  1  0.000001  0.500002  0.000002  1
  Ge  Ge5  1  0.000000  -0.000001  0.500001  1
  Ge  Ge6  1  0.499998  -0.000004  0.999995  1
  O  O7  1  0.816203  0.313383  0.129588  1
  O  O8  1  0.183799  0.686618  0.870421  1
  O  O9  1  0.816200  0.686613  0.502818  1
  O  O10  1  0.313688  0.497029  0.183334  1
  O  O11  1  0.496351  0.183108  0.313237  1
  O  O12  1  0.130131  0.816897  0.313244  1
  O  O13  1  0.686307  0.869650  0.183333  1
  O  O14  1  0.503652  0.816894  0.686756  1
  O  O15  1  0.183803  0.313389  0.497184  1
  O  O16  1  0.686314  0.502970  0.816663  1
  O  O17  1  0.869866  0.183109  0.686752  1
  O  O18  1  0.313690  0.130346  0.816663  1
