# generated using pymatgen
data_MgNiMoP2O9
_symmetry_space_group_name_H-M   'P 1'
_cell_length_a   6.46611056
_cell_length_b   7.61773078
_cell_length_c   14.15662085
_cell_angle_alpha   90.04163447
_cell_angle_beta   89.94474451
_cell_angle_gamma   90.03297970
_symmetry_Int_Tables_number   1
_chemical_formula_structural   MgNiMoP2O9
_chemical_formula_sum   'Mg4 Ni4 Mo4 P8 O36'
_cell_volume   697.31331636
_cell_formula_units_Z   4
loop_
 _symmetry_equiv_pos_site_id
 _symmetry_equiv_pos_as_xyz
  1  'x, y, z'
loop_
 _atom_site_type_symbol
 _atom_site_label
 _atom_site_symmetry_multiplicity
 _atom_site_fract_x
 _atom_site_fract_y
 _atom_site_fract_z
 _atom_site_occupancy
  Mg  Mg0  1  0.750093  0.947317  0.784105  1
  Mg  Mg1  1  0.749986  0.552792  0.283984  1
  Mg  Mg2  1  0.249929  0.052499  0.215891  1
  Mg  Mg3  1  0.250075  0.447315  0.715981  1
  Ni  Ni4  1  0.500010  0.000047  0.000038  1
  Ni  Ni5  1  0.499945  0.499987  0.500044  1
  Ni  Ni6  1  0.999942  0.499964  0.500064  1
  Ni  Ni7  1  0.999952  0.000094  0.999963  1
  Mo  Mo8  1  0.750159  0.358098  0.883022  1
  Mo  Mo9  1  0.249878  0.641975  0.116951  1
  Mo  Mo10  1  0.250208  0.859032  0.617208  1
  Mo  Mo11  1  0.749848  0.141001  0.382786  1
  P  P12  1  0.250140  0.347582  0.925310  1
  P  P13  1  0.749879  0.652497  0.074652  1
  P  P14  1  0.750130  0.847461  0.574654  1
  P  P15  1  0.249861  0.152522  0.425331  1
  P  P16  1  0.750064  0.377890  0.688653  1
  P  P17  1  0.249961  0.622028  0.311360  1
  P  P18  1  0.250134  0.877755  0.811669  1
  P  P19  1  0.749913  0.122235  0.188322  1
  O  O20  1  0.042804  0.615356  0.366353  1
  O  O21  1  0.542871  0.384657  0.633809  1
  O  O22  1  0.957078  0.115343  0.133625  1
  O  O23  1  0.457064  0.884478  0.866174  1
  O  O24  1  0.957221  0.384556  0.633689  1
  O  O25  1  0.457125  0.615240  0.366213  1
  O  O26  1  0.042905  0.884687  0.866309  1
  O  O27  1  0.542952  0.115550  0.133831  1
  O  O28  1  0.249658  0.334599  0.470363  1
  O  O29  1  0.750117  0.665363  0.529716  1
  O  O30  1  0.750001  0.834535  0.029675  1
  O  O31  1  0.249946  0.165544  0.970299  1
  O  O32  1  0.749048  0.127905  0.936720  1
  O  O33  1  0.250669  0.872206  0.063273  1
  O  O34  1  0.250114  0.627419  0.563345  1
  O  O35  1  0.749756  0.372450  0.436827  1
  O  O36  1  0.749990  0.207409  0.752475  1
  O  O37  1  0.250074  0.792539  0.247548  1
  O  O38  1  0.249760  0.707451  0.747248  1
  O  O39  1  0.750316  0.292547  0.252752  1
  O  O40  1  0.431548  0.123593  0.356096  1
  O  O41  1  0.931828  0.876765  0.643769  1
  O  O42  1  0.568401  0.623390  0.143963  1
  O  O43  1  0.068397  0.376607  0.856165  1
  O  O44  1  0.568489  0.876492  0.643949  1
  O  O45  1  0.068232  0.123194  0.356215  1
  O  O46  1  0.431640  0.376633  0.856013  1
  O  O47  1  0.931642  0.623422  0.143786  1
  O  O48  1  0.749808  0.974078  0.265150  1
  O  O49  1  0.250265  0.025877  0.734808  1
  O  O50  1  0.250031  0.473995  0.234703  1
  O  O51  1  0.749988  0.526020  0.765261  1
  O  O52  1  0.750033  0.986332  0.495857  1
  O  O53  1  0.250063  0.013545  0.504094  1
  O  O54  1  0.249938  0.486713  0.004073  1
  O  O55  1  0.750123  0.513420  0.995868  1
