# generated using pymatgen
data_ZnSnAsO5
_symmetry_space_group_name_H-M   'P 1'
_cell_length_a   8.04003959
_cell_length_b   6.86344472
_cell_length_c   8.70552899
_cell_angle_alpha   90.00008706
_cell_angle_beta   89.99184373
_cell_angle_gamma   93.16604306
_symmetry_Int_Tables_number   1
_chemical_formula_structural   ZnSnAsO5
_chemical_formula_sum   'Zn4 Sn4 As4 O20'
_cell_volume   479.65845795
_cell_formula_units_Z   4
loop_
 _symmetry_equiv_pos_site_id
 _symmetry_equiv_pos_as_xyz
  1  'x, y, z'
loop_
 _atom_site_type_symbol
 _atom_site_label
 _atom_site_symmetry_multiplicity
 _atom_site_fract_x
 _atom_site_fract_y
 _atom_site_fract_z
 _atom_site_occupancy
  Zn  Zn0  1  0.057973  0.722233  0.060685  1
  Zn  Zn1  1  0.441906  0.277882  0.560651  1
  Zn  Zn2  1  0.529379  0.745896  0.941235  1
  Zn  Zn3  1  0.970838  0.253973  0.441248  1
  Sn  Sn4  1  0.002881  0.492195  0.747795  1
  Sn  Sn5  1  0.497006  0.507935  0.247676  1
  Sn  Sn6  1  0.505788  0.010462  0.255478  1
  Sn  Sn7  1  0.994352  0.989578  0.755451  1
  As  As8  1  0.620681  0.262107  0.897979  1
  As  As9  1  0.879424  0.738083  0.398053  1
  As  As10  1  0.126076  0.239382  0.100247  1
  As  As11  1  0.373843  0.760712  0.600267  1
  O  O12  1  0.807019  0.276410  0.795043  1
  O  O13  1  0.692767  0.723572  0.295076  1
  O  O14  1  0.313923  0.267888  0.201588  1
  O  O15  1  0.186192  0.732219  0.701584  1
  O  O16  1  0.453782  0.278492  0.779406  1
  O  O17  1  0.046195  0.721368  0.279287  1
  O  O18  1  0.961541  0.247748  0.223194  1
  O  O19  1  0.538409  0.751946  0.722973  1
  O  O20  1  0.614679  0.042074  0.995815  1
  O  O21  1  0.885417  0.957753  0.495871  1
  O  O22  1  0.118954  0.435886  0.972915  1
  O  O23  1  0.380845  0.564116  0.472808  1
  O  O24  1  0.618127  0.459214  0.025846  1
  O  O25  1  0.881889  0.540615  0.525976  1
  O  O26  1  0.126869  0.020107  0.003857  1
  O  O27  1  0.373187  0.979798  0.503927  1
  O  O28  1  0.911490  0.706745  0.875309  1
  O  O29  1  0.588335  0.293420  0.375319  1
  O  O30  1  0.389090  0.714773  0.123679  1
  O  O31  1  0.111142  0.285420  0.623763  1
