# generated using pymatgen
data_Ca(BiO2)2
_symmetry_space_group_name_H-M   'P 1'
_cell_length_a   3.52413790
_cell_length_b   10.21457124
_cell_length_c   7.36425383
_cell_angle_alpha   77.12845946
_cell_angle_beta   76.15490848
_cell_angle_gamma   80.06790897
_symmetry_Int_Tables_number   1
_chemical_formula_structural   Ca(BiO2)2
_chemical_formula_sum   'Ca2 Bi4 O8'
_cell_volume   248.92862957
_cell_formula_units_Z   2
loop_
 _symmetry_equiv_pos_site_id
 _symmetry_equiv_pos_as_xyz
  1  'x, y, z'
loop_
 _atom_site_type_symbol
 _atom_site_label
 _atom_site_symmetry_multiplicity
 _atom_site_fract_x
 _atom_site_fract_y
 _atom_site_fract_z
 _atom_site_occupancy
  Ca  Ca0  1  0.294097  0.214280  0.205179  1
  Ca  Ca1  1  0.708196  0.763830  0.827882  1
  Bi  Bi2  1  0.628547  0.123446  0.626924  1
  Bi  Bi3  1  0.120528  0.554171  0.213127  1
  Bi  Bi4  1  0.881991  0.423994  0.819938  1
  Bi  Bi5  1  0.373635  0.854651  0.406110  1
  O  O6  1  0.884731  0.724616  0.513970  1
  O  O7  1  0.430344  0.280168  0.867100  1
  O  O8  1  0.572100  0.697995  0.165948  1
  O  O9  1  0.117480  0.253426  0.519088  1
  O  O10  1  0.202165  0.907774  0.696008  1
  O  O11  1  0.745865  0.385997  0.130196  1
  O  O12  1  0.800115  0.070318  0.337051  1
  O  O13  1  0.256515  0.592135  0.902922  1
