# generated using pymatgen
data_SrFe(PO4)2
_symmetry_space_group_name_H-M   'P 1'
_cell_length_a   5.78253536
_cell_length_b   7.23255454
_cell_length_c   9.11002050
_cell_angle_alpha   109.66993287
_cell_angle_beta   101.82538682
_cell_angle_gamma   99.55861450
_symmetry_Int_Tables_number   1
_chemical_formula_structural   SrFe(PO4)2
_chemical_formula_sum   'Sr2 Fe2 P4 O16'
_cell_volume   339.54683760
_cell_formula_units_Z   2
loop_
 _symmetry_equiv_pos_site_id
 _symmetry_equiv_pos_as_xyz
  1  'x, y, z'
loop_
 _atom_site_type_symbol
 _atom_site_label
 _atom_site_symmetry_multiplicity
 _atom_site_fract_x
 _atom_site_fract_y
 _atom_site_fract_z
 _atom_site_occupancy
  Sr  Sr0  1  0.257587  0.793946  0.055400  1
  Sr  Sr1  1  0.742413  0.206054  0.944600  1
  Fe  Fe2  1  0.685963  0.830079  0.545865  1
  Fe  Fe3  1  0.314037  0.169921  0.454135  1
  P  P4  1  0.399154  0.419110  0.231833  1
  P  P5  1  0.600846  0.580890  0.768167  1
  P  P6  1  0.843943  0.028961  0.301925  1
  P  P7  1  0.156057  0.971039  0.698075  1
  O  O8  1  0.824488  0.568087  0.888697  1
  O  O9  1  0.615976  0.450432  0.162090  1
  O  O10  1  0.643835  0.785905  0.744408  1
  O  O11  1  0.949510  0.090053  0.701853  1
  O  O12  1  0.384024  0.549568  0.837910  1
  O  O13  1  0.999039  0.755843  0.572426  1
  O  O14  1  0.000961  0.244157  0.427574  1
  O  O15  1  0.279879  0.986957  0.868258  1
  O  O16  1  0.356165  0.214095  0.255592  1
  O  O17  1  0.720121  0.013043  0.131742  1
  O  O18  1  0.175512  0.431913  0.111303  1
  O  O19  1  0.434854  0.594352  0.397077  1
  O  O20  1  0.565146  0.405648  0.602923  1
  O  O21  1  0.638035  0.947207  0.371052  1
  O  O22  1  0.050490  0.909947  0.298147  1
  O  O23  1  0.361965  0.052793  0.628948  1
