# generated using pymatgen
data_Sr2AlCu2BiO7
_symmetry_space_group_name_H-M   'P 1'
_cell_length_a   5.29113116
_cell_length_b   5.32586297
_cell_length_c   13.00938606
_cell_angle_alpha   101.80405769
_cell_angle_beta   101.68556620
_cell_angle_gamma   90.07030369
_symmetry_Int_Tables_number   1
_chemical_formula_structural   Sr2AlCu2BiO7
_chemical_formula_sum   'Sr4 Al2 Cu4 Bi2 O14'
_cell_volume   351.06409058
_cell_formula_units_Z   2
loop_
 _symmetry_equiv_pos_site_id
 _symmetry_equiv_pos_as_xyz
  1  'x, y, z'
loop_
 _atom_site_type_symbol
 _atom_site_label
 _atom_site_symmetry_multiplicity
 _atom_site_fract_x
 _atom_site_fract_y
 _atom_site_fract_z
 _atom_site_occupancy
  Sr  Sr0  1  0.333609  0.367004  0.725026  1
  Sr  Sr1  1  0.613387  0.634466  0.276477  1
  Sr  Sr2  1  0.833737  0.860504  0.724930  1
  Sr  Sr3  1  0.113223  0.143129  0.276426  1
  Al  Al4  1  0.986992  0.008080  0.000563  1
  Al  Al5  1  0.486395  0.498266  0.000751  1
  Cu  Cu6  1  0.924269  0.448812  0.889853  1
  Cu  Cu7  1  0.040423  0.558850  0.110940  1
  Cu  Cu8  1  0.424740  0.945481  0.890110  1
  Cu  Cu9  1  0.540720  0.055862  0.110978  1
  Bi  Bi10  1  0.244624  0.744598  0.500790  1
  Bi  Bi11  1  0.744094  0.259398  0.500931  1
  O  O12  1  0.159625  0.338735  0.501087  1
  O  O13  1  0.660129  0.665328  0.500905  1
  O  O14  1  0.251520  0.273328  0.901762  1
  O  O15  1  0.359273  0.728444  0.100492  1
  O  O16  1  0.751833  0.131522  0.900900  1
  O  O17  1  0.858640  0.875358  0.099540  1
  O  O18  1  0.603128  0.625740  0.897736  1
  O  O19  1  0.713559  0.376144  0.103167  1
  O  O20  1  0.103790  0.776037  0.898062  1
  O  O21  1  0.213836  0.231275  0.103823  1
  O  O22  1  0.320163  0.842946  0.685062  1
  O  O23  1  0.639297  0.161182  0.316778  1
  O  O24  1  0.820369  0.346565  0.685220  1
  O  O25  1  0.138076  0.658423  0.316669  1
