# generated using pymatgen
data_Sr2Cu2SnO7
_symmetry_space_group_name_H-M   'P 1'
_cell_length_a   5.17369877
_cell_length_b   5.19951490
_cell_length_c   13.60396267
_cell_angle_alpha   101.01977020
_cell_angle_beta   100.77693656
_cell_angle_gamma   90.03812966
_symmetry_Int_Tables_number   1
_chemical_formula_structural   Sr2Cu2SnO7
_chemical_formula_sum   'Sr4 Cu4 Sn2 O14'
_cell_volume   352.62154922
_cell_formula_units_Z   2
loop_
 _symmetry_equiv_pos_site_id
 _symmetry_equiv_pos_as_xyz
  1  'x, y, z'
loop_
 _atom_site_type_symbol
 _atom_site_label
 _atom_site_symmetry_multiplicity
 _atom_site_fract_x
 _atom_site_fract_y
 _atom_site_fract_z
 _atom_site_occupancy
  Sr  Sr0  1  0.337160  0.354137  0.717929  1
  Sr  Sr1  1  0.622362  0.645473  0.282328  1
  Sr  Sr2  1  0.836993  0.863407  0.717934  1
  Sr  Sr3  1  0.122465  0.136233  0.282323  1
  Cu  Cu4  1  0.918482  0.441131  0.880192  1
  Cu  Cu5  1  0.044277  0.558906  0.120520  1
  Cu  Cu6  1  0.418413  0.939184  0.880260  1
  Cu  Cu7  1  0.544312  0.060919  0.120498  1
  Sn  Sn8  1  0.277146  0.705040  0.500220  1
  Sn  Sn9  1  0.776955  0.294361  0.500156  1
  O  O10  1  0.174527  0.319669  0.500318  1
  O  O11  1  0.674606  0.679788  0.500326  1
  O  O12  1  0.153862  0.175425  0.850137  1
  O  O13  1  0.309463  0.824735  0.150883  1
  O  O14  1  0.653828  0.174585  0.849854  1
  O  O15  1  0.809274  0.825201  0.150409  1
  O  O16  1  0.651906  0.673331  0.848085  1
  O  O17  1  0.809574  0.326903  0.153084  1
  O  O18  1  0.151728  0.674364  0.847649  1
  O  O19  1  0.309264  0.325315  0.152478  1
  O  O20  1  0.283117  0.847496  0.643889  1
  O  O21  1  0.641490  0.152045  0.356765  1
  O  O22  1  0.782946  0.295549  0.643819  1
  O  O23  1  0.141555  0.704042  0.356852  1
