# generated using pymatgen
data_Cr2CuO7
_symmetry_space_group_name_H-M   'P 1'
_cell_length_a   9.21364908
_cell_length_b   11.20929093
_cell_length_c   10.15508331
_cell_angle_alpha   94.24236846
_cell_angle_beta   90.00000000
_cell_angle_gamma   90.00000000
_symmetry_Int_Tables_number   1
_chemical_formula_structural   Cr2CuO7
_chemical_formula_sum   'Cr12 Cu6 O42'
_cell_volume   1045.92783139
_cell_formula_units_Z   6
loop_
 _symmetry_equiv_pos_site_id
 _symmetry_equiv_pos_as_xyz
  1  'x, y, z'
loop_
 _atom_site_type_symbol
 _atom_site_label
 _atom_site_symmetry_multiplicity
 _atom_site_fract_x
 _atom_site_fract_y
 _atom_site_fract_z
 _atom_site_occupancy
  Cr  Cr0  1  0.207908  0.153910  0.291230  1
  Cr  Cr1  1  0.757733  0.173982  0.378244  1
  Cr  Cr2  1  0.242267  0.173982  0.878244  1
  Cr  Cr3  1  0.792092  0.153910  0.791230  1
  Cr  Cr4  1  0.291457  0.465118  0.958767  1
  Cr  Cr5  1  0.757733  0.826018  0.121756  1
  Cr  Cr6  1  0.708543  0.465118  0.458767  1
  Cr  Cr7  1  0.242267  0.826018  0.621756  1
  Cr  Cr8  1  0.291457  0.534882  0.541233  1
  Cr  Cr9  1  0.708543  0.534882  0.041233  1
  Cr  Cr10  1  0.792092  0.846090  0.708770  1
  Cr  Cr11  1  0.207908  0.846090  0.208770  1
  Cu  Cu12  1  0.937888  0.809871  0.411970  1
  Cu  Cu13  1  0.062112  0.190129  0.588030  1
  Cu  Cu14  1  0.438390  0.500000  0.250000  1
  Cu  Cu15  1  0.937888  0.190129  0.088030  1
  Cu  Cu16  1  0.561610  0.500000  0.750000  1
  Cu  Cu17  1  0.062112  0.809871  0.911970  1
  O  O18  1  0.790654  0.184189  0.955224  1
  O  O19  1  0.788689  0.829908  0.284190  1
  O  O20  1  0.826194  -0.000000  0.750000  1
  O  O21  1  0.865033  0.505306  0.098465  1
  O  O22  1  0.351824  0.930809  0.592404  1
  O  O23  1  0.923772  0.230681  0.722011  1
  O  O24  1  0.327814  0.310932  0.933956  1
  O  O25  1  0.134967  0.505306  0.598465  1
  O  O26  1  0.710959  0.494674  0.878794  1
  O  O27  1  0.351824  0.069191  0.907596  1
  O  O28  1  0.710959  0.505326  0.621206  1
  O  O29  1  0.418968  0.539611  0.880527  1
  O  O30  1  0.911362  0.841689  0.038290  1
  O  O31  1  0.076228  0.230681  0.222011  1
  O  O32  1  0.672186  0.689068  0.066044  1
  O  O33  1  0.327814  0.689068  0.566044  1
  O  O34  1  0.923772  0.769319  0.777989  1
  O  O35  1  0.648176  0.069191  0.407596  1
  O  O36  1  0.209346  0.184189  0.455224  1
  O  O37  1  0.581032  0.460389  0.119473  1
  O  O38  1  0.361643  0.808366  0.265221  1
  O  O39  1  0.289041  0.505326  0.121206  1
  O  O40  1  0.088638  0.841689  0.538290  1
  O  O41  1  0.289041  0.494674  0.378794  1
  O  O42  1  0.865033  0.494694  0.401535  1
  O  O43  1  0.581032  0.539611  0.380527  1
  O  O44  1  0.134967  0.494694  0.901535  1
  O  O45  1  0.638357  0.808366  0.765221  1
  O  O46  1  0.638357  0.191634  0.734779  1
  O  O47  1  0.088638  0.158311  0.961710  1
  O  O48  1  0.076228  0.769319  0.277989  1
  O  O49  1  0.790654  0.815811  0.544776  1
  O  O50  1  0.173806  -0.000000  0.250000  1
  O  O51  1  0.211311  0.829908  0.784190  1
  O  O52  1  0.648176  0.930809  0.092404  1
  O  O53  1  0.911362  0.158311  0.461710  1
  O  O54  1  0.209346  0.815811  0.044776  1
  O  O55  1  0.788689  0.170092  0.215810  1
  O  O56  1  0.418968  0.460389  0.619473  1
  O  O57  1  0.672186  0.310932  0.433956  1
  O  O58  1  0.211311  0.170092  0.715810  1
  O  O59  1  0.361643  0.191634  0.234779  1
