# generated using pymatgen
data_Mg3Ta6(FeO6)4
_symmetry_space_group_name_H-M   'P 1'
_cell_length_a   7.03800008
_cell_length_b   8.26082068
_cell_length_c   10.24519873
_cell_angle_alpha   106.25151641
_cell_angle_beta   103.20848586
_cell_angle_gamma   102.57924220
_symmetry_Int_Tables_number   1
_chemical_formula_structural   Mg3Ta6(FeO6)4
_chemical_formula_sum   'Mg3 Ta6 Fe4 O24'
_cell_volume   530.82813825
_cell_formula_units_Z   1
loop_
 _symmetry_equiv_pos_site_id
 _symmetry_equiv_pos_as_xyz
  1  'x, y, z'
loop_
 _atom_site_type_symbol
 _atom_site_label
 _atom_site_symmetry_multiplicity
 _atom_site_fract_x
 _atom_site_fract_y
 _atom_site_fract_z
 _atom_site_occupancy
  Mg  Mg0  1  -0.000000  0.500000  0.500000  1
  Mg  Mg1  1  0.277400  0.277727  0.793007  1
  Mg  Mg2  1  0.722600  0.722273  0.206993  1
  Ta  Ta3  1  0.777810  0.326818  0.726601  1
  Ta  Ta4  1  0.222190  0.673182  0.273399  1
  Ta  Ta5  1  0.895229  0.913274  0.669865  1
  Ta  Ta6  1  0.407427  0.730989  0.879464  1
  Ta  Ta7  1  0.104771  0.086726  0.330135  1
  Ta  Ta8  1  0.592573  0.269011  0.120536  1
  Fe  Fe9  1  0.379190  0.952582  0.608204  1
  Fe  Fe10  1  0.620810  0.047418  0.391796  1
  Fe  Fe11  1  0.043849  0.207577  0.013028  1
  Fe  Fe12  1  0.956151  0.792423  0.986972  1
  O  O13  1  0.876060  0.685260  0.580855  1
  O  O14  1  0.123940  0.314740  0.419145  1
  O  O15  1  0.271558  0.500260  0.758389  1
  O  O16  1  0.728442  0.499740  0.241611  1
  O  O17  1  0.786078  0.302025  0.538364  1
  O  O18  1  0.213922  0.697975  0.461636  1
  O  O19  1  0.663566  0.977102  0.578378  1
  O  O20  1  0.336434  0.022898  0.421622  1
  O  O21  1  0.658640  0.747118  0.010598  1
  O  O22  1  0.341360  0.252882  0.989402  1
  O  O23  1  0.486375  0.777227  0.273017  1
  O  O24  1  0.513625  0.222773  0.726983  1
  O  O25  1  0.140461  0.028760  0.646688  1
  O  O26  1  0.071809  0.062774  0.136865  1
  O  O27  1  0.928191  0.937226  0.863135  1
  O  O28  1  0.561912  0.134705  0.237648  1
  O  O29  1  0.438088  0.865295  0.762352  1
  O  O30  1  0.161273  0.440526  0.165955  1
  O  O31  1  0.838727  0.559473  0.834045  1
  O  O32  1  0.981902  0.241090  0.818448  1
  O  O33  1  0.018098  0.758910  0.181552  1
  O  O34  1  0.232144  0.793262  0.979899  1
  O  O35  1  0.767856  0.206738  0.020101  1
  O  O36  1  0.859539  0.971240  0.353312  1
