# generated using pymatgen
data_MgTi2O4
_symmetry_space_group_name_H-M   'P 1'
_cell_length_a   6.08526090
_cell_length_b   5.92496876
_cell_length_c   18.00193217
_cell_angle_alpha   60.42244258
_cell_angle_beta   60.68076008
_cell_angle_gamma   60.87855479
_symmetry_Int_Tables_number   1
_chemical_formula_structural   MgTi2O4
_chemical_formula_sum   'Mg6 Ti12 O24'
_cell_volume   465.78427869
_cell_formula_units_Z   6
loop_
 _symmetry_equiv_pos_site_id
 _symmetry_equiv_pos_as_xyz
  1  'x, y, z'
loop_
 _atom_site_type_symbol
 _atom_site_label
 _atom_site_symmetry_multiplicity
 _atom_site_fract_x
 _atom_site_fract_y
 _atom_site_fract_z
 _atom_site_occupancy
  Mg  Mg0  1  0.130706  0.128641  0.037323  1
  Mg  Mg1  1  0.500115  0.502805  0.331387  1
  Mg  Mg2  1  0.995820  0.504713  0.164881  1
  Mg  Mg3  1  0.506486  0.490891  0.670584  1
  Mg  Mg4  1  0.002588  0.498261  0.500312  1
  Mg  Mg5  1  0.017137  0.491943  0.832968  1
  Ti  Ti6  1  0.493907  0.030626  0.161926  1
  Ti  Ti7  1  0.122831  0.119463  0.379408  1
  Ti  Ti8  1  0.496011  0.511730  0.993506  1
  Ti  Ti9  1  0.493955  0.489897  0.161793  1
  Ti  Ti10  1  0.500605  0.985545  0.500039  1
  Ti  Ti11  1  0.123374  0.120890  0.711566  1
  Ti  Ti12  1  0.500548  0.513670  0.500065  1
  Ti  Ti13  1  0.500292  0.967896  0.840351  1
  Ti  Ti14  1  0.880644  0.881386  0.285558  1
  Ti  Ti15  1  0.500227  0.510775  0.840437  1
  Ti  Ti16  1  0.870687  0.878892  0.623845  1
  Ti  Ti17  1  0.851932  0.877085  0.964663  1
  O  O18  1  0.263579  0.257391  0.084913  1
  O  O19  1  0.247810  0.251387  0.249940  1
  O  O20  1  0.263284  0.724340  0.084967  1
  O  O21  1  0.739326  0.260225  0.080003  1
  O  O22  1  0.258380  0.251410  0.420176  1
  O  O23  1  0.260691  0.749987  0.246469  1
  O  O24  1  0.250446  0.250911  0.582562  1
  O  O25  1  0.739662  0.267822  0.245631  1
  O  O26  1  0.258504  0.729763  0.420114  1
  O  O27  1  0.735168  0.744354  0.092008  1
  O  O28  1  0.738194  0.252672  0.418796  1
  O  O29  1  0.739560  0.755698  0.245638  1
  O  O30  1  0.261984  0.244122  0.752394  1
  O  O31  1  0.252052  0.747386  0.584379  1
  O  O32  1  0.740327  0.268292  0.580181  1
  O  O33  1  0.261968  0.736673  0.752404  1
  O  O34  1  0.278602  0.254188  0.904380  1
  O  O35  1  0.755843  0.749887  0.414735  1
  O  O36  1  0.746765  0.245732  0.753925  1
  O  O37  1  0.740327  0.750808  0.580159  1
  O  O38  1  0.223096  0.754504  0.922683  1
  O  O39  1  0.751632  0.262898  0.914668  1
  O  O40  1  0.753342  0.742789  0.753619  1
  O  O41  1  0.751595  0.741652  0.914643  1
