# generated using pymatgen
data_Ti(BiO3)2
_symmetry_space_group_name_H-M   'P 1'
_cell_length_a   5.36928165
_cell_length_b   5.36928884
_cell_length_c   9.73450065
_cell_angle_alpha   89.99991564
_cell_angle_beta   90.00017425
_cell_angle_gamma   90.00020008
_symmetry_Int_Tables_number   1
_chemical_formula_structural   Ti(BiO3)2
_chemical_formula_sum   'Ti2 Bi4 O12'
_cell_volume   280.63810018
_cell_formula_units_Z   2
loop_
 _symmetry_equiv_pos_site_id
 _symmetry_equiv_pos_as_xyz
  1  'x, y, z'
loop_
 _atom_site_type_symbol
 _atom_site_label
 _atom_site_symmetry_multiplicity
 _atom_site_fract_x
 _atom_site_fract_y
 _atom_site_fract_z
 _atom_site_occupancy
  Ti  Ti0  1  0.500000  0.500000  0.297844  1
  Ti  Ti1  1  0.000001  -0.000000  0.797759  1
  Bi  Bi2  1  0.000000  0.500000  0.993459  1
  Bi  Bi3  1  -0.000000  0.500000  0.493591  1
  Bi  Bi4  1  0.500000  0.000000  0.993458  1
  Bi  Bi5  1  0.500001  0.000000  0.493591  1
  O  O6  1  0.500000  0.499999  0.572476  1
  O  O7  1  0.499999  0.500000  0.113974  1
  O  O8  1  0.759225  0.240774  0.868155  1
  O  O9  1  0.759227  0.759227  0.868155  1
  O  O10  1  0.740804  0.259196  0.368266  1
  O  O11  1  0.240773  0.240773  0.868154  1
  O  O12  1  0.999999  1.000000  0.072893  1
  O  O13  1  0.259196  0.740805  0.368267  1
  O  O14  1  0.240773  0.759227  0.868155  1
  O  O15  1  0.740805  0.740804  0.368266  1
  O  O16  1  1.000000  0.000000  0.613758  1
  O  O17  1  0.259196  0.259195  0.368266  1
