# generated using pymatgen
data_CaTi2O4
_symmetry_space_group_name_H-M   'P 1'
_cell_length_a   6.38430044
_cell_length_b   6.15028243
_cell_length_c   24.68463412
_cell_angle_alpha   60.11183878
_cell_angle_beta   60.95529500
_cell_angle_gamma   61.20531493
_symmetry_Int_Tables_number   1
_chemical_formula_structural   CaTi2O4
_chemical_formula_sum   'Ca8 Ti16 O32'
_cell_volume   696.93933700
_cell_formula_units_Z   8
loop_
 _symmetry_equiv_pos_site_id
 _symmetry_equiv_pos_as_xyz
  1  'x, y, z'
loop_
 _atom_site_type_symbol
 _atom_site_label
 _atom_site_symmetry_multiplicity
 _atom_site_fract_x
 _atom_site_fract_y
 _atom_site_fract_z
 _atom_site_occupancy
  Ca  Ca0  1  0.124563  0.132728  0.027496  1
  Ca  Ca1  1  0.007259  0.498399  0.123985  1
  Ca  Ca2  1  0.114206  0.127139  0.282879  1
  Ca  Ca3  1  0.004691  0.497834  0.374910  1
  Ca  Ca4  1  0.999949  0.499319  0.625353  1
  Ca  Ca5  1  0.501616  0.500680  0.499256  1
  Ca  Ca6  1  0.003745  0.498349  0.874889  1
  Ca  Ca7  1  0.505772  0.488433  0.754340  1
  Ti  Ti8  1  0.497075  0.503752  0.125897  1
  Ti  Ti9  1  0.493346  0.514921  0.244203  1
  Ti  Ti10  1  0.497075  0.995585  0.125897  1
  Ti  Ti11  1  0.129872  0.118583  0.533240  1
  Ti  Ti12  1  0.496529  0.506979  0.372220  1
  Ti  Ti13  1  0.856312  0.882683  0.219580  1
  Ti  Ti14  1  0.133515  0.116711  0.783266  1
  Ti  Ti15  1  0.496529  0.007613  0.372220  1
  Ti  Ti16  1  0.499324  0.503422  0.625804  1
  Ti  Ti17  1  0.865991  0.883795  0.466605  1
  Ti  Ti18  1  0.499324  0.994038  0.625804  1
  Ti  Ti19  1  0.499700  0.958842  0.881565  1
  Ti  Ti20  1  0.499700  0.515197  0.881565  1
  Ti  Ti21  1  0.870796  0.881259  0.716671  1
  Ti  Ti22  1  0.495277  0.507110  0.997626  1
  Ti  Ti23  1  0.854308  0.880828  0.971009  1
  O  O24  1  0.302631  0.243879  0.062384  1
  O  O25  1  0.300662  0.247989  0.175840  1
  O  O26  1  0.302631  0.703955  0.062384  1
  O  O27  1  0.701151  0.265435  0.066995  1
  O  O28  1  0.224959  0.757502  0.190009  1
  O  O29  1  0.299638  0.254418  0.311294  1
  O  O30  1  0.728980  0.256205  0.189340  1
  O  O31  1  0.270756  0.238256  0.438183  1
  O  O32  1  0.299638  0.700769  0.311294  1
  O  O33  1  0.731639  0.756620  0.063780  1
  O  O34  1  0.692096  0.274779  0.314587  1
  O  O35  1  0.728980  0.757454  0.189340  1
  O  O36  1  0.262946  0.220842  0.565909  1
  O  O37  1  0.238503  0.770498  0.430125  1
  O  O38  1  0.735544  0.251221  0.430728  1
  O  O39  1  0.271131  0.238456  0.687989  1
  O  O40  1  0.262946  0.752574  0.565909  1
  O  O41  1  0.729760  0.758872  0.313124  1
  O  O42  1  0.762973  0.238707  0.564903  1
  O  O43  1  0.735544  0.790326  0.430728  1
  O  O44  1  0.240641  0.759083  0.685298  1
  O  O45  1  0.261662  0.212720  0.817684  1
  O  O46  1  0.735210  0.247626  0.684358  1
  O  O47  1  0.317520  0.252103  0.919568  1
  O  O48  1  0.261662  0.754882  0.817684  1
  O  O49  1  0.727305  0.761513  0.562418  1
  O  O50  1  0.778695  0.228545  0.816054  1
  O  O51  1  0.735210  0.779735  0.684358  1
  O  O52  1  0.222401  0.748897  0.944952  1
  O  O53  1  0.730911  0.253643  0.941637  1
  O  O54  1  0.728292  0.759398  0.813228  1
  O  O55  1  0.730911  0.748897  0.941637  1
