# generated using pymatgen
data_Ca3Bi2(AsO6)2
_symmetry_space_group_name_H-M   'P 1'
_cell_length_a   5.51660367
_cell_length_b   7.66112212
_cell_length_c   7.20353696
_cell_angle_alpha   103.23301719
_cell_angle_beta   91.56047134
_cell_angle_gamma   88.43409207
_symmetry_Int_Tables_number   1
_chemical_formula_structural   Ca3Bi2(AsO6)2
_chemical_formula_sum   'Ca3 Bi2 As2 O12'
_cell_volume   296.18236017
_cell_formula_units_Z   1
loop_
 _symmetry_equiv_pos_site_id
 _symmetry_equiv_pos_as_xyz
  1  'x, y, z'
loop_
 _atom_site_type_symbol
 _atom_site_label
 _atom_site_symmetry_multiplicity
 _atom_site_fract_x
 _atom_site_fract_y
 _atom_site_fract_z
 _atom_site_occupancy
  Ca  Ca0  1  0.763511  0.697383  0.916388  1
  Ca  Ca1  1  0.765513  0.089687  0.283895  1
  Ca  Ca2  1  0.260325  0.927473  0.715759  1
  Bi  Bi3  1  0.244410  0.415162  0.602851  1
  Bi  Bi4  1  0.730109  0.571721  0.406360  1
  As  As5  1  0.798558  0.193646  0.796984  1
  As  As6  1  0.319115  0.809784  0.194718  1
  O  O7  1  0.496183  0.640692  0.658779  1
  O  O8  1  0.923189  0.403742  0.865528  1
  O  O9  1  0.443201  0.914082  0.412165  1
  O  O10  1  0.516910  0.335018  0.393580  1
  O  O11  1  0.006653  0.801067  0.195282  1
  O  O12  1  0.002333  0.356571  0.360768  1
  O  O13  1  0.484367  0.208121  0.767671  1
  O  O14  1  0.008458  0.662924  0.641369  1
  O  O15  1  0.427441  0.918001  0.030601  1
  O  O16  1  0.469919  0.602038  0.130689  1
  O  O17  1  0.875874  0.052107  0.944624  1
  O  O18  1  0.949902  0.095776  0.589552  1
