# generated using pymatgen
data_Ti4ZnS8
_symmetry_space_group_name_H-M   'P 1'
_cell_length_a   7.38322166
_cell_length_b   7.37483531
_cell_length_c   7.38849016
_cell_angle_alpha   55.03293164
_cell_angle_beta   55.00169632
_cell_angle_gamma   55.06908165
_symmetry_Int_Tables_number   1
_chemical_formula_structural   Ti4ZnS8
_chemical_formula_sum   'Ti4 Zn1 S8'
_cell_volume   251.61088510
_cell_formula_units_Z   1
loop_
 _symmetry_equiv_pos_site_id
 _symmetry_equiv_pos_as_xyz
  1  'x, y, z'
loop_
 _atom_site_type_symbol
 _atom_site_label
 _atom_site_symmetry_multiplicity
 _atom_site_fract_x
 _atom_site_fract_y
 _atom_site_fract_z
 _atom_site_occupancy
  Ti  Ti0  1  0.500041  0.000002  0.499955  1
  Ti  Ti1  1  0.000009  0.499967  0.500018  1
  Ti  Ti2  1  0.499970  0.500044  0.999990  1
  Ti  Ti3  1  0.999999  0.999997  0.000010  1
  Zn  Zn4  1  0.499979  0.499975  0.500051  1
  S  S5  1  0.753710  0.258731  0.753366  1
  S  S6  1  0.246654  0.246455  0.741028  1
  S  S7  1  0.246321  0.741264  0.246610  1
  S  S8  1  0.741120  0.246240  0.246832  1
  S  S9  1  0.258380  0.258045  0.258585  1
  S  S10  1  0.741635  0.741959  0.741390  1
  S  S11  1  0.258877  0.753751  0.753200  1
  S  S12  1  0.753303  0.753573  0.258966  1
