# generated using pymatgen
data_Mg2Sb3O8
_symmetry_space_group_name_H-M   'P 1'
_cell_length_a   6.53498945
_cell_length_b   6.53498946
_cell_length_c   9.62532231
_cell_angle_alpha   90.00000000
_cell_angle_beta   90.00000000
_cell_angle_gamma   119.99999998
_symmetry_Int_Tables_number   1
_chemical_formula_structural   Mg2Sb3O8
_chemical_formula_sum   'Mg4 Sb6 O16'
_cell_volume   355.98827602
_cell_formula_units_Z   2
loop_
 _symmetry_equiv_pos_site_id
 _symmetry_equiv_pos_as_xyz
  1  'x, y, z'
loop_
 _atom_site_type_symbol
 _atom_site_label
 _atom_site_symmetry_multiplicity
 _atom_site_fract_x
 _atom_site_fract_y
 _atom_site_fract_z
 _atom_site_occupancy
  Mg  Mg0  1  0.666667  0.333334  0.029424  1
  Mg  Mg1  1  0.333333  0.666666  0.529425  1
  Mg  Mg2  1  0.666667  0.333334  0.404683  1
  Mg  Mg3  1  0.333333  0.666666  0.904684  1
  Sb  Sb4  1  0.669647  0.834824  0.242235  1
  Sb  Sb5  1  0.834825  0.165177  0.742235  1
  Sb  Sb6  1  0.165177  0.330354  0.242235  1
  Sb  Sb7  1  0.834823  0.669647  0.742235  1
  Sb  Sb8  1  0.330354  0.165177  0.742235  1
  Sb  Sb9  1  0.165177  0.834824  0.242235  1
  O  O10  1  0.830253  0.169748  0.146084  1
  O  O11  1  0.660505  0.830253  0.646083  1
  O  O12  1  0.169748  0.339496  0.646083  1
  O  O13  1  0.830252  0.660505  0.146084  1
  O  O14  1  0.339495  0.169748  0.146084  1
  O  O15  1  0.169748  0.830253  0.646083  1
  O  O16  1  0.517725  0.482274  0.876464  1
  O  O17  1  0.035452  0.517725  0.376463  1
  O  O18  1  0.482275  0.964549  0.376463  1
  O  O19  1  0.517725  0.035452  0.876464  1
  O  O20  1  0.000000  0.000000  0.348201  1
  O  O21  1  0.000000  0.000000  0.848201  1
  O  O22  1  0.333333  0.666666  0.116848  1
  O  O23  1  0.964547  0.482274  0.876464  1
  O  O24  1  0.482274  0.517725  0.376463  1
  O  O25  1  0.666667  0.333334  0.616848  1
