# generated using pymatgen
data_Y7Cu3(GeSe7)3
_symmetry_space_group_name_H-M   'P 1'
_cell_length_a   10.25500512
_cell_length_b   10.25915892
_cell_length_c   18.31293268
_cell_angle_alpha   90.06286031
_cell_angle_beta   89.72565673
_cell_angle_gamma   119.77149106
_symmetry_Int_Tables_number   1
_chemical_formula_structural   Y7Cu3(GeSe7)3
_chemical_formula_sum   'Y14 Cu6 Ge6 Se42'
_cell_volume   1672.34597770
_cell_formula_units_Z   2
loop_
 _symmetry_equiv_pos_site_id
 _symmetry_equiv_pos_as_xyz
  1  'x, y, z'
loop_
 _atom_site_type_symbol
 _atom_site_label
 _atom_site_symmetry_multiplicity
 _atom_site_fract_x
 _atom_site_fract_y
 _atom_site_fract_z
 _atom_site_occupancy
  Y  Y0  1  0.868574  0.645068  0.082247  1
  Y  Y1  1  0.862637  0.639523  0.751061  1
  Y  Y2  1  0.222730  0.864146  0.250201  1
  Y  Y3  1  0.218064  0.860651  0.582662  1
  Y  Y4  1  0.637818  0.776337  0.253249  1
  Y  Y5  1  0.644023  0.778370  0.583594  1
  Y  Y6  1  0.640656  0.776311  0.916343  1
  Y  Y7  1  0.356526  0.219499  0.084746  1
  Y  Y8  1  0.358420  0.224302  0.415696  1
  Y  Y9  1  0.361018  0.223389  0.752712  1
  Y  Y10  1  0.779926  0.139421  0.082124  1
  Y  Y11  1  0.776880  0.135330  0.415876  1
  Y  Y12  1  0.134365  0.358902  0.583196  1
  Y  Y13  1  0.133969  0.357331  0.915650  1
  Cu  Cu14  1  0.001011  0.007459  0.230399  1
  Cu  Cu15  1  0.001120  0.000235  0.563905  1
  Cu  Cu16  1  0.003129  0.998075  0.898252  1
  Cu  Cu17  1  0.000706  0.999667  0.063906  1
  Cu  Cu18  1  0.999019  0.996792  0.398476  1
  Cu  Cu19  1  0.994025  0.001386  0.730527  1
  Ge  Ge20  1  0.668186  0.335470  0.280178  1
  Ge  Ge21  1  0.666614  0.328151  0.610915  1
  Ge  Ge22  1  0.667031  0.334021  0.944033  1
  Ge  Ge23  1  0.330983  0.661877  0.111124  1
  Ge  Ge24  1  0.333798  0.667104  0.444120  1
  Ge  Ge25  1  0.331464  0.667611  0.780258  1
  Se  Se26  1  0.575530  0.485844  0.000985  1
  Se  Se27  1  0.566350  0.480863  0.329316  1
  Se  Se28  1  0.576248  0.484051  0.665166  1
  Se  Se29  1  0.484938  0.908037  0.164772  1
  Se  Se30  1  0.485353  0.908957  0.500012  1
  Se  Se31  1  0.491948  0.908822  0.830737  1
  Se  Se32  1  0.910950  0.427152  0.998006  1
  Se  Se33  1  0.908511  0.417244  0.331244  1
  Se  Se34  1  0.913270  0.432870  0.663358  1
  Se  Se35  1  0.090067  0.579257  0.167204  1
  Se  Se36  1  0.090532  0.575049  0.497345  1
  Se  Se37  1  0.085622  0.567352  0.829623  1
  Se  Se38  1  0.518549  0.093053  0.997317  1
  Se  Se39  1  0.511952  0.088414  0.331539  1
  Se  Se40  1  0.510598  0.088113  0.668667  1
  Se  Se41  1  0.433515  0.518369  0.165571  1
  Se  Se42  1  0.426635  0.516432  0.498555  1
  Se  Se43  1  0.423673  0.512733  0.831654  1
  Se  Se44  1  0.333561  0.666968  0.315914  1
  Se  Se45  1  0.333046  0.666730  0.649778  1
  Se  Se46  1  0.334175  0.666133  0.981756  1
  Se  Se47  1  0.666360  0.333766  0.149621  1
  Se  Se48  1  0.667579  0.332037  0.481546  1
  Se  Se49  1  0.668054  0.335040  0.815896  1
  Se  Se50  1  0.840708  0.105765  0.239920  1
  Se  Se51  1  0.839870  0.101688  0.569056  1
  Se  Se52  1  0.839433  0.096525  0.909152  1
  Se  Se53  1  0.737668  0.840282  0.072003  1
  Se  Se54  1  0.739467  0.839898  0.404398  1
  Se  Se55  1  0.735368  0.842632  0.740052  1
  Se  Se56  1  0.103484  0.262600  0.068499  1
  Se  Se57  1  0.098971  0.258186  0.408517  1
  Se  Se58  1  0.104229  0.262245  0.737375  1
  Se  Se59  1  0.898329  0.743329  0.234494  1
  Se  Se60  1  0.899178  0.740187  0.574676  1
  Se  Se61  1  0.897453  0.738179  0.904600  1
  Se  Se62  1  0.261910  0.159105  0.239030  1
  Se  Se63  1  0.264442  0.160865  0.571366  1
  Se  Se64  1  0.260394  0.158887  0.906403  1
  Se  Se65  1  0.161737  0.899415  0.073993  1
  Se  Se66  1  0.159918  0.899567  0.407099  1
  Se  Se67  1  0.157733  0.900929  0.735317  1
