# generated using pymatgen
data_CaTi2(PO4)2
_symmetry_space_group_name_H-M   'P 1'
_cell_length_a   5.03845512
_cell_length_b   9.13109019
_cell_length_c   15.22479538
_cell_angle_alpha   84.82447821
_cell_angle_beta   80.47553741
_cell_angle_gamma   73.98460113
_symmetry_Int_Tables_number   1
_chemical_formula_structural   CaTi2(PO4)2
_chemical_formula_sum   'Ca4 Ti8 P8 O32'
_cell_volume   663.24046371
_cell_formula_units_Z   4
loop_
 _symmetry_equiv_pos_site_id
 _symmetry_equiv_pos_as_xyz
  1  'x, y, z'
loop_
 _atom_site_type_symbol
 _atom_site_label
 _atom_site_symmetry_multiplicity
 _atom_site_fract_x
 _atom_site_fract_y
 _atom_site_fract_z
 _atom_site_occupancy
  Ca  Ca0  1  0.474535  0.835244  0.859128  1
  Ca  Ca1  1  0.168907  0.664756  0.640872  1
  Ca  Ca2  1  0.831093  0.335244  0.359128  1
  Ca  Ca3  1  0.525465  0.164756  0.140872  1
  Ti  Ti4  1  0.193249  0.234347  0.955646  1
  Ti  Ti5  1  0.383241  0.265653  0.544354  1
  Ti  Ti6  1  0.806751  0.765653  0.044354  1
  Ti  Ti7  1  0.500000  0.500000  0.000000  1
  Ti  Ti8  1  0.616759  0.734347  0.455646  1
  Ti  Ti9  1  0.678058  0.750000  0.250000  1
  Ti  Ti10  1  0.321942  0.250000  0.750000  1
  Ti  Ti11  1  0.000000  -0.000000  0.500000  1
  P  P12  1  0.042258  0.574352  0.863484  1
  P  P13  1  0.766679  0.421983  0.611853  1
  P  P14  1  0.957742  0.425648  0.136516  1
  P  P15  1  0.199485  0.921983  0.111853  1
  P  P16  1  0.519907  0.074352  0.363484  1
  P  P17  1  0.480093  0.925648  0.636516  1
  P  P18  1  0.233321  0.578017  0.388147  1
  P  P19  1  0.800515  0.078017  0.888147  1
  O  O20  1  0.700254  0.389600  0.109686  1
  O  O21  1  0.818776  0.914637  0.930801  1
  O  O22  1  0.800461  0.889600  0.609686  1
  O  O23  1  0.802509  0.298638  0.541083  1
  O  O24  1  0.202438  0.386216  0.055944  1
  O  O25  1  0.552044  0.406403  0.693500  1
  O  O26  1  0.642230  0.201362  0.958917  1
  O  O27  1  0.893572  0.907366  0.137675  1
  O  O28  1  0.197491  0.701362  0.458917  1
  O  O29  1  0.664214  0.585363  0.569199  1
  O  O30  1  0.892730  0.600532  0.148769  1
  O  O31  1  0.611069  0.168960  0.282877  1
  O  O32  1  0.181224  0.085363  0.069199  1
  O  O33  1  0.061388  0.407366  0.637675  1
  O  O34  1  0.299745  0.610400  0.890314  1
  O  O35  1  0.107270  0.399468  0.851231  1
  O  O36  1  0.937094  0.668960  0.782877  1
  O  O37  1  0.357770  0.798638  0.041083  1
  O  O38  1  0.357968  0.100532  0.648769  1
  O  O39  1  0.388931  0.831040  0.717123  1
  O  O40  1  0.938612  0.592634  0.362325  1
  O  O41  1  0.355402  0.886216  0.555944  1
  O  O42  1  0.106428  0.092634  0.862325  1
  O  O43  1  0.348052  0.906403  0.193500  1
  O  O44  1  0.335786  0.414637  0.430801  1
  O  O45  1  0.199539  0.110400  0.390314  1
  O  O46  1  0.062906  0.331040  0.217123  1
  O  O47  1  0.644598  0.113784  0.444056  1
  O  O48  1  0.797562  0.613784  0.944056  1
  O  O49  1  0.651948  0.093597  0.806500  1
  O  O50  1  0.447956  0.593597  0.306500  1
  O  O51  1  0.642032  0.899468  0.351231  1
