# generated using pymatgen
data_Ca(MnN)2
_symmetry_space_group_name_H-M   'P 1'
_cell_length_a   3.26582052
_cell_length_b   3.26734318
_cell_length_c   6.77519920
_cell_angle_alpha   89.99998817
_cell_angle_beta   89.99989786
_cell_angle_gamma   90.00010261
_symmetry_Int_Tables_number   1
_chemical_formula_structural   Ca(MnN)2
_chemical_formula_sum   'Ca1 Mn2 N2'
_cell_volume   72.29514521
_cell_formula_units_Z   1
loop_
 _symmetry_equiv_pos_site_id
 _symmetry_equiv_pos_as_xyz
  1  'x, y, z'
loop_
 _atom_site_type_symbol
 _atom_site_label
 _atom_site_symmetry_multiplicity
 _atom_site_fract_x
 _atom_site_fract_y
 _atom_site_fract_z
 _atom_site_occupancy
  Ca  Ca0  1  0.000001  0.999999  0.249996  1
  Mn  Mn1  1  0.499998  0.500002  0.897882  1
  Mn  Mn2  1  0.500000  0.499999  0.602168  1
  N  N3  1  0.500001  0.000001  0.494111  1
  N  N4  1  0.000001  0.499999  0.005843  1
