# generated using pymatgen
data_BaMg(MoO2)4
_symmetry_space_group_name_H-M   'P 1'
_cell_length_a   5.72282603
_cell_length_b   5.72282619
_cell_length_c   7.29259061
_cell_angle_alpha   90.00000000
_cell_angle_beta   90.00000000
_cell_angle_gamma   119.99999902
_symmetry_Int_Tables_number   1
_chemical_formula_structural   BaMg(MoO2)4
_chemical_formula_sum   'Ba1 Mg1 Mo4 O8'
_cell_volume   206.83954305
_cell_formula_units_Z   1
loop_
 _symmetry_equiv_pos_site_id
 _symmetry_equiv_pos_as_xyz
  1  'x, y, z'
loop_
 _atom_site_type_symbol
 _atom_site_label
 _atom_site_symmetry_multiplicity
 _atom_site_fract_x
 _atom_site_fract_y
 _atom_site_fract_z
 _atom_site_occupancy
  Ba  Ba0  1  0.000000  0.000000  -0.000000  1
  Mg  Mg1  1  0.000000  0.000000  0.500000  1
  Mo  Mo2  1  0.333333  0.666667  0.717990  1
  Mo  Mo3  1  0.666667  0.333333  0.717990  1
  Mo  Mo4  1  0.333333  0.666667  0.282010  1
  Mo  Mo5  1  0.666667  0.333333  0.282010  1
  O  O6  1  0.292386  0.292386  0.679238  1
  O  O7  1  0.707614  0.000000  0.679238  1
  O  O8  1  1.000000  0.707614  0.679238  1
  O  O9  1  0.707614  0.707614  0.320762  1
  O  O10  1  0.000000  0.292386  0.320762  1
  O  O11  1  0.292386  0.000000  0.320762  1
  O  O12  1  0.333333  0.666667  -0.000000  1
  O  O13  1  0.666667  0.333333  -0.000000  1
