# generated using pymatgen
data_Mg2Ti3O8
_symmetry_space_group_name_H-M   'P 1'
_cell_length_a   4.97367134
_cell_length_b   5.98758677
_cell_length_c   6.03937959
_cell_angle_alpha   119.71671775
_cell_angle_beta   108.83886006
_cell_angle_gamma   89.99999690
_symmetry_Int_Tables_number   1
_chemical_formula_structural   Mg2Ti3O8
_chemical_formula_sum   'Mg2 Ti3 O8'
_cell_volume   145.00332670
_cell_formula_units_Z   1
loop_
 _symmetry_equiv_pos_site_id
 _symmetry_equiv_pos_as_xyz
  1  'x, y, z'
loop_
 _atom_site_type_symbol
 _atom_site_label
 _atom_site_symmetry_multiplicity
 _atom_site_fract_x
 _atom_site_fract_y
 _atom_site_fract_z
 _atom_site_occupancy
  Mg  Mg0  1  0.655348  0.723349  0.446698  1
  Mg  Mg1  1  0.344651  0.276652  0.553302  1
  Ti  Ti2  1  0.500000  0.999999  0.000000  1
  Ti  Ti3  1  0.999999  0.732235  0.000000  1
  Ti  Ti4  1  0.999999  0.267765  1.000000  1
  O  O5  1  0.074451  0.393991  0.787982  1
  O  O6  1  0.925549  0.606008  0.212018  1
  O  O7  1  0.079043  0.891624  0.783248  1
  O  O8  1  0.920957  0.108375  0.216751  1
  O  O9  1  0.408167  0.340501  0.230070  1
  O  O10  1  0.408167  0.889569  0.230070  1
  O  O11  1  0.591834  0.110430  0.769930  1
  O  O12  1  0.591834  0.659499  0.769930  1
