# generated using pymatgen
data_Ba2Ti2CuF14
_symmetry_space_group_name_H-M   'P 1'
_cell_length_a   5.38081369
_cell_length_b   7.69909918
_cell_length_c   15.31314494
_cell_angle_alpha   91.22772546
_cell_angle_beta   89.66822376
_cell_angle_gamma   110.67536069
_symmetry_Int_Tables_number   1
_chemical_formula_structural   Ba2Ti2CuF14
_chemical_formula_sum   'Ba4 Ti4 Cu2 F28'
_cell_volume   593.38983583
_cell_formula_units_Z   2
loop_
 _symmetry_equiv_pos_site_id
 _symmetry_equiv_pos_as_xyz
  1  'x, y, z'
loop_
 _atom_site_type_symbol
 _atom_site_label
 _atom_site_symmetry_multiplicity
 _atom_site_fract_x
 _atom_site_fract_y
 _atom_site_fract_z
 _atom_site_occupancy
  Ba  Ba0  1  0.105872  0.357562  0.623912  1
  Ba  Ba1  1  0.248625  0.355225  0.124231  1
  Ba  Ba2  1  0.896512  0.645603  0.377119  1
  Ba  Ba3  1  0.751423  0.644757  0.876929  1
  Ti  Ti4  1  0.100773  0.245738  0.871685  1
  Ti  Ti5  1  0.900387  0.754451  0.129195  1
  Ti  Ti6  1  0.147034  0.246155  0.371789  1
  Ti  Ti7  1  0.852337  0.756756  0.628555  1
  Cu  Cu8  1  0.500684  0.000538  0.000460  1
  Cu  Cu9  1  0.500722  0.002510  0.500359  1
  F  F10  1  0.940985  0.002895  0.349019  1
  F  F11  1  0.887239  0.287240  0.449723  1
  F  F12  1  0.114940  0.717600  0.551234  1
  F  F13  1  0.643027  0.510283  0.588780  1
  F  F14  1  0.625626  0.126645  0.603721  1
  F  F15  1  0.506570  0.877058  0.897107  1
  F  F16  1  0.402145  0.289829  0.949149  1
  F  F17  1  0.935414  0.997376  0.151624  1
  F  F18  1  0.357143  0.350238  0.783834  1
  F  F19  1  0.357610  0.493839  0.409672  1
  F  F20  1  0.846323  0.254082  0.794186  1
  F  F21  1  0.137737  0.493527  0.908750  1
  F  F22  1  0.413008  0.257166  0.293511  1
  F  F23  1  0.155075  0.746735  0.206834  1
  F  F24  1  0.495312  0.124016  0.104084  1
  F  F25  1  0.644239  0.649142  0.216984  1
  F  F26  1  0.119241  0.831011  0.024639  1
  F  F27  1  0.057666  -0.000237  0.652411  1
  F  F28  1  0.881950  0.170558  0.976348  1
  F  F29  1  0.714445  0.834288  0.524423  1
  F  F30  1  0.598690  0.709988  0.051886  1
  F  F31  1  0.583599  0.743299  0.706021  1
  F  F32  1  0.997154  0.351024  0.284591  1
  F  F33  1  0.287465  0.170921  0.476014  1
  F  F34  1  0.375247  0.878337  0.396908  1
  F  F35  1  0.064614  0.002529  0.849689  1
  F  F36  1  0.999179  0.649736  0.715825  1
  F  F37  1  0.865350  0.507478  0.091628  1
