# generated using pymatgen
data_W5O7
_symmetry_space_group_name_H-M   'P 1'
_cell_length_a   3.36969675
_cell_length_b   5.94317036
_cell_length_c   18.68989668
_cell_angle_alpha   90.00000000
_cell_angle_beta   90.00000000
_cell_angle_gamma   106.46880641
_symmetry_Int_Tables_number   1
_chemical_formula_structural   W5O7
_chemical_formula_sum   'W10 O14'
_cell_volume   358.94080366
_cell_formula_units_Z   2
loop_
 _symmetry_equiv_pos_site_id
 _symmetry_equiv_pos_as_xyz
  1  'x, y, z'
loop_
 _atom_site_type_symbol
 _atom_site_label
 _atom_site_symmetry_multiplicity
 _atom_site_fract_x
 _atom_site_fract_y
 _atom_site_fract_z
 _atom_site_occupancy
  W  W0  1  0.271485  0.542966  0.578114  1
  W  W1  1  -0.000000  -0.000000  0.500000  1
  W  W2  1  -0.000000  -0.000000  -0.000000  1
  W  W3  1  0.728515  0.457033  0.421886  1
  W  W4  1  0.728515  0.457033  0.078114  1
  W  W5  1  0.271485  0.542966  0.921886  1
  W  W6  1  0.461181  0.922361  0.158122  1
  W  W7  1  0.538819  0.077638  0.841879  1
  W  W8  1  0.538819  0.077638  0.658121  1
  W  W9  1  0.461181  0.922361  0.341879  1
  O  O10  1  0.658197  0.316394  0.961442  1
  O  O11  1  0.341804  0.683607  0.038558  1
  O  O12  1  0.341804  0.683607  0.461442  1
  O  O13  1  0.658197  0.316394  0.538558  1
  O  O14  1  0.146736  0.293471  0.837753  1
  O  O15  1  0.853264  0.706529  0.162247  1
  O  O16  1  0.853264  0.706529  0.337754  1
  O  O17  1  0.146736  0.293471  0.662247  1
  O  O18  1  0.896641  0.793279  0.899287  1
  O  O19  1  0.103359  0.206721  0.100713  1
  O  O20  1  0.103359  0.206721  0.399287  1
  O  O21  1  0.896641  0.793279  0.600713  1
  O  O22  1  0.449038  0.898078  0.750000  1
  O  O23  1  0.550963  0.101924  0.250000  1
