# generated using pymatgen
data_TiO2
_symmetry_space_group_name_H-M   'P 1'
_cell_length_a   5.96010225
_cell_length_b   5.95523959
_cell_length_c   5.96245429
_cell_angle_alpha   60.01389524
_cell_angle_beta   59.93298675
_cell_angle_gamma   60.05312374
_symmetry_Int_Tables_number   1
_chemical_formula_structural   TiO2
_chemical_formula_sum   'Ti4 O8'
_cell_volume   149.64494132
_cell_formula_units_Z   4
loop_
 _symmetry_equiv_pos_site_id
 _symmetry_equiv_pos_as_xyz
  1  'x, y, z'
loop_
 _atom_site_type_symbol
 _atom_site_label
 _atom_site_symmetry_multiplicity
 _atom_site_fract_x
 _atom_site_fract_y
 _atom_site_fract_z
 _atom_site_occupancy
  Ti  Ti0  1  0.500001  0.500000  0.499999  1
  Ti  Ti1  1  0.000000  0.500001  0.499999  1
  Ti  Ti2  1  0.500000  0.500001  0.000000  1
  Ti  Ti3  1  0.499999  0.000000  0.500001  1
  O  O4  1  0.296524  0.734115  0.734966  1
  O  O5  1  0.734394  0.734967  0.734114  1
  O  O6  1  0.734115  0.296525  0.734394  1
  O  O7  1  0.734966  0.734394  0.296525  1
  O  O8  1  0.265605  0.265035  0.265885  1
  O  O9  1  0.703476  0.265884  0.265034  1
  O  O10  1  0.265033  0.265605  0.703476  1
  O  O11  1  0.265884  0.703475  0.265607  1
