# generated using pymatgen
data_Cr2O5
_symmetry_space_group_name_H-M   'P 1'
_cell_length_a   10.87717143
_cell_length_b   6.18081337
_cell_length_c   3.67913251
_cell_angle_alpha   107.31502714
_cell_angle_beta   90.00000000
_cell_angle_gamma   90.00000000
_symmetry_Int_Tables_number   1
_chemical_formula_structural   Cr2O5
_chemical_formula_sum   'Cr4 O10'
_cell_volume   236.13812993
_cell_formula_units_Z   2
loop_
 _symmetry_equiv_pos_site_id
 _symmetry_equiv_pos_as_xyz
  1  'x, y, z'
loop_
 _atom_site_type_symbol
 _atom_site_label
 _atom_site_symmetry_multiplicity
 _atom_site_fract_x
 _atom_site_fract_y
 _atom_site_fract_z
 _atom_site_occupancy
  Cr  Cr0  1  0.152321  0.907703  0.953851  1
  Cr  Cr1  1  0.347687  0.092289  0.546145  1
  Cr  Cr2  1  0.652313  0.092289  0.546145  1
  Cr  Cr3  1  0.847679  0.907703  0.953851  1
  O  O4  1  -0.000000  0.029957  0.014979  1
  O  O5  1  0.145245  0.640539  0.820270  1
  O  O6  1  0.180222  0.989793  0.494897  1
  O  O7  1  0.319786  0.010193  0.005097  1
  O  O8  1  0.354759  0.359486  0.679742  1
  O  O9  1  0.500000  0.970032  0.485016  1
  O  O10  1  0.645241  0.359486  0.679742  1
  O  O11  1  0.854755  0.640539  0.820270  1
  O  O12  1  0.680214  0.010193  0.005097  1
  O  O13  1  0.819778  0.989793  0.494897  1
