# generated using pymatgen
data_AlNi(WO4)2
_symmetry_space_group_name_H-M   'P 1'
_cell_length_a   5.03761029
_cell_length_b   5.66812484
_cell_length_c   5.93166834
_cell_angle_alpha   108.97500281
_cell_angle_beta   120.21566749
_cell_angle_gamma   88.04262098
_symmetry_Int_Tables_number   1
_chemical_formula_structural   AlNi(WO4)2
_chemical_formula_sum   'Al1 Ni1 W2 O8'
_cell_volume   136.65878740
_cell_formula_units_Z   1
loop_
 _symmetry_equiv_pos_site_id
 _symmetry_equiv_pos_as_xyz
  1  'x, y, z'
loop_
 _atom_site_type_symbol
 _atom_site_label
 _atom_site_symmetry_multiplicity
 _atom_site_fract_x
 _atom_site_fract_y
 _atom_site_fract_z
 _atom_site_occupancy
  Al  Al0  1  0.624135  0.723494  0.099885  1
  Ni  Ni1  1  0.128901  0.230512  0.103062  1
  W  W2  1  0.376935  0.037302  0.600584  1
  W  W3  1  0.872080  0.407686  0.598173  1
  O  O4  1  0.191445  0.662867  0.877156  1
  O  O5  1  0.630606  0.549904  0.336273  1
  O  O6  1  0.170343  0.177004  0.795830  1
  O  O7  1  0.576631  0.043206  0.378800  1
  O  O8  1  0.616638  0.894470  0.861749  1
  O  O9  1  0.056702  0.782505  0.321478  1
  O  O10  1  0.078672  0.268364  0.402837  1
  O  O11  1  0.672912  0.401186  0.820268  1
