# generated using pymatgen
data_Ca(FeS2)4
_symmetry_space_group_name_H-M   'P 1'
_cell_length_a   6.82516606
_cell_length_b   6.85878020
_cell_length_c   6.85878090
_cell_angle_alpha   60.00000095
_cell_angle_beta   59.83694397
_cell_angle_gamma   59.83693870
_symmetry_Int_Tables_number   1
_chemical_formula_structural   Ca(FeS2)4
_chemical_formula_sum   'Ca1 Fe4 S8'
_cell_volume   226.47343055
_cell_formula_units_Z   1
loop_
 _symmetry_equiv_pos_site_id
 _symmetry_equiv_pos_as_xyz
  1  'x, y, z'
loop_
 _atom_site_type_symbol
 _atom_site_label
 _atom_site_symmetry_multiplicity
 _atom_site_fract_x
 _atom_site_fract_y
 _atom_site_fract_z
 _atom_site_occupancy
  Ca  Ca0  1  0.500000  0.000000  0.000000  1
  Fe  Fe1  1  0.000000  0.500000  0.500000  1
  Fe  Fe2  1  0.500000  0.500000  0.000000  1
  Fe  Fe3  1  0.500000  0.500000  0.500000  1
  Fe  Fe4  1  0.500000  0.000000  0.500000  1
  S  S5  1  0.256675  0.271298  0.271298  1
  S  S6  1  0.256675  0.271298  0.700729  1
  S  S7  1  0.256675  0.700729  0.271298  1
  S  S8  1  0.704263  0.265245  0.265245  1
  S  S9  1  0.295737  0.734755  0.734755  1
  S  S10  1  0.743325  0.728702  0.299271  1
  S  S11  1  0.743325  0.299271  0.728702  1
  S  S12  1  0.743325  0.728702  0.728702  1
