# generated using pymatgen
data_Al2W2O7
_symmetry_space_group_name_H-M   'P 1'
_cell_length_a   7.16979858
_cell_length_b   6.79977782
_cell_length_c   7.29658522
_cell_angle_alpha   57.75328456
_cell_angle_beta   59.80054885
_cell_angle_gamma   57.25530319
_symmetry_Int_Tables_number   1
_chemical_formula_structural   Al2W2O7
_chemical_formula_sum   'Al4 W4 O14'
_cell_volume   241.28398018
_cell_formula_units_Z   2
loop_
 _symmetry_equiv_pos_site_id
 _symmetry_equiv_pos_as_xyz
  1  'x, y, z'
loop_
 _atom_site_type_symbol
 _atom_site_label
 _atom_site_symmetry_multiplicity
 _atom_site_fract_x
 _atom_site_fract_y
 _atom_site_fract_z
 _atom_site_occupancy
  Al  Al0  1  0.500025  0.000084  0.499935  1
  Al  Al1  1  -0.000002  0.499986  0.500018  1
  Al  Al2  1  0.500088  0.499882  0.000018  1
  Al  Al3  1  0.500153  0.500064  0.500066  1
  W  W4  1  -0.000230  0.499920  -0.000033  1
  W  W5  1  0.500064  0.000077  0.000105  1
  W  W6  1  0.000063  -0.000126  0.500016  1
  W  W7  1  -0.000194  0.000232  0.000076  1
  O  O8  1  0.631399  0.609197  0.639413  1
  O  O9  1  0.368574  0.390629  0.360565  1
  O  O10  1  0.374826  0.862537  0.926487  1
  O  O11  1  0.018557  0.645958  0.664702  1
  O  O12  1  0.825876  0.351538  0.997856  1
  O  O13  1  0.899768  0.868824  0.342200  1
  O  O14  1  0.335964  0.355357  0.816484  1
  O  O15  1  0.350834  0.885995  0.385148  1
  O  O16  1  0.981395  0.354071  0.335324  1
  O  O17  1  0.664072  0.644702  0.183452  1
  O  O18  1  0.100124  0.131206  0.657788  1
  O  O19  1  0.625155  0.137319  0.073243  1
  O  O20  1  0.649143  0.114110  0.614919  1
  O  O21  1  0.174346  0.648438  0.002218  1
