# generated using pymatgen
data_Sr2GaBi2O7
_symmetry_space_group_name_H-M   'P 1'
_cell_length_a   6.06880033
_cell_length_b   6.29140339
_cell_length_c   11.78919345
_cell_angle_alpha   105.63104411
_cell_angle_beta   104.89816831
_cell_angle_gamma   90.00816050
_symmetry_Int_Tables_number   1
_chemical_formula_structural   Sr2GaBi2O7
_chemical_formula_sum   'Sr4 Ga2 Bi4 O14'
_cell_volume   417.74058613
_cell_formula_units_Z   2
loop_
 _symmetry_equiv_pos_site_id
 _symmetry_equiv_pos_as_xyz
  1  'x, y, z'
loop_
 _atom_site_type_symbol
 _atom_site_label
 _atom_site_symmetry_multiplicity
 _atom_site_fract_x
 _atom_site_fract_y
 _atom_site_fract_z
 _atom_site_occupancy
  Sr  Sr0  1  0.153170  0.185809  0.307943  1
  Sr  Sr1  1  0.845329  0.814750  0.692171  1
  Sr  Sr2  1  0.653390  0.621390  0.307876  1
  Sr  Sr3  1  0.344865  0.379079  0.692159  1
  Ga  Ga4  1  0.207265  0.845274  0.500064  1
  Ga  Ga5  1  0.707348  0.155312  0.500018  1
  Bi  Bi6  1  0.422984  0.930120  0.843376  1
  Bi  Bi7  1  0.080497  0.584064  0.157475  1
  Bi  Bi8  1  0.922588  0.416447  0.842585  1
  Bi  Bi9  1  0.580078  0.070449  0.156669  1
  O  O10  1  0.830513  0.338151  0.165211  1
  O  O11  1  0.890909  0.907510  0.500067  1
  O  O12  1  0.329545  0.328210  0.165522  1
  O  O13  1  0.834345  0.385191  0.639953  1
  O  O14  1  0.650800  0.148790  0.793294  1
  O  O15  1  0.149316  0.149003  0.793418  1
  O  O16  1  0.390953  0.093035  0.499976  1
  O  O17  1  0.163758  0.672520  0.834852  1
  O  O18  1  0.664637  0.662094  0.834459  1
  O  O19  1  0.333587  0.756730  0.640288  1
  O  O20  1  0.193778  0.615267  0.360050  1
  O  O21  1  0.694108  0.243764  0.359742  1
  O  O22  1  0.857874  0.851697  0.206698  1
  O  O23  1  0.356297  0.851447  0.206598  1
