# generated using pymatgen
data_ZnFeO2
_symmetry_space_group_name_H-M   'P 1'
_cell_length_a   2.98397521
_cell_length_b   7.96805979
_cell_length_c   8.12156809
_cell_angle_alpha   75.00916338
_cell_angle_beta   79.39495035
_cell_angle_gamma   79.23760064
_symmetry_Int_Tables_number   1
_chemical_formula_structural   ZnFeO2
_chemical_formula_sum   'Zn4 Fe4 O8'
_cell_volume   181.36530688
_cell_formula_units_Z   4
loop_
 _symmetry_equiv_pos_site_id
 _symmetry_equiv_pos_as_xyz
  1  'x, y, z'
loop_
 _atom_site_type_symbol
 _atom_site_label
 _atom_site_symmetry_multiplicity
 _atom_site_fract_x
 _atom_site_fract_y
 _atom_site_fract_z
 _atom_site_occupancy
  Zn  Zn0  1  0.312479  0.157045  0.219644  1
  Zn  Zn1  1  0.684613  0.823219  0.809065  1
  Zn  Zn2  1  0.012908  0.855816  0.121762  1
  Zn  Zn3  1  0.984621  0.124601  0.906929  1
  Fe  Fe4  1  0.625297  0.188233  0.562424  1
  Fe  Fe5  1  0.153615  0.503310  0.191638  1
  Fe  Fe6  1  0.844314  0.476967  0.837091  1
  Fe  Fe7  1  0.371968  0.792059  0.466258  1
  O  O8  1  0.854265  0.679861  0.613339  1
  O  O9  1  0.471949  0.290148  0.767659  1
  O  O10  1  0.525506  0.690287  0.260921  1
  O  O11  1  0.143091  0.300457  0.415271  1
  O  O12  1  0.161990  0.004964  0.671744  1
  O  O13  1  0.791900  0.326250  0.091646  1
  O  O14  1  0.835064  0.975356  0.356919  1
  O  O15  1  0.205447  0.653985  0.937079  1
