# generated using pymatgen
data_BaMn2TlO6
_symmetry_space_group_name_H-M   'P 1'
_cell_length_a   3.72240498
_cell_length_b   3.72243832
_cell_length_c   24.13829032
_cell_angle_alpha   94.77617944
_cell_angle_beta   93.69443925
_cell_angle_gamma   89.93239524
_symmetry_Int_Tables_number   1
_chemical_formula_structural   BaMn2TlO6
_chemical_formula_sum   'Ba2 Mn4 Tl2 O12'
_cell_volume   332.61332983
_cell_formula_units_Z   2
loop_
 _symmetry_equiv_pos_site_id
 _symmetry_equiv_pos_as_xyz
  1  'x, y, z'
loop_
 _atom_site_type_symbol
 _atom_site_label
 _atom_site_symmetry_multiplicity
 _atom_site_fract_x
 _atom_site_fract_y
 _atom_site_fract_z
 _atom_site_occupancy
  Ba  Ba0  1  0.157740  0.158050  0.322084  1
  Ba  Ba1  1  0.826155  0.844569  0.678083  1
  Mn  Mn2  1  0.522794  0.539293  0.071841  1
  Mn  Mn3  1  0.366501  0.397476  0.777104  1
  Mn  Mn4  1  0.614267  0.604539  0.223101  1
  Mn  Mn5  1  0.484579  0.466666  0.922281  1
  Tl  Tl6  1  0.716781  0.727948  0.449811  1
  Tl  Tl7  1  0.265108  0.280885  0.550690  1
  O  O8  1  0.361895  0.888281  0.760051  1
  O  O9  1  0.538000  0.041536  0.085469  1
  O  O10  1  0.233125  0.222327  0.462950  1
  O  O11  1  0.977404  0.456430  0.903052  1
  O  O12  1  0.765867  0.762138  0.537662  1
  O  O13  1  0.121631  0.614543  0.240974  1
  O  O14  1  0.621563  0.114260  0.240880  1
  O  O15  1  0.307407  0.321865  0.635614  1
  O  O16  1  0.859518  0.387279  0.758145  1
  O  O17  1  0.029075  0.523620  0.081259  1
  O  O18  1  0.489826  0.976662  0.940674  1
  O  O19  1  0.678144  0.680421  0.364875  1
