# generated using pymatgen
data_Ca(SbO2)2
_symmetry_space_group_name_H-M   'P 1'
_cell_length_a   3.46805557
_cell_length_b   10.47768115
_cell_length_c   7.09230674
_cell_angle_alpha   77.86051338
_cell_angle_beta   75.84674534
_cell_angle_gamma   80.56710556
_symmetry_Int_Tables_number   1
_chemical_formula_structural   Ca(SbO2)2
_chemical_formula_sum   'Ca2 Sb4 O8'
_cell_volume   242.57798737
_cell_formula_units_Z   2
loop_
 _symmetry_equiv_pos_site_id
 _symmetry_equiv_pos_as_xyz
  1  'x, y, z'
loop_
 _atom_site_type_symbol
 _atom_site_label
 _atom_site_symmetry_multiplicity
 _atom_site_fract_x
 _atom_site_fract_y
 _atom_site_fract_z
 _atom_site_occupancy
  Ca  Ca0  1  0.269745  0.231269  0.240101  1
  Ca  Ca1  1  0.732600  0.746822  0.792916  1
  Sb  Sb2  1  0.620537  0.106934  0.661682  1
  Sb  Sb3  1  0.113407  0.576547  0.198427  1
  Sb  Sb4  1  0.888820  0.401599  0.834777  1
  Sb  Sb5  1  0.381899  0.871227  0.371341  1
  O  O6  1  0.903926  0.754048  0.443242  1
  O  O7  1  0.423933  0.279837  0.883038  1
  O  O8  1  0.578341  0.698263  0.150021  1
  O  O9  1  0.098483  0.224100  0.589712  1
  O  O10  1  0.230966  0.886726  0.657831  1
  O  O11  1  0.748371  0.385326  0.129441  1
  O  O12  1  0.771417  0.091358  0.375187  1
  O  O13  1  0.253866  0.592744  0.903727  1
