# generated using pymatgen
data_BaZnAgF7
_symmetry_space_group_name_H-M   'P 1'
_cell_length_a   5.78267016
_cell_length_b   9.87701767
_cell_length_c   10.26472878
_cell_angle_alpha   90.00000000
_cell_angle_beta   90.00000000
_cell_angle_gamma   92.94779499
_symmetry_Int_Tables_number   1
_chemical_formula_structural   BaZnAgF7
_chemical_formula_sum   'Ba4 Zn4 Ag4 F28'
_cell_volume   585.49972372
_cell_formula_units_Z   4
loop_
 _symmetry_equiv_pos_site_id
 _symmetry_equiv_pos_as_xyz
  1  'x, y, z'
loop_
 _atom_site_type_symbol
 _atom_site_label
 _atom_site_symmetry_multiplicity
 _atom_site_fract_x
 _atom_site_fract_y
 _atom_site_fract_z
 _atom_site_occupancy
  Ba  Ba0  1  0.265610  0.498127  0.321503  1
  Ba  Ba1  1  0.734390  0.001873  0.821503  1
  Ba  Ba2  1  0.734390  0.501873  0.678497  1
  Ba  Ba3  1  0.265610  0.998127  0.178497  1
  Zn  Zn4  1  0.696530  0.807495  0.396674  1
  Zn  Zn5  1  0.303470  0.692505  0.896674  1
  Zn  Zn6  1  0.696530  0.307495  0.103326  1
  Zn  Zn7  1  0.303470  0.192505  0.603326  1
  Ag  Ag8  1  0.196500  0.813199  0.610401  1
  Ag  Ag9  1  0.803500  0.186801  0.389599  1
  Ag  Ag10  1  0.196500  0.313199  0.889599  1
  Ag  Ag11  1  0.803500  0.686801  0.110401  1
  F  F12  1  0.130856  0.118703  0.445466  1
  F  F13  1  0.373338  0.375186  0.061799  1
  F  F14  1  0.493029  0.749683  0.715665  1
  F  F15  1  0.506971  0.250317  0.284334  1
  F  F16  1  0.898015  0.379904  0.461972  1
  F  F17  1  0.262454  0.508681  0.802290  1
  F  F18  1  0.016306  0.749158  0.785699  1
  F  F19  1  0.101985  0.120096  0.961972  1
  F  F20  1  0.373338  0.875186  0.438201  1
  F  F21  1  0.506971  0.750317  0.215666  1
  F  F22  1  0.130856  0.618703  0.054534  1
  F  F23  1  0.869144  0.881297  0.554534  1
  F  F24  1  0.983694  0.750842  0.285699  1
  F  F25  1  0.391402  0.874490  0.958534  1
  F  F26  1  0.101985  0.620096  0.538028  1
  F  F27  1  0.898015  0.879904  0.038028  1
  F  F28  1  0.983694  0.250841  0.214301  1
  F  F29  1  0.869144  0.381297  0.945466  1
  F  F30  1  0.608598  0.625510  0.458534  1
  F  F31  1  0.626662  0.624814  0.938201  1
  F  F32  1  0.608598  0.125510  0.041466  1
  F  F33  1  0.016306  0.249159  0.714301  1
  F  F34  1  0.391402  0.374490  0.541466  1
  F  F35  1  0.737546  0.991319  0.302290  1
  F  F36  1  0.737546  0.491319  0.197710  1
  F  F37  1  0.262454  0.008681  0.697710  1
  F  F38  1  0.626662  0.124814  0.561799  1
  F  F39  1  0.493029  0.249683  0.784335  1
