# generated using pymatgen
data_Ca3Mn3(AsO4)4
_symmetry_space_group_name_H-M   'P 1'
_cell_length_a   5.24923631
_cell_length_b   9.28126075
_cell_length_c   15.78869554
_cell_angle_alpha   94.59014240
_cell_angle_beta   90.00000000
_cell_angle_gamma   90.00000000
_symmetry_Int_Tables_number   1
_chemical_formula_structural   Ca3Mn3(AsO4)4
_chemical_formula_sum   'Ca6 Mn6 As8 O32'
_cell_volume   766.75069843
_cell_formula_units_Z   2
loop_
 _symmetry_equiv_pos_site_id
 _symmetry_equiv_pos_as_xyz
  1  'x, y, z'
loop_
 _atom_site_type_symbol
 _atom_site_label
 _atom_site_symmetry_multiplicity
 _atom_site_fract_x
 _atom_site_fract_y
 _atom_site_fract_z
 _atom_site_occupancy
  Ca  Ca0  1  0.960337  0.044628  0.730120  1
  Ca  Ca1  1  0.460337  0.455372  0.769880  1
  Ca  Ca2  1  0.039663  0.955372  0.269880  1
  Ca  Ca3  1  0.539663  0.544628  0.230120  1
  Ca  Ca4  1  0.000000  -0.000000  -0.000000  1
  Ca  Ca5  1  0.500000  0.500000  0.500000  1
  Mn  Mn6  1  0.015905  0.314580  0.122412  1
  Mn  Mn7  1  0.984095  0.685419  0.877588  1
  Mn  Mn8  1  0.515905  0.185420  0.377588  1
  Mn  Mn9  1  0.484095  0.814581  0.622412  1
  Mn  Mn10  1  0.500000  0.500000  -0.000000  1
  Mn  Mn11  1  0.000000  -0.000000  0.500000  1
  As  As12  1  0.493935  0.881269  0.842943  1
  As  As13  1  0.007724  0.337649  0.900920  1
  As  As14  1  0.507724  0.162351  0.599080  1
  As  As15  1  0.492276  0.837649  0.400920  1
  As  As16  1  0.506065  0.118731  0.157057  1
  As  As17  1  0.992276  0.662351  0.099080  1
  As  As18  1  0.006065  0.381269  0.342943  1
  As  As19  1  0.993935  0.618731  0.657057  1
  O  O20  1  0.058931  0.573838  0.759142  1
  O  O21  1  0.553536  0.253988  0.510298  1
  O  O22  1  0.115337  0.246774  0.810276  1
  O  O23  1  0.084010  0.797357  0.647861  1
  O  O24  1  0.884663  0.753226  0.189724  1
  O  O25  1  0.441069  0.073838  0.259142  1
  O  O26  1  0.615337  0.253226  0.689724  1
  O  O27  1  0.801160  0.899906  0.393752  1
  O  O28  1  0.838088  0.500064  0.407717  1
  O  O29  1  0.941069  0.426162  0.240858  1
  O  O30  1  0.415990  0.297357  0.147861  1
  O  O31  1  0.198840  0.100094  0.606248  1
  O  O32  1  0.193740  0.494687  0.915367  1
  O  O33  1  0.161912  0.499936  0.592283  1
  O  O34  1  0.834237  0.107448  0.140939  1
  O  O35  1  0.334237  0.392552  0.359061  1
  O  O36  1  0.693740  0.005313  0.584633  1
  O  O37  1  0.384663  0.746774  0.310276  1
  O  O38  1  0.338088  -0.000064  0.092283  1
  O  O39  1  0.301160  0.600094  0.106248  1
  O  O40  1  0.665763  0.607448  0.640939  1
  O  O41  1  0.165763  0.892552  0.859061  1
  O  O42  1  0.446464  0.746012  0.489702  1
  O  O43  1  0.053536  0.246012  0.989702  1
  O  O44  1  0.806260  0.505313  0.084633  1
  O  O45  1  0.558931  0.926162  0.740858  1
  O  O46  1  0.915990  0.202643  0.352139  1
  O  O47  1  0.661912  0.000064  0.907717  1
  O  O48  1  0.946464  0.753988  0.010298  1
  O  O49  1  0.698840  0.399906  0.893752  1
  O  O50  1  0.306260  0.994687  0.415367  1
  O  O51  1  0.584010  0.702643  0.852139  1
