# generated using pymatgen
data_BaCaCrF7
_symmetry_space_group_name_H-M   'P 1'
_cell_length_a   5.78169819
_cell_length_b   10.06927220
_cell_length_c   10.48143067
_cell_angle_alpha   90.00000000
_cell_angle_beta   90.00000000
_cell_angle_gamma   92.34640578
_symmetry_Int_Tables_number   1
_chemical_formula_structural   BaCaCrF7
_chemical_formula_sum   'Ba4 Ca4 Cr4 F28'
_cell_volume   609.69099901
_cell_formula_units_Z   4
loop_
 _symmetry_equiv_pos_site_id
 _symmetry_equiv_pos_as_xyz
  1  'x, y, z'
loop_
 _atom_site_type_symbol
 _atom_site_label
 _atom_site_symmetry_multiplicity
 _atom_site_fract_x
 _atom_site_fract_y
 _atom_site_fract_z
 _atom_site_occupancy
  Ba  Ba0  1  0.260081  0.503523  0.333584  1
  Ba  Ba1  1  0.739919  0.996477  0.833584  1
  Ba  Ba2  1  0.739919  0.496477  0.666416  1
  Ba  Ba3  1  0.260081  0.003523  0.166416  1
  Ca  Ca4  1  0.700076  0.818057  0.404258  1
  Ca  Ca5  1  0.299924  0.681943  0.904258  1
  Ca  Ca6  1  0.700076  0.318057  0.095742  1
  Ca  Ca7  1  0.299924  0.181943  0.595742  1
  Cr  Cr8  1  0.189178  0.810996  0.619909  1
  Cr  Cr9  1  0.810822  0.189004  0.380091  1
  Cr  Cr10  1  0.189178  0.310996  0.880091  1
  Cr  Cr11  1  0.810822  0.689004  0.119909  1
  F  F12  1  0.099192  0.111976  0.427086  1
  F  F13  1  0.340126  0.369353  0.038061  1
  F  F14  1  0.469284  0.742951  0.701631  1
  F  F15  1  0.530716  0.257049  0.298369  1
  F  F16  1  0.905684  0.357712  0.458913  1
  F  F17  1  0.275318  0.481762  0.799743  1
  F  F18  1  0.014482  0.751126  0.771932  1
  F  F19  1  0.094316  0.142288  0.958913  1
  F  F20  1  0.340126  0.869353  0.461939  1
  F  F21  1  0.530716  0.757049  0.201631  1
  F  F22  1  0.099192  0.611976  0.072914  1
  F  F23  1  0.900808  0.888024  0.572914  1
  F  F24  1  0.985518  0.748874  0.271932  1
  F  F25  1  0.394928  0.884837  0.958096  1
  F  F26  1  0.094316  0.642288  0.541087  1
  F  F27  1  0.905684  0.857712  0.041086  1
  F  F28  1  0.985518  0.248874  0.228068  1
  F  F29  1  0.900808  0.388024  0.927086  1
  F  F30  1  0.605072  0.615163  0.458096  1
  F  F31  1  0.659874  0.630647  0.961939  1
  F  F32  1  0.605072  0.115163  0.041904  1
  F  F33  1  0.014482  0.251126  0.728068  1
  F  F34  1  0.394928  0.384837  0.541904  1
  F  F35  1  0.724682  0.018238  0.299743  1
  F  F36  1  0.724682  0.518238  0.200257  1
  F  F37  1  0.275318  0.981762  0.700257  1
  F  F38  1  0.659874  0.130647  0.538061  1
  F  F39  1  0.469284  0.242951  0.798369  1
