# generated using pymatgen
data_Ca2TaWO6
_symmetry_space_group_name_H-M   'P 1'
_cell_length_a   5.57214405
_cell_length_b   5.75036081
_cell_length_c   7.99485991
_cell_angle_alpha   90.00000000
_cell_angle_beta   89.98027244
_cell_angle_gamma   90.00000000
_symmetry_Int_Tables_number   1
_chemical_formula_structural   Ca2TaWO6
_chemical_formula_sum   'Ca4 Ta2 W2 O12'
_cell_volume   256.16999687
_cell_formula_units_Z   2
loop_
 _symmetry_equiv_pos_site_id
 _symmetry_equiv_pos_as_xyz
  1  'x, y, z'
loop_
 _atom_site_type_symbol
 _atom_site_label
 _atom_site_symmetry_multiplicity
 _atom_site_fract_x
 _atom_site_fract_y
 _atom_site_fract_z
 _atom_site_occupancy
  Ca  Ca0  1  0.987430  0.051169  0.248294  1
  Ca  Ca1  1  0.512570  0.551170  0.251706  1
  Ca  Ca2  1  0.012571  0.948832  0.751706  1
  Ca  Ca3  1  0.487429  0.448831  0.748294  1
  Ta  Ta4  1  0.500000  0.000000  0.000000  1
  Ta  Ta5  1  0.000001  0.499999  0.500000  1
  W  W6  1  0.500000  0.000000  0.499999  1
  W  W7  1  0.000000  0.499999  0.000000  1
  O  O8  1  0.708690  0.308860  0.448899  1
  O  O9  1  0.791310  0.808861  0.051101  1
  O  O10  1  0.291309  0.691140  0.551101  1
  O  O11  1  0.208691  0.191139  0.948899  1
  O  O12  1  0.187140  0.211516  0.557077  1
  O  O13  1  0.312860  0.711515  0.942923  1
  O  O14  1  0.812861  0.788484  0.442923  1
  O  O15  1  0.687139  0.288485  0.057077  1
  O  O16  1  0.102744  0.462924  0.260358  1
  O  O17  1  0.397257  0.962925  0.239641  1
  O  O18  1  0.602744  0.037075  0.760359  1
  O  O19  1  0.897257  0.537076  0.739642  1
