# generated using pymatgen
data_Mn2Zn3(GeO4)3
_symmetry_space_group_name_H-M   'P 1'
_cell_length_a   10.52635204
_cell_length_b   10.52635152
_cell_length_c   10.52635165
_cell_angle_alpha   109.47122086
_cell_angle_beta   109.47121986
_cell_angle_gamma   109.47121993
_symmetry_Int_Tables_number   1
_chemical_formula_structural   Mn2Zn3(GeO4)3
_chemical_formula_sum   'Mn8 Zn12 Ge12 O48'
_cell_volume   897.86646214
_cell_formula_units_Z   4
loop_
 _symmetry_equiv_pos_site_id
 _symmetry_equiv_pos_as_xyz
  1  'x, y, z'
loop_
 _atom_site_type_symbol
 _atom_site_label
 _atom_site_symmetry_multiplicity
 _atom_site_fract_x
 _atom_site_fract_y
 _atom_site_fract_z
 _atom_site_occupancy
  Mn  Mn0  1  0.500000  0.500000  0.500000  1
  Mn  Mn1  1  0.500000  0.500000  0.000000  1
  Mn  Mn2  1  0.500000  0.000000  0.500000  1
  Mn  Mn3  1  0.000000  0.500000  0.500000  1
  Mn  Mn4  1  0.500000  0.000000  0.000000  1
  Mn  Mn5  1  0.000000  0.000000  0.500000  1
  Mn  Mn6  1  0.000000  0.500000  0.000000  1
  Mn  Mn7  1  0.000000  0.000000  0.000000  1
  Zn  Zn8  1  0.625000  0.250000  0.875000  1
  Zn  Zn9  1  0.875000  0.750000  0.625000  1
  Zn  Zn10  1  0.750000  0.625000  0.875000  1
  Zn  Zn11  1  0.250000  0.875000  0.625000  1
  Zn  Zn12  1  0.875000  0.625000  0.250000  1
  Zn  Zn13  1  0.625000  0.875000  0.750000  1
  Zn  Zn14  1  0.375000  0.750000  0.125000  1
  Zn  Zn15  1  0.125000  0.250000  0.375000  1
  Zn  Zn16  1  0.250000  0.375000  0.125000  1
  Zn  Zn17  1  0.750000  0.125000  0.375000  1
  Zn  Zn18  1  0.125000  0.375000  0.750000  1
  Zn  Zn19  1  0.375000  0.125000  0.250000  1
  Ge  Ge20  1  0.875000  0.125000  0.750000  1
  Ge  Ge21  1  0.125000  0.875000  0.250000  1
  Ge  Ge22  1  0.250000  0.625000  0.375000  1
  Ge  Ge23  1  0.125000  0.750000  0.875000  1
  Ge  Ge24  1  0.750000  0.875000  0.125000  1
  Ge  Ge25  1  0.375000  0.250000  0.625000  1
  Ge  Ge26  1  0.625000  0.750000  0.375000  1
  Ge  Ge27  1  0.875000  0.250000  0.125000  1
  Ge  Ge28  1  0.250000  0.125000  0.875000  1
  Ge  Ge29  1  0.750000  0.375000  0.625000  1
  Ge  Ge30  1  0.375000  0.625000  0.750000  1
  Ge  Ge31  1  0.625000  0.375000  0.250000  1
  O  O32  1  0.790652  0.419268  0.817767  1
  O  O33  1  0.080732  0.871384  0.398499  1
  O  O34  1  0.682233  0.101501  0.972884  1
  O  O35  1  0.709348  0.527116  0.628616  1
  O  O36  1  0.709348  0.682233  0.080732  1
  O  O37  1  0.527116  0.628616  0.709348  1
  O  O38  1  0.101501  0.628616  0.419268  1
  O  O39  1  0.628616  0.709348  0.527116  1
  O  O40  1  0.398499  0.817767  0.527116  1
  O  O41  1  0.871384  0.972884  0.790652  1
  O  O42  1  0.972884  0.790652  0.871384  1
  O  O43  1  0.080732  0.709348  0.682233  1
  O  O44  1  0.628616  0.419268  0.101501  1
  O  O45  1  0.527116  0.398499  0.817767  1
  O  O46  1  0.682233  0.080732  0.709348  1
  O  O47  1  0.419268  0.101501  0.628616  1
  O  O48  1  0.817767  0.527116  0.398499  1
  O  O49  1  0.398499  0.080732  0.871384  1
  O  O50  1  0.101501  0.972884  0.682233  1
  O  O51  1  0.601501  0.182233  0.472884  1
  O  O52  1  0.972884  0.682233  0.101501  1
  O  O53  1  0.817767  0.790652  0.419268  1
  O  O54  1  0.871384  0.398499  0.080732  1
  O  O55  1  0.790652  0.871384  0.972884  1
  O  O56  1  0.209348  0.580732  0.182233  1
  O  O57  1  0.919268  0.128616  0.601501  1
  O  O58  1  0.317767  0.898499  0.027116  1
  O  O59  1  0.290652  0.472884  0.371384  1
  O  O60  1  0.290652  0.317767  0.919268  1
  O  O61  1  0.472884  0.371384  0.290652  1
  O  O62  1  0.898499  0.371384  0.580732  1
  O  O63  1  0.371384  0.290652  0.472884  1
  O  O64  1  0.209348  0.128616  0.027116  1
  O  O65  1  0.128616  0.601501  0.919268  1
  O  O66  1  0.182233  0.209348  0.580732  1
  O  O67  1  0.580732  0.182233  0.209348  1
  O  O68  1  0.027116  0.317767  0.898499  1
  O  O69  1  0.898499  0.027116  0.317767  1
  O  O70  1  0.601501  0.919268  0.128616  1
  O  O71  1  0.182233  0.472884  0.601501  1
  O  O72  1  0.580732  0.898499  0.371384  1
  O  O73  1  0.317767  0.919268  0.290652  1
  O  O74  1  0.472884  0.601501  0.182233  1
  O  O75  1  0.371384  0.580732  0.898499  1
  O  O76  1  0.919268  0.290652  0.317767  1
  O  O77  1  0.027116  0.209348  0.128616  1
  O  O78  1  0.128616  0.027116  0.209348  1
  O  O79  1  0.419268  0.817767  0.790652  1
