# generated using pymatgen
data_CaCo2(PO5)2
_symmetry_space_group_name_H-M   'P 1'
_cell_length_a   6.85831894
_cell_length_b   6.85831818
_cell_length_c   8.77516693
_cell_angle_alpha   102.63132277
_cell_angle_beta   102.63132321
_cell_angle_gamma   116.13002471
_symmetry_Int_Tables_number   1
_chemical_formula_structural   CaCo2(PO5)2
_chemical_formula_sum   'Ca2 Co4 P4 O20'
_cell_volume   337.41928206
_cell_formula_units_Z   2
loop_
 _symmetry_equiv_pos_site_id
 _symmetry_equiv_pos_as_xyz
  1  'x, y, z'
loop_
 _atom_site_type_symbol
 _atom_site_label
 _atom_site_symmetry_multiplicity
 _atom_site_fract_x
 _atom_site_fract_y
 _atom_site_fract_z
 _atom_site_occupancy
  Ca  Ca0  1  0.496232  0.996232  0.500000  1
  Ca  Ca1  1  0.246232  0.246232  1.000000  1
  Co  Co2  1  0.871524  0.619434  0.250643  1
  Co  Co3  1  0.368791  0.620880  0.749357  1
  Co  Co4  1  0.870880  0.118791  0.249357  1
  Co  Co5  1  0.869434  0.621524  0.750643  1
  P  P6  1  0.037177  0.036866  0.583830  1
  P  P7  1  0.703348  0.203036  0.916170  1
  P  P8  1  0.453036  0.453348  0.416170  1
  P  P9  1  0.286866  0.787177  0.083830  1
  O  O10  1  0.573538  0.560119  0.300526  1
  O  O11  1  0.656175  0.658581  0.825685  1
  O  O12  1  0.327631  0.610080  0.971255  1
  O  O13  1  0.810119  0.323538  0.800526  1
  O  O14  1  0.218132  0.229864  0.299093  1
  O  O15  1  0.409293  0.629306  0.527121  1
  O  O16  1  0.080490  0.582896  0.674315  1
  O  O17  1  0.832896  0.830490  0.174315  1
  O  O18  1  0.908581  0.406175  0.325685  1
  O  O19  1  0.169039  0.680770  0.200907  1
  O  O20  1  0.259593  0.273013  0.699474  1
  O  O21  1  0.479864  0.968132  0.799093  1
  O  O22  1  0.930770  0.919039  0.700907  1
  O  O23  1  0.132173  0.852186  0.972879  1
  O  O24  1  0.102186  0.882174  0.472879  1
  O  O25  1  0.879306  0.159293  0.027121  1
  O  O26  1  0.860080  0.077631  0.471255  1
  O  O27  1  0.638825  0.356376  0.028745  1
  O  O28  1  0.523013  0.009593  0.199474  1
  O  O29  1  0.606375  0.388825  0.528745  1
