# generated using pymatgen
data_ZnNiP2O7
_symmetry_space_group_name_H-M   'P 1'
_cell_length_a   7.02607412
_cell_length_b   8.38860452
_cell_length_c   9.03543039
_cell_angle_alpha   90.00000000
_cell_angle_beta   112.32590058
_cell_angle_gamma   90.00000000
_symmetry_Int_Tables_number   1
_chemical_formula_structural   ZnNiP2O7
_chemical_formula_sum   'Zn4 Ni4 P8 O28'
_cell_volume   492.61871583
_cell_formula_units_Z   4
loop_
 _symmetry_equiv_pos_site_id
 _symmetry_equiv_pos_as_xyz
  1  'x, y, z'
loop_
 _atom_site_type_symbol
 _atom_site_label
 _atom_site_symmetry_multiplicity
 _atom_site_fract_x
 _atom_site_fract_y
 _atom_site_fract_z
 _atom_site_occupancy
  Zn  Zn0  1  0.122768  0.942228  0.817931  1
  Zn  Zn1  1  0.377232  0.442228  0.682069  1
  Zn  Zn2  1  0.622768  0.557772  0.317931  1
  Zn  Zn3  1  0.877232  0.057772  0.182069  1
  Ni  Ni4  1  0.379953  0.074021  0.609726  1
  Ni  Ni5  1  0.620047  0.925979  0.390274  1
  Ni  Ni6  1  0.120047  0.574021  0.890274  1
  Ni  Ni7  1  0.879953  0.425979  0.109726  1
  P  P8  1  0.180291  0.732397  0.240418  1
  P  P9  1  0.437680  0.227791  0.968478  1
  P  P10  1  0.680291  0.767603  0.740418  1
  P  P11  1  0.937680  0.272209  0.468478  1
  P  P12  1  0.319709  0.232397  0.259582  1
  P  P13  1  0.062320  0.727791  0.531522  1
  P  P14  1  0.562320  0.772209  0.031522  1
  P  P15  1  0.819709  0.267603  0.759582  1
  O  O16  1  0.353549  0.173022  0.101184  1
  O  O17  1  0.574859  0.610186  0.683275  1
  O  O18  1  0.074859  0.889814  0.183275  1
  O  O19  1  0.344010  0.390534  0.899725  1
  O  O20  1  0.646451  0.826978  0.898816  1
  O  O21  1  0.404312  0.094884  0.380098  1
  O  O22  1  0.655991  0.609466  0.100275  1
  O  O23  1  0.365457  0.091695  0.845115  1
  O  O24  1  0.174198  0.262619  0.547851  1
  O  O25  1  0.595688  0.905116  0.619902  1
  O  O26  1  0.904312  0.405116  0.880098  1
  O  O27  1  0.916668  0.758506  0.797399  1
  O  O28  1  0.583332  0.258506  0.702601  1
  O  O29  1  0.853549  0.326978  0.601184  1
  O  O30  1  0.095688  0.594884  0.119902  1
  O  O31  1  0.925141  0.110186  0.816725  1
  O  O32  1  0.083332  0.241494  0.202601  1
  O  O33  1  0.634543  0.908305  0.154885  1
  O  O34  1  0.674198  0.237381  0.047851  1
  O  O35  1  0.325802  0.762619  0.952149  1
  O  O36  1  0.155990  0.890534  0.600275  1
  O  O37  1  0.865457  0.408305  0.345115  1
  O  O38  1  0.134543  0.591695  0.654885  1
  O  O39  1  0.425141  0.389814  0.316725  1
  O  O40  1  0.416668  0.741494  0.297399  1
  O  O41  1  0.844009  0.109466  0.399725  1
  O  O42  1  0.825802  0.737381  0.452149  1
  O  O43  1  0.146451  0.673022  0.398816  1
