# generated using pymatgen
data_CaFe2CoO7
_symmetry_space_group_name_H-M   'P 1'
_cell_length_a   7.27592404
_cell_length_b   10.68434384
_cell_length_c   14.03030559
_cell_angle_alpha   90.00000000
_cell_angle_beta   90.00000000
_cell_angle_gamma   107.82549716
_symmetry_Int_Tables_number   1
_chemical_formula_structural   CaFe2CoO7
_chemical_formula_sum   'Ca8 Fe16 Co8 O56'
_cell_volume   1038.33386044
_cell_formula_units_Z   8
loop_
 _symmetry_equiv_pos_site_id
 _symmetry_equiv_pos_as_xyz
  1  'x, y, z'
loop_
 _atom_site_type_symbol
 _atom_site_label
 _atom_site_symmetry_multiplicity
 _atom_site_fract_x
 _atom_site_fract_y
 _atom_site_fract_z
 _atom_site_occupancy
  Ca  Ca0  1  0.080417  0.768913  0.503877  1
  Ca  Ca1  1  0.321763  0.961779  0.876235  1
  Ca  Ca2  1  0.678237  0.538221  0.376235  1
  Ca  Ca3  1  0.678237  0.038221  0.123765  1
  Ca  Ca4  1  0.321763  0.461779  0.623765  1
  Ca  Ca5  1  0.080417  0.268913  0.996123  1
  Ca  Ca6  1  0.919583  0.231087  0.496123  1
  Ca  Ca7  1  0.919583  0.731087  0.003877  1
  Fe  Fe8  1  0.825478  0.967745  0.866375  1
  Fe  Fe9  1  0.411235  0.680611  0.012703  1
  Fe  Fe10  1  0.411235  0.180611  0.487297  1
  Fe  Fe11  1  0.588765  0.319389  0.987297  1
  Fe  Fe12  1  0.471498  0.772614  0.715272  1
  Fe  Fe13  1  0.528502  0.727386  0.215272  1
  Fe  Fe14  1  0.528502  0.227386  0.284728  1
  Fe  Fe15  1  0.471498  0.272614  0.784728  1
  Fe  Fe16  1  0.588765  0.819389  0.512703  1
  Fe  Fe17  1  0.858710  0.433444  0.157596  1
  Fe  Fe18  1  0.141290  0.066556  0.657596  1
  Fe  Fe19  1  0.141290  0.566556  0.842404  1
  Fe  Fe20  1  0.174522  0.532255  0.366375  1
  Fe  Fe21  1  0.825478  0.467745  0.633625  1
  Fe  Fe22  1  0.174522  0.032255  0.133625  1
  Fe  Fe23  1  0.858710  0.933444  0.342404  1
  Co  Co24  1  0.620206  0.074078  0.681643  1
  Co  Co25  1  0.379794  0.425922  0.181643  1
  Co  Co26  1  0.379794  0.925922  0.318357  1
  Co  Co27  1  0.620206  0.574078  0.818357  1
  Co  Co28  1  0.976415  0.251317  0.754971  1
  Co  Co29  1  0.023585  0.248683  0.254971  1
  Co  Co30  1  0.023585  0.748683  0.245029  1
  Co  Co31  1  0.976415  0.751317  0.745029  1
  O  O32  1  0.789482  0.942201  0.992824  1
  O  O33  1  0.210518  0.557799  0.492824  1
  O  O34  1  0.210518  0.057799  0.007176  1
  O  O35  1  0.789482  0.442201  0.507176  1
  O  O36  1  0.992671  0.868141  0.848487  1
  O  O37  1  0.007329  0.631859  0.348487  1
  O  O38  1  0.007329  0.131859  0.151513  1
  O  O39  1  0.992671  0.368141  0.651513  1
  O  O40  1  0.986727  0.138622  0.854696  1
  O  O41  1  0.013273  0.361378  0.354696  1
  O  O42  1  0.013273  0.861378  0.145304  1
  O  O43  1  0.986727  0.638622  0.645304  1
  O  O44  1  0.621792  0.918882  0.272857  1
  O  O45  1  0.378208  0.581118  0.772857  1
  O  O46  1  0.378208  0.081118  0.727143  1
  O  O47  1  0.621792  0.418882  0.227143  1
  O  O48  1  0.966296  0.123083  0.342657  1
  O  O49  1  0.033704  0.376917  0.842657  1
  O  O50  1  0.033704  0.876917  0.657343  1
  O  O51  1  0.966296  0.623083  0.157343  1
  O  O52  1  0.102353  0.892095  0.338326  1
  O  O53  1  0.386050  0.829197  0.423464  1
  O  O54  1  0.897647  0.607905  0.838326  1
  O  O55  1  0.102353  0.392095  0.161674  1
  O  O56  1  0.722971  0.707322  0.483846  1
  O  O57  1  0.277029  0.792678  0.983846  1
  O  O58  1  0.277029  0.292678  0.516154  1
  O  O59  1  0.722971  0.207322  0.016154  1
  O  O60  1  0.792347  0.954204  0.470773  1
  O  O61  1  0.207652  0.545796  0.970773  1
  O  O62  1  0.207652  0.045796  0.529227  1
  O  O63  1  0.792347  0.454204  0.029227  1
  O  O64  1  0.417073  0.187215  0.909691  1
  O  O65  1  0.582927  0.312785  0.409691  1
  O  O66  1  0.582927  0.812785  0.090309  1
  O  O67  1  0.417073  0.687215  0.590309  1
  O  O68  1  0.711177  0.215470  0.763622  1
  O  O69  1  0.288823  0.284530  0.263622  1
  O  O70  1  0.288823  0.784530  0.236378  1
  O  O71  1  0.711177  0.715470  0.736378  1
  O  O72  1  0.601600  0.443409  0.709573  1
  O  O73  1  0.398400  0.056591  0.209573  1
  O  O74  1  0.398400  0.556591  0.290427  1
  O  O75  1  0.601600  0.943409  0.790427  1
  O  O76  1  0.223223  0.256710  0.718796  1
  O  O77  1  0.776777  0.243290  0.218796  1
  O  O78  1  0.776777  0.743290  0.281204  1
  O  O79  1  0.223223  0.756710  0.781204  1
  O  O80  1  0.526045  0.415165  0.880249  1
  O  O81  1  0.473955  0.084835  0.380249  1
  O  O82  1  0.473955  0.584835  0.119751  1
  O  O83  1  0.526045  0.915165  0.619751  1
  O  O84  1  0.386050  0.329197  0.076536  1
  O  O85  1  0.613950  0.170803  0.576536  1
  O  O86  1  0.613950  0.670803  0.923464  1
  O  O87  1  0.897647  0.107905  0.661674  1
