# generated using pymatgen
data_LaMgCrCuO6
_symmetry_space_group_name_H-M   'P 1'
_cell_length_a   5.31081162
_cell_length_b   5.39030797
_cell_length_c   7.73397376
_cell_angle_alpha   90.00000000
_cell_angle_beta   89.86220513
_cell_angle_gamma   90.00000000
_symmetry_Int_Tables_number   1
_chemical_formula_structural   LaMgCrCuO6
_chemical_formula_sum   'La2 Mg2 Cr2 Cu2 O12'
_cell_volume   221.39913232
_cell_formula_units_Z   2
loop_
 _symmetry_equiv_pos_site_id
 _symmetry_equiv_pos_as_xyz
  1  'x, y, z'
loop_
 _atom_site_type_symbol
 _atom_site_label
 _atom_site_symmetry_multiplicity
 _atom_site_fract_x
 _atom_site_fract_y
 _atom_site_fract_z
 _atom_site_occupancy
  La  La0  1  0.004158  0.956634  0.750081  1
  La  La1  1  0.504158  0.543366  0.250081  1
  Mg  Mg2  1  0.475710  0.440059  0.756925  1
  Mg  Mg3  1  0.975710  0.059941  0.256925  1
  Cr  Cr4  1  0.490780  0.005260  0.501086  1
  Cr  Cr5  1  0.990780  0.494740  0.001086  1
  Cu  Cu6  1  0.495354  0.999544  -0.000679  1
  Cu  Cu7  1  0.995354  0.500456  0.499321  1
  O  O8  1  0.078885  0.440855  0.248630  1
  O  O9  1  0.217274  0.246282  0.936259  1
  O  O10  1  0.230396  0.226253  0.552309  1
  O  O11  1  0.311511  0.691708  0.942432  1
  O  O12  1  0.332119  0.707567  0.560959  1
  O  O13  1  0.363813  0.973692  0.251997  1
  O  O14  1  0.578885  0.059145  0.748630  1
  O  O15  1  0.717274  0.253718  0.436259  1
  O  O16  1  0.730396  0.273747  0.052309  1
  O  O17  1  0.811511  0.808292  0.442432  1
  O  O18  1  0.832119  0.792433  0.060959  1
  O  O19  1  0.863813  0.526308  0.751997  1
