# generated using pymatgen
data_CaTiO2
_symmetry_space_group_name_H-M   'P 1'
_cell_length_a   3.08361115
_cell_length_b   9.23868316
_cell_length_c   9.35561816
_cell_angle_alpha   64.08988672
_cell_angle_beta   80.50100404
_cell_angle_gamma   80.38396292
_symmetry_Int_Tables_number   1
_chemical_formula_structural   CaTiO2
_chemical_formula_sum   'Ca4 Ti4 O8'
_cell_volume   235.09157910
_cell_formula_units_Z   4
loop_
 _symmetry_equiv_pos_site_id
 _symmetry_equiv_pos_as_xyz
  1  'x, y, z'
loop_
 _atom_site_type_symbol
 _atom_site_label
 _atom_site_symmetry_multiplicity
 _atom_site_fract_x
 _atom_site_fract_y
 _atom_site_fract_z
 _atom_site_occupancy
  Ca  Ca0  1  0.343704  0.147661  0.163732  1
  Ca  Ca1  1  0.650378  0.835065  0.862943  1
  Ca  Ca2  1  0.986051  0.756372  0.270540  1
  Ca  Ca3  1  0.008453  0.225982  0.755808  1
  Ti  Ti4  1  0.695189  0.123440  0.485012  1
  Ti  Ti5  1  0.176595  0.475889  0.169962  1
  Ti  Ti6  1  0.818002  0.507396  0.855401  1
  Ti  Ti7  1  0.298866  0.860318  0.540891  1
  O  O8  1  0.813886  0.708867  0.662473  1
  O  O9  1  0.403353  0.383267  0.808679  1
  O  O10  1  0.591236  0.599890  0.216678  1
  O  O11  1  0.180384  0.274501  0.363417  1
  O  O12  1  0.163922  0.008216  0.662744  1
  O  O13  1  0.774290  0.360348  0.089940  1
  O  O14  1  0.830059  0.974637  0.364099  1
  O  O15  1  0.220332  0.622533  0.935686  1
