# generated using pymatgen
data_Ba2Mn2CuF14
_symmetry_space_group_name_H-M   'P 1'
_cell_length_a   5.37267712
_cell_length_b   7.58495611
_cell_length_c   15.10987016
_cell_angle_alpha   90.63223522
_cell_angle_beta   89.93838254
_cell_angle_gamma   110.90010215
_symmetry_Int_Tables_number   1
_chemical_formula_structural   Ba2Mn2CuF14
_chemical_formula_sum   'Ba4 Mn4 Cu2 F28'
_cell_volume   575.19846213
_cell_formula_units_Z   2
loop_
 _symmetry_equiv_pos_site_id
 _symmetry_equiv_pos_as_xyz
  1  'x, y, z'
loop_
 _atom_site_type_symbol
 _atom_site_label
 _atom_site_symmetry_multiplicity
 _atom_site_fract_x
 _atom_site_fract_y
 _atom_site_fract_z
 _atom_site_occupancy
  Ba  Ba0  1  0.107479  0.354138  0.627567  1
  Ba  Ba1  1  0.246640  0.352675  0.127814  1
  Ba  Ba2  1  0.894809  0.648999  0.373489  1
  Ba  Ba3  1  0.753474  0.647247  0.873235  1
  Mn  Mn4  1  0.105535  0.250749  0.874655  1
  Mn  Mn5  1  0.895634  0.749581  0.126286  1
  Mn  Mn6  1  0.145383  0.252260  0.374476  1
  Mn  Mn7  1  0.854137  0.750834  0.625807  1
  Cu  Cu8  1  0.500585  0.000431  0.000504  1
  Cu  Cu9  1  0.500777  0.002535  0.500269  1
  F  F10  1  0.940519  0.008871  0.348068  1
  F  F11  1  0.885678  0.277341  0.451703  1
  F  F12  1  0.116588  0.727714  0.549204  1
  F  F13  1  0.654020  0.505603  0.590612  1
  F  F14  1  0.615520  0.129603  0.605501  1
  F  F15  1  0.489991  0.874246  0.895475  1
  F  F16  1  0.390497  0.277948  0.952257  1
  F  F17  1  0.931634  0.992088  0.152142  1
  F  F18  1  0.355273  0.347808  0.785068  1
  F  F19  1  0.346651  0.498516  0.407880  1
  F  F20  1  0.844769  0.251758  0.797648  1
  F  F21  1  0.150821  0.497444  0.907527  1
  F  F22  1  0.408702  0.253917  0.297687  1
  F  F23  1  0.156673  0.749111  0.203323  1
  F  F24  1  0.511534  0.126498  0.105649  1
  F  F25  1  0.646074  0.651235  0.215817  1
  F  F26  1  0.123871  0.830201  0.026837  1
  F  F27  1  0.058182  0.993704  0.653535  1
  F  F28  1  0.877117  0.171457  0.974188  1
  F  F29  1  0.711291  0.831979  0.525959  1
  F  F30  1  0.610208  0.721914  0.048826  1
  F  F31  1  0.588205  0.746703  0.701996  1
  F  F32  1  0.994172  0.349030  0.285294  1
  F  F33  1  0.291086  0.173551  0.474373  1
  F  F34  1  0.385451  0.875328  0.395014  1
  F  F35  1  0.067949  0.007653  0.849263  1
  F  F36  1  0.002312  0.651755  0.715039  1
  F  F37  1  0.852122  0.503472  0.092840  1
