# generated using pymatgen
data_Zn3Sb2O7
_symmetry_space_group_name_H-M   'P 1'
_cell_length_a   5.45722301
_cell_length_b   5.51960578
_cell_length_c   10.10579758
_cell_angle_alpha   105.84828007
_cell_angle_beta   90.00000000
_cell_angle_gamma   90.00000000
_symmetry_Int_Tables_number   1
_chemical_formula_structural   Zn3Sb2O7
_chemical_formula_sum   'Zn6 Sb4 O14'
_cell_volume   292.83306237
_cell_formula_units_Z   2
loop_
 _symmetry_equiv_pos_site_id
 _symmetry_equiv_pos_as_xyz
  1  'x, y, z'
loop_
 _atom_site_type_symbol
 _atom_site_label
 _atom_site_symmetry_multiplicity
 _atom_site_fract_x
 _atom_site_fract_y
 _atom_site_fract_z
 _atom_site_occupancy
  Zn  Zn0  1  0.744081  0.743736  1.000000  1
  Zn  Zn1  1  0.244081  0.256264  0.000000  1
  Zn  Zn2  1  0.787317  0.581400  0.587387  1
  Zn  Zn3  1  0.287317  0.418600  0.412613  1
  Zn  Zn4  1  0.787317  0.994012  0.412613  1
  Zn  Zn5  1  0.287317  0.005988  0.587387  1
  Sb  Sb6  1  0.753175  0.362909  0.209118  1
  Sb  Sb7  1  0.253175  0.637091  0.790882  1
  Sb  Sb8  1  0.253175  0.846209  0.209118  1
  Sb  Sb9  1  0.753175  0.153791  0.790882  1
  O  O10  1  0.659655  0.931221  0.589737  1
  O  O11  1  0.159655  0.068779  0.410263  1
  O  O12  1  0.159655  0.658515  0.589737  1
  O  O13  1  0.659655  0.341485  0.410263  1
  O  O14  1  0.076173  0.268936  0.715841  1
  O  O15  1  0.576173  0.731064  0.284159  1
  O  O16  1  0.576173  0.446905  0.715841  1
  O  O17  1  0.076173  0.553095  0.284159  1
  O  O18  1  0.916962  0.844990  0.844631  1
  O  O19  1  0.416962  0.155010  0.155369  1
  O  O20  1  0.889355  0.392597  0.000000  1
  O  O21  1  0.389355  0.607403  1.000000  1
  O  O22  1  0.916962  0.000359  0.155369  1
  O  O23  1  0.416962  0.999641  0.844631  1
