# generated using pymatgen
data_MgCr2O4
_symmetry_space_group_name_H-M   'P 1'
_cell_length_a   5.09958491
_cell_length_b   5.87273779
_cell_length_c   10.24361398
_cell_angle_alpha   90.00000000
_cell_angle_beta   90.00000000
_cell_angle_gamma   90.00000000
_symmetry_Int_Tables_number   1
_chemical_formula_structural   MgCr2O4
_chemical_formula_sum   'Mg4 Cr8 O16'
_cell_volume   306.78112952
_cell_formula_units_Z   4
loop_
 _symmetry_equiv_pos_site_id
 _symmetry_equiv_pos_as_xyz
  1  'x, y, z'
loop_
 _atom_site_type_symbol
 _atom_site_label
 _atom_site_symmetry_multiplicity
 _atom_site_fract_x
 _atom_site_fract_y
 _atom_site_fract_z
 _atom_site_occupancy
  Mg  Mg0  1  0.855514  0.250000  0.750000  1
  Mg  Mg1  1  0.144486  0.750000  0.250000  1
  Mg  Mg2  1  0.531694  0.250000  0.250000  1
  Mg  Mg3  1  0.468306  0.750000  0.750000  1
  Cr  Cr4  1  0.511035  0.750000  0.485733  1
  Cr  Cr5  1  0.511035  0.750000  0.014267  1
  Cr  Cr6  1  0.488965  0.250000  0.514267  1
  Cr  Cr7  1  0.488965  0.250000  0.985733  1
  Cr  Cr8  1  0.000000  0.500000  0.500000  1
  Cr  Cr9  1  0.000000  0.000000  0.000000  1
  Cr  Cr10  1  0.000000  0.000000  0.500000  1
  Cr  Cr11  1  0.000000  0.500000  0.000000  1
  O  O12  1  0.855270  0.750000  0.391675  1
  O  O13  1  0.855270  0.750000  0.108325  1
  O  O14  1  0.144730  0.250000  0.608325  1
  O  O15  1  0.144730  0.250000  0.891675  1
  O  O16  1  0.192475  0.750000  0.597686  1
  O  O17  1  0.192475  0.750000  0.902314  1
  O  O18  1  0.807525  0.250000  0.402314  1
  O  O19  1  0.807525  0.250000  0.097686  1
  O  O20  1  0.665724  0.503313  0.611920  1
  O  O21  1  0.665724  0.996687  0.888080  1
  O  O22  1  0.334276  0.003313  0.388080  1
  O  O23  1  0.334276  0.496687  0.111920  1
  O  O24  1  0.334276  0.496687  0.388080  1
  O  O25  1  0.334276  0.003313  0.111920  1
  O  O26  1  0.665724  0.996687  0.611920  1
  O  O27  1  0.665724  0.503313  0.888080  1
