# generated using pymatgen
data_FeP2O7
_symmetry_space_group_name_H-M   'P 1'
_cell_length_a   6.98871313
_cell_length_b   8.83186861
_cell_length_c   9.48992586
_cell_angle_alpha   90.00000000
_cell_angle_beta   72.74908956
_cell_angle_gamma   90.00000000
_symmetry_Int_Tables_number   1
_chemical_formula_structural   FeP2O7
_chemical_formula_sum   'Fe4 P8 O28'
_cell_volume   559.40060463
_cell_formula_units_Z   4
loop_
 _symmetry_equiv_pos_site_id
 _symmetry_equiv_pos_as_xyz
  1  'x, y, z'
loop_
 _atom_site_type_symbol
 _atom_site_label
 _atom_site_symmetry_multiplicity
 _atom_site_fract_x
 _atom_site_fract_y
 _atom_site_fract_z
 _atom_site_occupancy
  Fe  Fe0  1  0.682294  0.071336  0.198301  1
  Fe  Fe1  1  0.682294  0.428664  0.698301  1
  Fe  Fe2  1  0.317706  0.571336  0.301699  1
  Fe  Fe3  1  0.317706  0.928664  0.801699  1
  P  P4  1  0.523808  0.715383  0.535313  1
  P  P5  1  0.095774  0.250207  0.235735  1
  P  P6  1  0.904226  0.750207  0.264265  1
  P  P7  1  0.095774  0.249793  0.735735  1
  P  P8  1  0.523808  0.784617  0.035313  1
  P  P9  1  0.904226  0.749793  0.764265  1
  P  P10  1  0.476192  0.215383  0.964687  1
  P  P11  1  0.476192  0.284617  0.464687  1
  O  O12  1  0.497184  0.131256  0.383961  1
  O  O13  1  0.256433  0.212528  0.080707  1
  O  O14  1  0.891925  0.275616  0.711087  1
  O  O15  1  0.130954  0.088676  0.779306  1
  O  O16  1  0.502816  0.868744  0.616039  1
  O  O17  1  0.743567  0.787472  0.919293  1
  O  O18  1  0.631100  0.202539  0.048708  1
  O  O19  1  0.521677  0.915240  0.140429  1
  O  O20  1  0.869046  0.588676  0.720694  1
  O  O21  1  0.368900  0.702539  0.451292  1
  O  O22  1  0.497184  0.368744  0.883961  1
  O  O23  1  0.893232  0.869037  0.649069  1
  O  O24  1  0.502816  0.631256  0.116039  1
  O  O25  1  0.108075  0.724384  0.288913  1
  O  O26  1  0.478323  0.415240  0.359571  1
  O  O27  1  0.368900  0.797461  0.951292  1
  O  O28  1  0.869046  0.911324  0.220694  1
  O  O29  1  0.891925  0.224384  0.211088  1
  O  O30  1  0.106768  0.130963  0.350931  1
  O  O31  1  0.521677  0.584760  0.640429  1
  O  O32  1  0.256433  0.287472  0.580707  1
  O  O33  1  0.631100  0.297461  0.548708  1
  O  O34  1  0.478323  0.084760  0.859571  1
  O  O35  1  0.130954  0.411324  0.279306  1
  O  O36  1  0.743567  0.712528  0.419293  1
  O  O37  1  0.893232  0.630963  0.149069  1
  O  O38  1  0.108075  0.775616  0.788913  1
  O  O39  1  0.106768  0.369037  0.850931  1
