# generated using pymatgen
data_Mo3Se2ClO8
_symmetry_space_group_name_H-M   'P 1'
_cell_length_a   7.19088335
_cell_length_b   8.16955468
_cell_length_c   10.31618167
_cell_angle_alpha   90.22283747
_cell_angle_beta   90.03598728
_cell_angle_gamma   87.58517495
_symmetry_Int_Tables_number   1
_chemical_formula_structural   Mo3Se2ClO8
_chemical_formula_sum   'Mo6 Se4 Cl2 O16'
_cell_volume   605.49482594
_cell_formula_units_Z   2
loop_
 _symmetry_equiv_pos_site_id
 _symmetry_equiv_pos_as_xyz
  1  'x, y, z'
loop_
 _atom_site_type_symbol
 _atom_site_label
 _atom_site_symmetry_multiplicity
 _atom_site_fract_x
 _atom_site_fract_y
 _atom_site_fract_z
 _atom_site_occupancy
  Mo  Mo0  1  0.502228  0.000887  0.000501  1
  Mo  Mo1  1  0.497563  0.999244  0.500526  1
  Mo  Mo2  1  0.002478  0.000379  0.999245  1
  Mo  Mo3  1  0.719009  0.197080  0.750684  1
  Mo  Mo4  1  0.281182  0.802879  0.248886  1
  Mo  Mo5  1  0.997298  0.999442  0.499139  1
  Se  Se6  1  0.745844  0.358598  0.052474  1
  Se  Se7  1  0.260982  0.642468  0.946683  1
  Se  Se8  1  0.739100  0.357695  0.449481  1
  Se  Se9  1  0.254198  0.641112  0.549675  1
  Cl  Cl10  1  0.387596  0.114968  0.755510  1
  Cl  Cl11  1  0.612459  0.885529  0.250190  1
  O  O12  1  0.245358  0.976960  0.096485  1
  O  O13  1  0.263696  0.612871  0.113419  1
  O  O14  1  0.738035  0.387017  0.616122  1
  O  O15  1  0.562502  0.232932  0.078273  1
  O  O16  1  0.437750  0.767267  0.575975  1
  O  O17  1  0.053202  0.764474  0.570877  1
  O  O18  1  0.758798  0.023940  0.903322  1
  O  O19  1  0.947137  0.235581  0.072490  1
  O  O20  1  0.939209  0.233569  0.426407  1
  O  O21  1  0.059991  0.765856  0.925377  1
  O  O22  1  0.241595  0.975822  0.403388  1
  O  O23  1  0.753986  0.023182  0.596333  1
  O  O24  1  0.444996  0.767813  0.923482  1
  O  O25  1  0.554264  0.232469  0.426261  1
  O  O26  1  0.739729  0.387320  0.885727  1
  O  O27  1  0.259809  0.612648  0.383067  1
