# generated using pymatgen
data_Sr2YMo2O7
_symmetry_space_group_name_H-M   'P 1'
_cell_length_a   14.10344547
_cell_length_b   14.10344547
_cell_length_c   14.10344547
_cell_angle_alpha   32.80142869
_cell_angle_beta   157.59011636
_cell_angle_gamma   156.35854278
_symmetry_Int_Tables_number   1
_chemical_formula_structural   Sr2YMo2O7
_chemical_formula_sum   'Sr4 Y2 Mo4 O14'
_cell_volume   428.49558845
_cell_formula_units_Z   2
loop_
 _symmetry_equiv_pos_site_id
 _symmetry_equiv_pos_as_xyz
  1  'x, y, z'
loop_
 _atom_site_type_symbol
 _atom_site_label
 _atom_site_symmetry_multiplicity
 _atom_site_fract_x
 _atom_site_fract_y
 _atom_site_fract_z
 _atom_site_occupancy
  Sr  Sr0  1  0.876745  0.780459  0.720834  1
  Sr  Sr1  1  0.059624  0.155910  0.279166  1
  Sr  Sr2  1  0.876745  0.655910  0.596286  1
  Sr  Sr3  1  0.059624  0.280459  0.403714  1
  Y  Y4  1  0.012421  0.512421  0.500000  1
  Y  Y5  1  0.012421  0.012421  -0.000000  1
  Mo  Mo6  1  0.510685  0.434381  0.924095  1
  Mo  Mo7  1  0.510286  0.586592  0.075905  1
  Mo  Mo8  1  0.510685  0.086592  0.576306  1
  Mo  Mo9  1  0.510286  0.934381  0.423694  1
  O  O10  1  0.044513  0.991768  0.552743  1
  O  O11  1  0.439026  0.491768  0.447257  1
  O  O12  1  0.498671  0.200780  0.193327  1
  O  O13  1  0.007453  0.305345  0.806673  1
  O  O14  1  0.498671  0.805344  0.797891  1
  O  O15  1  0.007453  0.700780  0.202109  1
  O  O16  1  0.526203  0.728791  0.696231  1
  O  O17  1  0.032561  0.829970  0.303769  1
  O  O18  1  0.526203  0.329970  0.297412  1
  O  O19  1  0.032561  0.228791  0.702588  1
  O  O20  1  0.597572  0.927562  0.376784  1
  O  O21  1  0.550777  0.220785  0.623216  1
  O  O22  1  0.597572  0.720785  0.170010  1
  O  O23  1  0.550777  0.427562  0.829990  1
