# generated using pymatgen
data_Zn(CoO2)2
_symmetry_space_group_name_H-M   'P 1'
_cell_length_a   2.92994433
_cell_length_b   5.05432286
_cell_length_c   9.70759035
_cell_angle_alpha   90.00000000
_cell_angle_beta   90.00000000
_cell_angle_gamma   106.84869975
_symmetry_Int_Tables_number   1
_chemical_formula_structural   Zn(CoO2)2
_chemical_formula_sum   'Zn2 Co4 O8'
_cell_volume   137.58752983
_cell_formula_units_Z   2
loop_
 _symmetry_equiv_pos_site_id
 _symmetry_equiv_pos_as_xyz
  1  'x, y, z'
loop_
 _atom_site_type_symbol
 _atom_site_label
 _atom_site_symmetry_multiplicity
 _atom_site_fract_x
 _atom_site_fract_y
 _atom_site_fract_z
 _atom_site_occupancy
  Zn  Zn0  1  0.389559  0.779118  0.750000  1
  Zn  Zn1  1  0.610441  0.220882  0.250000  1
  Co  Co2  1  0.868048  0.736097  0.070623  1
  Co  Co3  1  0.131952  0.263903  0.929377  1
  Co  Co4  1  0.868048  0.736097  0.429377  1
  Co  Co5  1  0.131952  0.263903  0.570623  1
  O  O6  1  0.225425  0.450850  0.387110  1
  O  O7  1  0.774575  0.549150  0.612890  1
  O  O8  1  0.774575  0.549150  0.887110  1
  O  O9  1  0.225425  0.450850  0.112890  1
  O  O10  1  0.958741  0.917482  0.250000  1
  O  O11  1  0.041259  0.082518  0.750000  1
  O  O12  1  0.500000  -0.000000  0.000000  1
  O  O13  1  0.500000  -0.000000  0.500000  1
