# generated using pymatgen
data_CaTi(GeO3)2
_symmetry_space_group_name_H-M   'P 1'
_cell_length_a   5.41733813
_cell_length_b   8.69475133
_cell_length_c   12.18759143
_cell_angle_alpha   90.00000000
_cell_angle_beta   102.74172003
_cell_angle_gamma   90.00000000
_symmetry_Int_Tables_number   1
_chemical_formula_structural   CaTi(GeO3)2
_chemical_formula_sum   'Ca4 Ti4 Ge8 O24'
_cell_volume   559.92809797
_cell_formula_units_Z   4
loop_
 _symmetry_equiv_pos_site_id
 _symmetry_equiv_pos_as_xyz
  1  'x, y, z'
loop_
 _atom_site_type_symbol
 _atom_site_label
 _atom_site_symmetry_multiplicity
 _atom_site_fract_x
 _atom_site_fract_y
 _atom_site_fract_z
 _atom_site_occupancy
  Ca  Ca0  1  0.479127  0.417642  0.262359  1
  Ca  Ca1  1  0.020873  0.917642  0.737641  1
  Ca  Ca2  1  0.520873  0.582358  0.737641  1
  Ca  Ca3  1  0.979127  0.082358  0.262359  1
  Ti  Ti4  1  0.981212  0.664263  0.279858  1
  Ti  Ti5  1  0.518788  0.164263  0.720142  1
  Ti  Ti6  1  0.018788  0.335737  0.720142  1
  Ti  Ti7  1  0.481212  0.835737  0.279858  1
  Ge  Ge8  1  0.832696  0.367429  0.069958  1
  Ge  Ge9  1  0.667304  0.867429  0.930042  1
  Ge  Ge10  1  0.167304  0.632571  0.930042  1
  Ge  Ge11  1  0.332696  0.132571  0.069958  1
  Ge  Ge12  1  0.124793  0.352455  0.477893  1
  Ge  Ge13  1  0.375207  0.852455  0.522107  1
  Ge  Ge14  1  0.875207  0.647545  0.522107  1
  Ge  Ge15  1  0.624793  0.147545  0.477893  1
  O  O16  1  0.348617  0.252795  0.402781  1
  O  O17  1  0.151383  0.752795  0.597219  1
  O  O18  1  0.651383  0.747205  0.597219  1
  O  O19  1  0.848617  0.247205  0.402781  1
  O  O20  1  0.145438  0.278150  0.146057  1
  O  O21  1  0.354562  0.778150  0.853944  1
  O  O22  1  0.854562  0.721850  0.853944  1
  O  O23  1  0.645438  0.221850  0.146057  1
  O  O24  1  0.640802  0.959860  0.424023  1
  O  O25  1  0.859198  0.459860  0.575977  1
  O  O26  1  0.359198  0.040140  0.575977  1
  O  O27  1  0.140802  0.540140  0.424023  1
  O  O28  1  0.323459  0.992944  0.194963  1
  O  O29  1  0.176541  0.492944  0.805037  1
  O  O30  1  0.676541  0.007056  0.805037  1
  O  O31  1  0.823459  0.507056  0.194963  1
  O  O32  1  0.725179  0.335172  0.779413  1
  O  O33  1  0.774821  0.835172  0.220587  1
  O  O34  1  0.274821  0.664828  0.220587  1
  O  O35  1  0.225179  0.164828  0.779413  1
  O  O36  1  0.299796  0.340980  0.618841  1
  O  O37  1  0.200204  0.840980  0.381158  1
  O  O38  1  0.700204  0.659020  0.381158  1
  O  O39  1  0.799796  0.159020  0.618841  1
