# generated using pymatgen
data_Y2Ti3O9
_symmetry_space_group_name_H-M   'P 1'
_cell_length_a   5.30592941
_cell_length_b   16.55254377
_cell_length_c   7.67988489
_cell_angle_alpha   90.00000000
_cell_angle_beta   90.00000000
_cell_angle_gamma   90.00000000
_symmetry_Int_Tables_number   1
_chemical_formula_structural   Y2Ti3O9
_chemical_formula_sum   'Y8 Ti12 O36'
_cell_volume   674.49839946
_cell_formula_units_Z   4
loop_
 _symmetry_equiv_pos_site_id
 _symmetry_equiv_pos_as_xyz
  1  'x, y, z'
loop_
 _atom_site_type_symbol
 _atom_site_label
 _atom_site_symmetry_multiplicity
 _atom_site_fract_x
 _atom_site_fract_y
 _atom_site_fract_z
 _atom_site_occupancy
  Y  Y0  1  0.010218  0.315051  0.750000  1
  Y  Y1  1  0.021359  0.648219  0.750000  1
  Y  Y2  1  0.521359  0.518448  0.250000  1
  Y  Y3  1  0.510218  0.851616  0.250000  1
  Y  Y4  1  0.478641  0.148219  0.750000  1
  Y  Y5  1  0.489782  0.815051  0.750000  1
  Y  Y6  1  0.978641  0.018448  0.250000  1
  Y  Y7  1  0.989782  0.351616  0.250000  1
  Ti  Ti8  1  0.991635  0.166657  0.490984  1
  Ti  Ti9  1  0.008365  0.500010  0.509016  1
  Ti  Ti10  1  0.000000  0.833333  0.500000  1
  Ti  Ti11  1  0.491635  0.000010  0.509016  1
  Ti  Ti12  1  0.500000  0.333333  0.500000  1
  Ti  Ti13  1  0.508365  0.666657  0.490984  1
  Ti  Ti14  1  0.491635  0.000010  0.990984  1
  Ti  Ti15  1  0.500000  0.333333  0.000000  1
  Ti  Ti16  1  0.508365  0.666657  0.009016  1
  Ti  Ti17  1  0.991635  0.166657  0.009016  1
  Ti  Ti18  1  0.008365  0.500010  0.990984  1
  Ti  Ti19  1  0.000000  0.833333  0.000000  1
  O  O20  1  0.726373  0.091007  0.463482  1
  O  O21  1  0.709686  0.428981  0.435324  1
  O  O22  1  0.687096  0.770957  0.466281  1
  O  O23  1  0.226373  0.075659  0.536518  1
  O  O24  1  0.187096  0.395710  0.533719  1
  O  O25  1  0.209686  0.737686  0.564676  1
  O  O26  1  0.812904  0.270957  0.033719  1
  O  O27  1  0.773627  0.591007  0.036518  1
  O  O28  1  0.790314  0.928981  0.064676  1
  O  O29  1  0.290314  0.237686  0.935324  1
  O  O30  1  0.273627  0.575659  0.963482  1
  O  O31  1  0.312904  0.895710  0.966281  1
  O  O32  1  0.290314  0.237686  0.564676  1
  O  O33  1  0.273627  0.575659  0.536518  1
  O  O34  1  0.312904  0.895710  0.533719  1
  O  O35  1  0.812904  0.270957  0.466281  1
  O  O36  1  0.773627  0.591007  0.463482  1
  O  O37  1  0.790314  0.928981  0.435324  1
  O  O38  1  0.226373  0.075659  0.963482  1
  O  O39  1  0.187096  0.395710  0.966281  1
  O  O40  1  0.209686  0.737686  0.935324  1
  O  O41  1  0.726373  0.091007  0.036518  1
  O  O42  1  0.709686  0.428981  0.064676  1
  O  O43  1  0.687096  0.770957  0.033719  1
  O  O44  1  0.063708  0.161026  0.250000  1
  O  O45  1  0.106785  0.488166  0.250000  1
  O  O46  1  0.088527  0.826987  0.250000  1
  O  O47  1  0.563708  0.005640  0.750000  1
  O  O48  1  0.588527  0.339680  0.750000  1
  O  O49  1  0.606785  0.678501  0.750000  1
  O  O50  1  0.411473  0.326987  0.250000  1
  O  O51  1  0.436292  0.661026  0.250000  1
  O  O52  1  0.393215  0.988166  0.250000  1
  O  O53  1  0.893215  0.178501  0.750000  1
  O  O54  1  0.936292  0.505640  0.750000  1
  O  O55  1  0.911473  0.839680  0.750000  1
