# generated using pymatgen
data_Al2NiO4
_symmetry_space_group_name_H-M   'P 1'
_cell_length_a   5.75649659
_cell_length_b   5.75006949
_cell_length_c   5.75158017
_cell_angle_alpha   60.08894490
_cell_angle_beta   61.51850830
_cell_angle_gamma   59.96898360
_symmetry_Int_Tables_number   1
_chemical_formula_structural   Al2NiO4
_chemical_formula_sum   'Al4 Ni2 O8'
_cell_volume   136.15524168
_cell_formula_units_Z   2
loop_
 _symmetry_equiv_pos_site_id
 _symmetry_equiv_pos_as_xyz
  1  'x, y, z'
loop_
 _atom_site_type_symbol
 _atom_site_label
 _atom_site_symmetry_multiplicity
 _atom_site_fract_x
 _atom_site_fract_y
 _atom_site_fract_z
 _atom_site_occupancy
  Al  Al0  1  0.500001  0.000108  0.499898  1
  Al  Al1  1  0.999822  0.500055  0.500006  1
  Al  Al2  1  0.500057  0.499927  0.499933  1
  Al  Al3  1  0.499999  0.499849  0.000231  1
  Ni  Ni4  1  0.881587  0.868736  0.880971  1
  Ni  Ni5  1  0.119312  0.131134  0.118363  1
  O  O6  1  0.296310  0.738149  0.728176  1
  O  O7  1  0.704525  0.261419  0.271842  1
  O  O8  1  0.739631  0.289051  0.739186  1
  O  O9  1  0.259700  0.710933  0.261504  1
  O  O10  1  0.738496  0.732223  0.740257  1
  O  O11  1  0.728023  0.737736  0.295669  1
  O  O12  1  0.271795  0.262771  0.703541  1
  O  O13  1  0.260743  0.267910  0.260421  1
