# generated using pymatgen
data_AlV4(CuO4)3
_symmetry_space_group_name_H-M   'P 1'
_cell_length_a   6.36671610
_cell_length_b   6.38393293
_cell_length_c   6.33703237
_cell_angle_alpha   109.78281099
_cell_angle_beta   109.03797066
_cell_angle_gamma   109.25868817
_symmetry_Int_Tables_number   1
_chemical_formula_structural   AlV4(CuO4)3
_chemical_formula_sum   'Al1 V4 Cu3 O12'
_cell_volume   199.08183110
_cell_formula_units_Z   1
loop_
 _symmetry_equiv_pos_site_id
 _symmetry_equiv_pos_as_xyz
  1  'x, y, z'
loop_
 _atom_site_type_symbol
 _atom_site_label
 _atom_site_symmetry_multiplicity
 _atom_site_fract_x
 _atom_site_fract_y
 _atom_site_fract_z
 _atom_site_occupancy
  Al  Al0  1  0.000029  0.999998  0.999937  1
  V  V1  1  0.500009  0.000003  0.000005  1
  V  V2  1  0.999998  0.999995  0.499985  1
  V  V3  1  0.000000  0.499997  -0.000000  1
  V  V4  1  0.499995  0.499998  0.500004  1
  Cu  Cu5  1  0.499998  0.999994  0.500000  1
  Cu  Cu6  1  0.499999  0.500002  0.000001  1
  Cu  Cu7  1  0.000003  0.500003  0.500004  1
  O  O8  1  0.828874  0.296276  0.118077  1
  O  O9  1  0.171119  0.703739  0.881932  1
  O  O10  1  0.824566  0.701347  0.530954  1
  O  O11  1  0.304171  0.472360  0.181978  1
  O  O12  1  0.471266  0.169329  0.290738  1
  O  O13  1  0.118787  0.832262  0.300018  1
  O  O14  1  0.702633  0.876623  0.172356  1
  O  O15  1  0.528722  0.830667  0.709262  1
  O  O16  1  0.175441  0.298670  0.469072  1
  O  O17  1  0.695827  0.527635  0.818020  1
  O  O18  1  0.881214  0.167727  0.700001  1
  O  O19  1  0.297351  0.123374  0.827654  1
