# generated using pymatgen
data_CaTiP2O7
_symmetry_space_group_name_H-M   'P 1'
_cell_length_a   6.60708020
_cell_length_b   6.67047154
_cell_length_c   6.79186399
_cell_angle_alpha   65.69434157
_cell_angle_beta   85.62819015
_cell_angle_gamma   82.60032381
_symmetry_Int_Tables_number   1
_chemical_formula_structural   CaTiP2O7
_chemical_formula_sum   'Ca2 Ti2 P4 O14'
_cell_volume   270.44001733
_cell_formula_units_Z   2
loop_
 _symmetry_equiv_pos_site_id
 _symmetry_equiv_pos_as_xyz
  1  'x, y, z'
loop_
 _atom_site_type_symbol
 _atom_site_label
 _atom_site_symmetry_multiplicity
 _atom_site_fract_x
 _atom_site_fract_y
 _atom_site_fract_z
 _atom_site_occupancy
  Ca  Ca0  1  0.857880  0.271641  0.173448  1
  Ca  Ca1  1  0.142120  0.728359  0.826552  1
  Ti  Ti2  1  0.640755  0.094080  0.791335  1
  Ti  Ti3  1  0.359245  0.905920  0.208665  1
  P  P4  1  0.139374  0.231843  0.745671  1
  P  P5  1  0.860626  0.768157  0.254329  1
  P  P6  1  0.626318  0.641305  0.672801  1
  P  P7  1  0.373682  0.358695  0.327199  1
  O  O8  1  0.774386  0.606442  0.481946  1
  O  O9  1  0.225614  0.393558  0.518054  1
  O  O10  1  0.973288  0.105063  0.715778  1
  O  O11  1  0.026712  0.894937  0.284222  1
  O  O12  1  0.584052  0.257139  0.427221  1
  O  O13  1  0.415948  0.742861  0.572779  1
  O  O14  1  0.373410  0.596005  0.154017  1
  O  O15  1  0.626590  0.403995  0.845982  1
  O  O16  1  0.932226  0.618904  0.139042  1
  O  O17  1  0.067775  0.381096  0.860958  1
  O  O18  1  0.682664  0.949419  0.143302  1
  O  O19  1  0.317336  0.050581  0.856698  1
  O  O20  1  0.270941  0.207338  0.257149  1
  O  O21  1  0.729059  0.792662  0.742851  1
