# generated using pymatgen
data_CaTi4O9
_symmetry_space_group_name_H-M   'P 1'
_cell_length_a   5.23117814
_cell_length_b   8.52109904
_cell_length_c   8.52109904
_cell_angle_alpha   90.00000000
_cell_angle_beta   90.00000000
_cell_angle_gamma   90.00000000
_symmetry_Int_Tables_number   1
_chemical_formula_structural   CaTi4O9
_chemical_formula_sum   'Ca2 Ti8 O18'
_cell_volume   379.83128760
_cell_formula_units_Z   2
loop_
 _symmetry_equiv_pos_site_id
 _symmetry_equiv_pos_as_xyz
  1  'x, y, z'
loop_
 _atom_site_type_symbol
 _atom_site_label
 _atom_site_symmetry_multiplicity
 _atom_site_fract_x
 _atom_site_fract_y
 _atom_site_fract_z
 _atom_site_occupancy
  Ca  Ca0  1  0.133454  0.250000  0.250000  1
  Ca  Ca1  1  0.866547  0.750000  0.749999  1
  Ti  Ti2  1  0.619824  0.532875  0.339885  1
  Ti  Ti3  1  0.380177  0.839884  0.467126  1
  Ti  Ti4  1  0.619824  0.339884  0.967126  1
  Ti  Ti5  1  0.380177  0.032874  0.839884  1
  Ti  Ti6  1  0.619824  0.967126  0.160115  1
  Ti  Ti7  1  0.619824  0.160116  0.532875  1
  Ti  Ti8  1  0.380177  0.467126  0.660115  1
  Ti  Ti9  1  0.380177  0.660115  0.032874  1
  O  O10  1  0.499999  0.750000  0.250000  1
  O  O11  1  0.499999  0.250001  0.750000  1
  O  O12  1  0.069571  0.680529  0.990505  1
  O  O13  1  0.069571  0.509496  0.680528  1
  O  O14  1  0.069571  0.990505  0.819472  1
  O  O15  1  0.069571  0.819472  0.509495  1
  O  O16  1  0.930430  0.319472  0.009495  1
  O  O17  1  0.930430  0.490504  0.319472  1
  O  O18  1  0.930430  0.009495  0.180528  1
  O  O19  1  0.930430  0.180528  0.490504  1
  O  O20  1  0.463546  0.043911  0.356113  1
  O  O21  1  0.463546  0.143886  0.043912  1
  O  O22  1  0.463546  0.356113  0.456089  1
  O  O23  1  0.463546  0.456089  0.143887  1
  O  O24  1  0.536453  0.543911  0.856113  1
  O  O25  1  0.536453  0.856113  0.956089  1
  O  O26  1  0.536453  0.643887  0.543911  1
  O  O27  1  0.536453  0.956088  0.643887  1
