# generated using pymatgen
data_ZnMo3O7
_symmetry_space_group_name_H-M   'P 1'
_cell_length_a   5.89487976
_cell_length_b   11.26616114
_cell_length_c   9.88508588
_cell_angle_alpha   90.00000000
_cell_angle_beta   90.00000000
_cell_angle_gamma   90.00000000
_symmetry_Int_Tables_number   1
_chemical_formula_structural   ZnMo3O7
_chemical_formula_sum   'Zn4 Mo12 O28'
_cell_volume   656.49489978
_cell_formula_units_Z   4
loop_
 _symmetry_equiv_pos_site_id
 _symmetry_equiv_pos_as_xyz
  1  'x, y, z'
loop_
 _atom_site_type_symbol
 _atom_site_label
 _atom_site_symmetry_multiplicity
 _atom_site_fract_x
 _atom_site_fract_y
 _atom_site_fract_z
 _atom_site_occupancy
  Zn  Zn0  1  0.632888  0.750000  0.983515  1
  Zn  Zn1  1  0.132888  0.250000  0.516485  1
  Zn  Zn2  1  0.367112  0.250000  0.016485  1
  Zn  Zn3  1  0.867112  0.750000  0.483515  1
  Mo  Mo4  1  0.295769  0.021723  0.317916  1
  Mo  Mo5  1  0.795768  0.978277  0.182084  1
  Mo  Mo6  1  0.704232  0.521723  0.682084  1
  Mo  Mo7  1  0.204231  0.478277  0.817916  1
  Mo  Mo8  1  0.284722  0.750000  0.212393  1
  Mo  Mo9  1  0.784722  0.250000  0.287607  1
  Mo  Mo10  1  0.715278  0.250000  0.787607  1
  Mo  Mo11  1  0.215278  0.750000  0.712393  1
  Mo  Mo12  1  0.795768  0.521723  0.182084  1
  Mo  Mo13  1  0.295769  0.478277  0.317916  1
  Mo  Mo14  1  0.204231  0.021723  0.817916  1
  Mo  Mo15  1  0.704232  0.978277  0.682084  1
  O  O16  1  0.937569  0.111185  0.730446  1
  O  O17  1  0.437569  0.888815  0.769554  1
  O  O18  1  0.062431  0.611185  0.269554  1
  O  O19  1  0.562431  0.388815  0.230446  1
  O  O20  1  0.062431  0.888815  0.269554  1
  O  O21  1  0.562431  0.111185  0.230446  1
  O  O22  1  0.937569  0.388815  0.730446  1
  O  O23  1  0.437569  0.611185  0.769554  1
  O  O24  1  0.490915  0.115452  0.747164  1
  O  O25  1  0.990915  0.884548  0.752836  1
  O  O26  1  0.509085  0.615452  0.252836  1
  O  O27  1  0.009085  0.384548  0.247164  1
  O  O28  1  0.509085  0.884548  0.252836  1
  O  O29  1  0.009085  0.115452  0.247164  1
  O  O30  1  0.490915  0.384548  0.747164  1
  O  O31  1  0.990915  0.615452  0.752836  1
  O  O32  1  0.195735  0.750000  0.523999  1
  O  O33  1  0.695735  0.250000  0.976001  1
  O  O34  1  0.804265  0.250000  0.476001  1
  O  O35  1  0.304265  0.750000  0.023999  1
  O  O36  1  0.230398  0.403161  0.984555  1
  O  O37  1  0.730398  0.596839  0.515445  1
  O  O38  1  0.769602  0.903161  0.015445  1
  O  O39  1  0.269602  0.096839  0.484555  1
  O  O40  1  0.769602  0.596839  0.015445  1
  O  O41  1  0.269602  0.403161  0.484555  1
  O  O42  1  0.230398  0.096839  0.984555  1
  O  O43  1  0.730398  0.903161  0.515445  1
