# generated using pymatgen
data_Mn3Al2F15
_symmetry_space_group_name_H-M   'P 1'
_cell_length_a   10.38785452
_cell_length_b   5.33247815
_cell_length_c   9.71946658
_cell_angle_alpha   90.00000000
_cell_angle_beta   90.00000000
_cell_angle_gamma   110.79935488
_symmetry_Int_Tables_number   1
_chemical_formula_structural   Mn3Al2F15
_chemical_formula_sum   'Mn6 Al4 F30'
_cell_volume   503.30340031
_cell_formula_units_Z   2
loop_
 _symmetry_equiv_pos_site_id
 _symmetry_equiv_pos_as_xyz
  1  'x, y, z'
loop_
 _atom_site_type_symbol
 _atom_site_label
 _atom_site_symmetry_multiplicity
 _atom_site_fract_x
 _atom_site_fract_y
 _atom_site_fract_z
 _atom_site_occupancy
  Mn  Mn0  1  0.165548  0.976569  0.490534  1
  Mn  Mn1  1  0.500000  0.000000  0.500000  1
  Mn  Mn2  1  0.834452  0.023431  0.509466  1
  Mn  Mn3  1  0.165548  0.976569  0.009466  1
  Mn  Mn4  1  0.500000  0.000000  0.000000  1
  Mn  Mn5  1  0.834452  0.023431  0.990534  1
  Al  Al6  1  0.592513  0.571791  0.250000  1
  Al  Al7  1  0.939328  0.583893  0.250000  1
  Al  Al8  1  0.060672  0.416107  0.750000  1
  Al  Al9  1  0.407487  0.428209  0.750000  1
  F  F10  1  0.113412  0.662148  0.250000  1
  F  F11  1  0.436705  0.604954  0.250000  1
  F  F12  1  0.764539  0.557248  0.250000  1
  F  F13  1  0.235461  0.442752  0.750000  1
  F  F14  1  0.563295  0.395046  0.750000  1
  F  F15  1  0.886588  0.337852  0.750000  1
  F  F16  1  0.032132  0.149040  0.607547  1
  F  F17  1  0.341726  0.162328  0.617981  1
  F  F18  1  0.675476  0.123472  0.581420  1
  F  F19  1  0.324524  0.876528  0.418580  1
  F  F20  1  0.658274  0.837672  0.382019  1
  F  F21  1  0.967868  0.850960  0.392453  1
  F  F22  1  0.102571  0.674525  0.886699  1
  F  F23  1  0.448333  0.694363  0.885419  1
  F  F24  1  0.786955  0.730149  0.892395  1
  F  F25  1  0.213045  0.269851  0.107605  1
  F  F26  1  0.551667  0.305637  0.114581  1
  F  F27  1  0.897429  0.325475  0.113301  1
  F  F28  1  0.213045  0.269851  0.392395  1
  F  F29  1  0.551667  0.305637  0.385419  1
  F  F30  1  0.897429  0.325475  0.386699  1
  F  F31  1  0.102571  0.674525  0.613301  1
  F  F32  1  0.448333  0.694363  0.614581  1
  F  F33  1  0.786955  0.730149  0.607605  1
  F  F34  1  0.032132  0.149040  0.892453  1
  F  F35  1  0.341726  0.162328  0.882019  1
  F  F36  1  0.675476  0.123472  0.918580  1
  F  F37  1  0.324524  0.876528  0.081420  1
  F  F38  1  0.658274  0.837672  0.117981  1
  F  F39  1  0.967868  0.850960  0.107547  1
