# generated using pymatgen
data_Al(NiO2)3
_symmetry_space_group_name_H-M   'P 1'
_cell_length_a   17.44794673
_cell_length_b   5.75787884
_cell_length_c   5.75787924
_cell_angle_alpha   59.96878804
_cell_angle_beta   60.32304232
_cell_angle_gamma   60.32304222
_symmetry_Int_Tables_number   1
_chemical_formula_structural   Al(NiO2)3
_chemical_formula_sum   'Al4 Ni12 O24'
_cell_volume   410.91714803
_cell_formula_units_Z   4
loop_
 _symmetry_equiv_pos_site_id
 _symmetry_equiv_pos_as_xyz
  1  'x, y, z'
loop_
 _atom_site_type_symbol
 _atom_site_label
 _atom_site_symmetry_multiplicity
 _atom_site_fract_x
 _atom_site_fract_y
 _atom_site_fract_z
 _atom_site_occupancy
  Al  Al0  1  0.203192  0.630025  0.630025  1
  Al  Al1  1  0.885713  0.614298  0.614298  1
  Al  Al2  1  0.463475  0.369975  0.369975  1
  Al  Al3  1  0.780954  0.385702  0.385702  1
  Ni  Ni4  1  0.997596  0.496788  0.005481  1
  Ni  Ni5  1  0.333333  0.500000  0.000000  1
  Ni  Ni6  1  0.669071  0.503212  0.994519  1
  Ni  Ni7  1  0.997680  0.005060  0.005060  1
  Ni  Ni8  1  0.333333  -0.000000  0.000000  1
  Ni  Ni9  1  0.668987  0.994940  0.994940  1
  Ni  Ni10  1  0.162692  0.004124  0.004124  1
  Ni  Ni11  1  0.503975  0.995876  0.995876  1
  Ni  Ni12  1  0.833333  -0.000000  0.000000  1
  Ni  Ni13  1  0.997596  0.005481  0.496788  1
  Ni  Ni14  1  0.333333  -0.000000  0.500000  1
  Ni  Ni15  1  0.669071  0.994519  0.503212  1
  O  O16  1  0.080018  0.753257  0.753257  1
  O  O17  1  0.392439  0.774350  0.774351  1
  O  O18  1  0.761608  0.738362  0.738362  1
  O  O19  1  0.071431  0.240072  0.805586  1
  O  O20  1  0.419685  0.241697  0.757668  1
  O  O21  1  0.742195  0.251285  0.770592  1
  O  O22  1  0.071431  0.805586  0.240072  1
  O  O23  1  0.419685  0.757668  0.241698  1
  O  O24  1  0.742195  0.770592  0.251285  1
  O  O25  1  0.070775  0.241482  0.241482  1
  O  O26  1  0.419208  0.242721  0.242721  1
  O  O27  1  0.742039  0.251714  0.251714  1
  O  O28  1  0.246982  0.758302  0.242333  1
  O  O29  1  0.595235  0.759927  0.194414  1
  O  O30  1  0.924471  0.748714  0.229408  1
  O  O31  1  0.274228  0.225650  0.225650  1
  O  O32  1  0.586649  0.246742  0.246743  1
  O  O33  1  0.905058  0.261638  0.261638  1
  O  O34  1  0.246982  0.242333  0.758302  1
  O  O35  1  0.595235  0.194414  0.759928  1
  O  O36  1  0.924471  0.229408  0.748714  1
  O  O37  1  0.247459  0.757279  0.757279  1
  O  O38  1  0.595892  0.758518  0.758518  1
  O  O39  1  0.924627  0.748286  0.748286  1
