# generated using pymatgen
data_MgCo3P3O13
_symmetry_space_group_name_H-M   'P 1'
_cell_length_a   6.28560998
_cell_length_b   7.52057261
_cell_length_c   10.04732546
_cell_angle_alpha   100.38990420
_cell_angle_beta   90.00000000
_cell_angle_gamma   90.00000000
_symmetry_Int_Tables_number   1
_chemical_formula_structural   MgCo3P3O13
_chemical_formula_sum   'Mg2 Co6 P6 O26'
_cell_volume   467.16335601
_cell_formula_units_Z   2
loop_
 _symmetry_equiv_pos_site_id
 _symmetry_equiv_pos_as_xyz
  1  'x, y, z'
loop_
 _atom_site_type_symbol
 _atom_site_label
 _atom_site_symmetry_multiplicity
 _atom_site_fract_x
 _atom_site_fract_y
 _atom_site_fract_z
 _atom_site_occupancy
  Mg  Mg0  1  0.750000  0.630907  0.178708  1
  Mg  Mg1  1  0.250000  0.369093  0.821292  1
  Co  Co2  1  0.250000  0.350802  0.202033  1
  Co  Co3  1  0.750000  0.649198  0.797967  1
  Co  Co4  1  0.250000  0.790059  0.432208  1
  Co  Co5  1  0.500000  0.000000  0.000000  1
  Co  Co6  1  0.750000  0.209941  0.567792  1
  Co  Co7  1  -0.000000  0.000000  0.000000  1
  P  P8  1  0.250000  0.220966  0.496132  1
  P  P9  1  0.750000  0.779034  0.503868  1
  P  P10  1  0.250000  0.733308  0.761575  1
  P  P11  1  0.750000  0.266692  0.238425  1
  P  P12  1  0.750000  0.317884  0.888454  1
  P  P13  1  0.250000  0.682116  0.111546  1
  O  O14  1  0.750000  0.370137  0.745625  1
  O  O15  1  0.559388  0.746704  0.405139  1
  O  O16  1  0.250000  0.782053  0.621219  1
  O  O17  1  0.541024  0.211041  0.901042  1
  O  O18  1  0.750000  0.652755  0.606976  1
  O  O19  1  0.750000  0.875652  0.907205  1
  O  O20  1  0.250000  0.347245  0.393024  1
  O  O21  1  0.041024  0.788959  0.098958  1
  O  O22  1  0.250000  0.024060  0.412367  1
  O  O23  1  0.750000  0.975940  0.587633  1
  O  O24  1  0.061795  0.611040  0.788717  1
  O  O25  1  0.250000  0.124348  0.092795  1
  O  O26  1  0.561795  0.388960  0.211283  1
  O  O27  1  0.750000  0.508676  0.977777  1
  O  O28  1  0.750000  0.217947  0.378781  1
  O  O29  1  0.458976  0.788959  0.098958  1
  O  O30  1  0.940612  0.746704  0.405139  1
  O  O31  1  0.440612  0.253296  0.594861  1
  O  O32  1  0.438205  0.611040  0.788717  1
  O  O33  1  0.250000  0.629863  0.254375  1
  O  O34  1  0.750000  0.088805  0.130397  1
  O  O35  1  0.250000  0.911195  0.869603  1
  O  O36  1  0.938205  0.388960  0.211283  1
  O  O37  1  0.958976  0.211041  0.901042  1
  O  O38  1  0.059388  0.253296  0.594861  1
  O  O39  1  0.250000  0.491324  0.022223  1
