# generated using pymatgen
data_Mg(BiO2)4
_symmetry_space_group_name_H-M   'P 1'
_cell_length_a   3.39421600
_cell_length_b   8.76066642
_cell_length_c   9.05947540
_cell_angle_alpha   69.56559161
_cell_angle_beta   78.72175561
_cell_angle_gamma   78.37317364
_symmetry_Int_Tables_number   1
_chemical_formula_structural   Mg(BiO2)4
_chemical_formula_sum   'Mg1 Bi4 O8'
_cell_volume   244.94564824
_cell_formula_units_Z   1
loop_
 _symmetry_equiv_pos_site_id
 _symmetry_equiv_pos_as_xyz
  1  'x, y, z'
loop_
 _atom_site_type_symbol
 _atom_site_label
 _atom_site_symmetry_multiplicity
 _atom_site_fract_x
 _atom_site_fract_y
 _atom_site_fract_z
 _atom_site_occupancy
  Mg  Mg0  1  0.301294  0.182124  0.224436  1
  Bi  Bi1  1  0.641423  0.155008  0.563457  1
  Bi  Bi2  1  0.132736  0.559948  0.199607  1
  Bi  Bi3  1  0.857570  0.446111  0.853217  1
  Bi  Bi4  1  0.356976  0.804637  0.495317  1
  O  O5  1  0.876383  0.641520  0.621530  1
  O  O6  1  0.459719  0.323259  0.780436  1
  O  O7  1  0.532588  0.682986  0.271849  1
  O  O8  1  0.153245  0.311414  0.383001  1
  O  O9  1  0.195039  0.969900  0.643499  1
  O  O10  1  0.808785  0.296040  0.096111  1
  O  O11  1  0.806834  0.037264  0.362847  1
  O  O12  1  0.255569  0.580427  0.913488  1
