# generated using pymatgen
data_Fe(SiO3)2
_symmetry_space_group_name_H-M   'P 1'
_cell_length_a   5.14117126
_cell_length_b   10.69160365
_cell_length_c   18.85488023
_cell_angle_alpha   90.00169955
_cell_angle_beta   90.01227253
_cell_angle_gamma   90.02381643
_symmetry_Int_Tables_number   1
_chemical_formula_structural   Fe(SiO3)2
_chemical_formula_sum   'Fe8 Si16 O48'
_cell_volume   1036.40297785
_cell_formula_units_Z   8
loop_
 _symmetry_equiv_pos_site_id
 _symmetry_equiv_pos_as_xyz
  1  'x, y, z'
loop_
 _atom_site_type_symbol
 _atom_site_label
 _atom_site_symmetry_multiplicity
 _atom_site_fract_x
 _atom_site_fract_y
 _atom_site_fract_z
 _atom_site_occupancy
  Fe  Fe0  1  0.435457  0.049150  0.125547  1
  Fe  Fe1  1  0.564576  0.950687  0.874631  1
  Fe  Fe2  1  0.935080  0.950656  0.374393  1
  Fe  Fe3  1  0.064789  0.049455  0.625462  1
  Fe  Fe4  1  0.435427  0.549313  0.374460  1
  Fe  Fe5  1  0.564569  0.450499  0.625460  1
  Fe  Fe6  1  0.935301  0.450884  0.125546  1
  Fe  Fe7  1  0.064784  0.549303  0.874569  1
  Si  Si8  1  0.621684  0.668641  0.221991  1
  Si  Si9  1  0.759446  0.829365  0.528358  1
  Si  Si10  1  0.740944  0.829653  0.028556  1
  Si  Si11  1  0.877942  0.168697  0.777997  1
  Si  Si12  1  0.121906  0.331346  0.278001  1
  Si  Si13  1  0.378267  0.831315  0.722106  1
  Si  Si14  1  0.259243  0.670407  0.528378  1
  Si  Si15  1  0.759401  0.329561  0.971538  1
  Si  Si16  1  0.740688  0.329492  0.471456  1
  Si  Si17  1  0.877980  0.668572  0.722166  1
  Si  Si18  1  0.378081  0.331539  0.777973  1
  Si  Si19  1  0.621775  0.168430  0.277953  1
  Si  Si20  1  0.240497  0.170609  0.471447  1
  Si  Si21  1  0.122072  0.831516  0.222047  1
  Si  Si22  1  0.240771  0.670593  0.028518  1
  Si  Si23  1  0.259235  0.170301  0.971529  1
  O  O24  1  0.808537  0.542536  0.677676  1
  O  O25  1  0.328843  0.045417  0.926680  1
  O  O26  1  0.191058  0.457540  0.322339  1
  O  O27  1  0.766208  0.355811  0.056875  1
  O  O28  1  0.266018  0.144061  0.056786  1
  O  O29  1  0.962532  0.215736  0.951459  1
  O  O30  1  0.873890  0.640232  0.807100  1
  O  O31  1  0.126134  0.860027  0.307020  1
  O  O32  1  0.766673  0.855492  0.443135  1
  O  O33  1  0.873831  0.140275  0.692840  1
  O  O34  1  0.309066  0.457503  0.822279  1
  O  O35  1  0.733534  0.355563  0.556663  1
  O  O36  1  0.671492  0.954624  0.073460  1
  O  O37  1  0.373935  0.859704  0.807156  1
  O  O38  1  0.690717  0.042521  0.322303  1
  O  O39  1  0.329317  0.545468  0.573284  1
  O  O40  1  0.308806  0.957627  0.677698  1
  O  O41  1  0.170032  0.720235  0.701785  1
  O  O42  1  0.330319  0.720559  0.201661  1
  O  O43  1  0.537230  0.715894  0.048835  1
  O  O44  1  0.734022  0.855872  0.943430  1
  O  O45  1  0.626190  0.639987  0.307076  1
  O  O46  1  0.829292  0.454403  0.926671  1
  O  O47  1  0.169935  0.220316  0.798355  1
  O  O48  1  0.233432  0.144596  0.556756  1
  O  O49  1  0.626174  0.139953  0.192850  1
  O  O50  1  0.670677  0.454597  0.426587  1
  O  O51  1  0.266577  0.644271  0.443191  1
  O  O52  1  0.171140  0.545447  0.073484  1
  O  O53  1  0.670073  0.779757  0.701805  1
  O  O54  1  0.190588  0.957563  0.177656  1
  O  O55  1  0.830297  0.779410  0.201628  1
  O  O56  1  0.830207  0.279622  0.298216  1
  O  O57  1  0.829926  0.954473  0.573322  1
  O  O58  1  0.233782  0.644355  0.943351  1
  O  O59  1  0.170242  0.045520  0.426612  1
  O  O60  1  0.330076  0.220409  0.298181  1
  O  O61  1  0.037391  0.784163  0.048815  1
  O  O62  1  0.462781  0.784263  0.548579  1
  O  O63  1  0.670102  0.279720  0.798300  1
  O  O64  1  0.462725  0.284195  0.951431  1
  O  O65  1  0.537154  0.215786  0.451198  1
  O  O66  1  0.037273  0.284281  0.451222  1
  O  O67  1  0.373842  0.359637  0.692892  1
  O  O68  1  0.690388  0.542296  0.177633  1
  O  O69  1  0.962563  0.715658  0.548541  1
  O  O70  1  0.126357  0.360148  0.192793  1
  O  O71  1  0.808709  0.042491  0.822307  1
