# generated using pymatgen
data_Ca(CuO2)2
_symmetry_space_group_name_H-M   'P 1'
_cell_length_a   3.47344185
_cell_length_b   9.33508766
_cell_length_c   10.29978179
_cell_angle_alpha   89.99865969
_cell_angle_beta   89.98646863
_cell_angle_gamma   90.02096571
_symmetry_Int_Tables_number   1
_chemical_formula_structural   Ca(CuO2)2
_chemical_formula_sum   'Ca4 Cu8 O16'
_cell_volume   333.96919969
_cell_formula_units_Z   4
loop_
 _symmetry_equiv_pos_site_id
 _symmetry_equiv_pos_as_xyz
  1  'x, y, z'
loop_
 _atom_site_type_symbol
 _atom_site_label
 _atom_site_symmetry_multiplicity
 _atom_site_fract_x
 _atom_site_fract_y
 _atom_site_fract_z
 _atom_site_occupancy
  Ca  Ca0  1  0.401074  0.749978  0.154666  1
  Ca  Ca1  1  0.400964  0.249978  0.345385  1
  Ca  Ca2  1  0.599018  0.750026  0.654619  1
  Ca  Ca3  1  0.598940  0.250015  0.845334  1
  Cu  Cu4  1  0.867641  0.569242  0.387262  1
  Cu  Cu5  1  0.867667  0.069237  0.112768  1
  Cu  Cu6  1  0.132344  0.069239  0.612692  1
  Cu  Cu7  1  0.867662  0.430755  0.112718  1
  Cu  Cu8  1  0.132321  0.430760  0.612742  1
  Cu  Cu9  1  0.867641  0.930760  0.387313  1
  Cu  Cu10  1  0.132329  0.930765  0.887236  1
  Cu  Cu11  1  0.132380  0.569245  0.887272  1
  O  O12  1  0.112273  0.887679  0.542118  1
  O  O13  1  0.887723  0.112321  0.457884  1
  O  O14  1  0.569406  0.999950  0.250090  1
  O  O15  1  0.887914  0.887601  0.042178  1
  O  O16  1  0.887968  0.612328  0.042148  1
  O  O17  1  0.894437  0.250028  0.188585  1
  O  O18  1  0.112076  0.112399  0.957826  1
  O  O19  1  0.105628  0.249972  0.688551  1
  O  O20  1  0.569430  0.499951  0.249982  1
  O  O21  1  0.430583  0.000051  0.749916  1
  O  O22  1  0.112166  0.612396  0.542140  1
  O  O23  1  0.105559  0.749975  0.811415  1
  O  O24  1  0.894368  0.750028  0.311453  1
  O  O25  1  0.430607  0.500047  0.749999  1
  O  O26  1  0.112104  0.387667  0.957841  1
  O  O27  1  0.887775  0.387606  0.457867  1
