# generated using pymatgen
data_SrBi(PO4)2
_symmetry_space_group_name_H-M   'P 1'
_cell_length_a   5.51759868
_cell_length_b   7.22489418
_cell_length_c   9.74518418
_cell_angle_alpha   106.94443761
_cell_angle_beta   97.78745713
_cell_angle_gamma   97.70727238
_symmetry_Int_Tables_number   1
_chemical_formula_structural   SrBi(PO4)2
_chemical_formula_sum   'Sr2 Bi2 P4 O16'
_cell_volume   361.96123637
_cell_formula_units_Z   2
loop_
 _symmetry_equiv_pos_site_id
 _symmetry_equiv_pos_as_xyz
  1  'x, y, z'
loop_
 _atom_site_type_symbol
 _atom_site_label
 _atom_site_symmetry_multiplicity
 _atom_site_fract_x
 _atom_site_fract_y
 _atom_site_fract_z
 _atom_site_occupancy
  Sr  Sr0  1  0.238548  0.803507  0.061462  1
  Sr  Sr1  1  0.761452  0.196493  0.938538  1
  Bi  Bi2  1  0.677787  0.798542  0.558377  1
  Bi  Bi3  1  0.322213  0.201458  0.441623  1
  P  P4  1  0.361437  0.394129  0.201130  1
  P  P5  1  0.638563  0.605871  0.798870  1
  P  P6  1  0.810634  0.018424  0.284896  1
  P  P7  1  0.189366  0.981576  0.715104  1
  O  O8  1  0.847909  0.549838  0.891719  1
  O  O9  1  0.590280  0.439530  0.133848  1
  O  O10  1  0.697964  0.825474  0.804388  1
  O  O11  1  0.970674  0.092795  0.688087  1
  O  O12  1  0.409720  0.560470  0.866152  1
  O  O13  1  0.085229  0.760954  0.620999  1
  O  O14  1  0.914771  0.239046  0.379001  1
  O  O15  1  0.271232  0.013838  0.878692  1
  O  O16  1  0.302036  0.174526  0.195612  1
  O  O17  1  0.728768  0.986162  0.121308  1
  O  O18  1  0.152091  0.450162  0.108281  1
  O  O19  1  0.399120  0.509991  0.365770  1
  O  O20  1  0.600880  0.490009  0.634230  1
  O  O21  1  0.580107  0.944181  0.347404  1
  O  O22  1  0.029326  0.907205  0.311913  1
  O  O23  1  0.419893  0.055819  0.652596  1
