# generated using pymatgen
data_CaCu3(BiO3)4
_symmetry_space_group_name_H-M   'P 1'
_cell_length_a   7.11567861
_cell_length_b   7.11558588
_cell_length_c   7.11561518
_cell_angle_alpha   109.47213278
_cell_angle_beta   109.49230390
_cell_angle_gamma   109.45059072
_symmetry_Int_Tables_number   1
_chemical_formula_structural   CaCu3(BiO3)4
_chemical_formula_sum   'Ca1 Cu3 Bi4 O12'
_cell_volume   277.33851697
_cell_formula_units_Z   1
loop_
 _symmetry_equiv_pos_site_id
 _symmetry_equiv_pos_as_xyz
  1  'x, y, z'
loop_
 _atom_site_type_symbol
 _atom_site_label
 _atom_site_symmetry_multiplicity
 _atom_site_fract_x
 _atom_site_fract_y
 _atom_site_fract_z
 _atom_site_occupancy
  Ca  Ca0  1  0.000000  -0.000000  -0.000000  1
  Cu  Cu1  1  0.500001  0.500001  0.000001  1
  Cu  Cu2  1  0.000000  0.500000  0.500000  1
  Cu  Cu3  1  0.500000  -0.000000  0.500000  1
  Bi  Bi4  1  0.000000  -0.000000  0.500000  1
  Bi  Bi5  1  0.000000  0.500000  -0.000000  1
  Bi  Bi6  1  0.500000  0.500000  0.500000  1
  Bi  Bi7  1  0.500000  -0.000000  -0.000000  1
  O  O8  1  0.846520  0.319171  0.165672  1
  O  O9  1  0.153480  0.680828  0.834328  1
  O  O10  1  0.846480  0.680828  0.527311  1
  O  O11  1  0.319273  0.472668  0.153384  1
  O  O12  1  0.472745  0.153493  0.319233  1
  O  O13  1  0.165724  0.846472  0.319249  1
  O  O14  1  0.680685  0.834126  0.153414  1
  O  O15  1  0.527256  0.846508  0.680767  1
  O  O16  1  0.153519  0.319171  0.472689  1
  O  O17  1  0.680726  0.527332  0.846616  1
  O  O18  1  0.834276  0.153528  0.680750  1
  O  O19  1  0.319315  0.165874  0.846587  1
