# generated using pymatgen
data_ZnMo4O9
_symmetry_space_group_name_H-M   'P 1'
_cell_length_a   4.98639687
_cell_length_b   8.80489072
_cell_length_c   8.80641903
_cell_angle_alpha   89.96790447
_cell_angle_beta   89.93839806
_cell_angle_gamma   90.02649312
_symmetry_Int_Tables_number   1
_chemical_formula_structural   ZnMo4O9
_chemical_formula_sum   'Zn2 Mo8 O18'
_cell_volume   386.64267989
_cell_formula_units_Z   2
loop_
 _symmetry_equiv_pos_site_id
 _symmetry_equiv_pos_as_xyz
  1  'x, y, z'
loop_
 _atom_site_type_symbol
 _atom_site_label
 _atom_site_symmetry_multiplicity
 _atom_site_fract_x
 _atom_site_fract_y
 _atom_site_fract_z
 _atom_site_occupancy
  Zn  Zn0  1  0.100119  0.250146  0.249758  1
  Zn  Zn1  1  0.899914  0.749875  0.750264  1
  Mo  Mo2  1  0.660873  0.539431  0.346745  1
  Mo  Mo3  1  0.338968  0.846874  0.460709  1
  Mo  Mo4  1  0.661341  0.346994  0.960490  1
  Mo  Mo5  1  0.338850  0.039426  0.847022  1
  Mo  Mo6  1  0.661172  0.960580  0.152976  1
  Mo  Mo7  1  0.661015  0.153123  0.539285  1
  Mo  Mo8  1  0.339088  0.460564  0.653244  1
  Mo  Mo9  1  0.338690  0.653008  0.039498  1
  O  O10  1  0.499874  0.749945  0.249973  1
  O  O11  1  0.500123  0.250058  0.750011  1
  O  O12  1  0.999447  0.700431  0.975786  1
  O  O13  1  0.999695  0.523926  0.700795  1
  O  O14  1  0.999576  0.975861  0.799671  1
  O  O15  1  0.999605  0.799482  0.524689  1
  O  O16  1  0.000563  0.299560  0.024225  1
  O  O17  1  0.000297  0.476074  0.299218  1
  O  O18  1  0.000432  0.024150  0.200354  1
  O  O19  1  0.000382  0.200516  0.475332  1
  O  O20  1  0.493995  0.043044  0.359922  1
  O  O21  1  0.493892  0.140104  0.043088  1
  O  O22  1  0.493659  0.359909  0.456905  1
  O  O23  1  0.493768  0.456748  0.140034  1
  O  O24  1  0.506217  0.543241  0.859955  1
  O  O25  1  0.506138  0.859901  0.956905  1
  O  O26  1  0.506299  0.640080  0.543072  1
  O  O27  1  0.506009  0.956947  0.640075  1
