# generated using pymatgen
data_Mn3Nb2O9
_symmetry_space_group_name_H-M   'P 1'
_cell_length_a   5.26973641
_cell_length_b   5.26973593
_cell_length_c   14.60165942
_cell_angle_alpha   90.00000000
_cell_angle_beta   90.00000000
_cell_angle_gamma   120.00000310
_symmetry_Int_Tables_number   1
_chemical_formula_structural   Mn3Nb2O9
_chemical_formula_sum   'Mn6 Nb4 O18'
_cell_volume   351.16447736
_cell_formula_units_Z   2
loop_
 _symmetry_equiv_pos_site_id
 _symmetry_equiv_pos_as_xyz
  1  'x, y, z'
loop_
 _atom_site_type_symbol
 _atom_site_label
 _atom_site_symmetry_multiplicity
 _atom_site_fract_x
 _atom_site_fract_y
 _atom_site_fract_z
 _atom_site_occupancy
  Mn  Mn0  1  0.666667  0.333333  0.682964  1
  Mn  Mn1  1  0.666667  0.333333  0.977593  1
  Mn  Mn2  1  0.666667  0.333333  0.477593  1
  Mn  Mn3  1  0.333333  0.666667  0.505693  1
  Mn  Mn4  1  0.333333  0.666667  0.005693  1
  Mn  Mn5  1  0.666667  0.333333  0.182964  1
  Nb  Nb6  1  0.000000  0.000000  0.857663  1
  Nb  Nb7  1  0.000000  0.000000  0.145464  1
  Nb  Nb8  1  0.000000  0.000000  0.645464  1
  Nb  Nb9  1  0.000000  0.000000  0.357663  1
  O  O10  1  0.361496  0.325992  0.091029  1
  O  O11  1  0.678904  0.698017  0.920663  1
  O  O12  1  0.929739  0.242881  0.243945  1
  O  O13  1  0.313142  0.070261  0.243945  1
  O  O14  1  0.964497  0.638504  0.091029  1
  O  O15  1  0.674008  0.638504  0.591029  1
  O  O16  1  0.757119  0.070261  0.743945  1
  O  O17  1  0.019113  0.321096  0.920663  1
  O  O18  1  0.019113  0.698017  0.420663  1
  O  O19  1  0.361496  0.035503  0.591029  1
  O  O20  1  0.313142  0.242881  0.743945  1
  O  O21  1  0.964497  0.325992  0.591029  1
  O  O22  1  0.757119  0.686858  0.243945  1
  O  O23  1  0.301983  0.980887  0.920663  1
  O  O24  1  0.674008  0.035503  0.091029  1
  O  O25  1  0.678904  0.980887  0.420663  1
  O  O26  1  0.301983  0.321096  0.420663  1
  O  O27  1  0.929739  0.686858  0.743945  1
