# generated using pymatgen
data_ZnFeP2O7
_symmetry_space_group_name_H-M   'P 1'
_cell_length_a   5.73652878
_cell_length_b   6.40292677
_cell_length_c   7.41238196
_cell_angle_alpha   83.18688716
_cell_angle_beta   87.24150715
_cell_angle_gamma   71.59101110
_symmetry_Int_Tables_number   1
_chemical_formula_structural   ZnFeP2O7
_chemical_formula_sum   'Zn2 Fe2 P4 O14'
_cell_volume   256.48784043
_cell_formula_units_Z   2
loop_
 _symmetry_equiv_pos_site_id
 _symmetry_equiv_pos_as_xyz
  1  'x, y, z'
loop_
 _atom_site_type_symbol
 _atom_site_label
 _atom_site_symmetry_multiplicity
 _atom_site_fract_x
 _atom_site_fract_y
 _atom_site_fract_z
 _atom_site_occupancy
  Zn  Zn0  1  0.331932  0.660918  0.658530  1
  Zn  Zn1  1  0.668068  0.339084  0.341473  1
  Fe  Fe2  1  0.252502  0.151830  0.205707  1
  Fe  Fe3  1  0.747490  0.848189  0.794293  1
  P  P4  1  0.187203  0.675369  0.098152  1
  P  P5  1  0.812800  0.324627  0.901848  1
  P  P6  1  0.220819  0.206544  0.613148  1
  P  P7  1  0.779181  0.793457  0.386852  1
  O  O8  1  0.108935  0.698114  0.899382  1
  O  O9  1  0.891066  0.301868  0.100619  1
  O  O10  1  0.296168  0.849985  0.139730  1
  O  O11  1  0.703832  0.150019  0.860267  1
  O  O12  1  0.352370  0.438477  0.160988  1
  O  O13  1  0.647635  0.561519  0.839017  1
  O  O14  1  0.623110  0.637164  0.433381  1
  O  O15  1  0.376889  0.362836  0.566618  1
  O  O16  1  0.049773  0.215886  0.457112  1
  O  O17  1  0.950230  0.784113  0.542887  1
  O  O18  1  0.067295  0.296626  0.789534  1
  O  O19  1  0.621142  0.032725  0.326898  1
  O  O20  1  0.378859  0.967277  0.673104  1
  O  O21  1  0.932704  0.703373  0.210462  1
