# generated using pymatgen
data_CaBiSbO5
_symmetry_space_group_name_H-M   'P 1'
_cell_length_a   5.66711610
_cell_length_b   11.60573976
_cell_length_c   16.36996594
_cell_angle_alpha   90.00000000
_cell_angle_beta   90.00000000
_cell_angle_gamma   90.00000000
_symmetry_Int_Tables_number   1
_chemical_formula_structural   CaBiSbO5
_chemical_formula_sum   'Ca8 Bi8 Sb8 O40'
_cell_volume   1076.67025180
_cell_formula_units_Z   8
loop_
 _symmetry_equiv_pos_site_id
 _symmetry_equiv_pos_as_xyz
  1  'x, y, z'
loop_
 _atom_site_type_symbol
 _atom_site_label
 _atom_site_symmetry_multiplicity
 _atom_site_fract_x
 _atom_site_fract_y
 _atom_site_fract_z
 _atom_site_occupancy
  Ca  Ca0  1  0.499424  0.359757  0.447223  1
  Ca  Ca1  1  0.999424  0.140243  0.447223  1
  Ca  Ca2  1  0.999424  0.640243  0.052777  1
  Ca  Ca3  1  0.000576  0.359757  0.947223  1
  Ca  Ca4  1  0.500576  0.140243  0.947223  1
  Ca  Ca5  1  0.000576  0.859757  0.552777  1
  Ca  Ca6  1  0.500576  0.640243  0.552777  1
  Ca  Ca7  1  0.499424  0.859757  0.052777  1
  Bi  Bi8  1  0.950329  0.842404  0.227067  1
  Bi  Bi9  1  0.049671  0.157596  0.772933  1
  Bi  Bi10  1  0.549671  0.342404  0.772933  1
  Bi  Bi11  1  0.049671  0.657596  0.727067  1
  Bi  Bi12  1  0.450329  0.157596  0.272933  1
  Bi  Bi13  1  0.450329  0.657596  0.227067  1
  Bi  Bi14  1  0.549671  0.842404  0.727067  1
  Bi  Bi15  1  0.950329  0.342404  0.272933  1
  Sb  Sb16  1  0.984673  0.400911  0.595945  1
  Sb  Sb17  1  0.515327  0.900911  0.404055  1
  Sb  Sb18  1  0.015327  0.599089  0.404055  1
  Sb  Sb19  1  0.484673  0.099089  0.595945  1
  Sb  Sb20  1  0.015327  0.099089  0.095945  1
  Sb  Sb21  1  0.984673  0.900911  0.904055  1
  Sb  Sb22  1  0.515327  0.400911  0.095945  1
  Sb  Sb23  1  0.484673  0.599089  0.904055  1
  O  O24  1  0.930233  0.325463  0.699343  1
  O  O25  1  0.311424  0.043495  0.060236  1
  O  O26  1  0.188576  0.543495  0.939764  1
  O  O27  1  0.240524  0.767982  0.152812  1
  O  O28  1  0.259476  0.267982  0.847188  1
  O  O29  1  0.930233  0.825463  0.800657  1
  O  O30  1  0.259476  0.767982  0.652812  1
  O  O31  1  0.569767  0.825463  0.300657  1
  O  O32  1  0.311424  0.543495  0.439764  1
  O  O33  1  0.069767  0.674537  0.300657  1
  O  O34  1  0.569767  0.325463  0.199343  1
  O  O35  1  0.648653  0.193187  0.520669  1
  O  O36  1  0.811424  0.956505  0.439764  1
  O  O37  1  0.759476  0.732018  0.652812  1
  O  O38  1  0.176745  0.030823  0.872966  1
  O  O39  1  0.811424  0.456505  0.060236  1
  O  O40  1  0.069767  0.174537  0.199343  1
  O  O41  1  0.740524  0.232018  0.347188  1
  O  O42  1  0.148653  0.806813  0.979331  1
  O  O43  1  0.188576  0.043495  0.560236  1
  O  O44  1  0.351347  0.806813  0.479331  1
  O  O45  1  0.823255  0.969177  0.127034  1
  O  O46  1  0.759476  0.232018  0.847188  1
  O  O47  1  0.676745  0.969177  0.627034  1
  O  O48  1  0.351347  0.306813  0.020669  1
  O  O49  1  0.148653  0.306813  0.520669  1
  O  O50  1  0.688576  0.456505  0.560236  1
  O  O51  1  0.688576  0.956505  0.939764  1
  O  O52  1  0.676745  0.469177  0.872966  1
  O  O53  1  0.851347  0.693187  0.479331  1
  O  O54  1  0.851347  0.193187  0.020669  1
  O  O55  1  0.648653  0.693187  0.979331  1
  O  O56  1  0.823255  0.469177  0.372966  1
  O  O57  1  0.740524  0.732018  0.152812  1
  O  O58  1  0.240524  0.267982  0.347188  1
  O  O59  1  0.176745  0.530823  0.627034  1
  O  O60  1  0.323255  0.530823  0.127034  1
  O  O61  1  0.430233  0.174537  0.699343  1
  O  O62  1  0.323255  0.030823  0.372966  1
  O  O63  1  0.430233  0.674537  0.800657  1
