# generated using pymatgen
data_Mn3Zn3(AsO4)4
_symmetry_space_group_name_H-M   'P 1'
_cell_length_a   5.30450811
_cell_length_b   8.71761989
_cell_length_c   15.43709995
_cell_angle_alpha   100.14699775
_cell_angle_beta   90.00000000
_cell_angle_gamma   90.00000000
_symmetry_Int_Tables_number   1
_chemical_formula_structural   Mn3Zn3(AsO4)4
_chemical_formula_sum   'Mn6 Zn6 As8 O32'
_cell_volume   702.68758387
_cell_formula_units_Z   2
loop_
 _symmetry_equiv_pos_site_id
 _symmetry_equiv_pos_as_xyz
  1  'x, y, z'
loop_
 _atom_site_type_symbol
 _atom_site_label
 _atom_site_symmetry_multiplicity
 _atom_site_fract_x
 _atom_site_fract_y
 _atom_site_fract_z
 _atom_site_occupancy
  Mn  Mn0  1  0.000343  0.322925  0.123661  1
  Mn  Mn1  1  0.999657  0.677075  0.876339  1
  Mn  Mn2  1  0.500343  0.177075  0.376339  1
  Mn  Mn3  1  0.499657  0.822925  0.623661  1
  Mn  Mn4  1  0.500000  0.500000  0.000000  1
  Mn  Mn5  1  0.000000  0.000000  0.500000  1
  Zn  Zn6  1  0.948440  0.020530  0.716206  1
  Zn  Zn7  1  0.448440  0.479470  0.783794  1
  Zn  Zn8  1  0.051560  0.979470  0.283794  1
  Zn  Zn9  1  0.551560  0.520530  0.216206  1
  Zn  Zn10  1  0.000000  0.000000  0.000000  1
  Zn  Zn11  1  0.500000  0.500000  0.500000  1
  As  As12  1  0.519678  0.883698  0.852524  1
  As  As13  1  0.000101  0.308320  0.891549  1
  As  As14  1  0.500101  0.191680  0.608451  1
  As  As15  1  0.499899  0.808320  0.391549  1
  As  As16  1  0.480322  0.116303  0.147476  1
  As  As17  1  -0.000101  0.691680  0.108451  1
  As  As18  1  0.980322  0.383698  0.352524  1
  As  As19  1  0.019678  0.616302  0.647476  1
  O  O20  1  0.108331  0.570615  0.748451  1
  O  O21  1  0.555169  0.264017  0.513272  1
  O  O22  1  0.089076  0.192026  0.797252  1
  O  O23  1  0.104594  0.813426  0.649275  1
  O  O24  1  0.910924  0.807974  0.202748  1
  O  O25  1  0.391669  0.070615  0.248451  1
  O  O26  1  0.589076  0.307974  0.702748  1
  O  O27  1  0.793812  0.892843  0.391665  1
  O  O28  1  0.810748  0.504955  0.428407  1
  O  O29  1  0.891669  0.429385  0.251549  1
  O  O30  1  0.395406  0.313426  0.149275  1
  O  O31  1  0.206188  0.107157  0.608336  1
  O  O32  1  0.208639  0.470703  0.901297  1
  O  O33  1  0.189252  0.495045  0.571593  1
  O  O34  1  0.802027  0.109875  0.131181  1
  O  O35  1  0.302027  0.390125  0.368819  1
  O  O36  1  0.708639  0.029297  0.598703  1
  O  O37  1  0.410924  0.692026  0.297252  1
  O  O38  1  0.310748  0.995045  0.071593  1
  O  O39  1  0.293812  0.607157  0.108336  1
  O  O40  1  0.697973  0.609875  0.631181  1
  O  O41  1  0.197973  0.890125  0.868819  1
  O  O42  1  0.444831  0.735983  0.486728  1
  O  O43  1  0.055169  0.235983  0.986728  1
  O  O44  1  0.791361  0.529297  0.098703  1
  O  O45  1  0.608331  0.929385  0.751549  1
  O  O46  1  0.895406  0.186574  0.350725  1
  O  O47  1  0.689252  0.004955  0.928407  1
  O  O48  1  0.944831  0.764017  0.013272  1
  O  O49  1  0.706188  0.392843  0.891664  1
  O  O50  1  0.291361  0.970703  0.401297  1
  O  O51  1  0.604594  0.686574  0.850725  1
