# generated using pymatgen
data_Ba2TlSb2O7
_symmetry_space_group_name_H-M   'P 1'
_cell_length_a   3.95300651
_cell_length_b   3.95262292
_cell_length_c   13.49216758
_cell_angle_alpha   90.00002323
_cell_angle_beta   90.00076691
_cell_angle_gamma   90.00005465
_symmetry_Int_Tables_number   1
_chemical_formula_structural   Ba2TlSb2O7
_chemical_formula_sum   'Ba2 Tl1 Sb2 O7'
_cell_volume   210.81166625
_cell_formula_units_Z   1
loop_
 _symmetry_equiv_pos_site_id
 _symmetry_equiv_pos_as_xyz
  1  'x, y, z'
loop_
 _atom_site_type_symbol
 _atom_site_label
 _atom_site_symmetry_multiplicity
 _atom_site_fract_x
 _atom_site_fract_y
 _atom_site_fract_z
 _atom_site_occupancy
  Ba  Ba0  1  0.000013  0.000000  0.692694  1
  Ba  Ba1  1  0.999992  0.000001  0.307301  1
  Tl  Tl2  1  0.499952  0.500002  0.499999  1
  Sb  Sb3  1  0.500025  0.500000  0.888523  1
  Sb  Sb4  1  0.499925  0.500000  0.111466  1
  O  O5  1  0.000058  0.999998  0.499998  1
  O  O6  1  0.500016  0.000000  0.851238  1
  O  O7  1  0.000024  0.500000  0.851272  1
  O  O8  1  0.499990  1.000000  0.148760  1
  O  O9  1  0.999984  0.500001  0.148716  1
  O  O10  1  0.500058  0.499999  0.656353  1
  O  O11  1  0.499960  0.500001  0.343645  1
