# generated using pymatgen
data_CaCr2O7
_symmetry_space_group_name_H-M   'P 1'
_cell_length_a   7.14168167
_cell_length_b   6.90379676
_cell_length_c   8.77612204
_cell_angle_alpha   118.77203966
_cell_angle_beta   90.00000000
_cell_angle_gamma   90.00000000
_symmetry_Int_Tables_number   1
_chemical_formula_structural   CaCr2O7
_chemical_formula_sum   'Ca2 Cr4 O14'
_cell_volume   379.28328795
_cell_formula_units_Z   2
loop_
 _symmetry_equiv_pos_site_id
 _symmetry_equiv_pos_as_xyz
  1  'x, y, z'
loop_
 _atom_site_type_symbol
 _atom_site_label
 _atom_site_symmetry_multiplicity
 _atom_site_fract_x
 _atom_site_fract_y
 _atom_site_fract_z
 _atom_site_occupancy
  Ca  Ca0  1  0.876121  0.534077  0.657507  1
  Ca  Ca1  1  0.376121  0.465923  0.342493  1
  Cr  Cr2  1  0.857309  0.313204  0.210871  1
  Cr  Cr3  1  0.357309  0.686796  0.789129  1
  Cr  Cr4  1  0.324961  0.872139  0.200112  1
  Cr  Cr5  1  0.824961  0.127861  0.799888  1
  O  O6  1  0.648798  0.052891  0.672311  1
  O  O7  1  0.148797  0.947109  0.327689  1
  O  O8  1  0.223133  0.547369  0.610235  1
  O  O9  1  0.723133  0.452631  0.389765  1
  O  O10  1  0.961260  0.284299  0.752314  1
  O  O11  1  0.461260  0.715701  0.247686  1
  O  O12  1  0.564986  0.567998  0.751695  1
  O  O13  1  0.064986  0.432002  0.248305  1
  O  O14  1  0.934081  0.907321  0.782360  1
  O  O15  1  0.434081  0.092679  0.217640  1
  O  O16  1  0.749939  0.293434  0.022859  1
  O  O17  1  0.249939  0.706566  0.977141  1
  O  O18  1  0.884469  0.067438  0.178171  1
  O  O19  1  0.384469  0.932562  0.821829  1
