# generated using pymatgen
data_Mg3V2(Si2O7)2
_symmetry_space_group_name_H-M   'P 1'
_cell_length_a   7.68667307
_cell_length_b   9.49700324
_cell_length_c   9.24822157
_cell_angle_alpha   63.51061573
_cell_angle_beta   65.44442051
_cell_angle_gamma   66.12833353
_symmetry_Int_Tables_number   1
_chemical_formula_structural   Mg3V2(Si2O7)2
_chemical_formula_sum   'Mg6 V4 Si8 O28'
_cell_volume   529.27497062
_cell_formula_units_Z   2
loop_
 _symmetry_equiv_pos_site_id
 _symmetry_equiv_pos_as_xyz
  1  'x, y, z'
loop_
 _atom_site_type_symbol
 _atom_site_label
 _atom_site_symmetry_multiplicity
 _atom_site_fract_x
 _atom_site_fract_y
 _atom_site_fract_z
 _atom_site_occupancy
  Mg  Mg0  1  0.918217  0.904819  0.448530  1
  Mg  Mg1  1  0.271565  0.595181  0.051470  1
  Mg  Mg2  1  0.728435  0.404819  0.948530  1
  Mg  Mg3  1  0.611422  0.250000  0.750000  1
  Mg  Mg4  1  0.081783  0.095181  0.551470  1
  Mg  Mg5  1  0.388578  0.750000  0.250000  1
  V  V6  1  0.202233  0.250000  0.750000  1
  V  V7  1  0.797767  0.750000  0.250000  1
  V  V8  1  0.000000  0.000000  0.000000  1
  V  V9  1  0.000000  0.500000  0.500000  1
  Si  Si10  1  0.465899  0.291056  0.343094  1
  Si  Si11  1  0.899950  0.791056  0.843094  1
  Si  Si12  1  0.480094  0.896034  0.862141  1
  Si  Si13  1  0.761733  0.396034  0.362141  1
  Si  Si14  1  0.100050  0.208944  0.156906  1
  Si  Si15  1  0.519906  0.103966  0.137859  1
  Si  Si16  1  0.238267  0.603966  0.637859  1
  Si  Si17  1  0.534101  0.708944  0.656906  1
  O  O18  1  0.152708  0.674279  0.471895  1
  O  O19  1  0.042276  0.577356  0.259536  1
  O  O20  1  0.533310  0.914971  0.182582  1
  O  O21  1  0.120833  0.077356  0.759536  1
  O  O22  1  0.747397  0.686890  0.513289  1
  O  O23  1  0.933626  0.377219  0.185527  1
  O  O24  1  0.369137  0.414971  0.682582  1
  O  O25  1  0.947576  0.813110  0.986711  1
  O  O26  1  0.066374  0.622781  0.814473  1
  O  O27  1  0.359024  0.741190  0.578517  1
  O  O28  1  0.957724  0.422644  0.740464  1
  O  O29  1  0.252603  0.313110  0.486711  1
  O  O30  1  0.496372  0.122781  0.314473  1
  O  O31  1  0.701117  0.174279  0.971895  1
  O  O32  1  0.321269  0.241190  0.078517  1
  O  O33  1  0.052424  0.186890  0.013289  1
  O  O34  1  0.091248  0.062310  0.338147  1
  O  O35  1  0.640976  0.258810  0.421483  1
  O  O36  1  0.491704  0.437690  0.161853  1
  O  O37  1  0.678731  0.758810  0.921483  1
  O  O38  1  0.503628  0.877219  0.685527  1
  O  O39  1  0.879167  0.922644  0.240464  1
  O  O40  1  0.508296  0.562310  0.838147  1
  O  O41  1  0.466690  0.085029  0.817418  1
  O  O42  1  0.908752  0.937690  0.661853  1
  O  O43  1  0.630863  0.585029  0.317418  1
  O  O44  1  0.298883  0.825721  0.028105  1
  O  O45  1  0.847292  0.325721  0.528105  1
