# generated using pymatgen
data_MgFeSiO5
_symmetry_space_group_name_H-M   'P 1'
_cell_length_a   5.35096269
_cell_length_b   6.92963238
_cell_length_c   8.49059718
_cell_angle_alpha   89.92090665
_cell_angle_beta   37.31880315
_cell_angle_gamma   75.16190410
_symmetry_Int_Tables_number   1
_chemical_formula_structural   MgFeSiO5
_chemical_formula_sum   'Mg2 Fe2 Si2 O10'
_cell_volume   173.16317312
_cell_formula_units_Z   2
loop_
 _symmetry_equiv_pos_site_id
 _symmetry_equiv_pos_as_xyz
  1  'x, y, z'
loop_
 _atom_site_type_symbol
 _atom_site_label
 _atom_site_symmetry_multiplicity
 _atom_site_fract_x
 _atom_site_fract_y
 _atom_site_fract_z
 _atom_site_occupancy
  Mg  Mg0  1  0.503401  0.232309  0.665947  1
  Mg  Mg1  1  0.506817  0.730857  0.319370  1
  Fe  Fe2  1  0.499558  0.485814  0.995852  1
  Fe  Fe3  1  0.499386  0.985875  0.995444  1
  Si  Si4  1  0.499152  0.235865  0.324367  1
  Si  Si5  1  0.496768  0.735782  0.668438  1
  O  O6  1  0.278294  0.107552  0.326725  1
  O  O7  1  0.723218  0.364483  0.105016  1
  O  O8  1  0.715746  0.866385  0.665509  1
  O  O9  1  0.270964  0.609564  0.890118  1
  O  O10  1  0.859388  0.571416  0.360513  1
  O  O11  1  0.140992  0.895506  0.716194  1
  O  O12  1  0.138941  0.398819  0.632252  1
  O  O13  1  0.857214  0.074862  0.274046  1
  O  O14  1  0.495959  0.736080  0.085432  1
  O  O15  1  0.500934  0.235961  0.906792  1
