# generated using pymatgen
data_BaAlCo4O7
_symmetry_space_group_name_H-M   'P 1'
_cell_length_a   6.06180300
_cell_length_b   6.06514102
_cell_length_c   9.95196810
_cell_angle_alpha   90.01783641
_cell_angle_beta   89.94264231
_cell_angle_gamma   119.99392652
_symmetry_Int_Tables_number   1
_chemical_formula_structural   BaAlCo4O7
_chemical_formula_sum   'Ba2 Al2 Co8 O14'
_cell_volume   316.89010351
_cell_formula_units_Z   2
loop_
 _symmetry_equiv_pos_site_id
 _symmetry_equiv_pos_as_xyz
  1  'x, y, z'
loop_
 _atom_site_type_symbol
 _atom_site_label
 _atom_site_symmetry_multiplicity
 _atom_site_fract_x
 _atom_site_fract_y
 _atom_site_fract_z
 _atom_site_occupancy
  Ba  Ba0  1  0.666735  0.333313  0.505068  1
  Ba  Ba1  1  0.333219  0.666607  0.005089  1
  Al  Al2  1  0.666846  0.333614  0.881216  1
  Al  Al3  1  0.333383  0.666434  0.381240  1
  Co  Co4  1  0.821800  0.178147  0.188973  1
  Co  Co5  1  0.643393  0.821718  0.688863  1
  Co  Co6  1  0.178125  0.356298  0.688660  1
  Co  Co7  1  0.821640  0.643672  0.188652  1
  Co  Co8  1  0.356294  0.178319  0.188657  1
  Co  Co9  1  0.177860  0.821891  0.688725  1
  Co  Co10  1  1.000071  1.000055  0.443732  1
  Co  Co11  1  0.000032  -0.000084  0.943722  1
  O  O12  1  0.818759  0.181121  0.996289  1
  O  O13  1  0.637515  0.818822  0.496156  1
  O  O14  1  0.181205  0.362587  0.495862  1
  O  O15  1  0.818681  0.637471  0.995795  1
  O  O16  1  0.362525  0.181266  0.995729  1
  O  O17  1  0.181168  0.818836  0.495803  1
  O  O18  1  -0.000180  -0.000064  0.746467  1
  O  O19  1  -0.000298  0.000226  0.246476  1
  O  O20  1  0.486511  0.513503  0.267947  1
  O  O21  1  0.973248  0.486585  0.767728  1
  O  O22  1  0.513775  0.026740  0.767821  1
  O  O23  1  0.487123  0.973247  0.267746  1
  O  O24  1  0.513903  0.486856  0.767854  1
  O  O25  1  0.026669  0.512823  0.267728  1
