# generated using pymatgen
data_BaCaCuF7
_symmetry_space_group_name_H-M   'P 1'
_cell_length_a   5.68854047
_cell_length_b   9.96082535
_cell_length_c   10.48437942
_cell_angle_alpha   90.00000000
_cell_angle_beta   90.00000000
_cell_angle_gamma   92.07249897
_symmetry_Int_Tables_number   1
_chemical_formula_structural   BaCaCuF7
_chemical_formula_sum   'Ba4 Ca4 Cu4 F28'
_cell_volume   593.68315601
_cell_formula_units_Z   4
loop_
 _symmetry_equiv_pos_site_id
 _symmetry_equiv_pos_as_xyz
  1  'x, y, z'
loop_
 _atom_site_type_symbol
 _atom_site_label
 _atom_site_symmetry_multiplicity
 _atom_site_fract_x
 _atom_site_fract_y
 _atom_site_fract_z
 _atom_site_occupancy
  Ba  Ba0  1  0.261951  0.506088  0.333400  1
  Ba  Ba1  1  0.738049  0.993912  0.833400  1
  Ba  Ba2  1  0.738049  0.493912  0.666600  1
  Ba  Ba3  1  0.261951  0.006088  0.166600  1
  Ca  Ca4  1  0.707878  0.820929  0.409199  1
  Ca  Ca5  1  0.292122  0.679071  0.909199  1
  Ca  Ca6  1  0.707878  0.320929  0.090801  1
  Ca  Ca7  1  0.292122  0.179071  0.590801  1
  Cu  Cu8  1  0.190547  0.810492  0.623133  1
  Cu  Cu9  1  0.809453  0.189508  0.376867  1
  Cu  Cu10  1  0.190547  0.310492  0.876867  1
  Cu  Cu11  1  0.809453  0.689508  0.123133  1
  F  F12  1  0.097185  0.105847  0.419288  1
  F  F13  1  0.338002  0.369774  0.032579  1
  F  F14  1  0.466365  0.738097  0.703527  1
  F  F15  1  0.533635  0.261903  0.296473  1
  F  F16  1  0.912171  0.352673  0.459206  1
  F  F17  1  0.283818  0.479902  0.797524  1
  F  F18  1  0.011069  0.748469  0.771795  1
  F  F19  1  0.087829  0.147327  0.959206  1
  F  F20  1  0.338002  0.869774  0.467421  1
  F  F21  1  0.533635  0.761903  0.203527  1
  F  F22  1  0.097185  0.605847  0.080712  1
  F  F23  1  0.902815  0.894153  0.580712  1
  F  F24  1  0.988931  0.751531  0.271795  1
  F  F25  1  0.391885  0.883651  0.958080  1
  F  F26  1  0.087829  0.647327  0.540794  1
  F  F27  1  0.912171  0.852673  0.040794  1
  F  F28  1  0.988931  0.251531  0.228205  1
  F  F29  1  0.902815  0.394153  0.919288  1
  F  F30  1  0.608115  0.616349  0.458080  1
  F  F31  1  0.661998  0.630226  0.967421  1
  F  F32  1  0.608115  0.116349  0.041920  1
  F  F33  1  0.011069  0.248469  0.728205  1
  F  F34  1  0.391885  0.383651  0.541920  1
  F  F35  1  0.716182  0.020098  0.297524  1
  F  F36  1  0.716182  0.520098  0.202476  1
  F  F37  1  0.283818  0.979902  0.702476  1
  F  F38  1  0.661998  0.130226  0.532579  1
  F  F39  1  0.466365  0.238097  0.796473  1
