# generated using pymatgen
data_MgCuO2
_symmetry_space_group_name_H-M   'P 1'
_cell_length_a   2.89191400
_cell_length_b   8.29199414
_cell_length_c   8.33301606
_cell_angle_alpha   86.49448537
_cell_angle_beta   79.72239807
_cell_angle_gamma   80.04538191
_symmetry_Int_Tables_number   1
_chemical_formula_structural   MgCuO2
_chemical_formula_sum   'Mg4 Cu4 O8'
_cell_volume   193.56255158
_cell_formula_units_Z   4
loop_
 _symmetry_equiv_pos_site_id
 _symmetry_equiv_pos_as_xyz
  1  'x, y, z'
loop_
 _atom_site_type_symbol
 _atom_site_label
 _atom_site_symmetry_multiplicity
 _atom_site_fract_x
 _atom_site_fract_y
 _atom_site_fract_z
 _atom_site_occupancy
  Mg  Mg0  1  0.353287  0.063410  0.241932  1
  Mg  Mg1  1  0.642406  0.916795  0.786235  1
  Mg  Mg2  1  0.084407  0.698630  0.135737  1
  Mg  Mg3  1  0.911744  0.281139  0.892548  1
  Cu  Cu4  1  0.622128  0.180454  0.571757  1
  Cu  Cu5  1  0.207960  0.379047  0.205439  1
  Cu  Cu6  1  0.788386  0.600759  0.823007  1
  Cu  Cu7  1  0.374044  0.799062  0.456803  1
  O  O8  1  0.819534  0.756892  0.603093  1
  O  O9  1  0.367796  0.433890  0.830534  1
  O  O10  1  0.628116  0.546424  0.197632  1
  O  O11  1  0.176769  0.222990  0.424783  1
  O  O12  1  0.076270  0.098007  0.739301  1
  O  O13  1  0.846604  0.201943  0.120781  1
  O  O14  1  0.919668  0.881988  0.288810  1
  O  O15  1  0.149155  0.777906  0.907226  1
