# generated using pymatgen
data_Mg(MnS2)2
_symmetry_space_group_name_H-M   'P 1'
_cell_length_a   7.33203779
_cell_length_b   7.26707693
_cell_length_c   7.26660413
_cell_angle_alpha   60.60912119
_cell_angle_beta   59.73717548
_cell_angle_gamma   59.73484844
_symmetry_Int_Tables_number   1
_chemical_formula_structural   Mg(MnS2)2
_chemical_formula_sum   'Mg2 Mn4 S8'
_cell_volume   273.90476049
_cell_formula_units_Z   2
loop_
 _symmetry_equiv_pos_site_id
 _symmetry_equiv_pos_as_xyz
  1  'x, y, z'
loop_
 _atom_site_type_symbol
 _atom_site_label
 _atom_site_symmetry_multiplicity
 _atom_site_fract_x
 _atom_site_fract_y
 _atom_site_fract_z
 _atom_site_occupancy
  Mg  Mg0  1  0.875139  0.875027  0.875000  1
  Mg  Mg1  1  0.124872  0.124984  0.124983  1
  Mn  Mn2  1  0.499994  0.500027  0.499981  1
  Mn  Mn3  1  0.499964  0.499973  0.000024  1
  Mn  Mn4  1  0.000005  0.500007  0.499990  1
  Mn  Mn5  1  0.500011  -0.000002  0.500001  1
  S  S6  1  0.735672  0.739225  0.739244  1
  S  S7  1  0.260582  0.264355  0.714493  1
  S  S8  1  0.260578  0.714492  0.264344  1
  S  S9  1  0.714702  0.260587  0.260593  1
  S  S10  1  0.739408  0.285503  0.735661  1
  S  S11  1  0.285310  0.739424  0.739400  1
  S  S12  1  0.264329  0.260753  0.260797  1
  S  S13  1  0.739437  0.735640  0.285492  1
