# generated using pymatgen
data_V3Zn2O8
_symmetry_space_group_name_H-M   'P 1'
_cell_length_a   4.97873581
_cell_length_b   5.98020843
_cell_length_c   5.84893055
_cell_angle_alpha   120.74528738
_cell_angle_beta   100.97172627
_cell_angle_gamma   89.99999705
_symmetry_Int_Tables_number   1
_chemical_formula_structural   V3Zn2O8
_chemical_formula_sum   'V3 Zn2 O8'
_cell_volume   145.95293918
_cell_formula_units_Z   1
loop_
 _symmetry_equiv_pos_site_id
 _symmetry_equiv_pos_as_xyz
  1  'x, y, z'
loop_
 _atom_site_type_symbol
 _atom_site_label
 _atom_site_symmetry_multiplicity
 _atom_site_fract_x
 _atom_site_fract_y
 _atom_site_fract_z
 _atom_site_occupancy
  V  V0  1  0.499998  -0.000000  0.000002  1
  V  V1  1  0.000000  0.737872  1.000000  1
  V  V2  1  0.000000  0.262127  -0.000000  1
  Zn  Zn3  1  0.600249  0.711270  0.422539  1
  Zn  Zn4  1  0.399750  0.288731  0.577461  1
  O  O5  1  0.109071  0.396299  0.792599  1
  O  O6  1  0.890928  0.603700  0.207401  1
  O  O7  1  0.138158  0.900184  0.800368  1
  O  O8  1  0.861842  0.099815  0.199632  1
  O  O9  1  0.361716  0.345362  0.237901  1
  O  O10  1  0.361716  0.892539  0.237901  1
  O  O11  1  0.638285  0.107460  0.762099  1
  O  O12  1  0.638285  0.654638  0.762099  1
