# generated using pymatgen
data_Mg(FeO2)2
_symmetry_space_group_name_H-M   'P 1'
_cell_length_a   2.93267971
_cell_length_b   9.96496983
_cell_length_c   9.75105085
_cell_angle_alpha   89.99997604
_cell_angle_beta   90.00022899
_cell_angle_gamma   90.00262193
_symmetry_Int_Tables_number   1
_chemical_formula_structural   Mg(FeO2)2
_chemical_formula_sum   'Mg4 Fe8 O16'
_cell_volume   284.96534212
_cell_formula_units_Z   4
loop_
 _symmetry_equiv_pos_site_id
 _symmetry_equiv_pos_as_xyz
  1  'x, y, z'
loop_
 _atom_site_type_symbol
 _atom_site_label
 _atom_site_symmetry_multiplicity
 _atom_site_fract_x
 _atom_site_fract_y
 _atom_site_fract_z
 _atom_site_occupancy
  Mg  Mg0  1  0.255730  0.750032  0.137486  1
  Mg  Mg1  1  0.255736  0.250031  0.362518  1
  Mg  Mg2  1  0.744260  0.749975  0.637475  1
  Mg  Mg3  1  0.744289  0.249980  0.862519  1
  Fe  Fe4  1  0.750899  0.574686  0.382069  1
  Fe  Fe5  1  0.750889  0.074674  0.117937  1
  Fe  Fe6  1  0.248959  0.074675  0.617931  1
  Fe  Fe7  1  0.751038  0.425323  0.117931  1
  Fe  Fe8  1  0.249105  0.425317  0.617941  1
  Fe  Fe9  1  0.750820  0.925311  0.382077  1
  Fe  Fe10  1  0.249025  0.925317  0.882072  1
  Fe  Fe11  1  0.249208  0.574693  0.882062  1
  O  O12  1  0.250215  0.884750  0.521544  1
  O  O13  1  0.749574  0.115245  0.478454  1
  O  O14  1  0.250560  0.999971  0.249983  1
  O  O15  1  0.749620  0.884743  0.021539  1
  O  O16  1  0.749804  0.615256  0.021547  1
  O  O17  1  0.753811  0.249999  0.214363  1
  O  O18  1  0.250328  0.115252  0.978459  1
  O  O19  1  0.246201  0.249999  0.714370  1
  O  O20  1  0.250636  0.499983  0.250012  1
  O  O21  1  0.749351  0.000012  0.750007  1
  O  O22  1  0.250376  0.615250  0.521541  1
  O  O23  1  0.246212  0.750005  0.785627  1
  O  O24  1  0.753793  0.749995  0.285632  1
  O  O25  1  0.749469  0.500020  0.749993  1
  O  O26  1  0.250394  0.384757  0.978455  1
  O  O27  1  0.749698  0.384745  0.478457  1
