# generated using pymatgen
data_Ta2ZnCoO7
_symmetry_space_group_name_H-M   'P 1'
_cell_length_a   6.62872439
_cell_length_b   12.74186425
_cell_length_c   15.10880787
_cell_angle_alpha   90.00000000
_cell_angle_beta   90.00000000
_cell_angle_gamma   103.53028892
_symmetry_Int_Tables_number   1
_chemical_formula_structural   Ta2ZnCoO7
_chemical_formula_sum   'Ta16 Zn8 Co8 O56'
_cell_volume   1240.70767170
_cell_formula_units_Z   8
loop_
 _symmetry_equiv_pos_site_id
 _symmetry_equiv_pos_as_xyz
  1  'x, y, z'
loop_
 _atom_site_type_symbol
 _atom_site_label
 _atom_site_symmetry_multiplicity
 _atom_site_fract_x
 _atom_site_fract_y
 _atom_site_fract_z
 _atom_site_occupancy
  Ta  Ta0  1  0.829227  0.984235  0.896215  1
  Ta  Ta1  1  0.438680  0.687919  0.027698  1
  Ta  Ta2  1  0.438680  0.187919  0.472302  1
  Ta  Ta3  1  0.561320  0.312081  0.972302  1
  Ta  Ta4  1  0.511730  0.796300  0.731106  1
  Ta  Ta5  1  0.488270  0.703700  0.231106  1
  Ta  Ta6  1  0.488270  0.203700  0.268894  1
  Ta  Ta7  1  0.511730  0.296300  0.768894  1
  Ta  Ta8  1  0.561320  0.812081  0.527698  1
  Ta  Ta9  1  0.876455  0.495982  0.139411  1
  Ta  Ta10  1  0.123545  0.004018  0.639411  1
  Ta  Ta11  1  0.123545  0.504018  0.860589  1
  Ta  Ta12  1  0.170773  0.515765  0.396215  1
  Ta  Ta13  1  0.829227  0.484235  0.603785  1
  Ta  Ta14  1  0.170773  0.015765  0.103785  1
  Ta  Ta15  1  0.876455  0.995982  0.360589  1
  Zn  Zn16  1  0.017440  0.748494  0.527940  1
  Zn  Zn17  1  0.296695  0.909927  0.896762  1
  Zn  Zn18  1  0.703305  0.590073  0.396762  1
  Zn  Zn19  1  0.703305  0.090073  0.103238  1
  Zn  Zn20  1  0.296695  0.409927  0.603238  1
  Zn  Zn21  1  0.017440  0.248494  0.972060  1
  Zn  Zn22  1  0.982560  0.251506  0.472060  1
  Zn  Zn23  1  0.982560  0.751506  0.027940  1
  Co  Co24  1  0.629795  0.060440  0.684617  1
  Co  Co25  1  0.370205  0.439560  0.184617  1
  Co  Co26  1  0.370205  0.939560  0.315383  1
  Co  Co27  1  0.629795  0.560440  0.815383  1
  Co  Co28  1  0.970947  0.226939  0.768229  1
  Co  Co29  1  0.029053  0.273061  0.268229  1
  Co  Co30  1  0.029053  0.773061  0.231771  1
  Co  Co31  1  0.970947  0.726939  0.731771  1
  O  O32  1  0.746462  0.976155  0.012075  1
  O  O33  1  0.253538  0.523845  0.512075  1
  O  O34  1  0.253538  0.023845  0.987925  1
  O  O35  1  0.746462  0.476155  0.487925  1
  O  O36  1  0.003986  0.895687  0.866062  1
  O  O37  1  0.996014  0.604313  0.366062  1
  O  O38  1  0.996014  0.104313  0.133938  1
  O  O39  1  0.003986  0.395687  0.633938  1
  O  O40  1  0.945750  0.132213  0.876651  1
  O  O41  1  0.054250  0.367787  0.376651  1
  O  O42  1  0.054250  0.867787  0.123349  1
  O  O43  1  0.945750  0.632213  0.623349  1
  O  O44  1  0.664937  0.971622  0.280699  1
  O  O45  1  0.335063  0.528378  0.780699  1
  O  O46  1  0.335063  0.028378  0.719301  1
  O  O47  1  0.664937  0.471622  0.219301  1
  O  O48  1  0.993907  0.146719  0.366882  1
  O  O49  1  0.006093  0.353281  0.866882  1
  O  O50  1  0.006093  0.853281  0.633118  1
  O  O51  1  0.993907  0.646719  0.133118  1
  O  O52  1  0.069649  0.923760  0.315634  1
  O  O53  1  0.301161  0.798279  0.479802  1
  O  O54  1  0.930351  0.576240  0.815634  1
  O  O55  1  0.069649  0.423760  0.184366  1
  O  O56  1  0.729220  0.724288  0.474922  1
  O  O57  1  0.270780  0.775712  0.974922  1
  O  O58  1  0.270780  0.275712  0.525078  1
  O  O59  1  0.729220  0.224288  0.025078  1
  O  O60  1  0.748999  0.942419  0.469453  1
  O  O61  1  0.251001  0.557581  0.969453  1
  O  O62  1  0.251001  0.057581  0.530547  1
  O  O63  1  0.748999  0.442419  0.030547  1
  O  O64  1  0.478591  0.210910  0.875243  1
  O  O65  1  0.521409  0.289090  0.375243  1
  O  O66  1  0.521409  0.789090  0.124757  1
  O  O67  1  0.478591  0.710910  0.624757  1
  O  O68  1  0.688070  0.216730  0.718597  1
  O  O69  1  0.311930  0.283270  0.218597  1
  O  O70  1  0.311930  0.783270  0.281403  1
  O  O71  1  0.688070  0.716730  0.781403  1
  O  O72  1  0.578636  0.426237  0.671715  1
  O  O73  1  0.421364  0.073763  0.171715  1
  O  O74  1  0.421364  0.573763  0.328285  1
  O  O75  1  0.578636  0.926237  0.828285  1
  O  O76  1  0.251280  0.261748  0.723263  1
  O  O77  1  0.748720  0.238252  0.223263  1
  O  O78  1  0.748720  0.738252  0.276737  1
  O  O79  1  0.251280  0.761748  0.776737  1
  O  O80  1  0.583398  0.409646  0.863939  1
  O  O81  1  0.416602  0.090354  0.363939  1
  O  O82  1  0.416602  0.590354  0.136061  1
  O  O83  1  0.583398  0.909646  0.636061  1
  O  O84  1  0.301161  0.298279  0.020198  1
  O  O85  1  0.698839  0.201721  0.520198  1
  O  O86  1  0.698839  0.701721  0.979802  1
  O  O87  1  0.930351  0.076240  0.684366  1
