# generated using pymatgen
data_MgBi4O9
_symmetry_space_group_name_H-M   'P 1'
_cell_length_a   5.73821258
_cell_length_b   8.24372924
_cell_length_c   8.94530391
_cell_angle_alpha   82.95227294
_cell_angle_beta   90.01992789
_cell_angle_gamma   90.02888353
_symmetry_Int_Tables_number   1
_chemical_formula_structural   MgBi4O9
_chemical_formula_sum   'Mg2 Bi8 O18'
_cell_volume   419.95380141
_cell_formula_units_Z   2
loop_
 _symmetry_equiv_pos_site_id
 _symmetry_equiv_pos_as_xyz
  1  'x, y, z'
loop_
 _atom_site_type_symbol
 _atom_site_label
 _atom_site_symmetry_multiplicity
 _atom_site_fract_x
 _atom_site_fract_y
 _atom_site_fract_z
 _atom_site_occupancy
  Mg  Mg0  1  0.287578  0.250236  0.249373  1
  Mg  Mg1  1  0.712054  0.749803  0.750428  1
  Bi  Bi2  1  0.774148  0.522832  0.356654  1
  Bi  Bi3  1  0.315342  0.856462  0.435817  1
  Bi  Bi4  1  0.685174  0.356531  0.935910  1
  Bi  Bi5  1  0.225763  0.023194  0.856819  1
  Bi  Bi6  1  0.774423  0.976932  0.143315  1
  Bi  Bi7  1  0.684708  0.143409  0.564183  1
  Bi  Bi8  1  0.225409  0.477086  0.643400  1
  Bi  Bi9  1  0.314835  0.643562  0.064084  1
  O  O10  1  0.469942  0.749693  0.250046  1
  O  O11  1  0.530286  0.250380  0.749898  1
  O  O12  1  0.043156  0.810924  0.996359  1
  O  O13  1  0.876895  0.528457  0.792053  1
  O  O14  1  0.875549  0.971844  0.708829  1
  O  O15  1  0.043518  0.689018  0.503238  1
  O  O16  1  0.956987  0.189403  0.003967  1
  O  O17  1  0.123137  0.471697  0.207927  1
  O  O18  1  0.124547  0.028115  0.291225  1
  O  O19  1  0.956398  0.310916  0.496629  1
  O  O20  1  0.636820  0.003161  0.379823  1
  O  O21  1  0.485870  0.169981  0.075385  1
  O  O22  1  0.485996  0.329473  0.423895  1
  O  O23  1  0.634758  0.495366  0.120865  1
  O  O24  1  0.365300  0.504780  0.879055  1
  O  O25  1  0.514026  0.830088  0.924539  1
  O  O26  1  0.513911  0.670172  0.575947  1
  O  O27  1  0.363474  0.996487  0.620338  1
