# generated using pymatgen
data_BiP2O7
_symmetry_space_group_name_H-M   'P 1'
_cell_length_a   7.75944356
_cell_length_b   9.58453996
_cell_length_c   9.82487271
_cell_angle_alpha   90.00000000
_cell_angle_beta   66.77281228
_cell_angle_gamma   90.00000000
_symmetry_Int_Tables_number   1
_chemical_formula_structural   BiP2O7
_chemical_formula_sum   'Bi4 P8 O28'
_cell_volume   671.45956413
_cell_formula_units_Z   4
loop_
 _symmetry_equiv_pos_site_id
 _symmetry_equiv_pos_as_xyz
  1  'x, y, z'
loop_
 _atom_site_type_symbol
 _atom_site_label
 _atom_site_symmetry_multiplicity
 _atom_site_fract_x
 _atom_site_fract_y
 _atom_site_fract_z
 _atom_site_occupancy
  Bi  Bi0  1  0.680867  0.067345  0.183445  1
  Bi  Bi1  1  0.680867  0.432655  0.683445  1
  Bi  Bi2  1  0.319133  0.567345  0.316555  1
  Bi  Bi3  1  0.319133  0.932655  0.816555  1
  P  P4  1  0.538522  0.718437  0.532278  1
  P  P5  1  0.084472  0.239470  0.231580  1
  P  P6  1  0.915528  0.739470  0.268420  1
  P  P7  1  0.084472  0.260530  0.731580  1
  P  P8  1  0.538522  0.781563  0.032278  1
  P  P9  1  0.915528  0.760530  0.768420  1
  P  P10  1  0.461478  0.218437  0.967722  1
  P  P11  1  0.461478  0.281563  0.467722  1
  O  O12  1  0.472161  0.136182  0.395099  1
  O  O13  1  0.242682  0.196698  0.071061  1
  O  O14  1  0.900620  0.272424  0.710780  1
  O  O15  1  0.123605  0.114336  0.772841  1
  O  O16  1  0.527839  0.863818  0.604901  1
  O  O17  1  0.757318  0.803302  0.928939  1
  O  O18  1  0.577480  0.221796  0.062709  1
  O  O19  1  0.492018  0.902511  0.141934  1
  O  O20  1  0.876395  0.614336  0.727159  1
  O  O21  1  0.422520  0.721796  0.437291  1
  O  O22  1  0.472161  0.363818  0.895099  1
  O  O23  1  0.907340  0.863187  0.651267  1
  O  O24  1  0.527839  0.636182  0.104901  1
  O  O25  1  0.099380  0.727576  0.289220  1
  O  O26  1  0.507982  0.402511  0.358066  1
  O  O27  1  0.422520  0.778204  0.937291  1
  O  O28  1  0.876395  0.885664  0.227159  1
  O  O29  1  0.900620  0.227576  0.210780  1
  O  O30  1  0.092660  0.136813  0.348733  1
  O  O31  1  0.492018  0.597489  0.641934  1
  O  O32  1  0.242682  0.303302  0.571061  1
  O  O33  1  0.577480  0.278204  0.562709  1
  O  O34  1  0.507982  0.097489  0.858066  1
  O  O35  1  0.123605  0.385664  0.272841  1
  O  O36  1  0.757318  0.696698  0.428939  1
  O  O37  1  0.907340  0.636813  0.151267  1
  O  O38  1  0.099380  0.772424  0.789220  1
  O  O39  1  0.092660  0.363187  0.848733  1
