# generated using pymatgen
data_Ba2AlCo2F11
_symmetry_space_group_name_H-M   'P 1'
_cell_length_a   7.41009629
_cell_length_b   7.41016962
_cell_length_c   14.48691169
_cell_angle_alpha   90.00086452
_cell_angle_beta   89.99917181
_cell_angle_gamma   120.00114501
_symmetry_Int_Tables_number   1
_chemical_formula_structural   Ba2AlCo2F11
_chemical_formula_sum   'Ba6 Al3 Co6 F33'
_cell_volume   688.89563627
_cell_formula_units_Z   3
loop_
 _symmetry_equiv_pos_site_id
 _symmetry_equiv_pos_as_xyz
  1  'x, y, z'
loop_
 _atom_site_type_symbol
 _atom_site_label
 _atom_site_symmetry_multiplicity
 _atom_site_fract_x
 _atom_site_fract_y
 _atom_site_fract_z
 _atom_site_occupancy
  Ba  Ba0  1  0.537455  0.189448  0.665647  1
  Ba  Ba1  1  0.175718  0.498057  0.799075  1
  Ba  Ba2  1  0.651952  0.462501  0.998980  1
  Ba  Ba3  1  0.501960  0.677690  0.465729  1
  Ba  Ba4  1  0.322357  0.824274  0.132401  1
  Ba  Ba5  1  0.810560  0.348021  0.332306  1
  Al  Al6  1  0.163487  0.004695  0.874372  1
  Al  Al7  1  0.841241  0.836554  0.207703  1
  Al  Al8  1  0.995255  0.158759  0.541021  1
  Co  Co9  1  0.644493  0.993981  0.884493  1
  Co  Co10  1  0.803552  0.771329  0.718530  1
  Co  Co11  1  0.228681  0.032257  0.385223  1
  Co  Co12  1  0.349528  0.355528  0.217840  1
  Co  Co13  1  0.967784  0.196450  0.051869  1
  Co  Co14  1  0.006000  0.650507  0.551152  1
  F  F15  1  0.665620  0.085313  0.019376  1
  F  F16  1  0.503640  0.700897  0.925511  1
  F  F17  1  0.419779  0.334412  0.352721  1
  F  F18  1  0.082107  0.422162  0.493715  1
  F  F19  1  0.532024  0.243085  0.179099  1
  F  F20  1  0.917498  0.639826  0.192817  1
  F  F21  1  0.577849  0.659944  0.160386  1
  F  F22  1  0.360235  0.277655  0.859456  1
  F  F23  1  0.711043  0.467975  0.512454  1
  F  F24  1  0.263820  0.333433  0.085380  1
  F  F25  1  0.340076  0.917872  0.827071  1
  F  F26  1  0.914718  0.580318  0.686040  1
  F  F27  1  0.260941  0.001906  0.985667  1
  F  F28  1  0.022153  0.481854  0.024597  1
  F  F29  1  0.740924  0.739115  0.318991  1
  F  F30  1  0.299087  0.802773  0.592153  1
  F  F31  1  0.983401  0.103335  0.913294  1
  F  F32  1  0.069584  0.736178  0.418693  1
  F  F33  1  0.987610  0.078109  0.420060  1
  F  F34  1  0.998218  0.259013  0.652330  1
  F  F35  1  0.090477  0.012190  0.753392  1
  F  F36  1  0.518132  0.540253  0.691292  1
  F  F37  1  0.459684  0.977832  0.357919  1
  F  F38  1  0.119929  0.016687  0.246668  1
  F  F39  1  0.666578  0.930398  0.752027  1
  F  F40  1  0.756919  0.288932  0.845761  1
  F  F41  1  0.197264  0.496339  0.258851  1
  F  F42  1  0.942972  0.741149  0.876379  1
  F  F43  1  0.798155  0.057054  0.209662  1
  F  F44  1  0.921861  0.909575  0.086741  1
  F  F45  1  0.722300  0.082615  0.526147  1
  F  F46  1  0.896571  0.880029  0.579960  1
  F  F47  1  0.258805  0.201723  0.542958  1
