# generated using pymatgen
data_MgSn2O5
_symmetry_space_group_name_H-M   'P 1'
_cell_length_a   3.99653000
_cell_length_b   5.60673109
_cell_length_c   10.35372412
_cell_angle_alpha   90.00000000
_cell_angle_beta   90.00000000
_cell_angle_gamma   110.87955236
_symmetry_Int_Tables_number   1
_chemical_formula_structural   MgSn2O5
_chemical_formula_sum   'Mg2 Sn4 O10'
_cell_volume   216.76566346
_cell_formula_units_Z   2
loop_
 _symmetry_equiv_pos_site_id
 _symmetry_equiv_pos_as_xyz
  1  'x, y, z'
loop_
 _atom_site_type_symbol
 _atom_site_label
 _atom_site_symmetry_multiplicity
 _atom_site_fract_x
 _atom_site_fract_y
 _atom_site_fract_z
 _atom_site_occupancy
  Mg  Mg0  1  0.815578  0.631154  0.750000  1
  Mg  Mg1  1  0.184423  0.368847  0.250000  1
  Sn  Sn2  1  0.136053  0.272105  0.566746  1
  Sn  Sn3  1  0.863948  0.727896  0.433253  1
  Sn  Sn4  1  0.863948  0.727896  0.066747  1
  Sn  Sn5  1  0.136053  0.272105  0.933254  1
  O  O6  1  0.772154  0.544308  0.250000  1
  O  O7  1  0.227847  0.455693  0.750000  1
  O  O8  1  0.302971  0.605941  0.066221  1
  O  O9  1  0.697031  0.394060  0.933779  1
  O  O10  1  0.697031  0.394060  0.566221  1
  O  O11  1  0.302971  0.605941  0.433778  1
  O  O12  1  -0.050660  -0.101319  0.614462  1
  O  O13  1  0.050660  0.101318  0.385538  1
  O  O14  1  -0.050660  -0.101319  0.885538  1
  O  O15  1  0.050660  0.101318  0.114463  1
