# generated using pymatgen
data_Sr2YCu2SnO7
_symmetry_space_group_name_H-M   'P 1'
_cell_length_a   5.48040158
_cell_length_b   5.53149586
_cell_length_c   12.66803626
_cell_angle_alpha   102.56040051
_cell_angle_beta   102.42124603
_cell_angle_gamma   90.06809287
_symmetry_Int_Tables_number   1
_chemical_formula_structural   Sr2YCu2SnO7
_chemical_formula_sum   'Sr4 Y2 Cu4 Sn2 O14'
_cell_volume   365.60062880
_cell_formula_units_Z   2
loop_
 _symmetry_equiv_pos_site_id
 _symmetry_equiv_pos_as_xyz
  1  'x, y, z'
loop_
 _atom_site_type_symbol
 _atom_site_label
 _atom_site_symmetry_multiplicity
 _atom_site_fract_x
 _atom_site_fract_y
 _atom_site_fract_z
 _atom_site_occupancy
  Sr  Sr0  1  0.344616  0.350992  0.719307  1
  Sr  Sr1  1  0.625844  0.651610  0.281409  1
  Sr  Sr2  1  0.844942  0.871304  0.719378  1
  Sr  Sr3  1  0.125254  0.131164  0.281678  1
  Y  Y4  1  0.987325  0.000164  0.000566  1
  Y  Y5  1  0.487768  0.500530  0.000562  1
  Cu  Cu6  1  0.921227  0.437684  0.871468  1
  Cu  Cu7  1  0.050126  0.563810  0.129623  1
  Cu  Cu8  1  0.420937  0.935869  0.871222  1
  Cu  Cu9  1  0.550071  0.066004  0.129629  1
  Sn  Sn10  1  0.266915  0.711675  0.500689  1
  Sn  Sn11  1  0.765981  0.290361  0.500312  1
  O  O12  1  0.143734  0.353949  0.500761  1
  O  O13  1  0.643679  0.648536  0.500697  1
  O  O14  1  0.183098  0.199736  0.879780  1
  O  O15  1  0.303843  0.802025  0.120209  1
  O  O16  1  0.684304  0.183659  0.880860  1
  O  O17  1  0.803961  0.819391  0.121494  1
  O  O18  1  0.665825  0.681175  0.875921  1
  O  O19  1  0.789758  0.321267  0.126009  1
  O  O20  1  0.164370  0.696219  0.874665  1
  O  O21  1  0.289870  0.304325  0.125336  1
  O  O22  1  0.291921  0.866557  0.661957  1
  O  O23  1  0.631574  0.135604  0.338967  1
  O  O24  1  0.789922  0.295095  0.661234  1
  O  O25  1  0.131253  0.705772  0.339678  1
