# generated using pymatgen
data_MgTi2O4
_symmetry_space_group_name_H-M   'P 1'
_cell_length_a   2.91522144
_cell_length_b   7.69513002
_cell_length_c   7.55893373
_cell_angle_alpha   77.11589805
_cell_angle_beta   78.87388453
_cell_angle_gamma   79.07533360
_symmetry_Int_Tables_number   1
_chemical_formula_structural   MgTi2O4
_chemical_formula_sum   'Mg2 Ti4 O8'
_cell_volume   160.28007956
_cell_formula_units_Z   2
loop_
 _symmetry_equiv_pos_site_id
 _symmetry_equiv_pos_as_xyz
  1  'x, y, z'
loop_
 _atom_site_type_symbol
 _atom_site_label
 _atom_site_symmetry_multiplicity
 _atom_site_fract_x
 _atom_site_fract_y
 _atom_site_fract_z
 _atom_site_occupancy
  Mg  Mg0  1  0.332433  0.151441  0.191822  1
  Mg  Mg1  1  0.669995  0.826660  0.841408  1
  Ti  Ti2  1  0.632860  0.170042  0.572013  1
  Ti  Ti3  1  0.144603  0.513795  0.204497  1
  Ti  Ti4  1  0.857311  0.464301  0.828513  1
  Ti  Ti5  1  0.369789  0.808038  0.461027  1
  O  O6  1  0.856432  0.675333  0.620374  1
  O  O7  1  0.468028  0.308395  0.763172  1
  O  O8  1  0.533910  0.669901  0.269669  1
  O  O9  1  0.146169  0.302753  0.412648  1
  O  O10  1  0.171723  0.981202  0.683459  1
  O  O11  1  0.783124  0.344549  0.096999  1
  O  O12  1  0.830785  0.996923  0.349823  1
  O  O13  1  0.219147  0.633468  0.936019  1
