# generated using pymatgen
data_Ta4Mn2Zn3O16
_symmetry_space_group_name_H-M   'P 1'
_cell_length_a   5.20326002
_cell_length_b   5.93104310
_cell_length_c   10.10243869
_cell_angle_alpha   105.04958884
_cell_angle_beta   89.67804466
_cell_angle_gamma   92.61969661
_symmetry_Int_Tables_number   1
_chemical_formula_structural   Ta4Mn2Zn3O16
_chemical_formula_sum   'Ta4 Mn2 Zn3 O16'
_cell_volume   300.75475164
_cell_formula_units_Z   1
loop_
 _symmetry_equiv_pos_site_id
 _symmetry_equiv_pos_as_xyz
  1  'x, y, z'
loop_
 _atom_site_type_symbol
 _atom_site_label
 _atom_site_symmetry_multiplicity
 _atom_site_fract_x
 _atom_site_fract_y
 _atom_site_fract_z
 _atom_site_occupancy
  Ta  Ta0  1  0.742386  0.278859  0.229056  1
  Ta  Ta1  1  0.775565  0.043075  0.762113  1
  Ta  Ta2  1  0.254286  0.728610  0.767940  1
  Ta  Ta3  1  0.236317  0.958530  0.239776  1
  Mn  Mn4  1  0.747734  0.650560  0.000053  1
  Mn  Mn5  1  0.258579  0.347396  0.995496  1
  Zn  Zn6  1  0.762530  0.443555  0.568616  1
  Zn  Zn7  1  0.718234  0.884768  0.445594  1
  Zn  Zn8  1  0.232806  0.545114  0.443479  1
  O  O9  1  0.075212  0.212012  0.133056  1
  O  O10  1  0.445085  0.036818  0.864168  1
  O  O11  1  0.922762  0.798456  0.872275  1
  O  O12  1  0.559312  0.973627  0.134904  1
  O  O13  1  0.583368  0.440391  0.107036  1
  O  O14  1  0.946335  0.306168  0.887263  1
  O  O15  1  0.422357  0.561674  0.893572  1
  O  O16  1  0.053584  0.706515  0.114869  1
  O  O17  1  0.426568  0.274025  0.345300  1
  O  O18  1  0.079790  0.922357  0.663542  1
  O  O19  1  0.364283  0.799588  0.363998  1
  O  O20  1  0.136355  0.471167  0.619926  1
  O  O21  1  0.665105  0.155370  0.612156  1
  O  O22  1  0.852177  0.552372  0.386049  1
  O  O23  1  0.920467  0.078142  0.341615  1
  O  O24  1  0.577403  0.722993  0.652563  1
