# generated using pymatgen
data_Ba2MgMn2CuF14
_symmetry_space_group_name_H-M   'P 1'
_cell_length_a   5.33150906
_cell_length_b   7.47547499
_cell_length_c   14.83557641
_cell_angle_alpha   93.59853005
_cell_angle_beta   89.92608677
_cell_angle_gamma   110.86271575
_symmetry_Int_Tables_number   1
_chemical_formula_structural   Ba2MgMn2CuF14
_chemical_formula_sum   'Ba4 Mg2 Mn4 Cu2 F28'
_cell_volume   551.28377358
_cell_formula_units_Z   2
loop_
 _symmetry_equiv_pos_site_id
 _symmetry_equiv_pos_as_xyz
  1  'x, y, z'
loop_
 _atom_site_type_symbol
 _atom_site_label
 _atom_site_symmetry_multiplicity
 _atom_site_fract_x
 _atom_site_fract_y
 _atom_site_fract_z
 _atom_site_occupancy
  Ba  Ba0  1  0.110845  0.370257  0.626776  1
  Ba  Ba1  1  0.260314  0.368841  0.126617  1
  Ba  Ba2  1  0.891185  0.631783  0.373557  1
  Ba  Ba3  1  0.741413  0.631806  0.873171  1
  Mg  Mg4  1  0.436397  0.004916  0.749827  1
  Mg  Mg5  1  0.565617  0.000525  0.249934  1
  Mn  Mn6  1  0.099166  0.238252  0.873640  1
  Mn  Mn7  1  0.903029  0.761616  0.126495  1
  Mn  Mn8  1  0.141780  0.239480  0.373509  1
  Mn  Mn9  1  0.859925  0.762809  0.626487  1
  Cu  Cu10  1  0.500703  -0.000016  0.999911  1
  Cu  Cu11  1  0.501421  0.001527  0.499756  1
  F  F12  1  0.900657  0.994185  0.338002  1
  F  F13  1  0.880162  0.284525  0.454130  1
  F  F14  1  0.121237  0.718367  0.545845  1
  F  F15  1  0.648293  0.507218  0.597270  1
  F  F16  1  0.603640  0.096595  0.624649  1
  F  F17  1  0.510652  0.907869  0.874502  1
  F  F18  1  0.403519  0.283619  0.954078  1
  F  F19  1  0.905404  0.006709  0.162612  1
  F  F20  1  0.383677  0.321019  0.770664  1
  F  F21  1  0.352310  0.495248  0.402433  1
  F  F22  1  0.813543  0.217946  0.788940  1
  F  F23  1  0.145005  0.494903  0.900720  1
  F  F24  1  0.411158  0.218893  0.289843  1
  F  F25  1  0.191354  0.782527  0.210509  1
  F  F26  1  0.490943  0.093322  0.125181  1
  F  F27  1  0.620982  0.674209  0.229214  1
  F  F28  1  0.129014  0.839224  0.010200  1
  F  F29  1  0.102081  0.008008  0.662160  1
  F  F30  1  0.872296  0.160639  0.989949  1
  F  F31  1  0.713167  0.842619  0.510669  1
  F  F32  1  0.597823  0.716565  0.046082  1
  F  F33  1  0.591364  0.784271  0.709940  1
  F  F34  1  0.948331  0.326132  0.271245  1
  F  F35  1  0.288901  0.160564  0.488816  1
  F  F36  1  0.398895  0.906523  0.374506  1
  F  F37  1  0.094541  0.992273  0.838092  1
  F  F38  1  0.052432  0.674126  0.728541  1
  F  F39  1  0.858258  0.505638  0.098184  1
