# generated using pymatgen
data_Ba2YCr3O7
_symmetry_space_group_name_H-M   'P 1'
_cell_length_a   3.93193073
_cell_length_b   4.03853964
_cell_length_c   11.72901407
_cell_angle_alpha   90.00004671
_cell_angle_beta   90.00022305
_cell_angle_gamma   89.99955908
_symmetry_Int_Tables_number   1
_chemical_formula_structural   Ba2YCr3O7
_chemical_formula_sum   'Ba2 Y1 Cr3 O7'
_cell_volume   186.24804185
_cell_formula_units_Z   1
loop_
 _symmetry_equiv_pos_site_id
 _symmetry_equiv_pos_as_xyz
  1  'x, y, z'
loop_
 _atom_site_type_symbol
 _atom_site_label
 _atom_site_symmetry_multiplicity
 _atom_site_fract_x
 _atom_site_fract_y
 _atom_site_fract_z
 _atom_site_occupancy
  Ba  Ba0  1  0.500013  0.500001  0.818978  1
  Ba  Ba1  1  0.500014  0.500000  0.181048  1
  Y  Y2  1  0.499965  0.499986  0.499948  1
  Cr  Cr3  1  0.999962  0.999980  0.649098  1
  Cr  Cr4  1  0.999980  0.999991  0.350885  1
  Cr  Cr5  1  0.000192  0.000045  0.000041  1
  O  O6  1  0.000025  0.500044  0.999908  1
  O  O7  1  0.499965  0.999984  0.619666  1
  O  O8  1  0.499964  0.999988  0.380459  1
  O  O9  1  0.999959  0.499990  0.621033  1
  O  O10  1  0.999968  0.499990  0.379080  1
  O  O11  1  0.999992  0.000002  0.824416  1
  O  O12  1  0.000000  0.999999  0.175442  1
