# generated using pymatgen
data_CaCuSb2O7
_symmetry_space_group_name_H-M   'P 1'
_cell_length_a   9.21492272
_cell_length_b   10.51164128
_cell_length_c   10.85026759
_cell_angle_alpha   93.99103392
_cell_angle_beta   90.00000000
_cell_angle_gamma   90.00000000
_symmetry_Int_Tables_number   1
_chemical_formula_structural   CaCuSb2O7
_chemical_formula_sum   'Ca6 Cu6 Sb12 O42'
_cell_volume   1048.45118545
_cell_formula_units_Z   6
loop_
 _symmetry_equiv_pos_site_id
 _symmetry_equiv_pos_as_xyz
  1  'x, y, z'
loop_
 _atom_site_type_symbol
 _atom_site_label
 _atom_site_symmetry_multiplicity
 _atom_site_fract_x
 _atom_site_fract_y
 _atom_site_fract_z
 _atom_site_occupancy
  Ca  Ca0  1  0.448885  0.167216  0.574153  1
  Ca  Ca1  1  0.943660  0.500000  0.750000  1
  Ca  Ca2  1  0.448885  0.832784  0.925847  1
  Ca  Ca3  1  0.056340  0.500000  0.250000  1
  Ca  Ca4  1  0.551115  0.832784  0.425847  1
  Ca  Ca5  1  0.551115  0.167216  0.074153  1
  Cu  Cu6  1  0.929337  0.801484  0.409863  1
  Cu  Cu7  1  0.070663  0.198516  0.590137  1
  Cu  Cu8  1  0.432457  0.500000  0.250000  1
  Cu  Cu9  1  0.929337  0.198516  0.090137  1
  Cu  Cu10  1  0.567543  0.500000  0.750000  1
  Cu  Cu11  1  0.070663  0.801484  0.909863  1
  Sb  Sb12  1  0.202503  0.170315  0.293432  1
  Sb  Sb13  1  0.756612  0.157197  0.380896  1
  Sb  Sb14  1  0.243388  0.157197  0.880896  1
  Sb  Sb15  1  0.797497  0.170315  0.793432  1
  Sb  Sb16  1  0.294052  0.484381  0.961599  1
  Sb  Sb17  1  0.756612  0.842803  0.119104  1
  Sb  Sb18  1  0.705948  0.484381  0.461599  1
  Sb  Sb19  1  0.243388  0.842803  0.619104  1
  Sb  Sb20  1  0.294052  0.515619  0.538401  1
  Sb  Sb21  1  0.705948  0.515619  0.038401  1
  Sb  Sb22  1  0.797497  0.829685  0.706568  1
  Sb  Sb23  1  0.202503  0.829685  0.206568  1
  O  O24  1  0.773936  0.202465  0.968583  1
  O  O25  1  0.768754  0.835207  0.294436  1
  O  O26  1  0.876037  -0.000000  0.750000  1
  O  O27  1  0.890763  0.512685  0.104523  1
  O  O28  1  0.391058  0.950289  0.566562  1
  O  O29  1  0.938047  0.271003  0.714157  1
  O  O30  1  0.358960  0.306644  0.942402  1
  O  O31  1  0.109237  0.512685  0.604523  1
  O  O32  1  0.723659  0.473468  0.865047  1
  O  O33  1  0.391058  0.049711  0.933438  1
  O  O34  1  0.723659  0.526532  0.634953  1
  O  O35  1  0.440191  0.576520  0.879886  1
  O  O36  1  0.940050  0.857488  0.042854  1
  O  O37  1  0.061953  0.271003  0.214157  1
  O  O38  1  0.641040  0.693356  0.057598  1
  O  O39  1  0.358960  0.693356  0.557598  1
  O  O40  1  0.938047  0.728997  0.785843  1
  O  O41  1  0.608942  0.049711  0.433438  1
  O  O42  1  0.226064  0.202465  0.468583  1
  O  O43  1  0.559809  0.423480  0.120114  1
  O  O44  1  0.387074  0.812808  0.273531  1
  O  O45  1  0.276341  0.526532  0.134953  1
  O  O46  1  0.059950  0.857488  0.542854  1
  O  O47  1  0.276341  0.473468  0.365047  1
  O  O48  1  0.890763  0.487315  0.395477  1
  O  O49  1  0.559809  0.576520  0.379886  1
  O  O50  1  0.109237  0.487315  0.895477  1
  O  O51  1  0.612926  0.812808  0.773531  1
  O  O52  1  0.612926  0.187192  0.726469  1
  O  O53  1  0.059950  0.142512  0.957146  1
  O  O54  1  0.061953  0.728997  0.285843  1
  O  O55  1  0.773936  0.797535  0.531417  1
  O  O56  1  0.123963  -0.000000  0.250000  1
  O  O57  1  0.231246  0.835207  0.794436  1
  O  O58  1  0.608942  0.950289  0.066562  1
  O  O59  1  0.940050  0.142512  0.457146  1
  O  O60  1  0.226064  0.797535  0.031417  1
  O  O61  1  0.768754  0.164793  0.205564  1
  O  O62  1  0.440191  0.423480  0.620114  1
  O  O63  1  0.641040  0.306644  0.442402  1
  O  O64  1  0.231246  0.164793  0.705564  1
  O  O65  1  0.387074  0.187192  0.226469  1
