# generated using pymatgen
data_Al(FeS2)2
_symmetry_space_group_name_H-M   'P 1'
_cell_length_a   6.89600371
_cell_length_b   6.89600395
_cell_length_c   6.90474174
_cell_angle_alpha   118.66854204
_cell_angle_beta   120.50272928
_cell_angle_gamma   90.65477918
_symmetry_Int_Tables_number   1
_chemical_formula_structural   Al(FeS2)2
_chemical_formula_sum   'Al2 Fe4 S8'
_cell_volume   233.68912748
_cell_formula_units_Z   2
loop_
 _symmetry_equiv_pos_site_id
 _symmetry_equiv_pos_as_xyz
  1  'x, y, z'
loop_
 _atom_site_type_symbol
 _atom_site_label
 _atom_site_symmetry_multiplicity
 _atom_site_fract_x
 _atom_site_fract_y
 _atom_site_fract_z
 _atom_site_occupancy
  Al  Al0  1  0.000000  0.500001  0.000001  1
  Al  Al1  1  0.000001  0.000000  0.500000  1
  Fe  Fe2  1  0.366285  0.616285  0.750000  1
  Fe  Fe3  1  0.633715  0.383716  0.250000  1
  Fe  Fe4  1  0.500001  0.000000  0.500000  1
  Fe  Fe5  1  0.000000  0.000000  0.000000  1
  S  S6  1  0.754963  0.784835  0.531678  1
  S  S7  1  0.753158  0.223287  0.968324  1
  S  S8  1  0.227626  0.237009  0.989481  1
  S  S9  1  0.245037  0.215165  0.468323  1
  S  S10  1  0.252472  0.761854  0.489480  1
  S  S11  1  0.246842  0.776714  0.031678  1
  S  S12  1  0.747527  0.238145  0.510519  1
  S  S13  1  0.772374  0.762992  0.010519  1
