# generated using pymatgen
data_ZnNiBiP2O9
_symmetry_space_group_name_H-M   'P 1'
_cell_length_a   6.69563585
_cell_length_b   8.02697073
_cell_length_c   13.84410234
_cell_angle_alpha   89.95059566
_cell_angle_beta   89.99717134
_cell_angle_gamma   89.96142618
_symmetry_Int_Tables_number   1
_chemical_formula_structural   ZnNiBiP2O9
_chemical_formula_sum   'Zn4 Ni4 Bi4 P8 O36'
_cell_volume   744.06015068
_cell_formula_units_Z   4
loop_
 _symmetry_equiv_pos_site_id
 _symmetry_equiv_pos_as_xyz
  1  'x, y, z'
loop_
 _atom_site_type_symbol
 _atom_site_label
 _atom_site_symmetry_multiplicity
 _atom_site_fract_x
 _atom_site_fract_y
 _atom_site_fract_z
 _atom_site_occupancy
  Zn  Zn0  1  0.750012  0.965600  0.791285  1
  Zn  Zn1  1  0.749868  0.534484  0.291221  1
  Zn  Zn2  1  0.249988  0.034421  0.208724  1
  Zn  Zn3  1  0.250202  0.465531  0.708810  1
  Ni  Ni4  1  0.500029  0.000015  0.999985  1
  Ni  Ni5  1  0.500070  0.499956  0.499994  1
  Ni  Ni6  1  0.999922  0.499905  0.500106  1
  Ni  Ni7  1  0.999972  0.000029  0.999978  1
  Bi  Bi8  1  0.749641  0.359423  0.884079  1
  Bi  Bi9  1  0.250406  0.640592  0.115945  1
  Bi  Bi10  1  0.249793  0.859638  0.616049  1
  Bi  Bi11  1  0.750235  0.140390  0.383921  1
  P  P12  1  0.249793  0.335489  0.902788  1
  P  P13  1  0.750223  0.664543  0.097178  1
  P  P14  1  0.749888  0.835568  0.597010  1
  P  P15  1  0.250138  0.164442  0.402971  1
  P  P16  1  0.750041  0.361554  0.673102  1
  P  P17  1  0.249840  0.638456  0.326955  1
  P  P18  1  0.250109  0.861364  0.826830  1
  P  P19  1  0.749916  0.138691  0.173146  1
  O  O20  1  0.054639  0.639286  0.387198  1
  O  O21  1  0.554970  0.360487  0.612752  1
  O  O22  1  0.944949  0.139694  0.112742  1
  O  O23  1  0.445261  0.860496  0.887031  1
  O  O24  1  0.945324  0.360404  0.612973  1
  O  O25  1  0.445039  0.639538  0.387276  1
  O  O26  1  0.055114  0.860374  0.887235  1
  O  O27  1  0.554740  0.139551  0.112936  1
  O  O28  1  0.250050  0.338184  0.448971  1
  O  O29  1  0.749945  0.661802  0.551032  1
  O  O30  1  0.749915  0.838428  0.051154  1
  O  O31  1  0.250094  0.161590  0.948815  1
  O  O32  1  0.750202  0.079124  0.922117  1
  O  O33  1  0.249812  0.920861  0.077853  1
  O  O34  1  0.250049  0.579526  0.577589  1
  O  O35  1  0.749843  0.420392  0.422454  1
  O  O36  1  0.749938  0.202635  0.738132  1
  O  O37  1  0.249953  0.797377  0.261907  1
  O  O38  1  0.250005  0.702500  0.761824  1
  O  O39  1  0.750001  0.297541  0.238171  1
  O  O40  1  0.425970  0.140243  0.329215  1
  O  O41  1  0.925353  0.859484  0.670990  1
  O  O42  1  0.574821  0.640489  0.171304  1
  O  O43  1  0.073746  0.359677  0.829131  1
  O  O44  1  0.574099  0.859776  0.670771  1
  O  O45  1  0.074698  0.140536  0.328956  1
  O  O46  1  0.425173  0.359531  0.828684  1
  O  O47  1  0.926333  0.640343  0.170832  1
  O  O48  1  0.750259  0.990761  0.246198  1
  O  O49  1  0.249751  0.009258  0.753779  1
  O  O50  1  0.250229  0.490690  0.253943  1
  O  O51  1  0.749713  0.509248  0.745994  1
  O  O52  1  0.750261  0.975239  0.522462  1
  O  O53  1  0.249689  0.024765  0.477511  1
  O  O54  1  0.250276  0.474655  0.977504  1
  O  O55  1  0.749698  0.525423  0.022484  1
