# generated using pymatgen
data_Ca(MoO2)2
_symmetry_space_group_name_H-M   'P 1'
_cell_length_a   3.22245630
_cell_length_b   5.51427436
_cell_length_c   10.51628775
_cell_angle_alpha   90.00000000
_cell_angle_beta   90.00000000
_cell_angle_gamma   106.98924761
_symmetry_Int_Tables_number   1
_chemical_formula_structural   Ca(MoO2)2
_chemical_formula_sum   'Ca2 Mo4 O8'
_cell_volume   178.71421292
_cell_formula_units_Z   2
loop_
 _symmetry_equiv_pos_site_id
 _symmetry_equiv_pos_as_xyz
  1  'x, y, z'
loop_
 _atom_site_type_symbol
 _atom_site_label
 _atom_site_symmetry_multiplicity
 _atom_site_fract_x
 _atom_site_fract_y
 _atom_site_fract_z
 _atom_site_occupancy
  Ca  Ca0  1  0.385019  0.770039  0.750000  1
  Ca  Ca1  1  0.614981  0.229961  0.250000  1
  Mo  Mo2  1  0.867312  0.734625  0.071567  1
  Mo  Mo3  1  0.132688  0.265375  0.928433  1
  Mo  Mo4  1  0.867312  0.734625  0.428433  1
  Mo  Mo5  1  0.132688  0.265375  0.571567  1
  O  O6  1  0.235246  0.470495  0.389233  1
  O  O7  1  0.764754  0.529505  0.610767  1
  O  O8  1  0.764754  0.529505  0.889233  1
  O  O9  1  0.235246  0.470495  0.110767  1
  O  O10  1  0.962028  0.924056  0.250000  1
  O  O11  1  0.037972  0.075944  0.750000  1
  O  O12  1  0.500000  0.000000  0.000000  1
  O  O13  1  0.500000  0.000000  0.500000  1
