# generated using pymatgen
data_ZnCo(Si2O5)2
_symmetry_space_group_name_H-M   'P 1'
_cell_length_a   7.30577502
_cell_length_b   7.30577502
_cell_length_c   14.94198073
_cell_angle_alpha   90.00000000
_cell_angle_beta   90.00000000
_cell_angle_gamma   90.00000000
_symmetry_Int_Tables_number   1
_chemical_formula_structural   ZnCo(Si2O5)2
_chemical_formula_sum   'Zn4 Co4 Si16 O40'
_cell_volume   797.51848890
_cell_formula_units_Z   4
loop_
 _symmetry_equiv_pos_site_id
 _symmetry_equiv_pos_as_xyz
  1  'x, y, z'
loop_
 _atom_site_type_symbol
 _atom_site_label
 _atom_site_symmetry_multiplicity
 _atom_site_fract_x
 _atom_site_fract_y
 _atom_site_fract_z
 _atom_site_occupancy
  Zn  Zn0  1  0.250000  0.750000  0.500000  1
  Zn  Zn1  1  0.750000  0.250000  0.500000  1
  Zn  Zn2  1  0.750000  0.250000  -0.000000  1
  Zn  Zn3  1  0.250000  0.750000  -0.000000  1
  Co  Co4  1  0.250000  0.250000  0.570527  1
  Co  Co5  1  0.750000  0.750000  0.929473  1
  Co  Co6  1  0.750000  0.750000  0.429474  1
  Co  Co7  1  0.250000  0.250000  0.070526  1
  Si  Si8  1  0.910852  0.490184  0.645001  1
  Si  Si9  1  0.589148  0.009816  0.645001  1
  Si  Si10  1  0.990184  0.410852  0.854999  1
  Si  Si11  1  0.490184  0.589148  0.645001  1
  Si  Si12  1  0.009816  0.910852  0.645001  1
  Si  Si13  1  0.089148  0.990184  0.854999  1
  Si  Si14  1  0.410852  0.509816  0.854999  1
  Si  Si15  1  0.509816  0.089148  0.854999  1
  Si  Si16  1  0.089148  0.509816  0.354999  1
  Si  Si17  1  0.410852  0.990184  0.354999  1
  Si  Si18  1  0.009816  0.589148  0.145001  1
  Si  Si19  1  0.509816  0.410852  0.354999  1
  Si  Si20  1  0.990184  0.089148  0.354999  1
  Si  Si21  1  0.910852  0.009816  0.145001  1
  Si  Si22  1  0.589148  0.490184  0.145001  1
  Si  Si23  1  0.490184  0.910852  0.145001  1
  O  O24  1  0.983079  0.335706  0.575779  1
  O  O25  1  0.516921  0.164294  0.575779  1
  O  O26  1  0.835706  0.483079  0.924221  1
  O  O27  1  0.335706  0.516921  0.575779  1
  O  O28  1  0.164294  0.983079  0.575779  1
  O  O29  1  0.016921  0.835706  0.924221  1
  O  O30  1  0.483079  0.664294  0.924221  1
  O  O31  1  0.664294  0.016921  0.924221  1
  O  O32  1  0.016921  0.664294  0.424221  1
  O  O33  1  0.483079  0.835706  0.424221  1
  O  O34  1  0.164294  0.516921  0.075779  1
  O  O35  1  0.664294  0.483079  0.424221  1
  O  O36  1  0.835706  0.016921  0.424221  1
  O  O37  1  0.983079  0.164294  0.075779  1
  O  O38  1  0.516921  0.335706  0.075779  1
  O  O39  1  0.002204  0.308444  0.374080  1
  O  O40  1  0.335706  0.983079  0.075779  1
  O  O41  1  0.502204  0.808444  0.625920  1
  O  O42  1  0.191556  0.497796  0.874080  1
  O  O43  1  0.691556  0.502204  0.625920  1
  O  O44  1  0.808444  0.997796  0.625920  1
  O  O45  1  0.002204  0.191556  0.874080  1
  O  O46  1  0.497796  0.308444  0.874080  1
  O  O47  1  0.308444  0.002204  0.874080  1
  O  O48  1  0.444717  0.944717  0.250000  1
  O  O49  1  0.555283  0.444717  0.250000  1
  O  O50  1  0.944717  0.055284  0.250000  1
  O  O51  1  0.055284  0.555283  0.250000  1
  O  O52  1  0.555283  0.055284  0.750000  1
  O  O53  1  0.444717  0.555283  0.750000  1
  O  O54  1  0.055284  0.944717  0.750000  1
  O  O55  1  0.944717  0.444717  0.750000  1
  O  O56  1  0.691556  0.997796  0.125920  1
  O  O57  1  0.502204  0.691556  0.125920  1
  O  O58  1  0.997796  0.808444  0.125920  1
  O  O59  1  0.191556  0.002204  0.374080  1
  O  O60  1  0.308444  0.497796  0.374080  1
  O  O61  1  0.808444  0.502204  0.125920  1
  O  O62  1  0.497796  0.191556  0.374080  1
  O  O63  1  0.997796  0.691556  0.625920  1
