# generated using pymatgen
data_Sr2Ti2GaO7
_symmetry_space_group_name_H-M   'P 1'
_cell_length_a   5.58911558
_cell_length_b   5.69031819
_cell_length_c   11.61216464
_cell_angle_alpha   104.04273629
_cell_angle_beta   103.65369256
_cell_angle_gamma   90.97307063
_symmetry_Int_Tables_number   1
_chemical_formula_structural   Sr2Ti2GaO7
_chemical_formula_sum   'Sr4 Ti4 Ga2 O14'
_cell_volume   347.06800531
_cell_formula_units_Z   2
loop_
 _symmetry_equiv_pos_site_id
 _symmetry_equiv_pos_as_xyz
  1  'x, y, z'
loop_
 _atom_site_type_symbol
 _atom_site_label
 _atom_site_symmetry_multiplicity
 _atom_site_fract_x
 _atom_site_fract_y
 _atom_site_fract_z
 _atom_site_occupancy
  Sr  Sr0  1  0.141807  0.163743  0.294450  1
  Sr  Sr1  1  0.847242  0.839803  0.706045  1
  Sr  Sr2  1  0.641317  0.632133  0.293989  1
  Sr  Sr3  1  0.347421  0.370901  0.705645  1
  Ti  Ti4  1  0.405047  0.934102  0.849278  1
  Ti  Ti5  1  0.055236  0.581638  0.150565  1
  Ti  Ti6  1  0.905879  0.432476  0.850595  1
  Ti  Ti7  1  0.555255  0.078456  0.149621  1
  Ga  Ga8  1  0.209649  0.827722  0.500055  1
  Ga  Ga9  1  0.711433  0.171087  0.499966  1
  O  O10  1  0.833424  0.327457  0.144300  1
  O  O11  1  0.874111  0.880487  0.499989  1
  O  O12  1  0.335080  0.308727  0.144240  1
  O  O13  1  0.852441  0.370548  0.655794  1
  O  O14  1  0.680360  0.173117  0.839788  1
  O  O15  1  0.182001  0.162575  0.839417  1
  O  O16  1  0.374501  0.121162  0.500029  1
  O  O17  1  0.188410  0.685162  0.855739  1
  O  O18  1  0.690090  0.666759  0.855842  1
  O  O19  1  0.350143  0.783980  0.655321  1
  O  O20  1  0.195417  0.627798  0.344837  1
  O  O21  1  0.697014  0.213622  0.344066  1
  O  O22  1  0.843213  0.821222  0.160543  1
  O  O23  1  0.341441  0.831425  0.160353  1
