# generated using pymatgen
data_Ca(CoO2)4
_symmetry_space_group_name_H-M   'P 1'
_cell_length_a   2.90871989
_cell_length_b   6.49868059
_cell_length_c   6.87008482
_cell_angle_alpha   82.52020096
_cell_angle_beta   77.77929544
_cell_angle_gamma   77.06739536
_symmetry_Int_Tables_number   1
_chemical_formula_structural   Ca(CoO2)4
_chemical_formula_sum   'Ca1 Co4 O8'
_cell_volume   123.23359715
_cell_formula_units_Z   1
loop_
 _symmetry_equiv_pos_site_id
 _symmetry_equiv_pos_as_xyz
  1  'x, y, z'
loop_
 _atom_site_type_symbol
 _atom_site_label
 _atom_site_symmetry_multiplicity
 _atom_site_fract_x
 _atom_site_fract_y
 _atom_site_fract_z
 _atom_site_occupancy
  Ca  Ca0  1  0.468016  0.012739  0.051370  1
  Co  Co1  1  0.627891  0.182406  0.561940  1
  Co  Co2  1  0.149583  0.488156  0.212782  1
  Co  Co3  1  0.821177  0.506429  0.851319  1
  Co  Co4  1  0.343079  0.812106  0.501960  1
  O  O5  1  0.849190  0.675103  0.626768  1
  O  O6  1  0.439848  0.336851  0.783547  1
  O  O7  1  0.531906  0.656321  0.279974  1
  O  O8  1  0.120236  0.320820  0.438797  1
  O  O9  1  0.143381  0.021265  0.692163  1
  O  O10  1  0.785925  0.330673  0.097571  1
  O  O11  1  0.829850  0.974241  0.366166  1
  O  O12  1  0.187401  0.658995  0.966289  1
