# generated using pymatgen
data_Ca(CoS2)2
_symmetry_space_group_name_H-M   'P 1'
_cell_length_a   7.06515360
_cell_length_b   7.06515473
_cell_length_c   7.21110128
_cell_angle_alpha   119.33271809
_cell_angle_beta   119.33272175
_cell_angle_gamma   89.99999367
_symmetry_Int_Tables_number   1
_chemical_formula_structural   Ca(CoS2)2
_chemical_formula_sum   'Ca2 Co4 S8'
_cell_volume   259.57385494
_cell_formula_units_Z   2
loop_
 _symmetry_equiv_pos_site_id
 _symmetry_equiv_pos_as_xyz
  1  'x, y, z'
loop_
 _atom_site_type_symbol
 _atom_site_label
 _atom_site_symmetry_multiplicity
 _atom_site_fract_x
 _atom_site_fract_y
 _atom_site_fract_z
 _atom_site_occupancy
  Ca  Ca0  1  0.375000  0.625000  0.750000  1
  Ca  Ca1  1  0.625000  0.375000  0.250000  1
  Co  Co2  1  0.000000  0.000000  0.500000  1
  Co  Co3  1  0.000000  0.500000  0.000000  1
  Co  Co4  1  0.500000  0.000000  0.500000  1
  Co  Co5  1  0.000000  0.000000  0.000000  1
  S  S6  1  0.778527  0.821484  0.557054  1
  S  S7  1  0.764431  0.221473  0.942946  1
  S  S8  1  0.178516  0.221473  0.942946  1
  S  S9  1  0.221473  0.178516  0.442946  1
  S  S10  1  0.221473  0.764431  0.442946  1
  S  S11  1  0.235569  0.778527  0.057054  1
  S  S12  1  0.778527  0.235569  0.557054  1
  S  S13  1  0.821484  0.778527  0.057054  1
