# generated using pymatgen
data_BaSn4O7
_symmetry_space_group_name_H-M   'P 1'
_cell_length_a   7.18156356
_cell_length_b   7.18156304
_cell_length_c   13.00329287
_cell_angle_alpha   90.00000000
_cell_angle_beta   90.00000000
_cell_angle_gamma   120.00000657
_symmetry_Int_Tables_number   1
_chemical_formula_structural   BaSn4O7
_chemical_formula_sum   'Ba2 Sn8 O14'
_cell_volume   580.79374802
_cell_formula_units_Z   2
loop_
 _symmetry_equiv_pos_site_id
 _symmetry_equiv_pos_as_xyz
  1  'x, y, z'
loop_
 _atom_site_type_symbol
 _atom_site_label
 _atom_site_symmetry_multiplicity
 _atom_site_fract_x
 _atom_site_fract_y
 _atom_site_fract_z
 _atom_site_occupancy
  Ba  Ba0  1  0.666667  0.333333  0.422242  1
  Ba  Ba1  1  0.333333  0.666667  0.922242  1
  Sn  Sn2  1  0.831529  0.168472  0.190245  1
  Sn  Sn3  1  0.663057  0.831528  0.690246  1
  Sn  Sn4  1  0.168472  0.336943  0.690246  1
  Sn  Sn5  1  0.831529  0.663057  0.190245  1
  Sn  Sn6  1  0.336942  0.168472  0.190245  1
  Sn  Sn7  1  0.168472  0.831528  0.690246  1
  Sn  Sn8  1  0.000000  0.000000  0.465725  1
  Sn  Sn9  1  0.000000  0.000000  0.965725  1
  O  O10  1  0.847271  0.152730  0.038038  1
  O  O11  1  0.694543  0.847270  0.538037  1
  O  O12  1  0.152729  0.305456  0.538037  1
  O  O13  1  0.847272  0.694544  0.038038  1
  O  O14  1  0.305456  0.152730  0.038038  1
  O  O15  1  0.152729  0.847270  0.538037  1
  O  O16  1  0.000000  0.000000  0.723494  1
  O  O17  1  0.000000  0.000000  0.223495  1
  O  O18  1  0.530070  0.469932  0.252581  1
  O  O19  1  0.060138  0.530070  0.752581  1
  O  O20  1  0.469931  0.939862  0.752581  1
  O  O21  1  0.530070  0.060138  0.252581  1
  O  O22  1  0.469932  0.530070  0.752581  1
  O  O23  1  0.939862  0.469932  0.252581  1
