# generated using pymatgen
data_ZnMoO3
_symmetry_space_group_name_H-M   'P 1'
_cell_length_a   5.31391445
_cell_length_b   5.33854321
_cell_length_c   7.97055033
_cell_angle_alpha   90.00139779
_cell_angle_beta   89.99945228
_cell_angle_gamma   90.00003712
_symmetry_Int_Tables_number   1
_chemical_formula_structural   ZnMoO3
_chemical_formula_sum   'Zn4 Mo4 O12'
_cell_volume   226.11305042
_cell_formula_units_Z   4
loop_
 _symmetry_equiv_pos_site_id
 _symmetry_equiv_pos_as_xyz
  1  'x, y, z'
loop_
 _atom_site_type_symbol
 _atom_site_label
 _atom_site_symmetry_multiplicity
 _atom_site_fract_x
 _atom_site_fract_y
 _atom_site_fract_z
 _atom_site_occupancy
  Zn  Zn0  1  0.016507  0.021875  0.250015  1
  Zn  Zn1  1  0.516519  0.478131  0.749999  1
  Zn  Zn2  1  0.483481  0.521870  0.250001  1
  Zn  Zn3  1  0.983493  0.978125  0.749985  1
  Mo  Mo4  1  0.500000  1.000000  1.000000  1
  Mo  Mo5  1  0.000000  0.500000  1.000000  1
  Mo  Mo6  1  1.000000  0.500000  0.500000  1
  Mo  Mo7  1  0.500000  0.000000  0.500000  1
  O  O8  1  0.882462  0.597552  0.750003  1
  O  O9  1  0.382456  0.902452  0.250000  1
  O  O10  1  0.617544  0.097548  0.750000  1
  O  O11  1  0.117538  0.402448  0.249997  1
  O  O12  1  0.663826  0.324581  0.431311  1
  O  O13  1  0.163825  0.175420  0.568685  1
  O  O14  1  0.836163  0.824578  0.068701  1
  O  O15  1  0.336172  0.675415  0.931305  1
  O  O16  1  0.663828  0.324585  0.068695  1
  O  O17  1  0.163836  0.175422  0.931299  1
  O  O18  1  0.336174  0.675420  0.568689  1
  O  O19  1  0.836176  0.824580  0.431315  1
