# generated using pymatgen
data_TiZnCu(PO4)3
_symmetry_space_group_name_H-M   'P 1'
_cell_length_a   8.51200128
_cell_length_b   8.51200130
_cell_length_c   8.51200133
_cell_angle_alpha   60.70418951
_cell_angle_beta   60.70419324
_cell_angle_gamma   60.70419632
_symmetry_Int_Tables_number   1
_chemical_formula_structural   TiZnCu(PO4)3
_chemical_formula_sum   'Ti2 Zn2 Cu2 P6 O24'
_cell_volume   443.02491471
_cell_formula_units_Z   2
loop_
 _symmetry_equiv_pos_site_id
 _symmetry_equiv_pos_as_xyz
  1  'x, y, z'
loop_
 _atom_site_type_symbol
 _atom_site_label
 _atom_site_symmetry_multiplicity
 _atom_site_fract_x
 _atom_site_fract_y
 _atom_site_fract_z
 _atom_site_occupancy
  Ti  Ti0  1  0.143289  0.143289  0.143289  1
  Ti  Ti1  1  0.643289  0.643289  0.643289  1
  Zn  Zn2  1  0.995953  0.995953  0.995953  1
  Zn  Zn3  1  0.495953  0.495953  0.495953  1
  Cu  Cu4  1  0.354924  0.354924  0.354924  1
  Cu  Cu5  1  0.854924  0.854924  0.854924  1
  P  P6  1  0.044783  0.457053  0.750082  1
  P  P7  1  0.457053  0.750082  0.044783  1
  P  P8  1  0.750082  0.044783  0.457053  1
  P  P9  1  0.250082  0.957053  0.544783  1
  P  P10  1  0.544783  0.250082  0.957053  1
  P  P11  1  0.957053  0.544783  0.250082  1
  O  O12  1  0.113623  0.517309  0.308208  1
  O  O13  1  0.308208  0.113623  0.517309  1
  O  O14  1  0.054608  0.259395  0.913247  1
  O  O15  1  0.517309  0.308208  0.113623  1
  O  O16  1  0.017309  0.613623  0.808208  1
  O  O17  1  0.239382  0.441549  0.586059  1
  O  O18  1  0.259395  0.913247  0.054608  1
  O  O19  1  0.441549  0.586059  0.239382  1
  O  O20  1  0.189619  0.002726  0.378188  1
  O  O21  1  0.586059  0.239382  0.441549  1
  O  O22  1  0.086059  0.941549  0.739382  1
  O  O23  1  0.378188  0.189619  0.002726  1
  O  O24  1  0.613623  0.808208  0.017309  1
  O  O25  1  0.913247  0.054608  0.259395  1
  O  O26  1  0.413247  0.759395  0.554608  1
  O  O27  1  0.808208  0.017309  0.613623  1
  O  O28  1  0.554608  0.413247  0.759395  1
  O  O29  1  0.739382  0.086059  0.941549  1
  O  O30  1  0.759395  0.554608  0.413247  1
  O  O31  1  0.002726  0.378188  0.189619  1
  O  O32  1  0.502726  0.689619  0.878188  1
  O  O33  1  0.941549  0.739382  0.086059  1
  O  O34  1  0.689619  0.878188  0.502726  1
  O  O35  1  0.878188  0.502726  0.689619  1
