# generated using pymatgen
data_Al2(BiO3)3
_symmetry_space_group_name_H-M   'P 1'
_cell_length_a   12.66851307
_cell_length_b   3.63748201
_cell_length_c   3.63746922
_cell_angle_alpha   89.99999606
_cell_angle_beta   89.99999551
_cell_angle_gamma   89.99978085
_symmetry_Int_Tables_number   1
_chemical_formula_structural   Al2(BiO3)3
_chemical_formula_sum   'Al2 Bi3 O9'
_cell_volume   167.61999561
_cell_formula_units_Z   1
loop_
 _symmetry_equiv_pos_site_id
 _symmetry_equiv_pos_as_xyz
  1  'x, y, z'
loop_
 _atom_site_type_symbol
 _atom_site_label
 _atom_site_symmetry_multiplicity
 _atom_site_fract_x
 _atom_site_fract_y
 _atom_site_fract_z
 _atom_site_occupancy
  Al  Al0  1  0.166935  0.500001  0.499999  1
  Al  Al1  1  0.499819  0.499999  0.500000  1
  Bi  Bi2  1  0.964192  0.000001  0.000002  1
  Bi  Bi3  1  0.333718  0.000001  0.000003  1
  Bi  Bi4  1  0.702647  0.999999  1.000000  1
  O  O5  1  0.183449  -0.000002  0.499999  1
  O  O6  1  0.482951  1.000000  0.499999  1
  O  O7  1  0.833343  -0.000000  0.500000  1
  O  O8  1  0.183449  0.499999  0.000000  1
  O  O9  1  0.482951  0.499999  -0.000001  1
  O  O10  1  0.833343  0.500001  0.000000  1
  O  O11  1  0.018345  0.500001  0.499999  1
  O  O12  1  0.333196  0.499999  0.499999  1
  O  O13  1  0.648330  0.500001  0.500000  1
