# generated using pymatgen
data_ZnCr2CuO7
_symmetry_space_group_name_H-M   'P 1'
_cell_length_a   8.38315523
_cell_length_b   10.20683806
_cell_length_c   10.24793522
_cell_angle_alpha   94.46421503
_cell_angle_beta   90.00000000
_cell_angle_gamma   90.00000000
_symmetry_Int_Tables_number   1
_chemical_formula_structural   ZnCr2CuO7
_chemical_formula_sum   'Zn6 Cr12 Cu6 O42'
_cell_volume   874.20948340
_cell_formula_units_Z   6
loop_
 _symmetry_equiv_pos_site_id
 _symmetry_equiv_pos_as_xyz
  1  'x, y, z'
loop_
 _atom_site_type_symbol
 _atom_site_label
 _atom_site_symmetry_multiplicity
 _atom_site_fract_x
 _atom_site_fract_y
 _atom_site_fract_z
 _atom_site_occupancy
  Zn  Zn0  1  0.431605  0.135247  0.572207  1
  Zn  Zn1  1  0.922934  0.500000  0.750000  1
  Zn  Zn2  1  0.431605  0.864753  0.927793  1
  Zn  Zn3  1  0.077066  0.500000  0.250000  1
  Zn  Zn4  1  0.568395  0.864753  0.427793  1
  Zn  Zn5  1  0.568395  0.135247  0.072207  1
  Cr  Cr6  1  0.229552  0.164658  0.286578  1
  Cr  Cr7  1  0.742862  0.168409  0.376716  1
  Cr  Cr8  1  0.257138  0.168409  0.876716  1
  Cr  Cr9  1  0.770448  0.164658  0.786578  1
  Cr  Cr10  1  0.269457  0.484541  0.956841  1
  Cr  Cr11  1  0.742862  0.831591  0.123284  1
  Cr  Cr12  1  0.730543  0.484541  0.456841  1
  Cr  Cr13  1  0.257138  0.831591  0.623284  1
  Cr  Cr14  1  0.269457  0.515459  0.543159  1
  Cr  Cr15  1  0.730543  0.515459  0.043159  1
  Cr  Cr16  1  0.770448  0.835342  0.713422  1
  Cr  Cr17  1  0.229552  0.835342  0.213422  1
  Cu  Cu18  1  0.935559  0.807156  0.409659  1
  Cu  Cu19  1  0.064441  0.192844  0.590341  1
  Cu  Cu20  1  0.444709  0.500000  0.250000  1
  Cu  Cu21  1  0.935559  0.192844  0.090341  1
  Cu  Cu22  1  0.555291  0.500000  0.750000  1
  Cu  Cu23  1  0.064441  0.807156  0.909659  1
  O  O24  1  0.757336  0.188853  0.956291  1
  O  O25  1  0.757416  0.839011  0.292189  1
  O  O26  1  0.839880  -0.000000  0.750000  1
  O  O27  1  0.907016  0.500100  0.113689  1
  O  O28  1  0.404876  0.932910  0.567567  1
  O  O29  1  0.915860  0.262221  0.722370  1
  O  O30  1  0.344206  0.320868  0.927774  1
  O  O31  1  0.092984  0.500100  0.613689  1
  O  O32  1  0.731842  0.483120  0.874159  1
  O  O33  1  0.404876  0.067090  0.932433  1
  O  O34  1  0.731842  0.516880  0.625841  1
  O  O35  1  0.408563  0.572364  0.879905  1
  O  O36  1  0.915399  0.855679  0.045681  1
  O  O37  1  0.084140  0.262221  0.222370  1
  O  O38  1  0.655794  0.679132  0.072226  1
  O  O39  1  0.344206  0.679132  0.572226  1
  O  O40  1  0.915860  0.737779  0.777630  1
  O  O41  1  0.595124  0.067090  0.432433  1
  O  O42  1  0.242664  0.188853  0.456291  1
  O  O43  1  0.591437  0.427636  0.120095  1
  O  O44  1  0.400191  0.812202  0.291427  1
  O  O45  1  0.268158  0.516880  0.125841  1
  O  O46  1  0.084601  0.855679  0.545681  1
  O  O47  1  0.268158  0.483120  0.374159  1
  O  O48  1  0.907016  0.499900  0.386311  1
  O  O49  1  0.591437  0.572364  0.379905  1
  O  O50  1  0.092984  0.499900  0.886311  1
  O  O51  1  0.599809  0.812202  0.791427  1
  O  O52  1  0.599809  0.187798  0.708573  1
  O  O53  1  0.084601  0.144321  0.954319  1
  O  O54  1  0.084140  0.737779  0.277630  1
  O  O55  1  0.757336  0.811147  0.543709  1
  O  O56  1  0.160120  -0.000000  0.250000  1
  O  O57  1  0.242584  0.839011  0.792189  1
  O  O58  1  0.595124  0.932910  0.067567  1
  O  O59  1  0.915399  0.144321  0.454319  1
  O  O60  1  0.242664  0.811147  0.043709  1
  O  O61  1  0.757416  0.160989  0.207811  1
  O  O62  1  0.408563  0.427636  0.620095  1
  O  O63  1  0.655794  0.320868  0.427774  1
  O  O64  1  0.242584  0.160989  0.707811  1
  O  O65  1  0.400191  0.187798  0.208573  1
