# generated using pymatgen
data_Ge2MoO6
_symmetry_space_group_name_H-M   'P 1'
_cell_length_a   5.57992963
_cell_length_b   9.29059551
_cell_length_c   10.43685461
_cell_angle_alpha   90.00000000
_cell_angle_beta   105.94293601
_cell_angle_gamma   90.00000000
_symmetry_Int_Tables_number   1
_chemical_formula_structural   Ge2MoO6
_chemical_formula_sum   'Ge8 Mo4 O24'
_cell_volume   520.24431183
_cell_formula_units_Z   4
loop_
 _symmetry_equiv_pos_site_id
 _symmetry_equiv_pos_as_xyz
  1  'x, y, z'
loop_
 _atom_site_type_symbol
 _atom_site_label
 _atom_site_symmetry_multiplicity
 _atom_site_fract_x
 _atom_site_fract_y
 _atom_site_fract_z
 _atom_site_occupancy
  Ge  Ge0  1  0.848536  0.330493  0.051182  1
  Ge  Ge1  1  0.651464  0.830493  0.948818  1
  Ge  Ge2  1  0.151464  0.669507  0.948818  1
  Ge  Ge3  1  0.348536  0.169507  0.051182  1
  Ge  Ge4  1  0.118815  0.341596  0.470513  1
  Ge  Ge5  1  0.381185  0.841596  0.529487  1
  Ge  Ge6  1  0.881185  0.658404  0.529487  1
  Ge  Ge7  1  0.618815  0.158404  0.470513  1
  Mo  Mo8  1  0.980697  0.645023  0.240890  1
  Mo  Mo9  1  0.519303  0.145023  0.759110  1
  Mo  Mo10  1  0.019303  0.354977  0.759110  1
  Mo  Mo11  1  0.480697  0.854977  0.240890  1
  O  O12  1  0.351727  0.262546  0.405337  1
  O  O13  1  0.148273  0.762546  0.594663  1
  O  O14  1  0.648273  0.737454  0.594663  1
  O  O15  1  0.851727  0.237454  0.405337  1
  O  O16  1  0.170906  0.296279  0.110997  1
  O  O17  1  0.329094  0.796279  0.889003  1
  O  O18  1  0.829094  0.703721  0.889004  1
  O  O19  1  0.670906  0.203721  0.110996  1
  O  O20  1  0.611529  0.980972  0.406767  1
  O  O21  1  0.888471  0.480972  0.593233  1
  O  O22  1  0.388471  0.019028  0.593233  1
  O  O23  1  0.111529  0.519028  0.406767  1
  O  O24  1  0.303957  0.997611  0.110217  1
  O  O25  1  0.196043  0.497611  0.889783  1
  O  O26  1  0.696043  0.002389  0.889783  1
  O  O27  1  0.803957  0.502389  0.110217  1
  O  O28  1  0.758577  0.317620  0.871674  1
  O  O29  1  0.741423  0.817620  0.128326  1
  O  O30  1  0.241423  0.682380  0.128326  1
  O  O31  1  0.258577  0.182380  0.871674  1
  O  O32  1  0.256235  0.305043  0.651252  1
  O  O33  1  0.243765  0.805043  0.348748  1
  O  O34  1  0.743765  0.694957  0.348748  1
  O  O35  1  0.756235  0.194957  0.651252  1
