# generated using pymatgen
data_NiO2
_symmetry_space_group_name_H-M   'P 1'
_cell_length_a   5.05961884
_cell_length_b   5.05961878
_cell_length_c   5.05961919
_cell_angle_alpha   32.12392324
_cell_angle_beta   32.12392704
_cell_angle_gamma   32.12392367
_symmetry_Int_Tables_number   1
_chemical_formula_structural   NiO2
_chemical_formula_sum   'Ni1 O2'
_cell_volume   32.54703370
_cell_formula_units_Z   1
loop_
 _symmetry_equiv_pos_site_id
 _symmetry_equiv_pos_as_xyz
  1  'x, y, z'
loop_
 _atom_site_type_symbol
 _atom_site_label
 _atom_site_symmetry_multiplicity
 _atom_site_fract_x
 _atom_site_fract_y
 _atom_site_fract_z
 _atom_site_occupancy
  Ni  Ni0  1  0.000000  0.000000  0.000000  1
  O  O1  1  0.267960  0.267958  0.267959  1
  O  O2  1  0.732043  0.732040  0.732041  1
