# generated using pymatgen
data_CaV(SiO3)2
_symmetry_space_group_name_H-M   'P 1'
_cell_length_a   5.39261431
_cell_length_b   9.60854097
_cell_length_c   19.47755343
_cell_angle_alpha   90.00000000
_cell_angle_beta   90.00000000
_cell_angle_gamma   90.00000000
_symmetry_Int_Tables_number   1
_chemical_formula_structural   CaV(SiO3)2
_chemical_formula_sum   'Ca8 V8 Si16 O48'
_cell_volume   1009.23246038
_cell_formula_units_Z   8
loop_
 _symmetry_equiv_pos_site_id
 _symmetry_equiv_pos_as_xyz
  1  'x, y, z'
loop_
 _atom_site_type_symbol
 _atom_site_label
 _atom_site_symmetry_multiplicity
 _atom_site_fract_x
 _atom_site_fract_y
 _atom_site_fract_z
 _atom_site_occupancy
  Ca  Ca0  1  0.631889  0.146561  0.621673  1
  Ca  Ca1  1  0.368111  0.853439  0.378327  1
  Ca  Ca2  1  0.631889  0.646561  0.878327  1
  Ca  Ca3  1  0.131889  0.853439  0.878327  1
  Ca  Ca4  1  0.868111  0.146561  0.121673  1
  Ca  Ca5  1  0.368111  0.353439  0.121673  1
  Ca  Ca6  1  0.131889  0.353439  0.621673  1
  Ca  Ca7  1  0.868111  0.646561  0.378327  1
  V  V8  1  0.357584  0.977082  0.126848  1
  V  V9  1  0.642416  0.022918  0.873152  1
  V  V10  1  0.857584  0.022918  0.373152  1
  V  V11  1  0.142416  0.977082  0.626848  1
  V  V12  1  0.357584  0.477082  0.373152  1
  V  V13  1  0.642416  0.522918  0.626848  1
  V  V14  1  0.857584  0.522918  0.126848  1
  V  V15  1  0.142416  0.477082  0.873152  1
  Si  Si16  1  0.542311  0.662797  0.229647  1
  Si  Si17  1  0.733582  0.835377  0.522878  1
  Si  Si18  1  0.766418  0.835377  0.022878  1
  Si  Si19  1  0.957689  0.162797  0.770353  1
  Si  Si20  1  0.042311  0.337203  0.270353  1
  Si  Si21  1  0.457689  0.837203  0.729647  1
  Si  Si22  1  0.233583  0.664623  0.522878  1
  Si  Si23  1  0.733582  0.335377  0.977122  1
  Si  Si24  1  0.766418  0.335377  0.477122  1
  Si  Si25  1  0.957689  0.662797  0.729647  1
  Si  Si26  1  0.457689  0.337203  0.770353  1
  Si  Si27  1  0.542311  0.162797  0.270353  1
  Si  Si28  1  0.266417  0.164623  0.477122  1
  Si  Si29  1  0.042311  0.837203  0.229647  1
  Si  Si30  1  0.266417  0.664623  0.022878  1
  Si  Si31  1  0.233583  0.164623  0.977122  1
  O  O32  1  0.964047  0.517877  0.688676  1
  O  O33  1  0.316557  0.031237  0.933565  1
  O  O34  1  0.035953  0.482123  0.311324  1
  O  O35  1  0.737180  0.351997  0.060789  1
  O  O36  1  0.237180  0.148003  0.060789  1
  O  O37  1  0.936646  0.207250  0.955879  1
  O  O38  1  0.983866  0.651020  0.812707  1
  O  O39  1  0.016134  0.848980  0.312707  1
  O  O40  1  0.737180  0.851997  0.439211  1
  O  O41  1  0.983866  0.151020  0.687293  1
  O  O42  1  0.464047  0.482123  0.811324  1
  O  O43  1  0.762820  0.351997  0.560789  1
  O  O44  1  0.683443  0.968763  0.066435  1
  O  O45  1  0.483866  0.848980  0.812707  1
  O  O46  1  0.535953  0.017877  0.311324  1
  O  O47  1  0.316557  0.531237  0.566435  1
  O  O48  1  0.464047  0.982123  0.688676  1
  O  O49  1  0.175213  0.776894  0.703386  1
  O  O50  1  0.324787  0.776894  0.203386  1
  O  O51  1  0.563354  0.707250  0.044121  1
  O  O52  1  0.762820  0.851997  0.939211  1
  O  O53  1  0.516134  0.651020  0.312707  1
  O  O54  1  0.816557  0.468763  0.933565  1
  O  O55  1  0.175213  0.276894  0.796614  1
  O  O56  1  0.262820  0.148003  0.560789  1
  O  O57  1  0.516134  0.151020  0.187293  1
  O  O58  1  0.683443  0.468763  0.433565  1
  O  O59  1  0.237180  0.648003  0.439211  1
  O  O60  1  0.183443  0.531237  0.066435  1
  O  O61  1  0.675213  0.723106  0.703386  1
  O  O62  1  0.035953  0.982123  0.188676  1
  O  O63  1  0.824787  0.723106  0.203386  1
  O  O64  1  0.824787  0.223106  0.296614  1
  O  O65  1  0.816557  0.968763  0.566435  1
  O  O66  1  0.262820  0.648003  0.939211  1
  O  O67  1  0.183443  0.031237  0.433565  1
  O  O68  1  0.324787  0.276894  0.296614  1
  O  O69  1  0.063354  0.792750  0.044121  1
  O  O70  1  0.436646  0.792750  0.544121  1
  O  O71  1  0.675213  0.223106  0.796614  1
  O  O72  1  0.436646  0.292750  0.955879  1
  O  O73  1  0.563354  0.207250  0.455879  1
  O  O74  1  0.063354  0.292750  0.455879  1
  O  O75  1  0.483866  0.348980  0.687293  1
  O  O76  1  0.535953  0.517877  0.188676  1
  O  O77  1  0.936646  0.707250  0.544121  1
  O  O78  1  0.016134  0.348980  0.187293  1
  O  O79  1  0.964047  0.017877  0.811324  1
