# generated using pymatgen
data_Ti2Zn(PO4)3
_symmetry_space_group_name_H-M   'P 1'
_cell_length_a   8.56747521
_cell_length_b   8.56747502
_cell_length_c   8.56747524
_cell_angle_alpha   60.84559654
_cell_angle_beta   60.84559750
_cell_angle_gamma   60.84559749
_symmetry_Int_Tables_number   1
_chemical_formula_structural   Ti2Zn(PO4)3
_chemical_formula_sum   'Ti4 Zn2 P6 O24'
_cell_volume   453.15440624
_cell_formula_units_Z   2
loop_
 _symmetry_equiv_pos_site_id
 _symmetry_equiv_pos_as_xyz
  1  'x, y, z'
loop_
 _atom_site_type_symbol
 _atom_site_label
 _atom_site_symmetry_multiplicity
 _atom_site_fract_x
 _atom_site_fract_y
 _atom_site_fract_z
 _atom_site_occupancy
  Ti  Ti0  1  0.354880  0.354880  0.354880  1
  Ti  Ti1  1  0.854880  0.854880  0.854880  1
  Ti  Ti2  1  0.145190  0.145190  0.145190  1
  Ti  Ti3  1  0.645190  0.645190  0.645190  1
  Zn  Zn4  1  0.000007  0.000007  0.000007  1
  Zn  Zn5  1  0.500007  0.500007  0.500007  1
  P  P6  1  0.045431  0.454444  0.750128  1
  P  P7  1  0.454444  0.750128  0.045431  1
  P  P8  1  0.750128  0.045431  0.454444  1
  P  P9  1  0.250128  0.954444  0.545431  1
  P  P10  1  0.545431  0.250128  0.954444  1
  P  P11  1  0.954444  0.545431  0.250128  1
  O  O12  1  0.114888  0.501506  0.314426  1
  O  O13  1  0.314426  0.114888  0.501506  1
  O  O14  1  0.058512  0.260255  0.912191  1
  O  O15  1  0.501506  0.314426  0.114888  1
  O  O16  1  0.001506  0.614888  0.814426  1
  O  O17  1  0.240237  0.440069  0.588898  1
  O  O18  1  0.260255  0.912191  0.058512  1
  O  O19  1  0.440069  0.588898  0.240237  1
  O  O20  1  0.185077  0.998334  0.385526  1
  O  O21  1  0.588898  0.240237  0.440069  1
  O  O22  1  0.088898  0.940069  0.740237  1
  O  O23  1  0.385526  0.185077  0.998334  1
  O  O24  1  0.614888  0.814426  0.001506  1
  O  O25  1  0.912191  0.058512  0.260255  1
  O  O26  1  0.412191  0.760255  0.558512  1
  O  O27  1  0.814426  0.001506  0.614888  1
  O  O28  1  0.558512  0.412191  0.760255  1
  O  O29  1  0.740237  0.088898  0.940069  1
  O  O30  1  0.760255  0.558512  0.412191  1
  O  O31  1  0.998334  0.385526  0.185077  1
  O  O32  1  0.498334  0.685077  0.885526  1
  O  O33  1  0.940069  0.740237  0.088898  1
  O  O34  1  0.685077  0.885526  0.498334  1
  O  O35  1  0.885526  0.498334  0.685077  1
