# generated using pymatgen
data_CrWO6
_symmetry_space_group_name_H-M   'P 1'
_cell_length_a   5.05080982
_cell_length_b   5.20522608
_cell_length_c   7.25055671
_cell_angle_alpha   90.00000000
_cell_angle_beta   90.02151560
_cell_angle_gamma   90.00000000
_symmetry_Int_Tables_number   1
_chemical_formula_structural   CrWO6
_chemical_formula_sum   'Cr2 W2 O12'
_cell_volume   190.62152328
_cell_formula_units_Z   2
loop_
 _symmetry_equiv_pos_site_id
 _symmetry_equiv_pos_as_xyz
  1  'x, y, z'
loop_
 _atom_site_type_symbol
 _atom_site_label
 _atom_site_symmetry_multiplicity
 _atom_site_fract_x
 _atom_site_fract_y
 _atom_site_fract_z
 _atom_site_occupancy
  Cr  Cr0  1  0.500000  0.000000  0.000000  1
  Cr  Cr1  1  0.000001  0.499999  0.500000  1
  W  W2  1  0.500000  0.000000  0.499999  1
  W  W3  1  0.000000  0.499999  0.000000  1
  O  O4  1  0.707793  0.303313  0.450941  1
  O  O5  1  0.792207  0.803314  0.049059  1
  O  O6  1  0.292206  0.696687  0.549059  1
  O  O7  1  0.207794  0.196686  0.950941  1
  O  O8  1  0.192298  0.211061  0.548404  1
  O  O9  1  0.307702  0.711060  0.951596  1
  O  O10  1  0.807703  0.788939  0.451596  1
  O  O11  1  0.692297  0.288940  0.048404  1
  O  O12  1  0.096089  0.482773  0.257606  1
  O  O13  1  0.403912  0.982774  0.242393  1
  O  O14  1  0.596089  0.017226  0.757607  1
  O  O15  1  0.903912  0.517227  0.742394  1
