# generated using pymatgen
data_Ge2WO6
_symmetry_space_group_name_H-M   'P 1'
_cell_length_a   5.69807551
_cell_length_b   6.83448072
_cell_length_c   6.83448199
_cell_angle_alpha   84.17142571
_cell_angle_beta   77.00425258
_cell_angle_gamma   77.00424736
_symmetry_Int_Tables_number   1
_chemical_formula_structural   Ge2WO6
_chemical_formula_sum   'Ge4 W2 O12'
_cell_volume   252.33357040
_cell_formula_units_Z   2
loop_
 _symmetry_equiv_pos_site_id
 _symmetry_equiv_pos_as_xyz
  1  'x, y, z'
loop_
 _atom_site_type_symbol
 _atom_site_label
 _atom_site_symmetry_multiplicity
 _atom_site_fract_x
 _atom_site_fract_y
 _atom_site_fract_z
 _atom_site_occupancy
  Ge  Ge0  1  0.754768  0.387248  0.212856  1
  Ge  Ge1  1  0.745232  0.787144  0.612752  1
  Ge  Ge2  1  0.245232  0.612752  0.787144  1
  Ge  Ge3  1  0.254768  0.212856  0.387248  1
  W  W4  1  0.750000  0.904060  0.095940  1
  W  W5  1  0.250000  0.095940  0.904060  1
  O  O6  1  0.494850  0.336608  0.387225  1
  O  O7  1  0.005150  0.612775  0.663392  1
  O  O8  1  0.505150  0.663392  0.612775  1
  O  O9  1  0.994850  0.387225  0.336608  1
  O  O10  1  0.187611  0.099304  0.626765  1
  O  O11  1  0.312389  0.373236  0.900696  1
  O  O12  1  0.812389  0.900696  0.373236  1
  O  O13  1  0.687611  0.626765  0.099304  1
  O  O14  1  0.863180  0.184126  0.042309  1
  O  O15  1  0.636820  0.957691  0.815874  1
  O  O16  1  0.136820  0.815874  0.957691  1
  O  O17  1  0.363180  0.042309  0.184126  1
