# generated using pymatgen
data_CaMo2(PO5)2
_symmetry_space_group_name_H-M   'P 1'
_cell_length_a   7.19067810
_cell_length_b   7.19067693
_cell_length_c   8.91505188
_cell_angle_alpha   102.90789304
_cell_angle_beta   102.90789152
_cell_angle_gamma   116.49329480
_symmetry_Int_Tables_number   1
_chemical_formula_structural   CaMo2(PO5)2
_chemical_formula_sum   'Ca2 Mo4 P4 O20'
_cell_volume   373.54259092
_cell_formula_units_Z   2
loop_
 _symmetry_equiv_pos_site_id
 _symmetry_equiv_pos_as_xyz
  1  'x, y, z'
loop_
 _atom_site_type_symbol
 _atom_site_label
 _atom_site_symmetry_multiplicity
 _atom_site_fract_x
 _atom_site_fract_y
 _atom_site_fract_z
 _atom_site_occupancy
  Ca  Ca0  1  0.496283  0.996283  0.500000  1
  Ca  Ca1  1  0.246283  0.246283  1.000000  1
  Mo  Mo2  1  0.871937  0.619029  0.251419  1
  Mo  Mo3  1  0.367610  0.620517  0.748581  1
  Mo  Mo4  1  0.870517  0.117610  0.248581  1
  Mo  Mo5  1  0.869029  0.621937  0.751419  1
  P  P6  1  0.039841  0.039943  0.589709  1
  P  P7  1  0.700131  0.200235  0.910291  1
  P  P8  1  0.450235  0.450131  0.410291  1
  P  P9  1  0.289943  0.789841  0.089709  1
  O  O10  1  0.567834  0.538700  0.294386  1
  O  O11  1  0.658661  0.662433  0.831708  1
  O  O12  1  0.311159  0.606542  0.976911  1
  O  O13  1  0.788700  0.317834  0.794386  1
  O  O14  1  0.218589  0.244329  0.291796  1
  O  O15  1  0.424855  0.632124  0.520532  1
  O  O16  1  0.076953  0.580725  0.668292  1
  O  O17  1  0.830725  0.826953  0.168292  1
  O  O18  1  0.912433  0.408661  0.331708  1
  O  O19  1  0.176793  0.702534  0.208204  1
  O  O20  1  0.244314  0.273449  0.705614  1
  O  O21  1  0.494329  0.968589  0.791796  1
  O  O22  1  0.952534  0.926793  0.708204  1
  O  O23  1  0.154324  0.861593  0.979468  1
  O  O24  1  0.111593  0.904324  0.479468  1
  O  O25  1  0.882124  0.174855  0.020532  1
  O  O26  1  0.856542  0.061159  0.476911  1
  O  O27  1  0.629631  0.334248  0.023089  1
  O  O28  1  0.523449  0.994314  0.205614  1
  O  O29  1  0.584248  0.379631  0.523089  1
