# generated using pymatgen
data_Mn2Nb2Zn2O9
_symmetry_space_group_name_H-M   'P 1'
_cell_length_a   5.32332426
_cell_length_b   5.32332438
_cell_length_c   14.58557134
_cell_angle_alpha   90.00000000
_cell_angle_beta   90.00000000
_cell_angle_gamma   119.99999926
_symmetry_Int_Tables_number   1
_chemical_formula_structural   Mn2Nb2Zn2O9
_chemical_formula_sum   'Mn4 Nb4 Zn4 O18'
_cell_volume   357.94799399
_cell_formula_units_Z   2
loop_
 _symmetry_equiv_pos_site_id
 _symmetry_equiv_pos_as_xyz
  1  'x, y, z'
loop_
 _atom_site_type_symbol
 _atom_site_label
 _atom_site_symmetry_multiplicity
 _atom_site_fract_x
 _atom_site_fract_y
 _atom_site_fract_z
 _atom_site_occupancy
  Mn  Mn0  1  0.333333  0.666667  0.017571  1
  Mn  Mn1  1  0.333333  0.666667  0.517571  1
  Mn  Mn2  1  0.666667  0.333333  0.988749  1
  Mn  Mn3  1  0.666667  0.333333  0.488749  1
  Nb  Nb4  1  0.000000  0.000000  0.643894  1
  Nb  Nb5  1  0.000000  0.000000  0.143894  1
  Nb  Nb6  1  0.000000  0.000000  0.861841  1
  Nb  Nb7  1  0.000000  0.000000  0.361841  1
  Zn  Zn8  1  0.666667  0.333333  0.710651  1
  Zn  Zn9  1  0.333333  0.666667  0.297190  1
  Zn  Zn10  1  0.333333  0.666667  0.797190  1
  Zn  Zn11  1  0.666667  0.333333  0.210651  1
  O  O12  1  0.688806  0.663226  0.588341  1
  O  O13  1  0.000335  0.713686  0.752939  1
  O  O14  1  0.662604  0.974224  0.417155  1
  O  O15  1  0.311620  0.337396  0.417155  1
  O  O16  1  0.974420  0.311194  0.588341  1
  O  O17  1  0.713352  0.713686  0.252939  1
  O  O18  1  0.025776  0.337396  0.917155  1
  O  O19  1  0.336774  0.025580  0.588341  1
  O  O20  1  0.336774  0.311194  0.088341  1
  O  O21  1  0.025776  0.688380  0.417155  1
  O  O22  1  0.662604  0.688380  0.917155  1
  O  O23  1  0.688806  0.025580  0.088341  1
  O  O24  1  0.713352  0.999665  0.752939  1
  O  O25  1  0.286314  0.286648  0.752939  1
  O  O26  1  0.286314  0.999665  0.252939  1
  O  O27  1  0.974420  0.663226  0.088341  1
  O  O28  1  0.000335  0.286648  0.252939  1
  O  O29  1  0.311620  0.974224  0.917155  1
