# generated using pymatgen
data_VZnSiO5
_symmetry_space_group_name_H-M   'P 1'
_cell_length_a   5.54949077
_cell_length_b   7.23961857
_cell_length_c   8.32092062
_cell_angle_alpha   90.62968172
_cell_angle_beta   37.83962838
_cell_angle_gamma   106.72781977
_symmetry_Int_Tables_number   1
_chemical_formula_structural   VZnSiO5
_chemical_formula_sum   'V2 Zn2 Si2 O10'
_cell_volume   182.60311929
_cell_formula_units_Z   2
loop_
 _symmetry_equiv_pos_site_id
 _symmetry_equiv_pos_as_xyz
  1  'x, y, z'
loop_
 _atom_site_type_symbol
 _atom_site_label
 _atom_site_symmetry_multiplicity
 _atom_site_fract_x
 _atom_site_fract_y
 _atom_site_fract_z
 _atom_site_occupancy
  V  V0  1  0.501429  0.499024  0.500083  1
  V  V1  1  0.501172  0.998902  0.500290  1
  Zn  Zn2  1  0.440244  0.280247  0.222890  1
  Zn  Zn3  1  0.562992  0.718130  0.777257  1
  Si  Si4  1  0.537062  0.243474  0.815167  1
  Si  Si5  1  0.465606  0.754798  0.185272  1
  O  O6  1  0.770875  0.132955  0.577784  1
  O  O7  1  0.482737  0.423991  0.743447  1
  O  O8  1  0.232339  0.865655  0.422218  1
  O  O9  1  0.520150  0.574438  0.256879  1
  O  O10  1  0.182620  0.660617  0.164868  1
  O  O11  1  0.943889  0.929342  0.868207  1
  O  O12  1  0.820325  0.337663  0.835448  1
  O  O13  1  0.058694  0.068846  0.132115  1
  O  O14  1  0.453191  0.729878  0.600339  1
  O  O15  1  0.550027  0.268495  0.399806  1
