# generated using pymatgen
data_Ba2AlNi3O8
_symmetry_space_group_name_H-M   'P 1'
_cell_length_a   3.80610056
_cell_length_b   3.80536787
_cell_length_c   11.84506158
_cell_angle_alpha   90.00015543
_cell_angle_beta   89.99956146
_cell_angle_gamma   90.04146647
_symmetry_Int_Tables_number   1
_chemical_formula_structural   Ba2AlNi3O8
_chemical_formula_sum   'Ba2 Al1 Ni3 O8'
_cell_volume   171.55924028
_cell_formula_units_Z   1
loop_
 _symmetry_equiv_pos_site_id
 _symmetry_equiv_pos_as_xyz
  1  'x, y, z'
loop_
 _atom_site_type_symbol
 _atom_site_label
 _atom_site_symmetry_multiplicity
 _atom_site_fract_x
 _atom_site_fract_y
 _atom_site_fract_z
 _atom_site_occupancy
  Ba  Ba0  1  0.499999  0.500001  0.173130  1
  Ba  Ba1  1  0.500001  0.499999  0.827054  1
  Al  Al2  1  0.499999  0.500001  0.499924  1
  Ni  Ni3  1  0.999997  0.000001  0.357122  1
  Ni  Ni4  1  0.000001  0.999999  0.000744  1
  Ni  Ni5  1  0.000002  1.000000  0.642724  1
  O  O6  1  0.999993  0.500002  0.399659  1
  O  O7  1  0.499995  0.000002  0.399670  1
  O  O8  1  0.500000  0.000000  0.999938  1
  O  O9  1  1.000000  0.999999  0.191450  1
  O  O10  1  0.000006  0.500000  0.600189  1
  O  O11  1  0.500003  0.999998  0.600180  1
  O  O12  1  0.000003  0.999996  0.808276  1
  O  O13  1  0.000000  0.500000  0.999941  1
