# generated using pymatgen
data_ZnSbO3
_symmetry_space_group_name_H-M   'P 1'
_cell_length_a   5.55979049
_cell_length_b   5.49053164
_cell_length_c   8.06373871
_cell_angle_alpha   90.00000000
_cell_angle_beta   90.00000000
_cell_angle_gamma   88.33332114
_symmetry_Int_Tables_number   1
_chemical_formula_structural   ZnSbO3
_chemical_formula_sum   'Zn4 Sb4 O12'
_cell_volume   246.05120791
_cell_formula_units_Z   4
loop_
 _symmetry_equiv_pos_site_id
 _symmetry_equiv_pos_as_xyz
  1  'x, y, z'
loop_
 _atom_site_type_symbol
 _atom_site_label
 _atom_site_symmetry_multiplicity
 _atom_site_fract_x
 _atom_site_fract_y
 _atom_site_fract_z
 _atom_site_occupancy
  Zn  Zn0  1  0.494809  0.523373  0.750000  1
  Zn  Zn1  1  0.505191  0.476627  0.250000  1
  Zn  Zn2  1  0.028084  0.013624  0.750000  1
  Zn  Zn3  1  0.971916  0.986376  0.250000  1
  Sb  Sb4  1  0.500000  0.000000  0.500000  1
  Sb  Sb5  1  0.500000  0.000000  0.000000  1
  Sb  Sb6  1  0.000000  0.500000  0.500000  1
  Sb  Sb7  1  0.000000  0.500000  0.000000  1
  O  O8  1  0.309853  0.650358  0.429484  1
  O  O9  1  0.138303  0.179332  0.069860  1
  O  O10  1  0.690147  0.349642  0.929485  1
  O  O11  1  0.861697  0.820668  0.569860  1
  O  O12  1  0.138303  0.179332  0.430140  1
  O  O13  1  0.861697  0.820668  0.930140  1
  O  O14  1  0.865423  0.605289  0.250000  1
  O  O15  1  0.309853  0.650358  0.070515  1
  O  O16  1  0.371193  0.874854  0.750000  1
  O  O17  1  0.690147  0.349642  0.570515  1
  O  O18  1  0.134577  0.394711  0.750000  1
  O  O19  1  0.628807  0.125146  0.250000  1
