# generated using pymatgen
data_CaLa2Ti2Cr2O12
_symmetry_space_group_name_H-M   'P 1'
_cell_length_a   5.44832583
_cell_length_b   5.46771920
_cell_length_c   7.71416020
_cell_angle_alpha   90.31326068
_cell_angle_beta   90.03845091
_cell_angle_gamma   89.10392601
_symmetry_Int_Tables_number   1
_chemical_formula_structural   CaLa2Ti2Cr2O12
_chemical_formula_sum   'Ca1 La2 Ti2 Cr2 O12'
_cell_volume   229.77260512
_cell_formula_units_Z   1
loop_
 _symmetry_equiv_pos_site_id
 _symmetry_equiv_pos_as_xyz
  1  'x, y, z'
loop_
 _atom_site_type_symbol
 _atom_site_label
 _atom_site_symmetry_multiplicity
 _atom_site_fract_x
 _atom_site_fract_y
 _atom_site_fract_z
 _atom_site_occupancy
  Ca  Ca0  1  0.496908  0.467398  0.750790  1
  La  La1  1  0.007079  0.972356  0.751259  1
  La  La2  1  0.504830  0.521357  0.248834  1
  Ti  Ti3  1  0.504594  0.002131  0.010815  1
  Ti  Ti4  1  0.001027  0.487885  0.492599  1
  Cr  Cr5  1  0.505853  0.995985  0.497071  1
  Cr  Cr6  1  0.000747  0.496763  0.002425  1
  O  O7  1  0.053124  0.488702  0.247702  1
  O  O8  1  0.226453  0.232442  0.960166  1
  O  O9  1  0.232499  0.226113  0.539805  1
  O  O10  1  0.277904  0.719511  0.965069  1
  O  O11  1  0.281304  0.719236  0.534075  1
  O  O12  1  0.449280  0.998268  0.251201  1
  O  O13  1  0.559874  0.007079  0.747638  1
  O  O14  1  0.714608  0.284436  0.479853  1
  O  O15  1  0.714795  0.286076  0.019466  1
  O  O16  1  0.767779  0.773458  0.474190  1
  O  O17  1  0.772744  0.769031  0.025063  1
  O  O18  1  0.938625  0.510804  0.752188  1
