# generated using pymatgen
data_Sr2YSn2O7
_symmetry_space_group_name_H-M   'P 1'
_cell_length_a   14.40198484
_cell_length_b   14.40198484
_cell_length_c   14.40198484
_cell_angle_alpha   31.85560473
_cell_angle_beta   158.02918671
_cell_angle_gamma   157.22117874
_symmetry_Int_Tables_number   1
_chemical_formula_structural   Sr2YSn2O7
_chemical_formula_sum   'Sr4 Y2 Sn4 O14'
_cell_volume   432.38368288
_cell_formula_units_Z   2
loop_
 _symmetry_equiv_pos_site_id
 _symmetry_equiv_pos_as_xyz
  1  'x, y, z'
loop_
 _atom_site_type_symbol
 _atom_site_label
 _atom_site_symmetry_multiplicity
 _atom_site_fract_x
 _atom_site_fract_y
 _atom_site_fract_z
 _atom_site_occupancy
  Sr  Sr0  1  0.913777  0.810825  0.724073  1
  Sr  Sr1  1  0.086753  0.189704  0.275927  1
  Sr  Sr2  1  0.913777  0.689704  0.602951  1
  Sr  Sr3  1  0.086753  0.310825  0.397049  1
  Y  Y4  1  0.017249  0.517249  0.500000  1
  Y  Y5  1  0.017249  0.017249  -0.000000  1
  Sn  Sn6  1  0.520083  0.437111  0.921982  1
  Sn  Sn7  1  0.515129  0.598102  0.078018  1
  Sn  Sn8  1  0.520083  0.098102  0.582975  1
  Sn  Sn9  1  0.515129  0.937111  0.417025  1
  O  O10  1  0.018663  0.006287  0.512375  1
  O  O11  1  0.493913  0.506287  0.487625  1
  O  O12  1  0.515942  0.216367  0.198923  1
  O  O13  1  0.017444  0.317020  0.801077  1
  O  O14  1  0.515942  0.817019  0.799575  1
  O  O15  1  0.017444  0.716367  0.200425  1
  O  O16  1  0.518732  0.716502  0.698972  1
  O  O17  1  0.017532  0.819759  0.301028  1
  O  O18  1  0.518732  0.319759  0.302230  1
  O  O19  1  0.017532  0.216502  0.697770  1
  O  O20  1  0.528344  0.871163  0.353669  1
  O  O21  1  0.517495  0.174674  0.646331  1
  O  O22  1  0.528344  0.674674  0.157181  1
  O  O23  1  0.517495  0.371163  0.842819  1
