# generated using pymatgen
data_Nb2Ni2O9
_symmetry_space_group_name_H-M   'P 1'
_cell_length_a   4.84656893
_cell_length_b   4.84656886
_cell_length_c   14.21809030
_cell_angle_alpha   90.00000000
_cell_angle_beta   90.00000000
_cell_angle_gamma   120.00000055
_symmetry_Int_Tables_number   1
_chemical_formula_structural   Nb2Ni2O9
_chemical_formula_sum   'Nb4 Ni4 O18'
_cell_volume   289.22822929
_cell_formula_units_Z   2
loop_
 _symmetry_equiv_pos_site_id
 _symmetry_equiv_pos_as_xyz
  1  'x, y, z'
loop_
 _atom_site_type_symbol
 _atom_site_label
 _atom_site_symmetry_multiplicity
 _atom_site_fract_x
 _atom_site_fract_y
 _atom_site_fract_z
 _atom_site_occupancy
  Nb  Nb0  1  0.000000  0.000000  0.658797  1
  Nb  Nb1  1  0.000000  0.000000  0.158797  1
  Nb  Nb2  1  0.000000  0.000000  0.846918  1
  Nb  Nb3  1  0.000000  0.000000  0.346918  1
  Ni  Ni4  1  0.333333  0.666667  0.002850  1
  Ni  Ni5  1  0.333333  0.666667  0.502850  1
  Ni  Ni6  1  0.666667  0.333333  0.002866  1
  Ni  Ni7  1  0.666667  0.333333  0.502866  1
  O  O8  1  0.644896  0.644909  0.574553  1
  O  O9  1  0.000332  0.700194  0.752854  1
  O  O10  1  0.644879  -0.000019  0.431129  1
  O  O11  1  0.355101  0.355121  0.431129  1
  O  O12  1  0.000013  0.355104  0.574553  1
  O  O13  1  0.699863  0.700194  0.252854  1
  O  O14  1  0.000019  0.355121  0.931129  1
  O  O15  1  0.355091  0.999987  0.574553  1
  O  O16  1  0.355091  0.355104  0.074553  1
  O  O17  1  0.000019  0.644899  0.431129  1
  O  O18  1  0.644879  0.644899  0.931129  1
  O  O19  1  0.644896  0.999987  0.074553  1
  O  O20  1  0.699863  0.999668  0.752854  1
  O  O21  1  0.299806  0.300137  0.752854  1
  O  O22  1  0.299806  0.999668  0.252854  1
  O  O23  1  0.000013  0.644909  0.074553  1
  O  O24  1  0.000332  0.300137  0.252854  1
  O  O25  1  0.355101  -0.000019  0.931129  1
