# generated using pymatgen
data_MgCuF5
_symmetry_space_group_name_H-M   'P 1'
_cell_length_a   5.19029467
_cell_length_b   7.24065338
_cell_length_c   9.64682646
_cell_angle_alpha   90.00000000
_cell_angle_beta   90.00000000
_cell_angle_gamma   109.87442357
_symmetry_Int_Tables_number   1
_chemical_formula_structural   MgCuF5
_chemical_formula_sum   'Mg4 Cu4 F20'
_cell_volume   340.94578098
_cell_formula_units_Z   4
loop_
 _symmetry_equiv_pos_site_id
 _symmetry_equiv_pos_as_xyz
  1  'x, y, z'
loop_
 _atom_site_type_symbol
 _atom_site_label
 _atom_site_symmetry_multiplicity
 _atom_site_fract_x
 _atom_site_fract_y
 _atom_site_fract_z
 _atom_site_occupancy
  Mg  Mg0  1  0.478101  0.747971  0.013570  1
  Mg  Mg1  1  0.521899  0.752029  0.513570  1
  Mg  Mg2  1  0.521899  0.252029  0.986430  1
  Mg  Mg3  1  0.478101  0.247971  0.486430  1
  Cu  Cu4  1  0.902977  0.602849  0.754239  1
  Cu  Cu5  1  0.097023  0.897151  0.254239  1
  Cu  Cu6  1  0.097023  0.397151  0.245761  1
  Cu  Cu7  1  0.902977  0.102849  0.745761  1
  F  F8  1  0.602140  0.561311  0.888149  1
  F  F9  1  0.397860  0.938689  0.388149  1
  F  F10  1  0.397860  0.438689  0.111851  1
  F  F11  1  0.602140  0.061311  0.611851  1
  F  F12  1  0.635789  0.498675  0.606504  1
  F  F13  1  0.364211  0.001325  0.106504  1
  F  F14  1  0.364211  0.501325  0.393496  1
  F  F15  1  0.635789  -0.001325  0.893496  1
  F  F16  1  0.858072  0.803536  0.405298  1
  F  F17  1  0.141928  0.696464  0.905298  1
  F  F18  1  0.141928  0.196464  0.594702  1
  F  F19  1  0.858072  0.303536  0.094702  1
  F  F20  1  0.801871  0.853271  0.129976  1
  F  F21  1  0.198129  0.646729  0.629976  1
  F  F22  1  0.198129  0.146729  0.870024  1
  F  F23  1  0.801871  0.353271  0.370024  1
  F  F24  1  0.842685  0.837042  0.687856  1
  F  F25  1  0.157315  0.662958  0.187856  1
  F  F26  1  0.157315  0.162958  0.312144  1
  F  F27  1  0.842685  0.337042  0.812144  1
