# generated using pymatgen
data_MnZnF5
_symmetry_space_group_name_H-M   'P 1'
_cell_length_a   5.36412836
_cell_length_b   5.34920278
_cell_length_c   7.75045120
_cell_angle_alpha   99.13557110
_cell_angle_beta   106.74653453
_cell_angle_gamma   110.75042151
_symmetry_Int_Tables_number   1
_chemical_formula_structural   MnZnF5
_chemical_formula_sum   'Mn2 Zn2 F10'
_cell_volume   190.50712139
_cell_formula_units_Z   2
loop_
 _symmetry_equiv_pos_site_id
 _symmetry_equiv_pos_as_xyz
  1  'x, y, z'
loop_
 _atom_site_type_symbol
 _atom_site_label
 _atom_site_symmetry_multiplicity
 _atom_site_fract_x
 _atom_site_fract_y
 _atom_site_fract_z
 _atom_site_occupancy
  Mn  Mn0  1  0.999814  0.998344  0.000045  1
  Mn  Mn1  1  0.499269  0.997429  0.500196  1
  Zn  Zn2  1  0.272833  0.521334  0.750062  1
  Zn  Zn3  1  0.726717  0.474036  0.250558  1
  F  F4  1  0.399238  0.144407  0.250771  1
  F  F5  1  0.602940  0.850437  0.752456  1
  F  F6  1  0.596681  0.737556  0.374845  1
  F  F7  1  0.867093  0.216990  0.129719  1
  F  F8  1  0.776956  0.683211  0.059661  1
  F  F9  1  0.129405  0.709200  0.442059  1
  F  F10  1  0.226216  0.315051  0.943374  1
  F  F11  1  0.870231  0.285088  0.560857  1
  F  F12  1  0.133209  0.780319  0.870455  1
  F  F13  1  0.402373  0.256047  0.626526  1
