# generated using pymatgen
data_HoMgMn2O6
_symmetry_space_group_name_H-M   'P 1'
_cell_length_a   5.17290037
_cell_length_b   5.44232379
_cell_length_c   7.52032365
_cell_angle_alpha   90.00120451
_cell_angle_beta   89.99998568
_cell_angle_gamma   90.02137259
_symmetry_Int_Tables_number   1
_chemical_formula_structural   HoMgMn2O6
_chemical_formula_sum   'Ho2 Mg2 Mn4 O12'
_cell_volume   211.71663959
_cell_formula_units_Z   2
loop_
 _symmetry_equiv_pos_site_id
 _symmetry_equiv_pos_as_xyz
  1  'x, y, z'
loop_
 _atom_site_type_symbol
 _atom_site_label
 _atom_site_symmetry_multiplicity
 _atom_site_fract_x
 _atom_site_fract_y
 _atom_site_fract_z
 _atom_site_occupancy
  Ho  Ho0  1  0.018097  0.932108  0.750005  1
  Ho  Ho1  1  0.518179  0.567845  0.249994  1
  Mg  Mg2  1  0.482940  0.437338  0.749979  1
  Mg  Mg3  1  0.982919  0.062662  0.250001  1
  Mn  Mn4  1  0.000029  0.494123  0.999195  1
  Mn  Mn5  1  0.000061  0.494127  0.500742  1
  Mn  Mn6  1  0.500000  0.005908  0.499260  1
  Mn  Mn7  1  0.499947  0.005907  0.000805  1
  O  O8  1  0.106331  0.443973  0.249976  1
  O  O9  1  0.199678  0.201105  0.939044  1
  O  O10  1  0.199704  0.201081  0.560949  1
  O  O11  1  0.311174  0.690006  0.938555  1
  O  O12  1  0.311183  0.689961  0.561438  1
  O  O13  1  0.371062  0.963349  0.250022  1
  O  O14  1  0.606308  0.056041  0.750026  1
  O  O15  1  0.699617  0.298825  0.439013  1
  O  O16  1  0.699588  0.298799  0.060995  1
  O  O17  1  0.811093  0.810107  0.061422  1
  O  O18  1  0.811115  0.810131  0.438595  1
  O  O19  1  0.870973  0.536603  0.749982  1
