# generated using pymatgen
data_YFe3F15
_symmetry_space_group_name_H-M   'P 1'
_cell_length_a   9.35285771
_cell_length_b   5.89678622
_cell_length_c   11.26351740
_cell_angle_alpha   90.00000000
_cell_angle_beta   90.00000000
_cell_angle_gamma   106.91439249
_symmetry_Int_Tables_number   1
_chemical_formula_structural   YFe3F15
_chemical_formula_sum   'Y2 Fe6 F30'
_cell_volume   594.33036211
_cell_formula_units_Z   2
loop_
 _symmetry_equiv_pos_site_id
 _symmetry_equiv_pos_as_xyz
  1  'x, y, z'
loop_
 _atom_site_type_symbol
 _atom_site_label
 _atom_site_symmetry_multiplicity
 _atom_site_fract_x
 _atom_site_fract_y
 _atom_site_fract_z
 _atom_site_occupancy
  Y  Y0  1  0.927889  0.516757  0.250000  1
  Y  Y1  1  0.405444  0.483243  0.750000  1
  Fe  Fe2  1  0.166667  -0.000000  0.500000  1
  Fe  Fe3  1  0.510852  0.031864  0.507640  1
  Fe  Fe4  1  0.822481  0.968136  0.492360  1
  Fe  Fe5  1  0.166667  -0.000000  -0.000000  1
  Fe  Fe6  1  0.510852  0.031864  0.992360  1
  Fe  Fe7  1  0.822481  0.968136  0.007640  1
  F  F8  1  0.169636  0.602406  0.250000  1
  F  F9  1  0.376697  0.608714  0.250000  1
  F  F10  1  0.734008  0.614877  0.250000  1
  F  F11  1  0.163697  0.397594  0.750000  1
  F  F12  1  0.599326  0.385124  0.750000  1
  F  F13  1  0.956636  0.391286  0.750000  1
  F  F14  1  0.019533  0.103710  0.577739  1
  F  F15  1  0.352907  0.169777  0.603782  1
  F  F16  1  0.705075  0.126562  0.590001  1
  F  F17  1  0.313801  0.896290  0.422261  1
  F  F18  1  0.628258  0.873438  0.409999  1
  F  F19  1  0.980426  0.830223  0.396218  1
  F  F20  1  0.128718  0.749935  0.907173  1
  F  F21  1  0.448157  0.760562  0.885788  1
  F  F22  1  0.778553  0.706646  0.916552  1
  F  F23  1  0.204616  0.250065  0.092827  1
  F  F24  1  0.554780  0.293354  0.083448  1
  F  F25  1  0.885176  0.239438  0.114212  1
  F  F26  1  0.204616  0.250065  0.407173  1
  F  F27  1  0.554780  0.293354  0.416552  1
  F  F28  1  0.885176  0.239438  0.385788  1
  F  F29  1  0.128718  0.749935  0.592827  1
  F  F30  1  0.448157  0.760562  0.614212  1
  F  F31  1  0.778553  0.706646  0.583448  1
  F  F32  1  0.019533  0.103710  0.922261  1
  F  F33  1  0.352907  0.169777  0.896218  1
  F  F34  1  0.705075  0.126562  0.909999  1
  F  F35  1  0.313801  0.896290  0.077739  1
  F  F36  1  0.628258  0.873438  0.090001  1
  F  F37  1  0.980426  0.830223  0.103782  1
