# generated using pymatgen
data_Ca2Bi2O5
_symmetry_space_group_name_H-M   'P 1'
_cell_length_a   4.43424616
_cell_length_b   6.53111029
_cell_length_c   10.27154002
_cell_angle_alpha   90.00007019
_cell_angle_beta   89.99998007
_cell_angle_gamma   89.99967676
_symmetry_Int_Tables_number   1
_chemical_formula_structural   Ca2Bi2O5
_chemical_formula_sum   'Ca4 Bi4 O10'
_cell_volume   297.46945576
_cell_formula_units_Z   2
loop_
 _symmetry_equiv_pos_site_id
 _symmetry_equiv_pos_as_xyz
  1  'x, y, z'
loop_
 _atom_site_type_symbol
 _atom_site_label
 _atom_site_symmetry_multiplicity
 _atom_site_fract_x
 _atom_site_fract_y
 _atom_site_fract_z
 _atom_site_occupancy
  Ca  Ca0  1  0.499998  0.148307  0.871032  1
  Ca  Ca1  1  0.499996  0.851694  0.128967  1
  Ca  Ca2  1  0.499999  0.648307  0.628966  1
  Ca  Ca3  1  0.499994  0.351688  0.371032  1
  Bi  Bi4  1  0.000010  0.205984  0.611283  1
  Bi  Bi5  1  -0.000004  0.794018  0.388718  1
  Bi  Bi6  1  -0.000004  0.294021  0.111282  1
  Bi  Bi7  1  0.000002  0.705981  0.888719  1
  O  O8  1  0.000001  0.500000  0.500000  1
  O  O9  1  0.000000  0.175868  0.305259  1
  O  O10  1  0.000001  0.675867  0.194740  1
  O  O11  1  0.999997  0.324132  0.805259  1
  O  O12  1  0.500000  0.212231  0.110677  1
  O  O13  1  0.500005  0.787773  0.889326  1
  O  O14  1  0.000005  0.824133  0.694742  1
  O  O15  1  0.500000  0.287770  0.610677  1
  O  O16  1  0.000008  -0.000001  0.000000  1
  O  O17  1  0.499998  0.712227  0.389323  1
