# generated using pymatgen
data_ZnCu2(MoO4)2
_symmetry_space_group_name_H-M   'P 1'
_cell_length_a   6.59676805
_cell_length_b   8.71030201
_cell_length_c   12.63325440
_cell_angle_alpha   90.00000000
_cell_angle_beta   91.72736745
_cell_angle_gamma   90.00000000
_symmetry_Int_Tables_number   1
_chemical_formula_structural   ZnCu2(MoO4)2
_chemical_formula_sum   'Zn4 Cu8 Mo8 O32'
_cell_volume   725.57493257
_cell_formula_units_Z   4
loop_
 _symmetry_equiv_pos_site_id
 _symmetry_equiv_pos_as_xyz
  1  'x, y, z'
loop_
 _atom_site_type_symbol
 _atom_site_label
 _atom_site_symmetry_multiplicity
 _atom_site_fract_x
 _atom_site_fract_y
 _atom_site_fract_z
 _atom_site_occupancy
  Zn  Zn0  1  0.108223  0.164541  0.052607  1
  Zn  Zn1  1  0.891777  0.835459  0.947393  1
  Zn  Zn2  1  0.891777  0.664541  0.447393  1
  Zn  Zn3  1  0.108223  0.335459  0.552607  1
  Cu  Cu4  1  0.768941  0.180168  0.867246  1
  Cu  Cu5  1  0.377658  0.053503  0.619494  1
  Cu  Cu6  1  0.622342  0.946497  0.380506  1
  Cu  Cu7  1  0.231059  0.819832  0.132754  1
  Cu  Cu8  1  0.768941  0.319832  0.367246  1
  Cu  Cu9  1  0.377658  0.446497  0.119494  1
  Cu  Cu10  1  0.231059  0.680168  0.632754  1
  Cu  Cu11  1  0.622342  0.553503  0.880506  1
  Mo  Mo12  1  0.099456  0.456688  0.845512  1
  Mo  Mo13  1  0.099456  0.043312  0.345512  1
  Mo  Mo14  1  0.611260  0.082139  0.131216  1
  Mo  Mo15  1  0.900544  0.956688  0.654488  1
  Mo  Mo16  1  0.388740  0.917861  0.868784  1
  Mo  Mo17  1  0.388740  0.582139  0.368784  1
  Mo  Mo18  1  0.611260  0.417861  0.631216  1
  Mo  Mo19  1  0.900544  0.543312  0.154488  1
  O  O20  1  0.040467  0.233316  0.400700  1
  O  O21  1  0.659147  0.012732  0.600265  1
  O  O22  1  0.178703  0.576174  0.464848  1
  O  O23  1  0.821297  0.076174  0.035152  1
  O  O24  1  0.040467  0.266684  0.900700  1
  O  O25  1  0.959533  0.766684  0.599300  1
  O  O26  1  0.083674  0.103402  0.613446  1
  O  O27  1  0.504674  0.896061  0.136040  1
  O  O28  1  0.504674  0.603939  0.636040  1
  O  O29  1  0.306368  0.870458  0.734795  1
  O  O30  1  0.693632  0.370458  0.765205  1
  O  O31  1  0.495326  0.103939  0.863960  1
  O  O32  1  0.916326  0.896598  0.386554  1
  O  O33  1  0.879209  0.543071  0.296966  1
  O  O34  1  0.406304  0.290227  0.585715  1
  O  O35  1  0.406304  0.209773  0.085715  1
  O  O36  1  0.120791  0.043071  0.203034  1
  O  O37  1  0.495326  0.396061  0.363960  1
  O  O38  1  0.120791  0.456929  0.703034  1
  O  O39  1  0.821297  0.423826  0.535152  1
  O  O40  1  0.659147  0.487268  0.100265  1
  O  O41  1  0.693632  0.129542  0.265205  1
  O  O42  1  0.959533  0.733316  0.099300  1
  O  O43  1  0.083674  0.396598  0.113446  1
  O  O44  1  0.178703  0.923826  0.964848  1
  O  O45  1  0.593696  0.790227  0.914285  1
  O  O46  1  0.340853  0.987268  0.399735  1
  O  O47  1  0.340853  0.512732  0.899735  1
  O  O48  1  0.916326  0.603402  0.886554  1
  O  O49  1  0.593696  0.709773  0.414285  1
  O  O50  1  0.306368  0.629542  0.234795  1
  O  O51  1  0.879209  0.956929  0.796966  1
