# generated using pymatgen
data_MgFe2P2O9
_symmetry_space_group_name_H-M   'P 1'
_cell_length_a   6.31523082
_cell_length_b   7.38181076
_cell_length_c   14.23509211
_cell_angle_alpha   90.02899548
_cell_angle_beta   89.92058431
_cell_angle_gamma   90.02779957
_symmetry_Int_Tables_number   1
_chemical_formula_structural   MgFe2P2O9
_chemical_formula_sum   'Mg4 Fe8 P8 O36'
_cell_volume   663.60842833
_cell_formula_units_Z   4
loop_
 _symmetry_equiv_pos_site_id
 _symmetry_equiv_pos_as_xyz
  1  'x, y, z'
loop_
 _atom_site_type_symbol
 _atom_site_label
 _atom_site_symmetry_multiplicity
 _atom_site_fract_x
 _atom_site_fract_y
 _atom_site_fract_z
 _atom_site_occupancy
  Mg  Mg0  1  0.750095  0.923094  0.773428  1
  Mg  Mg1  1  0.750063  0.577492  0.273371  1
  Mg  Mg2  1  0.249933  0.422520  0.726625  1
  Mg  Mg3  1  0.249914  0.076921  0.226570  1
  Fe  Fe4  1  0.750310  0.357851  0.881448  1
  Fe  Fe5  1  0.249691  0.642172  0.118550  1
  Fe  Fe6  1  0.249824  0.857759  0.618910  1
  Fe  Fe7  1  0.750174  0.142239  0.381090  1
  Fe  Fe8  1  0.499998  0.000003  0.000003  1
  Fe  Fe9  1  0.499993  0.499991  0.500002  1
  Fe  Fe10  1  0.000007  0.499997  0.499994  1
  Fe  Fe11  1  0.999992  0.000008  0.000013  1
  P  P12  1  0.249798  0.363975  0.926732  1
  P  P13  1  0.750203  0.636034  0.073275  1
  P  P14  1  0.749921  0.864608  0.573144  1
  P  P15  1  0.250081  0.135372  0.426857  1
  P  P16  1  0.749812  0.382985  0.695218  1
  P  P17  1  0.750251  0.116800  0.194736  1
  P  P18  1  0.249748  0.883201  0.805269  1
  P  P19  1  0.250193  0.617001  0.304776  1
  O  O20  1  0.040061  0.607306  0.363304  1
  O  O21  1  0.539824  0.392626  0.636872  1
  O  O22  1  0.959754  0.107104  0.136019  1
  O  O23  1  0.460359  0.893189  0.863526  1
  O  O24  1  0.959936  0.392677  0.636687  1
  O  O25  1  0.460173  0.607357  0.363125  1
  O  O26  1  0.040248  0.892904  0.863990  1
  O  O27  1  0.539646  0.106814  0.136477  1
  O  O28  1  0.249946  0.325413  0.475352  1
  O  O29  1  0.750053  0.674576  0.524640  1
  O  O30  1  0.751358  0.826109  0.025057  1
  O  O31  1  0.248637  0.173898  0.974947  1
  O  O32  1  0.750074  0.129942  0.949842  1
  O  O33  1  0.249924  0.870079  0.050166  1
  O  O34  1  0.250068  0.629423  0.550552  1
  O  O35  1  0.749927  0.370569  0.449448  1
  O  O36  1  0.749897  0.203582  0.753580  1
  O  O37  1  0.250108  0.796415  0.246421  1
  O  O38  1  0.249209  0.703908  0.746792  1
  O  O39  1  0.750789  0.296095  0.253210  1
  O  O40  1  0.437765  0.123877  0.357689  1
  O  O41  1  0.937221  0.876197  0.642241  1
  O  O42  1  0.562036  0.625211  0.141950  1
  O  O43  1  0.063086  0.377102  0.857296  1
  O  O44  1  0.562239  0.876115  0.642303  1
  O  O45  1  0.062775  0.123793  0.357752  1
  O  O46  1  0.437967  0.374798  0.858055  1
  O  O47  1  0.936913  0.622911  0.142707  1
  O  O48  1  0.750480  0.493036  0.997285  1
  O  O49  1  0.249374  0.038979  0.732200  1
  O  O50  1  0.250352  0.461068  0.231617  1
  O  O51  1  0.749655  0.538925  0.768374  1
  O  O52  1  0.750097  0.008322  0.497604  1
  O  O53  1  0.249913  0.991671  0.502383  1
  O  O54  1  0.249524  0.506967  0.002720  1
  O  O55  1  0.750626  0.961014  0.267802  1
