# generated using pymatgen
data_ZnCr(Si2O5)2
_symmetry_space_group_name_H-M   'P 1'
_cell_length_a   7.34538890
_cell_length_b   7.34538890
_cell_length_c   14.94235551
_cell_angle_alpha   90.00000000
_cell_angle_beta   90.00000000
_cell_angle_gamma   90.00000000
_symmetry_Int_Tables_number   1
_chemical_formula_structural   ZnCr(Si2O5)2
_chemical_formula_sum   'Zn4 Cr4 Si16 O40'
_cell_volume   806.21087802
_cell_formula_units_Z   4
loop_
 _symmetry_equiv_pos_site_id
 _symmetry_equiv_pos_as_xyz
  1  'x, y, z'
loop_
 _atom_site_type_symbol
 _atom_site_label
 _atom_site_symmetry_multiplicity
 _atom_site_fract_x
 _atom_site_fract_y
 _atom_site_fract_z
 _atom_site_occupancy
  Zn  Zn0  1  0.250000  0.750000  0.500000  1
  Zn  Zn1  1  0.750000  0.250000  0.500000  1
  Zn  Zn2  1  0.750000  0.250000  0.000000  1
  Zn  Zn3  1  0.250000  0.750000  0.000000  1
  Cr  Cr4  1  0.250000  0.250000  0.568866  1
  Cr  Cr5  1  0.750000  0.750000  0.931134  1
  Cr  Cr6  1  0.750000  0.750000  0.431134  1
  Cr  Cr7  1  0.250000  0.250000  0.068866  1
  Si  Si8  1  0.908206  0.490361  0.645281  1
  Si  Si9  1  0.591794  0.009639  0.645281  1
  Si  Si10  1  0.990361  0.408206  0.854719  1
  Si  Si11  1  0.490361  0.591794  0.645281  1
  Si  Si12  1  0.009639  0.908206  0.645281  1
  Si  Si13  1  0.091794  0.990361  0.854719  1
  Si  Si14  1  0.408206  0.509639  0.854719  1
  Si  Si15  1  0.509639  0.091794  0.854719  1
  Si  Si16  1  0.091794  0.509639  0.354719  1
  Si  Si17  1  0.408206  0.990361  0.354719  1
  Si  Si18  1  0.009639  0.591794  0.145281  1
  Si  Si19  1  0.509639  0.408206  0.354719  1
  Si  Si20  1  0.990361  0.091794  0.354719  1
  Si  Si21  1  0.908206  0.009639  0.145281  1
  Si  Si22  1  0.591794  0.490361  0.145281  1
  Si  Si23  1  0.490361  0.908206  0.145281  1
  O  O24  1  0.979293  0.336115  0.575560  1
  O  O25  1  0.520707  0.163885  0.575560  1
  O  O26  1  0.836115  0.479293  0.924440  1
  O  O27  1  0.336115  0.520707  0.575560  1
  O  O28  1  0.163885  0.979293  0.575560  1
  O  O29  1  0.020707  0.836115  0.924440  1
  O  O30  1  0.479293  0.663885  0.924440  1
  O  O31  1  0.663885  0.020707  0.924440  1
  O  O32  1  0.020707  0.663885  0.424440  1
  O  O33  1  0.479293  0.836115  0.424440  1
  O  O34  1  0.163885  0.520707  0.075560  1
  O  O35  1  0.663885  0.479293  0.424440  1
  O  O36  1  0.836115  0.020707  0.424440  1
  O  O37  1  0.979293  0.163885  0.075560  1
  O  O38  1  0.520707  0.336115  0.075560  1
  O  O39  1  0.003183  0.310257  0.373653  1
  O  O40  1  0.336115  0.979293  0.075560  1
  O  O41  1  0.503183  0.810257  0.626347  1
  O  O42  1  0.189743  0.496817  0.873653  1
  O  O43  1  0.689743  0.503183  0.626347  1
  O  O44  1  0.810257  0.996817  0.626347  1
  O  O45  1  0.003183  0.189743  0.873653  1
  O  O46  1  0.496817  0.310257  0.873653  1
  O  O47  1  0.310257  0.003183  0.873653  1
  O  O48  1  0.442486  0.942486  0.250000  1
  O  O49  1  0.557514  0.442486  0.250000  1
  O  O50  1  0.942486  0.057515  0.250000  1
  O  O51  1  0.057515  0.557514  0.250000  1
  O  O52  1  0.557514  0.057515  0.750000  1
  O  O53  1  0.442486  0.557514  0.750000  1
  O  O54  1  0.057515  0.942486  0.750000  1
  O  O55  1  0.942486  0.442486  0.750000  1
  O  O56  1  0.689743  0.996817  0.126347  1
  O  O57  1  0.503183  0.689743  0.126347  1
  O  O58  1  0.996817  0.810257  0.126347  1
  O  O59  1  0.189743  0.003183  0.373653  1
  O  O60  1  0.310257  0.496817  0.373653  1
  O  O61  1  0.810257  0.503183  0.126347  1
  O  O62  1  0.496817  0.189743  0.373653  1
  O  O63  1  0.996817  0.689743  0.626347  1
