# generated using pymatgen
data_MgMn2O4
_symmetry_space_group_name_H-M   'P 1'
_cell_length_a   6.05092223
_cell_length_b   6.07701260
_cell_length_c   6.07701264
_cell_angle_alpha   59.99999311
_cell_angle_beta   59.85726791
_cell_angle_gamma   59.85726309
_symmetry_Int_Tables_number   1
_chemical_formula_structural   MgMn2O4
_chemical_formula_sum   'Mg2 Mn4 O8'
_cell_volume   157.66906426
_cell_formula_units_Z   2
loop_
 _symmetry_equiv_pos_site_id
 _symmetry_equiv_pos_as_xyz
  1  'x, y, z'
loop_
 _atom_site_type_symbol
 _atom_site_label
 _atom_site_symmetry_multiplicity
 _atom_site_fract_x
 _atom_site_fract_y
 _atom_site_fract_z
 _atom_site_occupancy
  Mg  Mg0  1  0.977534  0.007489  0.007489  1
  Mg  Mg1  1  0.123776  0.625408  0.625408  1
  Mn  Mn2  1  0.267497  0.244168  0.244168  1
  Mn  Mn3  1  0.625655  0.122960  0.625692  1
  Mn  Mn4  1  0.625655  0.625692  0.122960  1
  Mn  Mn5  1  0.625655  0.625692  0.625692  1
  O  O6  1  0.407831  0.381500  0.381500  1
  O  O7  1  0.407831  0.381500  0.829168  1
  O  O8  1  0.407831  0.829168  0.381500  1
  O  O9  1  0.859174  0.380276  0.380276  1
  O  O10  1  0.384149  0.871950  0.871950  1
  O  O11  1  0.845805  0.415521  0.869338  1
  O  O12  1  0.845805  0.869338  0.415521  1
  O  O13  1  0.845805  0.869338  0.869338  1
