# generated using pymatgen
data_ZnFe2O5
_symmetry_space_group_name_H-M   'P 1'
_cell_length_a   3.29514195
_cell_length_b   5.04814926
_cell_length_c   11.84244818
_cell_angle_alpha   89.86389566
_cell_angle_beta   89.97753586
_cell_angle_gamma   90.01432536
_symmetry_Int_Tables_number   1
_chemical_formula_structural   ZnFe2O5
_chemical_formula_sum   'Zn2 Fe4 O10'
_cell_volume   196.99106854
_cell_formula_units_Z   2
loop_
 _symmetry_equiv_pos_site_id
 _symmetry_equiv_pos_as_xyz
  1  'x, y, z'
loop_
 _atom_site_type_symbol
 _atom_site_label
 _atom_site_symmetry_multiplicity
 _atom_site_fract_x
 _atom_site_fract_y
 _atom_site_fract_z
 _atom_site_occupancy
  Zn  Zn0  1  0.749936  0.903828  0.250661  1
  Zn  Zn1  1  0.250070  0.096186  0.749153  1
  Fe  Fe2  1  0.249831  0.440708  0.102993  1
  Fe  Fe3  1  0.750138  0.559644  0.897056  1
  Fe  Fe4  1  0.749888  0.560189  0.602777  1
  Fe  Fe5  1  0.250122  0.439445  0.397269  1
  O  O6  1  0.749856  0.394763  0.750118  1
  O  O7  1  0.250105  0.605265  0.249910  1
  O  O8  1  0.749965  0.625722  0.064493  1
  O  O9  1  0.250007  0.374675  0.935631  1
  O  O10  1  0.750146  0.625011  0.435067  1
  O  O11  1  0.249862  0.374589  0.565059  1
  O  O12  1  0.250680  0.095757  0.341455  1
  O  O13  1  0.749440  0.903957  0.658449  1
  O  O14  1  0.750980  0.903397  0.840780  1
  O  O15  1  0.248966  0.096862  0.159127  1
