# generated using pymatgen
data_Y(FeO2)2
_symmetry_space_group_name_H-M   'P 1'
_cell_length_a   6.32703607
_cell_length_b   6.32703675
_cell_length_c   6.33021356
_cell_angle_alpha   117.58163363
_cell_angle_beta   121.08005195
_cell_angle_gamma   91.16096228
_symmetry_Int_Tables_number   1
_chemical_formula_structural   Y(FeO2)2
_chemical_formula_sum   'Y2 Fe4 O8'
_cell_volume   180.79587968
_cell_formula_units_Z   2
loop_
 _symmetry_equiv_pos_site_id
 _symmetry_equiv_pos_as_xyz
  1  'x, y, z'
loop_
 _atom_site_type_symbol
 _atom_site_label
 _atom_site_symmetry_multiplicity
 _atom_site_fract_x
 _atom_site_fract_y
 _atom_site_fract_z
 _atom_site_occupancy
  Y  Y0  1  -0.000000  0.500001  0.000001  1
  Y  Y1  1  0.000001  0.000000  0.500000  1
  Fe  Fe2  1  0.375512  0.625512  0.750000  1
  Fe  Fe3  1  0.624488  0.374489  0.250000  1
  Fe  Fe4  1  0.500001  0.000000  0.500000  1
  Fe  Fe5  1  0.000000  0.000000  0.000000  1
  O  O6  1  0.741627  0.743935  0.499054  1
  O  O7  1  0.744883  0.242575  0.000948  1
  O  O8  1  0.243242  0.243268  0.999580  1
  O  O9  1  0.258373  0.256065  0.500947  1
  O  O10  1  0.256312  0.756337  0.499579  1
  O  O11  1  0.255117  0.757426  0.999054  1
  O  O12  1  0.743687  0.243662  0.500420  1
  O  O13  1  0.756758  0.756733  0.000420  1
