# generated using pymatgen
data_Mg2NiWO6
_symmetry_space_group_name_H-M   'P 1'
_cell_length_a   5.01154943
_cell_length_b   5.22044442
_cell_length_c   8.30171140
_cell_angle_alpha   90.00000000
_cell_angle_beta   90.93104467
_cell_angle_gamma   90.00000000
_symmetry_Int_Tables_number   1
_chemical_formula_structural   Mg2NiWO6
_chemical_formula_sum   'Mg4 Ni2 W2 O12'
_cell_volume   217.16497615
_cell_formula_units_Z   2
loop_
 _symmetry_equiv_pos_site_id
 _symmetry_equiv_pos_as_xyz
  1  'x, y, z'
loop_
 _atom_site_type_symbol
 _atom_site_label
 _atom_site_symmetry_multiplicity
 _atom_site_fract_x
 _atom_site_fract_y
 _atom_site_fract_z
 _atom_site_occupancy
  Mg  Mg0  1  0.970944  0.054934  0.265414  1
  Mg  Mg1  1  0.529056  0.554935  0.234586  1
  Mg  Mg2  1  0.029057  0.945067  0.734586  1
  Mg  Mg3  1  0.470943  0.445066  0.765414  1
  Ni  Ni4  1  0.500000  0.000000  0.000000  1
  Ni  Ni5  1  0.000001  0.499999  0.500000  1
  W  W6  1  0.500000  0.000000  0.499999  1
  W  W7  1  0.000000  0.499999  0.000000  1
  O  O8  1  0.690334  0.293359  0.397630  1
  O  O9  1  0.809666  0.793360  0.102370  1
  O  O10  1  0.309665  0.706641  0.602370  1
  O  O11  1  0.190335  0.206640  0.897630  1
  O  O12  1  0.191844  0.198723  0.556937  1
  O  O13  1  0.308156  0.698722  0.943063  1
  O  O14  1  0.808157  0.801277  0.443063  1
  O  O15  1  0.691843  0.301278  0.056937  1
  O  O16  1  0.155649  0.404270  0.206945  1
  O  O17  1  0.344352  0.904271  0.293054  1
  O  O18  1  0.655649  0.095729  0.706946  1
  O  O19  1  0.844352  0.595730  0.793055  1
