# generated using pymatgen
data_Mg(SnO2)2
_symmetry_space_group_name_H-M   'P 1'
_cell_length_a   6.61341111
_cell_length_b   6.61364657
_cell_length_c   19.56004036
_cell_angle_alpha   60.09649312
_cell_angle_beta   60.09520871
_cell_angle_gamma   60.10566231
_symmetry_Int_Tables_number   1
_chemical_formula_structural   Mg(SnO2)2
_chemical_formula_sum   'Mg6 Sn12 O24'
_cell_volume   606.31113105
_cell_formula_units_Z   6
loop_
 _symmetry_equiv_pos_site_id
 _symmetry_equiv_pos_as_xyz
  1  'x, y, z'
loop_
 _atom_site_type_symbol
 _atom_site_label
 _atom_site_symmetry_multiplicity
 _atom_site_fract_x
 _atom_site_fract_y
 _atom_site_fract_z
 _atom_site_occupancy
  Mg  Mg0  1  0.119382  0.119435  0.047773  1
  Mg  Mg1  1  0.110586  0.110590  0.383244  1
  Mg  Mg2  1  0.500261  0.500252  0.999707  1
  Mg  Mg3  1  0.111207  0.111198  0.716932  1
  Mg  Mg4  1  0.889855  0.889860  0.281348  1
  Mg  Mg5  1  0.886152  0.886131  0.619866  1
  Sn  Sn6  1  0.010600  0.499369  0.163980  1
  Sn  Sn7  1  0.498864  0.498853  0.164006  1
  Sn  Sn8  1  0.999016  0.499625  0.499398  1
  Sn  Sn9  1  0.499382  0.010580  0.163982  1
  Sn  Sn10  1  0.505458  0.505473  0.330524  1
  Sn  Sn11  1  0.498562  0.498572  0.499459  1
  Sn  Sn12  1  0.994828  0.498742  0.834525  1
  Sn  Sn13  1  0.499643  0.999025  0.499398  1
  Sn  Sn14  1  0.498754  0.994829  0.834523  1
  Sn  Sn15  1  0.497378  0.497348  0.665542  1
  Sn  Sn16  1  0.500166  0.500150  0.834309  1
  Sn  Sn17  1  0.885014  0.884995  0.948540  1
  O  O18  1  0.266004  0.266121  0.081612  1
  O  O19  1  0.256757  0.256918  0.247025  1
  O  O20  1  0.269185  0.719998  0.082481  1
  O  O21  1  0.720040  0.269245  0.082468  1
  O  O22  1  0.267230  0.768668  0.229633  1
  O  O23  1  0.241225  0.241184  0.429070  1
  O  O24  1  0.768742  0.267237  0.229627  1
  O  O25  1  0.727273  0.727183  0.104426  1
  O  O26  1  0.213250  0.736209  0.426031  1
  O  O27  1  0.243206  0.243136  0.578296  1
  O  O28  1  0.773429  0.773289  0.231126  1
  O  O29  1  0.736198  0.213232  0.426038  1
  O  O30  1  0.258823  0.788945  0.579370  1
  O  O31  1  0.220910  0.221028  0.770738  1
  O  O32  1  0.788922  0.258783  0.579395  1
  O  O33  1  0.765529  0.765631  0.418632  1
  O  O34  1  0.256929  0.256995  0.909871  1
  O  O35  1  0.222665  0.736647  0.773195  1
  O  O36  1  0.752542  0.752582  0.573190  1
  O  O37  1  0.736665  0.222739  0.773178  1
  O  O38  1  0.315730  0.724146  0.910782  1
  O  O39  1  0.742855  0.742750  0.754540  1
  O  O40  1  0.724172  0.315772  0.910776  1
  O  O41  1  0.726609  0.726536  0.911443  1
