# generated using pymatgen
data_CaVF6
_symmetry_space_group_name_H-M   'P 1'
_cell_length_a   5.79081054
_cell_length_b   5.79080988
_cell_length_c   5.79080950
_cell_angle_alpha   57.94224336
_cell_angle_beta   57.94224185
_cell_angle_gamma   57.94224725
_symmetry_Int_Tables_number   1
_chemical_formula_structural   CaVF6
_chemical_formula_sum   'Ca1 V1 F6'
_cell_volume   130.82683672
_cell_formula_units_Z   1
loop_
 _symmetry_equiv_pos_site_id
 _symmetry_equiv_pos_as_xyz
  1  'x, y, z'
loop_
 _atom_site_type_symbol
 _atom_site_label
 _atom_site_symmetry_multiplicity
 _atom_site_fract_x
 _atom_site_fract_y
 _atom_site_fract_z
 _atom_site_occupancy
  Ca  Ca0  1  0.500000  0.500000  0.500000  1
  V  V1  1  0.000000  0.000000  0.000000  1
  F  F2  1  0.315438  0.133815  0.777847  1
  F  F3  1  0.133815  0.777847  0.315438  1
  F  F4  1  0.222153  0.684562  0.866185  1
  F  F5  1  0.866185  0.222153  0.684562  1
  F  F6  1  0.684562  0.866185  0.222153  1
  F  F7  1  0.777847  0.315438  0.133815  1
