# generated using pymatgen
data_CaHo(FeO3)2
_symmetry_space_group_name_H-M   'P 1'
_cell_length_a   5.33584048
_cell_length_b   5.56066515
_cell_length_c   7.63754586
_cell_angle_alpha   90.00070197
_cell_angle_beta   89.99922613
_cell_angle_gamma   90.00598879
_symmetry_Int_Tables_number   1
_chemical_formula_structural   CaHo(FeO3)2
_chemical_formula_sum   'Ca2 Ho2 Fe4 O12'
_cell_volume   226.61226381
_cell_formula_units_Z   2
loop_
 _symmetry_equiv_pos_site_id
 _symmetry_equiv_pos_as_xyz
  1  'x, y, z'
loop_
 _atom_site_type_symbol
 _atom_site_label
 _atom_site_symmetry_multiplicity
 _atom_site_fract_x
 _atom_site_fract_y
 _atom_site_fract_z
 _atom_site_occupancy
  Ca  Ca0  1  0.489227  0.447967  0.749989  1
  Ca  Ca1  1  0.989181  0.052088  0.250029  1
  Ho  Ho2  1  0.017941  0.932378  0.750001  1
  Ho  Ho3  1  0.517957  0.567544  0.250015  1
  Fe  Fe4  1  0.000997  0.494351  0.000355  1
  Fe  Fe5  1  0.000996  0.494305  0.499653  1
  Fe  Fe6  1  0.501038  0.005630  0.500355  1
  Fe  Fe7  1  0.501048  0.005665  0.999644  1
  O  O8  1  0.107941  0.473788  0.249993  1
  O  O9  1  0.193886  0.192529  0.947018  1
  O  O10  1  0.193864  0.192476  0.552956  1
  O  O11  1  0.289517  0.708686  0.952304  1
  O  O12  1  0.289528  0.708624  0.547654  1
  O  O13  1  0.415907  0.967637  0.249994  1
  O  O14  1  0.607943  0.026210  0.749996  1
  O  O15  1  0.693930  0.307594  0.447036  1
  O  O16  1  0.693972  0.307582  0.052980  1
  O  O17  1  0.789630  0.791292  0.047692  1
  O  O18  1  0.789605  0.791284  0.452338  1
  O  O19  1  0.915893  0.532369  0.749998  1
