# generated using pymatgen
data_Ca(WO2)4
_symmetry_space_group_name_H-M   'P 1'
_cell_length_a   6.66635631
_cell_length_b   6.66635663
_cell_length_c   6.66635747
_cell_angle_alpha   58.92239501
_cell_angle_beta   58.92238590
_cell_angle_gamma   58.92239921
_symmetry_Int_Tables_number   1
_chemical_formula_structural   Ca(WO2)4
_chemical_formula_sum   'Ca1 W4 O8'
_cell_volume   204.33231742
_cell_formula_units_Z   1
loop_
 _symmetry_equiv_pos_site_id
 _symmetry_equiv_pos_as_xyz
  1  'x, y, z'
loop_
 _atom_site_type_symbol
 _atom_site_label
 _atom_site_symmetry_multiplicity
 _atom_site_fract_x
 _atom_site_fract_y
 _atom_site_fract_z
 _atom_site_occupancy
  Ca  Ca0  1  0.500000  0.500001  0.499999  1
  W  W1  1  0.500001  0.999999  0.500001  1
  W  W2  1  0.999999  0.500000  0.500001  1
  W  W3  1  0.500000  0.500000  -0.000000  1
  W  W4  1  -0.000000  -0.000000  -0.000000  1
  O  O5  1  0.762108  0.281469  0.762108  1
  O  O6  1  0.237891  0.237892  0.718531  1
  O  O7  1  0.237891  0.718532  0.237891  1
  O  O8  1  0.718530  0.237892  0.237892  1
  O  O9  1  0.278645  0.278646  0.278645  1
  O  O10  1  0.721355  0.721355  0.721355  1
  O  O11  1  0.281470  0.762109  0.762108  1
  O  O12  1  0.762109  0.762109  0.281469  1
