# generated using pymatgen
data_CaTiMo(PO4)3
_symmetry_space_group_name_H-M   'P 1'
_cell_length_a   8.97735893
_cell_length_b   8.97735986
_cell_length_c   8.97735492
_cell_angle_alpha   58.61250102
_cell_angle_beta   58.61252578
_cell_angle_gamma   58.61252867
_symmetry_Int_Tables_number   1
_chemical_formula_structural   CaTiMo(PO4)3
_chemical_formula_sum   'Ca2 Ti2 Mo2 P6 O24'
_cell_volume   495.37229722
_cell_formula_units_Z   2
loop_
 _symmetry_equiv_pos_site_id
 _symmetry_equiv_pos_as_xyz
  1  'x, y, z'
loop_
 _atom_site_type_symbol
 _atom_site_label
 _atom_site_symmetry_multiplicity
 _atom_site_fract_x
 _atom_site_fract_y
 _atom_site_fract_z
 _atom_site_occupancy
  Ca  Ca0  1  0.999050  0.999050  0.999051  1
  Ca  Ca1  1  0.499052  0.499052  0.499052  1
  Ti  Ti2  1  0.148371  0.148372  0.148372  1
  Ti  Ti3  1  0.648371  0.648371  0.648371  1
  Mo  Mo4  1  0.355027  0.355027  0.355027  1
  Mo  Mo5  1  0.855027  0.855027  0.855026  1
  P  P6  1  0.038466  0.453894  0.757893  1
  P  P7  1  0.453894  0.757893  0.038467  1
  P  P8  1  0.757893  0.038466  0.453894  1
  P  P9  1  0.257895  0.953893  0.538466  1
  P  P10  1  0.538466  0.257894  0.953893  1
  P  P11  1  0.953893  0.538466  0.257895  1
  O  O12  1  0.107172  0.510913  0.304578  1
  O  O13  1  0.304578  0.107172  0.510914  1
  O  O14  1  0.051291  0.268170  0.926376  1
  O  O15  1  0.510914  0.304578  0.107171  1
  O  O16  1  0.010913  0.607172  0.804579  1
  O  O17  1  0.225266  0.429487  0.595731  1
  O  O18  1  0.268170  0.926376  0.051291  1
  O  O19  1  0.429487  0.595732  0.225265  1
  O  O20  1  0.206972  0.999605  0.371733  1
  O  O21  1  0.595732  0.225265  0.429487  1
  O  O22  1  0.095731  0.929487  0.725267  1
  O  O23  1  0.371732  0.206972  0.999604  1
  O  O24  1  0.607172  0.804579  0.010914  1
  O  O25  1  0.926376  0.051290  0.268170  1
  O  O26  1  0.426374  0.768173  0.551291  1
  O  O27  1  0.804578  0.010913  0.607172  1
  O  O28  1  0.551290  0.426375  0.768171  1
  O  O29  1  0.725266  0.095731  0.929486  1
  O  O30  1  0.768172  0.551291  0.426374  1
  O  O31  1  0.999604  0.371732  0.206973  1
  O  O32  1  0.499604  0.706973  0.871733  1
  O  O33  1  0.929487  0.725266  0.095731  1
  O  O34  1  0.706974  0.871734  0.499604  1
  O  O35  1  0.871733  0.499604  0.706974  1
