# generated using pymatgen
data_CaTi3(P2O7)2
_symmetry_space_group_name_H-M   'P 1'
_cell_length_a   7.60724270
_cell_length_b   7.62135561
_cell_length_c   9.72471854
_cell_angle_alpha   90.00000000
_cell_angle_beta   110.21016967
_cell_angle_gamma   90.00000000
_symmetry_Int_Tables_number   1
_chemical_formula_structural   CaTi3(P2O7)2
_chemical_formula_sum   'Ca2 Ti6 P8 O28'
_cell_volume   529.10177391
_cell_formula_units_Z   2
loop_
 _symmetry_equiv_pos_site_id
 _symmetry_equiv_pos_as_xyz
  1  'x, y, z'
loop_
 _atom_site_type_symbol
 _atom_site_label
 _atom_site_symmetry_multiplicity
 _atom_site_fract_x
 _atom_site_fract_y
 _atom_site_fract_z
 _atom_site_occupancy
  Ca  Ca0  1  0.500000  0.000000  -0.000000  1
  Ca  Ca1  1  0.500000  0.500000  0.500000  1
  Ti  Ti2  1  0.177138  0.848492  0.520935  1
  Ti  Ti3  1  0.822862  0.348492  0.979065  1
  Ti  Ti4  1  0.822862  0.151508  0.479065  1
  Ti  Ti5  1  0.177138  0.651508  0.020935  1
  Ti  Ti6  1  0.000000  0.000000  -0.000000  1
  Ti  Ti7  1  0.000000  0.500000  0.500000  1
  P  P8  1  0.589107  0.059932  0.699872  1
  P  P9  1  0.410893  0.559932  0.800128  1
  P  P10  1  0.410893  0.940068  0.300128  1
  P  P11  1  0.589107  0.440068  0.199872  1
  P  P12  1  0.871116  0.794537  0.682658  1
  P  P13  1  0.128884  0.294537  0.817342  1
  P  P14  1  0.128884  0.205463  0.317342  1
  P  P15  1  0.871116  0.705463  0.182658  1
  O  O16  1  0.818929  0.618998  0.602287  1
  O  O17  1  0.181071  0.118998  0.897713  1
  O  O18  1  0.181071  0.381002  0.397713  1
  O  O19  1  0.818929  0.881002  0.102287  1
  O  O20  1  0.298174  0.602176  0.636661  1
  O  O21  1  0.701826  0.102176  0.863339  1
  O  O22  1  0.701826  0.397824  0.363339  1
  O  O23  1  0.298174  0.897824  0.136661  1
  O  O24  1  0.621593  0.196259  0.595247  1
  O  O25  1  0.378407  0.696259  0.904753  1
  O  O26  1  0.378407  0.803741  0.404753  1
  O  O27  1  0.621593  0.303741  0.095247  1
  O  O28  1  0.670488  0.874253  0.667873  1
  O  O29  1  0.329512  0.374253  0.832127  1
  O  O30  1  0.329512  0.125747  0.332127  1
  O  O31  1  0.670488  0.625747  0.167873  1
  O  O32  1  0.388147  0.485361  0.183565  1
  O  O33  1  0.611853  0.985361  0.316435  1
  O  O34  1  0.611853  0.514639  0.816435  1
  O  O35  1  0.388147  0.014639  0.683565  1
  O  O36  1  0.021483  0.212780  0.151375  1
  O  O37  1  0.978517  0.712780  0.348625  1
  O  O38  1  0.978517  0.787220  0.848625  1
  O  O39  1  0.021483  0.287220  0.651375  1
  O  O40  1  0.964122  0.578228  0.106131  1
  O  O41  1  0.035878  0.078228  0.393869  1
  O  O42  1  0.035878  0.421772  0.893869  1
  O  O43  1  0.964122  0.921772  0.606131  1
