# generated using pymatgen
data_Ca2SnN2
_symmetry_space_group_name_H-M   'P 1'
_cell_length_a   5.01794322
_cell_length_b   5.96875122
_cell_length_c   7.42323511
_cell_angle_alpha   59.86181106
_cell_angle_beta   70.29421594
_cell_angle_gamma   65.09391159
_symmetry_Int_Tables_number   1
_chemical_formula_structural   Ca2SnN2
_chemical_formula_sum   'Ca4 Sn2 N4'
_cell_volume   172.13932262
_cell_formula_units_Z   2
loop_
 _symmetry_equiv_pos_site_id
 _symmetry_equiv_pos_as_xyz
  1  'x, y, z'
loop_
 _atom_site_type_symbol
 _atom_site_label
 _atom_site_symmetry_multiplicity
 _atom_site_fract_x
 _atom_site_fract_y
 _atom_site_fract_z
 _atom_site_occupancy
  Ca  Ca0  1  0.666380  0.248306  0.417835  1
  Ca  Ca1  1  0.333058  0.750829  0.580927  1
  Ca  Ca2  1  0.007144  0.723960  0.257677  1
  Ca  Ca3  1  0.992903  0.271349  0.743841  1
  Sn  Sn4  1  0.346792  0.238013  0.091494  1
  Sn  Sn5  1  0.676560  0.756891  0.907590  1
  N  N6  1  0.169579  0.247487  0.406569  1
  N  N7  1  0.825497  0.748810  0.592614  1
  N  N8  1  0.501621  0.212654  0.777143  1
  N  N9  1  0.490585  0.782069  0.222618  1
