# generated using pymatgen
data_BaMgMnF7
_symmetry_space_group_name_H-M   'P 1'
_cell_length_a   5.77480106
_cell_length_b   9.58921837
_cell_length_c   9.96885359
_cell_angle_alpha   90.00000000
_cell_angle_beta   90.00000000
_cell_angle_gamma   93.75995567
_symmetry_Int_Tables_number   1
_chemical_formula_structural   BaMgMnF7
_chemical_formula_sum   'Ba4 Mg4 Mn4 F28'
_cell_volume   550.84529756
_cell_formula_units_Z   4
loop_
 _symmetry_equiv_pos_site_id
 _symmetry_equiv_pos_as_xyz
  1  'x, y, z'
loop_
 _atom_site_type_symbol
 _atom_site_label
 _atom_site_symmetry_multiplicity
 _atom_site_fract_x
 _atom_site_fract_y
 _atom_site_fract_z
 _atom_site_occupancy
  Ba  Ba0  1  0.272508  0.500104  0.316192  1
  Ba  Ba1  1  0.727492  0.999896  0.816192  1
  Ba  Ba2  1  0.727492  0.499896  0.683808  1
  Ba  Ba3  1  0.272508  0.000104  0.183808  1
  Mg  Mg4  1  0.693042  0.809473  0.397933  1
  Mg  Mg5  1  0.306958  0.690527  0.897933  1
  Mg  Mg6  1  0.693042  0.309473  0.102067  1
  Mg  Mg7  1  0.306958  0.190527  0.602067  1
  Mn  Mn8  1  0.192463  0.812096  0.610268  1
  Mn  Mn9  1  0.807537  0.187904  0.389732  1
  Mn  Mn10  1  0.192463  0.312096  0.889732  1
  Mn  Mn11  1  0.807537  0.687904  0.110268  1
  F  F12  1  0.130045  0.124505  0.443742  1
  F  F13  1  0.371736  0.367079  0.046526  1
  F  F14  1  0.478948  0.743450  0.722327  1
  F  F15  1  0.521053  0.256550  0.277673  1
  F  F16  1  0.884765  0.364510  0.458510  1
  F  F17  1  0.260193  0.492737  0.813579  1
  F  F18  1  0.033689  0.748753  0.778940  1
  F  F19  1  0.115235  0.135490  0.958510  1
  F  F20  1  0.371736  0.867079  0.453474  1
  F  F21  1  0.521053  0.756550  0.222327  1
  F  F22  1  0.130045  0.624505  0.056258  1
  F  F23  1  0.869955  0.875495  0.556258  1
  F  F24  1  0.966311  0.751247  0.278940  1
  F  F25  1  0.381875  0.878053  0.959109  1
  F  F26  1  0.115235  0.635490  0.541490  1
  F  F27  1  0.884765  0.864510  0.041490  1
  F  F28  1  0.966311  0.251247  0.221060  1
  F  F29  1  0.869955  0.375495  0.943742  1
  F  F30  1  0.618125  0.621947  0.459109  1
  F  F31  1  0.628264  0.632921  0.953474  1
  F  F32  1  0.618125  0.121947  0.040891  1
  F  F33  1  0.033689  0.248753  0.721060  1
  F  F34  1  0.381875  0.378053  0.540891  1
  F  F35  1  0.739807  0.007263  0.313579  1
  F  F36  1  0.739807  0.507263  0.186421  1
  F  F37  1  0.260193  0.992737  0.686421  1
  F  F38  1  0.628264  0.132921  0.546526  1
  F  F39  1  0.478948  0.243450  0.777673  1
