# generated using pymatgen
data_Ca(FeO2)4
_symmetry_space_group_name_H-M   'P 1'
_cell_length_a   3.09484754
_cell_length_b   7.09527660
_cell_length_c   7.19631879
_cell_angle_alpha   82.30972832
_cell_angle_beta   77.56645835
_cell_angle_gamma   77.42811306
_symmetry_Int_Tables_number   1
_chemical_formula_structural   Ca(FeO2)4
_chemical_formula_sum   'Ca1 Fe4 O8'
_cell_volume   149.98830774
_cell_formula_units_Z   1
loop_
 _symmetry_equiv_pos_site_id
 _symmetry_equiv_pos_as_xyz
  1  'x, y, z'
loop_
 _atom_site_type_symbol
 _atom_site_label
 _atom_site_symmetry_multiplicity
 _atom_site_fract_x
 _atom_site_fract_y
 _atom_site_fract_z
 _atom_site_occupancy
  Ca  Ca0  1  0.408696  0.071173  0.111756  1
  Fe  Fe1  1  0.634511  0.173694  0.557525  1
  Fe  Fe2  1  0.136332  0.510327  0.216999  1
  Fe  Fe3  1  0.832210  0.489612  0.846218  1
  Fe  Fe4  1  0.341257  0.807433  0.509873  1
  O  O5  1  0.852796  0.668860  0.625336  1
  O  O6  1  0.450408  0.330110  0.769759  1
  O  O7  1  0.527012  0.669508  0.276472  1
  O  O8  1  0.138156  0.303484  0.420633  1
  O  O9  1  0.149196  0.017233  0.684318  1
  O  O10  1  0.789706  0.327332  0.093764  1
  O  O11  1  0.830742  0.976723  0.361810  1
  O  O12  1  0.206457  0.630619  0.956183  1
