# generated using pymatgen
data_Ti(SiO3)2
_symmetry_space_group_name_H-M   'P 1'
_cell_length_a   5.09226134
_cell_length_b   10.89166324
_cell_length_c   18.67681007
_cell_angle_alpha   90.00033936
_cell_angle_beta   90.00310604
_cell_angle_gamma   90.01137951
_symmetry_Int_Tables_number   1
_chemical_formula_structural   Ti(SiO3)2
_chemical_formula_sum   'Ti8 Si16 O48'
_cell_volume   1035.87554978
_cell_formula_units_Z   8
loop_
 _symmetry_equiv_pos_site_id
 _symmetry_equiv_pos_as_xyz
  1  'x, y, z'
loop_
 _atom_site_type_symbol
 _atom_site_label
 _atom_site_symmetry_multiplicity
 _atom_site_fract_x
 _atom_site_fract_y
 _atom_site_fract_z
 _atom_site_occupancy
  Ti  Ti0  1  0.440577  0.043110  0.126383  1
  Ti  Ti1  1  0.559453  0.956894  0.873648  1
  Ti  Ti2  1  0.940394  0.956883  0.373595  1
  Ti  Ti3  1  0.059575  0.043117  0.626383  1
  Ti  Ti4  1  0.440565  0.543121  0.373595  1
  Ti  Ti5  1  0.559422  0.456860  0.626370  1
  Ti  Ti6  1  0.940463  0.456906  0.126387  1
  Ti  Ti7  1  0.059581  0.543106  0.873641  1
  Si  Si8  1  0.624543  0.669932  0.223447  1
  Si  Si9  1  0.763879  0.828066  0.526235  1
  Si  Si10  1  0.736436  0.828182  0.026313  1
  Si  Si11  1  0.875374  0.169972  0.776520  1
  Si  Si12  1  0.124568  0.330044  0.276515  1
  Si  Si13  1  0.375429  0.830057  0.723500  1
  Si  Si14  1  0.263813  0.671840  0.526241  1
  Si  Si15  1  0.763736  0.328081  0.973752  1
  Si  Si16  1  0.736187  0.328143  0.473713  1
  Si  Si17  1  0.875385  0.669961  0.723497  1
  Si  Si18  1  0.375416  0.330057  0.776525  1
  Si  Si19  1  0.624516  0.169946  0.276518  1
  Si  Si20  1  0.236127  0.171917  0.473723  1
  Si  Si21  1  0.124579  0.830049  0.223451  1
  Si  Si22  1  0.236363  0.671919  0.026307  1
  Si  Si23  1  0.263677  0.171832  0.973744  1
  O  O24  1  0.797396  0.548959  0.676106  1
  O  O25  1  0.336868  0.052349  0.924914  1
  O  O26  1  0.202448  0.451058  0.323906  1
  O  O27  1  0.779643  0.361378  0.059126  1
  O  O28  1  0.279623  0.138562  0.059118  1
  O  O29  1  0.965820  0.215802  0.955028  1
  O  O30  1  0.872930  0.634315  0.808836  1
  O  O31  1  0.127057  0.865707  0.308786  1
  O  O32  1  0.779681  0.861294  0.440850  1
  O  O33  1  0.872915  0.134324  0.691182  1
  O  O34  1  0.297618  0.451095  0.823907  1
  O  O35  1  0.720264  0.361374  0.559101  1
  O  O36  1  0.663237  0.947658  0.075146  1
  O  O37  1  0.372871  0.865614  0.808846  1
  O  O38  1  0.702235  0.048902  0.323898  1
  O  O39  1  0.337008  0.552337  0.575058  1
  O  O40  1  0.297606  0.951086  0.676124  1
  O  O41  1  0.170401  0.718930  0.704660  1
  O  O42  1  0.329585  0.718962  0.204642  1
  O  O43  1  0.534210  0.715910  0.045038  1
  O  O44  1  0.720470  0.861486  0.940933  1
  O  O45  1  0.627169  0.634342  0.308787  1
  O  O46  1  0.837136  0.447567  0.924915  1
  O  O47  1  0.170391  0.218949  0.795370  1
  O  O48  1  0.220302  0.138683  0.559111  1
  O  O49  1  0.627168  0.134364  0.191181  1
  O  O50  1  0.663030  0.447644  0.424890  1
  O  O51  1  0.279724  0.638621  0.440857  1
  O  O52  1  0.163016  0.552437  0.075137  1
  O  O53  1  0.670459  0.781093  0.704694  1
  O  O54  1  0.202415  0.951073  0.176076  1
  O  O55  1  0.829634  0.781017  0.204603  1
  O  O56  1  0.829566  0.281049  0.295350  1
  O  O57  1  0.837278  0.947556  0.575055  1
  O  O58  1  0.220415  0.638614  0.940921  1
  O  O59  1  0.162756  0.052417  0.424905  1
  O  O60  1  0.329534  0.218920  0.295319  1
  O  O61  1  0.034257  0.784185  0.045031  1
  O  O62  1  0.466009  0.784103  0.544995  1
  O  O63  1  0.670428  0.281107  0.795325  1
  O  O64  1  0.465874  0.284113  0.955012  1
  O  O65  1  0.533977  0.215888  0.454959  1
  O  O66  1  0.034024  0.284175  0.454983  1
  O  O67  1  0.372788  0.365629  0.691175  1
  O  O68  1  0.702242  0.548888  0.176075  1
  O  O69  1  0.965966  0.715792  0.544969  1
  O  O70  1  0.127105  0.365700  0.191186  1
  O  O71  1  0.797388  0.048974  0.823909  1
