# generated using pymatgen
data_Ca2SnSbO6
_symmetry_space_group_name_H-M   'P 1'
_cell_length_a   5.62206939
_cell_length_b   5.82373757
_cell_length_c   8.10462907
_cell_angle_alpha   90.00000000
_cell_angle_beta   90.00000000
_cell_angle_gamma   89.96700960
_symmetry_Int_Tables_number   1
_chemical_formula_structural   Ca2SnSbO6
_chemical_formula_sum   'Ca4 Sn2 Sb2 O12'
_cell_volume   265.35731767
_cell_formula_units_Z   2
loop_
 _symmetry_equiv_pos_site_id
 _symmetry_equiv_pos_as_xyz
  1  'x, y, z'
loop_
 _atom_site_type_symbol
 _atom_site_label
 _atom_site_symmetry_multiplicity
 _atom_site_fract_x
 _atom_site_fract_y
 _atom_site_fract_z
 _atom_site_occupancy
  Ca  Ca0  1  0.514268  0.556390  0.750000  1
  Ca  Ca1  1  0.485732  0.443610  0.250000  1
  Ca  Ca2  1  0.987674  0.050974  0.750000  1
  Ca  Ca3  1  0.012326  0.949026  0.250000  1
  Sn  Sn4  1  0.500000  0.000000  0.500000  1
  Sn  Sn5  1  0.500000  0.000000  0.000000  1
  Sb  Sb6  1  0.000000  0.500000  0.500000  1
  Sb  Sb7  1  0.000000  0.500000  0.000000  1
  O  O8  1  0.308219  0.699373  0.443346  1
  O  O9  1  0.196733  0.196491  0.056524  1
  O  O10  1  0.691781  0.300627  0.943346  1
  O  O11  1  0.803267  0.803509  0.556524  1
  O  O12  1  0.196733  0.196491  0.443476  1
  O  O13  1  0.803267  0.803509  0.943476  1
  O  O14  1  0.899769  0.538198  0.250000  1
  O  O15  1  0.308219  0.699373  0.056654  1
  O  O16  1  0.390558  0.954692  0.750000  1
  O  O17  1  0.691781  0.300627  0.556654  1
  O  O18  1  0.100231  0.461802  0.750000  1
  O  O19  1  0.609442  0.045308  0.250000  1
