# generated using pymatgen
data_CaCu2(SbO4)2
_symmetry_space_group_name_H-M   'P 1'
_cell_length_a   6.69058443
_cell_length_b   9.12161460
_cell_length_c   12.72305964
_cell_angle_alpha   90.00000000
_cell_angle_beta   87.72556199
_cell_angle_gamma   90.00000000
_symmetry_Int_Tables_number   1
_chemical_formula_structural   CaCu2(SbO4)2
_chemical_formula_sum   'Ca4 Cu8 Sb8 O32'
_cell_volume   775.86304310
_cell_formula_units_Z   4
loop_
 _symmetry_equiv_pos_site_id
 _symmetry_equiv_pos_as_xyz
  1  'x, y, z'
loop_
 _atom_site_type_symbol
 _atom_site_label
 _atom_site_symmetry_multiplicity
 _atom_site_fract_x
 _atom_site_fract_y
 _atom_site_fract_z
 _atom_site_occupancy
  Ca  Ca0  1  0.124868  0.165811  0.034898  1
  Ca  Ca1  1  0.875132  0.834189  0.965102  1
  Ca  Ca2  1  0.875132  0.665811  0.465102  1
  Ca  Ca3  1  0.124868  0.334189  0.534898  1
  Cu  Cu4  1  0.757238  0.180831  0.848902  1
  Cu  Cu5  1  0.392268  0.055700  0.629012  1
  Cu  Cu6  1  0.607732  0.944300  0.370988  1
  Cu  Cu7  1  0.242762  0.819169  0.151098  1
  Cu  Cu8  1  0.757238  0.319169  0.348902  1
  Cu  Cu9  1  0.392268  0.444300  0.129012  1
  Cu  Cu10  1  0.242762  0.680831  0.651098  1
  Cu  Cu11  1  0.607732  0.555700  0.870988  1
  Sb  Sb12  1  0.091256  0.458828  0.838969  1
  Sb  Sb13  1  0.091256  0.041172  0.338969  1
  Sb  Sb14  1  0.599038  0.085350  0.142374  1
  Sb  Sb15  1  0.908744  0.958828  0.661031  1
  Sb  Sb16  1  0.400962  0.914650  0.857626  1
  Sb  Sb17  1  0.400962  0.585350  0.357626  1
  Sb  Sb18  1  0.599038  0.414650  0.642374  1
  Sb  Sb19  1  0.908744  0.541172  0.161031  1
  O  O20  1  0.016520  0.238044  0.376759  1
  O  O21  1  0.666049  0.004607  0.594152  1
  O  O22  1  0.194119  0.573893  0.463888  1
  O  O23  1  0.805881  0.073893  0.036112  1
  O  O24  1  0.016520  0.261956  0.876759  1
  O  O25  1  0.983480  0.761956  0.623241  1
  O  O26  1  0.105954  0.097271  0.609948  1
  O  O27  1  0.511163  0.885711  0.144524  1
  O  O28  1  0.511163  0.614289  0.644524  1
  O  O29  1  0.312266  0.879388  0.714568  1
  O  O30  1  0.687734  0.379388  0.785432  1
  O  O31  1  0.488837  0.114289  0.855476  1
  O  O32  1  0.894046  0.902729  0.390052  1
  O  O33  1  0.863790  0.519755  0.309819  1
  O  O34  1  0.428314  0.263595  0.595863  1
  O  O35  1  0.428314  0.236405  0.095863  1
  O  O36  1  0.136210  0.019755  0.190181  1
  O  O37  1  0.488837  0.385711  0.355476  1
  O  O38  1  0.136210  0.480245  0.690181  1
  O  O39  1  0.805881  0.426107  0.536112  1
  O  O40  1  0.666049  0.495393  0.094152  1
  O  O41  1  0.687734  0.120612  0.285432  1
  O  O42  1  0.983480  0.738044  0.123241  1
  O  O43  1  0.105954  0.402729  0.109948  1
  O  O44  1  0.194119  0.926107  0.963888  1
  O  O45  1  0.571686  0.763595  0.904137  1
  O  O46  1  0.333951  0.995393  0.405848  1
  O  O47  1  0.333951  0.504607  0.905848  1
  O  O48  1  0.894046  0.597271  0.890052  1
  O  O49  1  0.571686  0.736405  0.404137  1
  O  O50  1  0.312266  0.620612  0.214568  1
  O  O51  1  0.863790  0.980245  0.809819  1
