# generated using pymatgen
data_Ba2Ti3O8
_symmetry_space_group_name_H-M   'P 1'
_cell_length_a   3.94853125
_cell_length_b   3.94851544
_cell_length_c   11.94475414
_cell_angle_alpha   90.00017595
_cell_angle_beta   90.00008406
_cell_angle_gamma   89.99991526
_symmetry_Int_Tables_number   1
_chemical_formula_structural   Ba2Ti3O8
_chemical_formula_sum   'Ba2 Ti3 O8'
_cell_volume   186.22871009
_cell_formula_units_Z   1
loop_
 _symmetry_equiv_pos_site_id
 _symmetry_equiv_pos_as_xyz
  1  'x, y, z'
loop_
 _atom_site_type_symbol
 _atom_site_label
 _atom_site_symmetry_multiplicity
 _atom_site_fract_x
 _atom_site_fract_y
 _atom_site_fract_z
 _atom_site_occupancy
  Ba  Ba0  1  0.499999  0.500008  0.180381  1
  Ba  Ba1  1  0.500001  0.500012  0.819614  1
  Ti  Ti2  1  0.999997  0.999990  0.333705  1
  Ti  Ti3  1  0.999963  0.000155  0.000005  1
  Ti  Ti4  1  0.000003  0.999981  0.666294  1
  O  O5  1  0.999999  0.500014  0.345524  1
  O  O6  1  0.499999  0.000009  0.345522  1
  O  O7  1  0.500026  0.999944  0.000010  1
  O  O8  1  0.000006  0.999988  0.173695  1
  O  O9  1  0.999999  0.500015  0.654472  1
  O  O10  1  0.499996  0.000013  0.654470  1
  O  O11  1  -0.000001  0.999983  0.826298  1
  O  O12  1  0.000013  0.499887  0.000009  1
