# generated using pymatgen
data_Ca5Cu2(RhO6)2
_symmetry_space_group_name_H-M   'P 1'
_cell_length_a   6.57109769
_cell_length_b   6.53425891
_cell_length_c   6.40682504
_cell_angle_alpha   90.98684713
_cell_angle_beta   90.52511805
_cell_angle_gamma   91.90318266
_symmetry_Int_Tables_number   1
_chemical_formula_structural   Ca5Cu2(RhO6)2
_chemical_formula_sum   'Ca5 Cu2 Rh2 O12'
_cell_volume   274.88589370
_cell_formula_units_Z   1
loop_
 _symmetry_equiv_pos_site_id
 _symmetry_equiv_pos_as_xyz
  1  'x, y, z'
loop_
 _atom_site_type_symbol
 _atom_site_label
 _atom_site_symmetry_multiplicity
 _atom_site_fract_x
 _atom_site_fract_y
 _atom_site_fract_z
 _atom_site_occupancy
  Ca  Ca0  1  0.754495  0.619101  0.374992  1
  Ca  Ca1  1  0.081315  0.894491  0.752013  1
  Ca  Ca2  1  0.388394  0.227431  0.128146  1
  Ca  Ca3  1  0.897967  0.094413  0.238851  1
  Ca  Ca4  1  0.239114  0.389073  0.631418  1
  Cu  Cu5  1  0.314732  0.688598  0.242310  1
  Cu  Cu6  1  0.684958  0.326285  0.752129  1
  Rh  Rh7  1  0.501898  0.000964  0.508043  1
  Rh  Rh8  1  0.998984  0.498930  0.003330  1
  O  O9  1  0.791056  0.927718  0.547394  1
  O  O10  1  0.469954  0.138316  0.789071  1
  O  O11  1  0.931251  0.779202  0.080049  1
  O  O12  1  0.084800  0.207598  0.936940  1
  O  O13  1  0.713668  0.368142  0.045783  1
  O  O14  1  0.382168  0.709831  0.528751  1
  O  O15  1  0.118823  0.473265  0.293467  1
  O  O16  1  0.212963  0.081124  0.439456  1
  O  O17  1  0.521668  0.891615  0.212459  1
  O  O18  1  0.611385  0.296344  0.461686  1
  O  O19  1  0.283629  0.606893  0.955932  1
  O  O20  1  0.902430  0.516616  0.701716  1
