# generated using pymatgen
data_LaMnZnFeO6
_symmetry_space_group_name_H-M   'P 1'
_cell_length_a   5.47931668
_cell_length_b   5.33961362
_cell_length_c   7.67615705
_cell_angle_alpha   90.16874593
_cell_angle_beta   90.00000000
_cell_angle_gamma   90.00000000
_symmetry_Int_Tables_number   1
_chemical_formula_structural   LaMnZnFeO6
_chemical_formula_sum   'La2 Mn2 Zn2 Fe2 O12'
_cell_volume   224.58368401
_cell_formula_units_Z   2
loop_
 _symmetry_equiv_pos_site_id
 _symmetry_equiv_pos_as_xyz
  1  'x, y, z'
loop_
 _atom_site_type_symbol
 _atom_site_label
 _atom_site_symmetry_multiplicity
 _atom_site_fract_x
 _atom_site_fract_y
 _atom_site_fract_z
 _atom_site_occupancy
  La  La0  1  0.029054  0.991778  0.250171  1
  La  La1  1  0.470946  0.491778  0.750171  1
  Mn  Mn2  1  0.504081  0.999948  0.500283  1
  Mn  Mn3  1  0.995919  0.499948  0.000283  1
  Zn  Zn4  1  0.528858  0.519084  0.250538  1
  Zn  Zn5  1  0.971142  0.019084  0.750538  1
  Fe  Fe6  1  0.503761  0.001249  0.001012  1
  Fe  Fe7  1  0.996239  0.501249  0.501012  1
  O  O8  1  0.016956  0.629404  0.755379  1
  O  O9  1  0.197213  0.201954  0.943032  1
  O  O10  1  0.205495  0.191475  0.556887  1
  O  O11  1  0.294505  0.691475  0.056887  1
  O  O12  1  0.302787  0.701954  0.443032  1
  O  O13  1  0.483044  0.129404  0.255378  1
  O  O14  1  0.535573  0.924700  0.744516  1
  O  O15  1  0.728103  0.265231  0.551122  1
  O  O16  1  0.734440  0.275177  0.947058  1
  O  O17  1  0.765560  0.775177  0.447058  1
  O  O18  1  0.771897  0.765231  0.051122  1
  O  O19  1  0.964427  0.424700  0.244516  1
