# generated using pymatgen
data_ZnP3W3O13
_symmetry_space_group_name_H-M   'P 1'
_cell_length_a   6.71835598
_cell_length_b   7.84463963
_cell_length_c   10.93371387
_cell_angle_alpha   100.48252592
_cell_angle_beta   90.00000000
_cell_angle_gamma   90.00000000
_symmetry_Int_Tables_number   1
_chemical_formula_structural   ZnP3W3O13
_chemical_formula_sum   'Zn2 P6 W6 O26'
_cell_volume   566.62321479
_cell_formula_units_Z   2
loop_
 _symmetry_equiv_pos_site_id
 _symmetry_equiv_pos_as_xyz
  1  'x, y, z'
loop_
 _atom_site_type_symbol
 _atom_site_label
 _atom_site_symmetry_multiplicity
 _atom_site_fract_x
 _atom_site_fract_y
 _atom_site_fract_z
 _atom_site_occupancy
  Zn  Zn0  1  0.750000  0.695056  0.219609  1
  Zn  Zn1  1  0.250000  0.304944  0.780391  1
  P  P2  1  0.250000  0.199122  0.466986  1
  P  P3  1  0.750000  0.800878  0.533014  1
  P  P4  1  0.250000  0.727368  0.775773  1
  P  P5  1  0.750000  0.272632  0.224227  1
  P  P6  1  0.750000  0.298187  0.870940  1
  P  P7  1  0.250000  0.701813  0.129060  1
  W  W8  1  0.250000  0.368456  0.198209  1
  W  W9  1  0.750000  0.631544  0.801791  1
  W  W10  1  0.250000  0.784282  0.458573  1
  W  W11  1  0.500000  0.000000  -0.000000  1
  W  W12  1  0.750000  0.215718  0.541427  1
  W  W13  1  -0.000000  0.000000  -0.000000  1
  O  O14  1  0.750000  0.344061  0.734761  1
  O  O15  1  0.567402  0.767969  0.445886  1
  O  O16  1  0.250000  0.779353  0.647866  1
  O  O17  1  0.558488  0.199580  0.891437  1
  O  O18  1  0.750000  0.667374  0.623239  1
  O  O19  1  0.750000  0.857063  0.911185  1
  O  O20  1  0.250000  0.332626  0.376761  1
  O  O21  1  0.058488  0.800420  0.108563  1
  O  O22  1  0.250000  0.015726  0.385823  1
  O  O23  1  0.750000  0.984274  0.614177  1
  O  O24  1  0.066112  0.620099  0.797599  1
  O  O25  1  0.250000  0.142936  0.088815  1
  O  O26  1  0.566112  0.379901  0.202401  1
  O  O27  1  0.750000  0.487217  0.945580  1
  O  O28  1  0.750000  0.220647  0.352134  1
  O  O29  1  0.441512  0.800420  0.108563  1
  O  O30  1  0.932598  0.767969  0.445886  1
  O  O31  1  0.432598  0.232031  0.554114  1
  O  O32  1  0.433888  0.620099  0.797599  1
  O  O33  1  0.250000  0.655939  0.265239  1
  O  O34  1  0.750000  0.099159  0.122545  1
  O  O35  1  0.250000  0.900841  0.877455  1
  O  O36  1  0.933888  0.379901  0.202401  1
  O  O37  1  0.941512  0.199580  0.891437  1
  O  O38  1  0.067402  0.232031  0.554114  1
  O  O39  1  0.250000  0.512783  0.054420  1
