# generated using pymatgen
data_V2ZnO4
_symmetry_space_group_name_H-M   'P 1'
_cell_length_a   2.95141252
_cell_length_b   5.11461723
_cell_length_c   10.05480410
_cell_angle_alpha   90.00000000
_cell_angle_beta   90.00000000
_cell_angle_gamma   106.76980300
_symmetry_Int_Tables_number   1
_chemical_formula_structural   V2ZnO4
_chemical_formula_sum   'V4 Zn2 O8'
_cell_volume   145.32576253
_cell_formula_units_Z   2
loop_
 _symmetry_equiv_pos_site_id
 _symmetry_equiv_pos_as_xyz
  1  'x, y, z'
loop_
 _atom_site_type_symbol
 _atom_site_label
 _atom_site_symmetry_multiplicity
 _atom_site_fract_x
 _atom_site_fract_y
 _atom_site_fract_z
 _atom_site_occupancy
  V  V0  1  0.867543  0.735088  0.071891  1
  V  V1  1  0.132457  0.264912  0.928109  1
  V  V2  1  0.867543  0.735088  0.428109  1
  V  V3  1  0.132457  0.264912  0.571891  1
  Zn  Zn4  1  0.388795  0.777590  0.750000  1
  Zn  Zn5  1  0.611205  0.222410  0.250000  1
  O  O6  1  0.230773  0.461545  0.386788  1
  O  O7  1  0.769227  0.538455  0.613212  1
  O  O8  1  0.769227  0.538455  0.886788  1
  O  O9  1  0.230773  0.461545  0.113212  1
  O  O10  1  0.966825  0.933650  0.250000  1
  O  O11  1  0.033175  0.066350  0.750000  1
  O  O12  1  0.500000  0.000000  0.000000  1
  O  O13  1  0.500000  0.000000  0.500000  1
