# generated using pymatgen
data_CaMnBiO5
_symmetry_space_group_name_H-M   'P 1'
_cell_length_a   5.53758477
_cell_length_b   11.34129078
_cell_length_c   15.56130443
_cell_angle_alpha   90.00027469
_cell_angle_beta   89.99966731
_cell_angle_gamma   90.00036157
_symmetry_Int_Tables_number   1
_chemical_formula_structural   CaMnBiO5
_chemical_formula_sum   'Ca8 Mn8 Bi8 O40'
_cell_volume   977.30219009
_cell_formula_units_Z   8
loop_
 _symmetry_equiv_pos_site_id
 _symmetry_equiv_pos_as_xyz
  1  'x, y, z'
loop_
 _atom_site_type_symbol
 _atom_site_label
 _atom_site_symmetry_multiplicity
 _atom_site_fract_x
 _atom_site_fract_y
 _atom_site_fract_z
 _atom_site_occupancy
  Ca  Ca0  1  0.502032  0.358760  0.448595  1
  Ca  Ca1  1  0.002044  0.141248  0.448595  1
  Ca  Ca2  1  0.002033  0.641242  0.051407  1
  Ca  Ca3  1  0.997962  0.358754  0.948594  1
  Ca  Ca4  1  0.497964  0.141248  0.948596  1
  Ca  Ca5  1  0.997960  0.858749  0.551403  1
  Ca  Ca6  1  0.497963  0.641241  0.551406  1
  Ca  Ca7  1  0.502040  0.858756  0.051406  1
  Mn  Mn8  1  0.982523  0.404549  0.598497  1
  Mn  Mn9  1  0.517482  0.904549  0.401520  1
  Mn  Mn10  1  0.017475  0.595448  0.401511  1
  Mn  Mn11  1  0.482513  0.095447  0.598489  1
  Mn  Mn12  1  0.017486  0.095448  0.098492  1
  Mn  Mn13  1  0.982519  0.904548  0.901509  1
  Mn  Mn14  1  0.517478  0.404550  0.098493  1
  Mn  Mn15  1  0.482526  0.595453  0.901506  1
  Bi  Bi16  1  0.952540  0.846954  0.232735  1
  Bi  Bi17  1  0.047455  0.153046  0.767261  1
  Bi  Bi18  1  0.547461  0.346960  0.767264  1
  Bi  Bi19  1  0.047461  0.653041  0.732735  1
  Bi  Bi20  1  0.452540  0.153046  0.267263  1
  Bi  Bi21  1  0.452538  0.653042  0.232736  1
  Bi  Bi22  1  0.547460  0.846955  0.732737  1
  Bi  Bi23  1  0.952539  0.346959  0.267262  1
  O  O24  1  0.937843  0.330899  0.696423  1
  O  O25  1  0.295357  0.046366  0.067491  1
  O  O26  1  0.204626  0.546363  0.932511  1
  O  O27  1  0.238786  0.765606  0.151972  1
  O  O28  1  0.261216  0.265605  0.848029  1
  O  O29  1  0.937845  0.830898  0.803573  1
  O  O30  1  0.261211  0.765607  0.651971  1
  O  O31  1  0.562156  0.830896  0.303572  1
  O  O32  1  0.295378  0.546363  0.432513  1
  O  O33  1  0.062158  0.669102  0.303576  1
  O  O34  1  0.562155  0.330897  0.196426  1
  O  O35  1  0.623751  0.182065  0.525707  1
  O  O36  1  0.795365  0.953637  0.432508  1
  O  O37  1  0.761215  0.734393  0.651974  1
  O  O38  1  0.168636  0.023211  0.873921  1
  O  O39  1  0.795370  0.453638  0.067490  1
  O  O40  1  0.062156  0.169101  0.196422  1
  O  O41  1  0.738787  0.234395  0.348030  1
  O  O42  1  0.123752  0.817936  0.974291  1
  O  O43  1  0.204639  0.046367  0.567492  1
  O  O44  1  0.376255  0.817939  0.474289  1
  O  O45  1  0.831370  0.976789  0.126079  1
  O  O46  1  0.761218  0.234395  0.848026  1
  O  O47  1  0.668627  0.976795  0.626077  1
  O  O48  1  0.376247  0.317932  0.025706  1
  O  O49  1  0.123762  0.317931  0.525701  1
  O  O50  1  0.704621  0.453637  0.567487  1
  O  O51  1  0.704642  0.953634  0.932509  1
  O  O52  1  0.668627  0.476790  0.873922  1
  O  O53  1  0.876247  0.682066  0.474294  1
  O  O54  1  0.876241  0.182069  0.025704  1
  O  O55  1  0.623752  0.682066  0.974294  1
  O  O56  1  0.831378  0.476793  0.373923  1
  O  O57  1  0.738786  0.734393  0.151972  1
  O  O58  1  0.238786  0.265608  0.348028  1
  O  O59  1  0.168619  0.523205  0.626076  1
  O  O60  1  0.331371  0.523209  0.126078  1
  O  O61  1  0.437843  0.169104  0.696428  1
  O  O62  1  0.331368  0.023209  0.373921  1
  O  O63  1  0.437845  0.669101  0.803575  1
