# generated using pymatgen
data_Ba2CaCuMo2F14
_symmetry_space_group_name_H-M   'P 1'
_cell_length_a   5.53981587
_cell_length_b   7.70181856
_cell_length_c   15.49021895
_cell_angle_alpha   90.47983910
_cell_angle_beta   90.04554087
_cell_angle_gamma   111.04935497
_symmetry_Int_Tables_number   1
_chemical_formula_structural   Ba2CaCuMo2F14
_chemical_formula_sum   'Ba4 Ca2 Cu2 Mo4 F28'
_cell_volume   616.78709967
_cell_formula_units_Z   2
loop_
 _symmetry_equiv_pos_site_id
 _symmetry_equiv_pos_as_xyz
  1  'x, y, z'
loop_
 _atom_site_type_symbol
 _atom_site_label
 _atom_site_symmetry_multiplicity
 _atom_site_fract_x
 _atom_site_fract_y
 _atom_site_fract_z
 _atom_site_occupancy
  Ba  Ba0  1  0.103408  0.369554  0.623936  1
  Ba  Ba1  1  0.267706  0.369883  0.123574  1
  Ba  Ba2  1  0.900718  0.633197  0.376494  1
  Ba  Ba3  1  0.734867  0.631483  0.876949  1
  Ca  Ca4  1  0.424697  0.000599  0.750345  1
  Ca  Ca5  1  0.577825  0.000787  0.249833  1
  Cu  Cu6  1  0.501004  0.000321  0.000105  1
  Cu  Cu7  1  0.502018  0.001315  0.500083  1
  Mo  Mo8  1  0.092065  0.243070  0.876511  1
  Mo  Mo9  1  0.910241  0.758618  0.124067  1
  Mo  Mo10  1  0.153688  0.244260  0.375691  1
  Mo  Mo11  1  0.849387  0.758129  0.624297  1
  F  F12  1  0.901709  0.975742  0.341325  1
  F  F13  1  0.881624  0.291925  0.458065  1
  F  F14  1  0.124542  0.712175  0.542693  1
  F  F15  1  0.627231  0.483373  0.597442  1
  F  F16  1  0.620124  0.087611  0.614751  1
  F  F17  1  0.535434  0.913798  0.885583  1
  F  F18  1  0.413212  0.289906  0.958279  1
  F  F19  1  0.926615  0.027025  0.158518  1
  F  F20  1  0.361128  0.331332  0.775918  1
  F  F21  1  0.377308  0.519387  0.401279  1
  F  F22  1  0.812114  0.238934  0.783821  1
  F  F23  1  0.144036  0.517777  0.903383  1
  F  F24  1  0.426323  0.238497  0.282390  1
  F  F25  1  0.189640  0.762592  0.216928  1
  F  F26  1  0.466634  0.086500  0.114457  1
  F  F27  1  0.641151  0.671639  0.224682  1
  F  F28  1  0.131250  0.835850  0.010631  1
  F  F29  1  0.100379  0.026587  0.659367  1
  F  F30  1  0.870653  0.164925  0.989760  1
  F  F31  1  0.707810  0.837402  0.510776  1
  F  F32  1  0.589065  0.711866  0.042300  1
  F  F33  1  0.572927  0.761810  0.716616  1
  F  F34  1  0.970369  0.331677  0.275371  1
  F  F35  1  0.297611  0.166097  0.489031  1
  F  F36  1  0.382580  0.914886  0.385441  1
  F  F37  1  0.076365  0.974876  0.841878  1
  F  F38  1  0.029714  0.669598  0.725117  1
  F  F39  1  0.857241  0.483471  0.097793  1
