# generated using pymatgen
data_Mg(NiO2)2
_symmetry_space_group_name_H-M   'P 1'
_cell_length_a   2.90554401
_cell_length_b   4.97789342
_cell_length_c   9.34475322
_cell_angle_alpha   90.00000000
_cell_angle_beta   90.00000000
_cell_angle_gamma   106.96843011
_symmetry_Int_Tables_number   1
_chemical_formula_structural   Mg(NiO2)2
_chemical_formula_sum   'Mg2 Ni4 O8'
_cell_volume   129.27373369
_cell_formula_units_Z   2
loop_
 _symmetry_equiv_pos_site_id
 _symmetry_equiv_pos_as_xyz
  1  'x, y, z'
loop_
 _atom_site_type_symbol
 _atom_site_label
 _atom_site_symmetry_multiplicity
 _atom_site_fract_x
 _atom_site_fract_y
 _atom_site_fract_z
 _atom_site_occupancy
  Mg  Mg0  1  0.392365  0.784731  0.750000  1
  Mg  Mg1  1  0.607635  0.215269  0.250000  1
  Ni  Ni2  1  0.865406  0.730813  0.069786  1
  Ni  Ni3  1  0.134594  0.269187  0.930214  1
  Ni  Ni4  1  0.865406  0.730813  0.430214  1
  Ni  Ni5  1  0.134594  0.269187  0.569786  1
  O  O6  1  0.224326  0.448655  0.386105  1
  O  O7  1  0.775674  0.551345  0.613895  1
  O  O8  1  0.775674  0.551345  0.886105  1
  O  O9  1  0.224326  0.448655  0.113895  1
  O  O10  1  0.957824  0.915648  0.250000  1
  O  O11  1  0.042176  0.084352  0.750000  1
  O  O12  1  0.500000  0.000000  0.000000  1
  O  O13  1  0.500000  0.000000  0.500000  1
