# generated using pymatgen
data_Ca2CuSbO6
_symmetry_space_group_name_H-M   'P 1'
_cell_length_a   5.78078549
_cell_length_b   5.91547782
_cell_length_c   7.53133717
_cell_angle_alpha   90.00000000
_cell_angle_beta   90.00000000
_cell_angle_gamma   102.81530956
_symmetry_Int_Tables_number   1
_chemical_formula_structural   Ca2CuSbO6
_chemical_formula_sum   'Ca4 Cu2 Sb2 O12'
_cell_volume   251.12707115
_cell_formula_units_Z   2
loop_
 _symmetry_equiv_pos_site_id
 _symmetry_equiv_pos_as_xyz
  1  'x, y, z'
loop_
 _atom_site_type_symbol
 _atom_site_label
 _atom_site_symmetry_multiplicity
 _atom_site_fract_x
 _atom_site_fract_y
 _atom_site_fract_z
 _atom_site_occupancy
  Ca  Ca0  1  0.528843  0.573946  0.750000  1
  Ca  Ca1  1  0.471157  0.426054  0.250000  1
  Ca  Ca2  1  0.052016  0.039098  0.750000  1
  Ca  Ca3  1  0.947984  0.960902  0.250000  1
  Cu  Cu4  1  0.500000  0.000000  0.500000  1
  Cu  Cu5  1  0.500000  0.000000  0.000000  1
  Sb  Sb6  1  0.000000  0.500000  0.500000  1
  Sb  Sb7  1  0.000000  0.500000  0.000000  1
  O  O8  1  0.338939  0.690052  0.460960  1
  O  O9  1  0.140098  0.234486  0.053287  1
  O  O10  1  0.661061  0.309948  0.960960  1
  O  O11  1  0.859902  0.765514  0.553287  1
  O  O12  1  0.140098  0.234486  0.446713  1
  O  O13  1  0.859902  0.765514  0.946713  1
  O  O14  1  0.902411  0.555665  0.250000  1
  O  O15  1  0.338939  0.690052  0.039040  1
  O  O16  1  0.424104  0.944098  0.750000  1
  O  O17  1  0.661061  0.309948  0.539040  1
  O  O18  1  0.097589  0.444335  0.750000  1
  O  O19  1  0.575896  0.055902  0.250000  1
