# generated using pymatgen
data_MnZnO2
_symmetry_space_group_name_H-M   'P 1'
_cell_length_a   2.99260101
_cell_length_b   8.07898210
_cell_length_c   8.35695064
_cell_angle_alpha   73.47651267
_cell_angle_beta   79.64198405
_cell_angle_gamma   79.38333505
_symmetry_Int_Tables_number   1
_chemical_formula_structural   MnZnO2
_chemical_formula_sum   'Mn4 Zn4 O8'
_cell_volume   188.63952587
_cell_formula_units_Z   4
loop_
 _symmetry_equiv_pos_site_id
 _symmetry_equiv_pos_as_xyz
  1  'x, y, z'
loop_
 _atom_site_type_symbol
 _atom_site_label
 _atom_site_symmetry_multiplicity
 _atom_site_fract_x
 _atom_site_fract_y
 _atom_site_fract_z
 _atom_site_occupancy
  Mn  Mn0  1  0.626274  0.186745  0.561179  1
  Mn  Mn1  1  0.149479  0.502674  0.189652  1
  Mn  Mn2  1  0.842962  0.476322  0.837824  1
  Mn  Mn3  1  0.367250  0.792202  0.466325  1
  Zn  Zn4  1  0.312290  0.154539  0.222561  1
  Zn  Zn5  1  0.682095  0.824396  0.805166  1
  Zn  Zn6  1  0.006683  0.854402  0.127189  1
  Zn  Zn7  1  0.987573  0.124674  0.900480  1
  O  O8  1  0.846396  0.684139  0.615586  1
  O  O9  1  0.461282  0.293940  0.784701  1
  O  O10  1  0.532438  0.685120  0.242823  1
  O  O11  1  0.147128  0.294867  0.412036  1
  O  O12  1  0.147945  0.013881  0.686288  1
  O  O13  1  0.788765  0.323672  0.101016  1
  O  O14  1  0.845706  0.965136  0.341289  1
  O  O15  1  0.205763  0.655154  0.926494  1
