# generated using pymatgen
data_Mg(NiO2)2
_symmetry_space_group_name_H-M   'P 1'
_cell_length_a   2.89697326
_cell_length_b   8.65950582
_cell_length_c   10.18709183
_cell_angle_alpha   89.98184085
_cell_angle_beta   90.00006327
_cell_angle_gamma   90.00008033
_symmetry_Int_Tables_number   1
_chemical_formula_structural   Mg(NiO2)2
_chemical_formula_sum   'Mg4 Ni8 O16'
_cell_volume   255.55700753
_cell_formula_units_Z   4
loop_
 _symmetry_equiv_pos_site_id
 _symmetry_equiv_pos_as_xyz
  1  'x, y, z'
loop_
 _atom_site_type_symbol
 _atom_site_label
 _atom_site_symmetry_multiplicity
 _atom_site_fract_x
 _atom_site_fract_y
 _atom_site_fract_z
 _atom_site_occupancy
  Mg  Mg0  1  0.750000  0.244521  0.339199  1
  Mg  Mg1  1  0.250000  0.755428  0.660784  1
  Mg  Mg2  1  0.749999  0.744422  0.160771  1
  Mg  Mg3  1  0.250000  0.255501  0.839348  1
  Ni  Ni4  1  0.249999  0.413909  0.099985  1
  Ni  Ni5  1  0.749999  0.086112  0.599996  1
  Ni  Ni6  1  0.249999  0.913886  0.399985  1
  Ni  Ni7  1  0.749999  0.586158  0.899990  1
  Ni  Ni8  1  0.750000  0.560625  0.384653  1
  Ni  Ni9  1  0.249999  0.439272  0.615344  1
  Ni  Ni10  1  0.749999  0.060644  0.115289  1
  Ni  Ni11  1  0.249998  0.939320  0.884651  1
  O  O12  1  0.250000  0.904332  0.074797  1
  O  O13  1  0.749999  0.095770  0.925308  1
  O  O14  1  0.249999  0.404297  0.425206  1
  O  O15  1  0.750000  0.595628  0.574741  1
  O  O16  1  0.249999  0.027222  0.712603  1
  O  O17  1  0.749999  0.973027  0.287365  1
  O  O18  1  0.249999  0.527042  0.787405  1
  O  O19  1  0.750000  0.472857  0.212628  1
  O  O20  1  0.250000  0.621327  0.032493  1
  O  O21  1  0.750000  0.378839  0.967519  1
  O  O22  1  0.250000  0.121278  0.467551  1
  O  O23  1  0.749999  0.878748  0.532590  1
  O  O24  1  0.750000  0.788635  0.822717  1
  O  O25  1  0.249999  0.211292  0.177081  1
  O  O26  1  0.249999  0.711261  0.322850  1
  O  O27  1  0.750000  0.288644  0.677154  1
