# generated using pymatgen
data_AlSb3Se2ClO8
_symmetry_space_group_name_H-M   'P 1'
_cell_length_a   8.00499706
_cell_length_b   6.94301710
_cell_length_c   9.40238103
_cell_angle_alpha   90.00238286
_cell_angle_beta   89.96410874
_cell_angle_gamma   89.99881332
_symmetry_Int_Tables_number   1
_chemical_formula_structural   AlSb3Se2ClO8
_chemical_formula_sum   'Al2 Sb6 Se4 Cl2 O16'
_cell_volume   522.57324783
_cell_formula_units_Z   2
loop_
 _symmetry_equiv_pos_site_id
 _symmetry_equiv_pos_as_xyz
  1  'x, y, z'
loop_
 _atom_site_type_symbol
 _atom_site_label
 _atom_site_symmetry_multiplicity
 _atom_site_fract_x
 _atom_site_fract_y
 _atom_site_fract_z
 _atom_site_occupancy
  Al  Al0  1  0.249976  0.332430  0.250015  1
  Al  Al1  1  0.749990  0.668464  0.750026  1
  Sb  Sb2  1  0.507074  0.997966  0.995349  1
  Sb  Sb3  1  0.507139  0.998186  0.504712  1
  Sb  Sb4  1  0.992998  0.998229  0.995416  1
  Sb  Sb5  1  0.749997  0.134138  0.749970  1
  Sb  Sb6  1  0.249957  0.890582  0.249975  1
  Sb  Sb7  1  0.992943  0.998034  0.504633  1
  Se  Se8  1  0.749925  0.445441  0.062302  1
  Se  Se9  1  0.250037  0.553935  0.937983  1
  Se  Se10  1  0.750065  0.445462  0.437709  1
  Se  Se11  1  0.249962  0.553942  0.562017  1
  Cl  Cl12  1  0.249995  0.086149  0.749984  1
  Cl  Cl13  1  0.749978  0.913258  0.250039  1
  O  O14  1  0.249840  0.139413  0.112359  1
  O  O15  1  0.249962  0.532410  0.123865  1
  O  O16  1  0.749990  0.465541  0.625279  1
  O  O17  1  0.580256  0.296692  0.082070  1
  O  O18  1  0.420357  0.702500  0.581972  1
  O  O19  1  0.079559  0.702549  0.582061  1
  O  O20  1  0.749936  0.855985  0.890414  1
  O  O21  1  0.919650  0.296740  0.082022  1
  O  O22  1  0.919754  0.296700  0.417918  1
  O  O23  1  0.079659  0.702516  0.918022  1
  O  O24  1  0.250116  0.139472  0.387533  1
  O  O25  1  0.750011  0.856021  0.609564  1
  O  O26  1  0.420441  0.702546  0.917938  1
  O  O27  1  0.580367  0.296733  0.417998  1
  O  O28  1  0.750028  0.465554  0.874731  1
  O  O29  1  0.250036  0.532408  0.376124  1
