# generated using pymatgen
data_BiP2O7
_symmetry_space_group_name_H-M   'P 1'
_cell_length_a   6.98787740
_cell_length_b   7.00464313
_cell_length_c   7.40772205
_cell_angle_alpha   113.83673782
_cell_angle_beta   91.13039066
_cell_angle_gamma   84.78445186
_symmetry_Int_Tables_number   1
_chemical_formula_structural   BiP2O7
_chemical_formula_sum   'Bi2 P4 O14'
_cell_volume   330.23070907
_cell_formula_units_Z   2
loop_
 _symmetry_equiv_pos_site_id
 _symmetry_equiv_pos_as_xyz
  1  'x, y, z'
loop_
 _atom_site_type_symbol
 _atom_site_label
 _atom_site_symmetry_multiplicity
 _atom_site_fract_x
 _atom_site_fract_y
 _atom_site_fract_z
 _atom_site_occupancy
  Bi  Bi0  1  0.671527  0.102156  0.229702  1
  Bi  Bi1  1  0.328524  0.897797  0.770306  1
  P  P2  1  0.386023  0.338363  0.654533  1
  P  P3  1  0.613848  0.661633  0.345416  1
  P  P4  1  0.159025  0.218179  0.264949  1
  P  P5  1  0.841009  0.781811  0.735162  1
  O  O6  1  0.609607  0.428286  0.220128  1
  O  O7  1  0.919170  0.613206  0.802098  1
  O  O8  1  0.080796  0.386729  0.197965  1
  O  O9  1  0.999324  0.923068  0.737719  1
  O  O10  1  0.227843  0.321251  0.487481  1
  O  O11  1  0.319867  0.225106  0.777172  1
  O  O12  1  0.337645  0.080303  0.140455  1
  O  O13  1  0.390423  0.571669  0.779802  1
  O  O14  1  0.772169  0.678801  0.512523  1
  O  O15  1  0.579435  0.236196  0.545998  1
  O  O16  1  0.000843  0.077025  0.262264  1
  O  O17  1  0.662324  0.919738  0.859572  1
  O  O18  1  0.680074  0.774860  0.222705  1
  O  O19  1  0.420525  0.763820  0.454051  1
