# generated using pymatgen
data_Sr2YBi2O7
_symmetry_space_group_name_H-M   'P 1'
_cell_length_a   15.44192321
_cell_length_b   15.44219189
_cell_length_c   15.44245465
_cell_angle_alpha   30.55240279
_cell_angle_beta   158.87764428
_cell_angle_gamma   158.18022647
_symmetry_Int_Tables_number   1
_chemical_formula_structural   Sr2YBi2O7
_chemical_formula_sum   'Sr4 Y2 Bi4 O14'
_cell_volume   492.90329613
_cell_formula_units_Z   2
loop_
 _symmetry_equiv_pos_site_id
 _symmetry_equiv_pos_as_xyz
  1  'x, y, z'
loop_
 _atom_site_type_symbol
 _atom_site_label
 _atom_site_symmetry_multiplicity
 _atom_site_fract_x
 _atom_site_fract_y
 _atom_site_fract_z
 _atom_site_occupancy
  Sr  Sr0  1  0.873241  0.780502  0.709637  1
  Sr  Sr1  1  0.070885  0.163602  0.290382  1
  Sr  Sr2  1  0.873273  0.663581  0.592778  1
  Sr  Sr3  1  0.070802  0.280490  0.407224  1
  Y  Y4  1  0.003987  0.503980  0.500014  1
  Y  Y5  1  0.003921  0.003931  -0.000005  1
  Bi  Bi6  1  0.511628  0.432568  0.917577  1
  Bi  Bi7  1  0.514956  0.594027  0.082384  1
  Bi  Bi8  1  0.511651  0.094106  0.579044  1
  Bi  Bi9  1  0.515064  0.932598  0.420954  1
  O  O10  1  0.037726  0.997454  0.540303  1
  O  O11  1  0.457158  0.497468  0.459732  1
  O  O12  1  0.493521  0.199421  0.203729  1
  O  O13  1  0.995688  0.289777  0.796248  1
  O  O14  1  0.493500  0.789663  0.794160  1
  O  O15  1  0.995558  0.699338  0.205842  1
  O  O16  1  0.511194  0.709132  0.709652  1
  O  O17  1  0.999446  0.801507  0.290313  1
  O  O18  1  0.511206  0.301546  0.302051  1
  O  O19  1  0.999507  0.209133  0.697940  1
  O  O20  1  0.651174  0.948739  0.397084  1
  O  O21  1  0.551690  0.254176  0.602935  1
  O  O22  1  0.651120  0.754087  0.202412  1
  O  O23  1  0.551636  0.448697  0.797610  1
