# generated using pymatgen
data_Ca4Ni5(TeO6)3
_symmetry_space_group_name_H-M   'P 1'
_cell_length_a   9.14802015
_cell_length_b   9.14802032
_cell_length_c   10.51432902
_cell_angle_alpha   86.85998019
_cell_angle_beta   86.85997963
_cell_angle_gamma   58.46607666
_symmetry_Int_Tables_number   1
_chemical_formula_structural   Ca4Ni5(TeO6)3
_chemical_formula_sum   'Ca8 Ni10 Te6 O36'
_cell_volume   748.49106592
_cell_formula_units_Z   2
loop_
 _symmetry_equiv_pos_site_id
 _symmetry_equiv_pos_as_xyz
  1  'x, y, z'
loop_
 _atom_site_type_symbol
 _atom_site_label
 _atom_site_symmetry_multiplicity
 _atom_site_fract_x
 _atom_site_fract_y
 _atom_site_fract_z
 _atom_site_occupancy
  Ca  Ca0  1  0.843430  0.518530  0.342301  1
  Ca  Ca1  1  0.466149  0.540345  0.167504  1
  Ca  Ca2  1  0.481470  0.156570  0.657699  1
  Ca  Ca3  1  0.459655  0.533851  0.832496  1
  Ca  Ca4  1  0.149227  0.857607  0.668118  1
  Ca  Ca5  1  0.126694  0.235690  0.841527  1
  Ca  Ca6  1  0.764310  0.873306  0.158473  1
  Ca  Ca7  1  0.142393  0.850773  0.331882  1
  Ni  Ni8  1  0.799563  0.514586  0.981798  1
  Ni  Ni9  1  0.122795  0.191361  0.481561  1
  Ni  Ni10  1  0.325806  0.332546  0.310542  1
  Ni  Ni11  1  0.941327  0.716833  0.810551  1
  Ni  Ni12  1  0.667454  0.674194  0.689458  1
  Ni  Ni13  1  0.975316  0.024684  0.000000  1
  Ni  Ni14  1  0.633093  0.366907  0.500000  1
  Ni  Ni15  1  0.283167  0.058674  0.189449  1
  Ni  Ni16  1  0.808639  0.877205  0.518439  1
  Ni  Ni17  1  0.485414  0.200437  0.018202  1
  Te  Te18  1  0.465213  0.877699  0.933602  1
  Te  Te19  1  0.803891  0.195991  0.250256  1
  Te  Te20  1  0.804009  0.196109  0.749744  1
  Te  Te21  1  0.486076  0.856844  0.434237  1
  Te  Te22  1  0.143156  0.513924  0.565763  1
  Te  Te23  1  0.122301  0.534787  0.066398  1
  O  O24  1  0.415367  0.098479  0.858404  1
  O  O25  1  0.767900  0.419212  0.809954  1
  O  O26  1  0.593871  0.626428  0.518445  1
  O  O27  1  0.758108  0.111742  0.413797  1
  O  O28  1  0.580788  0.232100  0.190046  1
  O  O29  1  0.888258  0.241892  0.586203  1
  O  O30  1  0.412705  0.798209  0.282677  1
  O  O31  1  0.030275  0.061885  0.818129  1
  O  O32  1  0.577999  0.330197  0.682131  1
  O  O33  1  0.092258  0.426985  0.418902  1
  O  O34  1  0.539593  0.651155  0.009023  1
  O  O35  1  0.516292  0.964916  0.080597  1
  O  O36  1  0.840691  0.972683  0.690144  1
  O  O37  1  0.704837  0.752844  0.864421  1
  O  O38  1  0.348845  0.460407  0.990977  1
  O  O39  1  0.195858  0.593562  0.217331  1
  O  O40  1  0.068775  0.740828  0.490817  1
  O  O41  1  0.247156  0.295163  0.135579  1
  O  O42  1  0.373572  0.406129  0.481555  1
  O  O43  1  0.259172  0.931225  0.509183  1
  O  O44  1  0.706669  0.807238  0.359045  1
  O  O45  1  0.903527  0.638886  0.635326  1
  O  O46  1  0.938115  0.969725  0.181871  1
  O  O47  1  0.406438  0.804142  0.782669  1
  O  O48  1  0.014499  0.765085  0.981592  1
  O  O49  1  0.719786  0.150435  0.913948  1
  O  O50  1  0.035084  0.483708  0.919403  1
  O  O51  1  0.201791  0.587295  0.717323  1
  O  O52  1  0.027317  0.159309  0.309856  1
  O  O53  1  0.361114  0.096473  0.364674  1
  O  O54  1  0.192762  0.293331  0.640955  1
  O  O55  1  0.849565  0.280214  0.086052  1
  O  O56  1  0.669803  0.422001  0.317869  1
  O  O57  1  0.573015  0.907742  0.581098  1
  O  O58  1  0.234915  0.985501  0.018408  1
  O  O59  1  0.901521  0.584633  0.141596  1
