# generated using pymatgen
data_Ca3Mn2(SiO4)3
_symmetry_space_group_name_H-M   'P 1'
_cell_length_a   10.59887132
_cell_length_b   10.59887162
_cell_length_c   10.59887126
_cell_angle_alpha   109.47122187
_cell_angle_beta   109.47122243
_cell_angle_gamma   109.47121827
_symmetry_Int_Tables_number   1
_chemical_formula_structural   Ca3Mn2(SiO4)3
_chemical_formula_sum   'Ca12 Mn8 Si12 O48'
_cell_volume   916.55171346
_cell_formula_units_Z   4
loop_
 _symmetry_equiv_pos_site_id
 _symmetry_equiv_pos_as_xyz
  1  'x, y, z'
loop_
 _atom_site_type_symbol
 _atom_site_label
 _atom_site_symmetry_multiplicity
 _atom_site_fract_x
 _atom_site_fract_y
 _atom_site_fract_z
 _atom_site_occupancy
  Ca  Ca0  1  0.375000  0.750000  0.125000  1
  Ca  Ca1  1  0.125000  0.250000  0.375000  1
  Ca  Ca2  1  0.375000  0.125000  0.250000  1
  Ca  Ca3  1  0.125000  0.375000  0.750000  1
  Ca  Ca4  1  0.875000  0.750000  0.625000  1
  Ca  Ca5  1  0.750000  0.125000  0.375000  1
  Ca  Ca6  1  0.750000  0.625000  0.875000  1
  Ca  Ca7  1  0.625000  0.250000  0.875000  1
  Ca  Ca8  1  0.250000  0.875000  0.625000  1
  Ca  Ca9  1  0.875000  0.625000  0.250000  1
  Ca  Ca10  1  0.625000  0.875000  0.750000  1
  Ca  Ca11  1  0.250000  0.375000  0.125000  1
  Mn  Mn12  1  0.000000  0.000000  0.000000  1
  Mn  Mn13  1  0.000000  0.500000  0.000000  1
  Mn  Mn14  1  0.000000  0.000000  0.500000  1
  Mn  Mn15  1  0.000000  0.500000  0.500000  1
  Mn  Mn16  1  0.500000  0.000000  0.500000  1
  Mn  Mn17  1  0.500000  0.500000  0.000000  1
  Mn  Mn18  1  0.500000  0.500000  0.500000  1
  Mn  Mn19  1  0.500000  0.000000  0.000000  1
  Si  Si20  1  0.250000  0.125000  0.875000  1
  Si  Si21  1  0.750000  0.875000  0.125000  1
  Si  Si22  1  0.375000  0.250000  0.625000  1
  Si  Si23  1  0.625000  0.375000  0.250000  1
  Si  Si24  1  0.125000  0.750000  0.875000  1
  Si  Si25  1  0.875000  0.125000  0.750000  1
  Si  Si26  1  0.750000  0.375000  0.625000  1
  Si  Si27  1  0.375000  0.625000  0.750000  1
  Si  Si28  1  0.125000  0.875000  0.250000  1
  Si  Si29  1  0.875000  0.250000  0.125000  1
  Si  Si30  1  0.625000  0.750000  0.375000  1
  Si  Si31  1  0.250000  0.625000  0.375000  1
  O  O32  1  0.294337  0.490336  0.382344  1
  O  O33  1  0.009664  0.304001  0.892007  1
  O  O34  1  0.117656  0.607993  0.911994  1
  O  O35  1  0.205663  0.588006  0.195999  1
  O  O36  1  0.205663  0.117656  0.009664  1
  O  O37  1  0.588006  0.195999  0.205663  1
  O  O38  1  0.607993  0.195999  0.490336  1
  O  O39  1  0.195999  0.205663  0.588006  1
  O  O40  1  0.892007  0.382344  0.588006  1
  O  O41  1  0.304001  0.911994  0.294337  1
  O  O42  1  0.911994  0.294337  0.304001  1
  O  O43  1  0.009664  0.205663  0.117656  1
  O  O44  1  0.195999  0.490336  0.607993  1
  O  O45  1  0.588006  0.892007  0.382344  1
  O  O46  1  0.117656  0.009664  0.205663  1
  O  O47  1  0.490336  0.607993  0.195999  1
  O  O48  1  0.382344  0.588006  0.892007  1
  O  O49  1  0.892007  0.009664  0.304001  1
  O  O50  1  0.607993  0.911994  0.117656  1
  O  O51  1  0.107993  0.617656  0.411994  1
  O  O52  1  0.911994  0.117656  0.607993  1
  O  O53  1  0.382344  0.294337  0.490336  1
  O  O54  1  0.304001  0.892007  0.009664  1
  O  O55  1  0.294337  0.304001  0.911994  1
  O  O56  1  0.705663  0.509664  0.617656  1
  O  O57  1  0.990336  0.695999  0.107993  1
  O  O58  1  0.882344  0.392007  0.088006  1
  O  O59  1  0.794337  0.411994  0.804001  1
  O  O60  1  0.794337  0.882344  0.990336  1
  O  O61  1  0.411994  0.804001  0.794337  1
  O  O62  1  0.392007  0.804001  0.509664  1
  O  O63  1  0.804001  0.794337  0.411994  1
  O  O64  1  0.705663  0.695999  0.088006  1
  O  O65  1  0.695999  0.107993  0.990336  1
  O  O66  1  0.617656  0.705663  0.509664  1
  O  O67  1  0.509664  0.617656  0.705663  1
  O  O68  1  0.088006  0.882344  0.392007  1
  O  O69  1  0.392007  0.088006  0.882344  1
  O  O70  1  0.107993  0.990336  0.695999  1
  O  O71  1  0.617656  0.411994  0.107993  1
  O  O72  1  0.509664  0.392007  0.804001  1
  O  O73  1  0.882344  0.990336  0.794337  1
  O  O74  1  0.411994  0.107993  0.617656  1
  O  O75  1  0.804001  0.509664  0.392007  1
  O  O76  1  0.990336  0.794337  0.882344  1
  O  O77  1  0.088006  0.705663  0.695999  1
  O  O78  1  0.695999  0.088006  0.705663  1
  O  O79  1  0.490336  0.382344  0.294337  1
