# generated using pymatgen
data_ZnP2WO7
_symmetry_space_group_name_H-M   'P 1'
_cell_length_a   5.53078564
_cell_length_b   6.62322513
_cell_length_c   8.28295131
_cell_angle_alpha   86.30654291
_cell_angle_beta   91.24439421
_cell_angle_gamma   67.86429310
_symmetry_Int_Tables_number   1
_chemical_formula_structural   ZnP2WO7
_chemical_formula_sum   'Zn2 P4 W2 O14'
_cell_volume   280.12324064
_cell_formula_units_Z   2
loop_
 _symmetry_equiv_pos_site_id
 _symmetry_equiv_pos_as_xyz
  1  'x, y, z'
loop_
 _atom_site_type_symbol
 _atom_site_label
 _atom_site_symmetry_multiplicity
 _atom_site_fract_x
 _atom_site_fract_y
 _atom_site_fract_z
 _atom_site_occupancy
  Zn  Zn0  1  0.343453  0.683301  0.617419  1
  Zn  Zn1  1  0.656547  0.316699  0.382581  1
  P  P2  1  0.174211  0.653215  0.146945  1
  P  P3  1  0.825788  0.346786  0.853055  1
  P  P4  1  0.199753  0.229826  0.589144  1
  P  P5  1  0.800248  0.770174  0.410856  1
  W  W6  1  0.333350  0.112354  0.140290  1
  W  W7  1  0.666650  0.887645  0.859710  1
  O  O8  1  0.041025  0.701144  0.979641  1
  O  O9  1  0.958976  0.298856  0.020359  1
  O  O10  1  0.255486  0.829694  0.204976  1
  O  O11  1  0.744514  0.170305  0.795025  1
  O  O12  1  0.402824  0.422290  0.170075  1
  O  O13  1  0.597176  0.577710  0.829925  1
  O  O14  1  0.623278  0.644610  0.456697  1
  O  O15  1  0.376722  0.355390  0.543303  1
  O  O16  1  0.030987  0.214608  0.446079  1
  O  O17  1  0.969014  0.785392  0.553921  1
  O  O18  1  0.033481  0.374907  0.725453  1
  O  O19  1  0.648172  0.003258  0.328897  1
  O  O20  1  0.351828  0.996743  0.671104  1
  O  O21  1  0.966518  0.625093  0.274547  1
