# generated using pymatgen
data_CaCo4(CuO4)3
_symmetry_space_group_name_H-M   'P 1'
_cell_length_a   6.27053636
_cell_length_b   6.27053614
_cell_length_c   6.27053691
_cell_angle_alpha   109.47122047
_cell_angle_beta   109.47121979
_cell_angle_gamma   109.47121837
_symmetry_Int_Tables_number   1
_chemical_formula_structural   CaCo4(CuO4)3
_chemical_formula_sum   'Ca1 Co4 Cu3 O12'
_cell_volume   189.79825730
_cell_formula_units_Z   1
loop_
 _symmetry_equiv_pos_site_id
 _symmetry_equiv_pos_as_xyz
  1  'x, y, z'
loop_
 _atom_site_type_symbol
 _atom_site_label
 _atom_site_symmetry_multiplicity
 _atom_site_fract_x
 _atom_site_fract_y
 _atom_site_fract_z
 _atom_site_occupancy
  Ca  Ca0  1  0.000000  0.000000  0.000000  1
  Co  Co1  1  0.000000  0.000000  0.500000  1
  Co  Co2  1  0.000000  0.500000  0.000000  1
  Co  Co3  1  0.500000  0.500000  0.500000  1
  Co  Co4  1  0.500000  0.000000  0.000000  1
  Cu  Cu5  1  0.500000  0.500000  0.000000  1
  Cu  Cu6  1  0.000000  0.500000  0.500000  1
  Cu  Cu7  1  0.500000  0.000000  0.500000  1
  O  O8  1  0.825788  0.308957  0.134745  1
  O  O9  1  0.174212  0.691043  0.865255  1
  O  O10  1  0.825788  0.691043  0.516832  1
  O  O11  1  0.308957  0.483168  0.174212  1
  O  O12  1  0.483168  0.174212  0.308957  1
  O  O13  1  0.134745  0.825788  0.308957  1
  O  O14  1  0.691043  0.865255  0.174212  1
  O  O15  1  0.516832  0.825788  0.691043  1
  O  O16  1  0.174212  0.308957  0.483168  1
  O  O17  1  0.691043  0.516832  0.825788  1
  O  O18  1  0.865255  0.174212  0.691043  1
  O  O19  1  0.308957  0.134745  0.825788  1
