# generated using pymatgen
data_Ca3W2O7
_symmetry_space_group_name_H-M   'P 1'
_cell_length_a   5.79283149
_cell_length_b   5.65834792
_cell_length_c   10.27357859
_cell_angle_alpha   105.98486339
_cell_angle_beta   90.00000000
_cell_angle_gamma   90.00000000
_symmetry_Int_Tables_number   1
_chemical_formula_structural   Ca3W2O7
_chemical_formula_sum   'Ca6 W4 O14'
_cell_volume   323.72542563
_cell_formula_units_Z   2
loop_
 _symmetry_equiv_pos_site_id
 _symmetry_equiv_pos_as_xyz
  1  'x, y, z'
loop_
 _atom_site_type_symbol
 _atom_site_label
 _atom_site_symmetry_multiplicity
 _atom_site_fract_x
 _atom_site_fract_y
 _atom_site_fract_z
 _atom_site_occupancy
  Ca  Ca0  1  0.698620  0.757391  0.000000  1
  Ca  Ca1  1  0.198620  0.242609  1.000000  1
  Ca  Ca2  1  0.803995  0.572767  0.619026  1
  Ca  Ca3  1  0.303995  0.427233  0.380974  1
  Ca  Ca4  1  0.803995  0.953740  0.380974  1
  Ca  Ca5  1  0.303995  0.046260  0.619026  1
  W  W6  1  0.749067  0.351635  0.201234  1
  W  W7  1  0.249067  0.648365  0.798766  1
  W  W8  1  0.249067  0.849600  0.201234  1
  W  W9  1  0.749067  0.150400  0.798766  1
  O  O10  1  0.713862  0.960335  0.598609  1
  O  O11  1  0.213862  0.039665  0.401391  1
  O  O12  1  0.213862  0.638273  0.598609  1
  O  O13  1  0.713862  0.361727  0.401391  1
  O  O14  1  0.058109  0.329380  0.760961  1
  O  O15  1  0.558109  0.670620  0.239039  1
  O  O16  1  0.558109  0.431580  0.760961  1
  O  O17  1  0.058109  0.568420  0.239039  1
  O  O18  1  0.939532  0.870070  0.839361  1
  O  O19  1  0.439532  0.129930  0.160639  1
  O  O20  1  0.792251  0.351773  0.000000  1
  O  O21  1  0.292251  0.648227  1.000000  1
  O  O22  1  0.939532  0.030709  0.160639  1
  O  O23  1  0.439532  0.969291  0.839361  1
