# generated using pymatgen
data_La2ZnMoO6
_symmetry_space_group_name_H-M   'P 1'
_cell_length_a   5.65127774
_cell_length_b   5.65127737
_cell_length_c   5.65127798
_cell_angle_alpha   61.69051546
_cell_angle_beta   61.69051654
_cell_angle_gamma   61.69051959
_symmetry_Int_Tables_number   1
_chemical_formula_structural   La2ZnMoO6
_chemical_formula_sum   'La2 Zn1 Mo1 O6'
_cell_volume   132.45828455
_cell_formula_units_Z   1
loop_
 _symmetry_equiv_pos_site_id
 _symmetry_equiv_pos_as_xyz
  1  'x, y, z'
loop_
 _atom_site_type_symbol
 _atom_site_label
 _atom_site_symmetry_multiplicity
 _atom_site_fract_x
 _atom_site_fract_y
 _atom_site_fract_z
 _atom_site_occupancy
  La  La0  1  0.750545  0.750545  0.750545  1
  La  La1  1  0.249455  0.249455  0.249455  1
  Zn  Zn2  1  0.500000  0.500000  0.500000  1
  Mo  Mo3  1  0.000000  0.000000  0.000000  1
  O  O4  1  0.339211  0.755656  0.154052  1
  O  O5  1  0.755656  0.154052  0.339211  1
  O  O6  1  0.154052  0.339211  0.755656  1
  O  O7  1  0.660789  0.244344  0.845948  1
  O  O8  1  0.845948  0.660789  0.244344  1
  O  O9  1  0.244344  0.845948  0.660789  1
