# generated using pymatgen
data_Ba2TlSn2O7
_symmetry_space_group_name_H-M   'P 1'
_cell_length_a   4.06364530
_cell_length_b   4.06322310
_cell_length_c   12.72389815
_cell_angle_alpha   90.00002840
_cell_angle_beta   90.19054498
_cell_angle_gamma   90.00005609
_symmetry_Int_Tables_number   1
_chemical_formula_structural   Ba2TlSn2O7
_chemical_formula_sum   'Ba2 Tl1 Sn2 O7'
_cell_volume   210.08945035
_cell_formula_units_Z   1
loop_
 _symmetry_equiv_pos_site_id
 _symmetry_equiv_pos_as_xyz
  1  'x, y, z'
loop_
 _atom_site_type_symbol
 _atom_site_label
 _atom_site_symmetry_multiplicity
 _atom_site_fract_x
 _atom_site_fract_y
 _atom_site_fract_z
 _atom_site_occupancy
  Ba  Ba0  1  0.999489  0.000000  0.701427  1
  Ba  Ba1  1  0.000516  0.000001  0.298564  1
  Tl  Tl2  1  0.500039  0.500002  0.499993  1
  Sn  Sn3  1  0.500969  0.500000  0.873945  1
  Sn  Sn4  1  0.499032  0.500000  0.126059  1
  O  O5  1  0.999939  0.999998  0.499994  1
  O  O6  1  0.500929  0.000000  0.850826  1
  O  O7  1  0.002269  0.500000  0.850693  1
  O  O8  1  0.499074  1.000000  0.149198  1
  O  O9  1  0.997740  0.500001  0.149294  1
  O  O10  1  0.499923  0.499999  0.670461  1
  O  O11  1  0.500076  0.500001  0.329510  1
