# generated using pymatgen
data_ZnFePO5
_symmetry_space_group_name_H-M   'P 1'
_cell_length_a   5.48731479
_cell_length_b   7.20873365
_cell_length_c   8.09837434
_cell_angle_alpha   89.94593906
_cell_angle_beta   42.25621943
_cell_angle_gamma   72.10068450
_symmetry_Int_Tables_number   1
_chemical_formula_structural   ZnFePO5
_chemical_formula_sum   'Zn2 Fe2 P2 O10'
_cell_volume   191.71260513
_cell_formula_units_Z   2
loop_
 _symmetry_equiv_pos_site_id
 _symmetry_equiv_pos_as_xyz
  1  'x, y, z'
loop_
 _atom_site_type_symbol
 _atom_site_label
 _atom_site_symmetry_multiplicity
 _atom_site_fract_x
 _atom_site_fract_y
 _atom_site_fract_z
 _atom_site_occupancy
  Zn  Zn0  1  0.501276  0.218792  0.678152  1
  Zn  Zn1  1  0.534380  0.708086  0.294608  1
  Fe  Fe2  1  0.500264  0.487414  0.993402  1
  Fe  Fe3  1  0.500693  0.986967  0.996737  1
  P  P4  1  0.503009  0.238229  0.346279  1
  P  P5  1  0.485353  0.740125  0.650152  1
  O  O6  1  0.432946  0.084248  0.271098  1
  O  O7  1  0.583037  0.395914  0.201464  1
  O  O8  1  0.548052  0.903483  0.722105  1
  O  O9  1  0.398363  0.591524  0.805028  1
  O  O10  1  0.858662  0.616124  0.345412  1
  O  O11  1  0.141582  0.846565  0.689539  1
  O  O12  1  0.141650  0.352769  0.651855  1
  O  O13  1  0.859146  0.121980  0.294391  1
  O  O14  1  0.496831  0.737711  0.083929  1
  O  O15  1  0.501486  0.237199  0.907866  1
