# generated using pymatgen
data_AlCu(WO4)2
_symmetry_space_group_name_H-M   'P 1'
_cell_length_a   5.08618538
_cell_length_b   5.68821346
_cell_length_c   5.84417281
_cell_angle_alpha   109.32977979
_cell_angle_beta   118.87369791
_cell_angle_gamma   89.21530642
_symmetry_Int_Tables_number   1
_chemical_formula_structural   AlCu(WO4)2
_chemical_formula_sum   'Al1 Cu1 W2 O8'
_cell_volume   137.51196412
_cell_formula_units_Z   1
loop_
 _symmetry_equiv_pos_site_id
 _symmetry_equiv_pos_as_xyz
  1  'x, y, z'
loop_
 _atom_site_type_symbol
 _atom_site_label
 _atom_site_symmetry_multiplicity
 _atom_site_fract_x
 _atom_site_fract_y
 _atom_site_fract_z
 _atom_site_occupancy
  Al  Al0  1  0.624500  0.723480  0.100033  1
  Cu  Cu1  1  0.127929  0.227543  0.101974  1
  W  W2  1  0.875548  0.407409  0.600885  1
  W  W3  1  0.373410  0.038063  0.597955  1
  O  O4  1  0.194762  0.661204  0.882953  1
  O  O5  1  0.641478  0.549507  0.343396  1
  O  O6  1  0.169589  0.179589  0.800266  1
  O  O7  1  0.592579  0.036855  0.387482  1
  O  O8  1  0.606534  0.897424  0.856506  1
  O  O9  1  0.054558  0.783230  0.315928  1
  O  O10  1  0.078868  0.266057  0.397522  1
  O  O11  1  0.656242  0.408138  0.811195  1
