# generated using pymatgen
data_ZnCu2(TeO4)2
_symmetry_space_group_name_H-M   'P 1'
_cell_length_a   6.51780321
_cell_length_b   8.60304524
_cell_length_c   13.20673432
_cell_angle_alpha   90.00000000
_cell_angle_beta   95.22205300
_cell_angle_gamma   90.00000000
_symmetry_Int_Tables_number   1
_chemical_formula_structural   ZnCu2(TeO4)2
_chemical_formula_sum   'Zn4 Cu8 Te8 O32'
_cell_volume   737.46697293
_cell_formula_units_Z   4
loop_
 _symmetry_equiv_pos_site_id
 _symmetry_equiv_pos_as_xyz
  1  'x, y, z'
loop_
 _atom_site_type_symbol
 _atom_site_label
 _atom_site_symmetry_multiplicity
 _atom_site_fract_x
 _atom_site_fract_y
 _atom_site_fract_z
 _atom_site_occupancy
  Zn  Zn0  1  0.112097  0.145422  0.045318  1
  Zn  Zn1  1  0.887903  0.854578  0.954682  1
  Zn  Zn2  1  0.887903  0.645422  0.454682  1
  Zn  Zn3  1  0.112097  0.354578  0.545318  1
  Cu  Cu4  1  0.733930  0.187810  0.882289  1
  Cu  Cu5  1  0.380435  0.061748  0.626325  1
  Cu  Cu6  1  0.619565  0.938252  0.373675  1
  Cu  Cu7  1  0.266070  0.812190  0.117711  1
  Cu  Cu8  1  0.733930  0.312190  0.382289  1
  Cu  Cu9  1  0.380435  0.438252  0.126325  1
  Cu  Cu10  1  0.266070  0.687810  0.617711  1
  Cu  Cu11  1  0.619565  0.561748  0.873675  1
  Te  Te12  1  0.089863  0.452054  0.843560  1
  Te  Te13  1  0.089863  0.047946  0.343560  1
  Te  Te14  1  0.645998  0.110776  0.140453  1
  Te  Te15  1  0.910137  0.952054  0.656440  1
  Te  Te16  1  0.354002  0.889224  0.859547  1
  Te  Te17  1  0.354002  0.610776  0.359547  1
  Te  Te18  1  0.645998  0.389224  0.640453  1
  Te  Te19  1  0.910137  0.547946  0.156440  1
  O  O20  1  0.029129  0.242795  0.400793  1
  O  O21  1  0.659368  0.022567  0.592973  1
  O  O22  1  0.192332  0.572252  0.492854  1
  O  O23  1  0.807668  0.072251  0.007146  1
  O  O24  1  0.029129  0.257205  0.900793  1
  O  O25  1  0.970871  0.757205  0.599207  1
  O  O26  1  0.084308  0.108224  0.610406  1
  O  O27  1  0.534676  0.910320  0.149278  1
  O  O28  1  0.534676  0.589680  0.649278  1
  O  O29  1  0.328349  0.873651  0.696292  1
  O  O30  1  0.671651  0.373651  0.803708  1
  O  O31  1  0.465324  0.089680  0.850722  1
  O  O32  1  0.915692  0.891776  0.389594  1
  O  O33  1  0.907108  0.542305  0.296647  1
  O  O34  1  0.398205  0.280435  0.586285  1
  O  O35  1  0.398205  0.219565  0.086285  1
  O  O36  1  0.092892  0.042305  0.203353  1
  O  O37  1  0.465324  0.410320  0.350722  1
  O  O38  1  0.092892  0.457695  0.703353  1
  O  O39  1  0.807668  0.427748  0.507146  1
  O  O40  1  0.659368  0.477433  0.092973  1
  O  O41  1  0.671651  0.126349  0.303708  1
  O  O42  1  0.970871  0.742795  0.099207  1
  O  O43  1  0.084308  0.391776  0.110406  1
  O  O44  1  0.192332  0.927748  0.992854  1
  O  O45  1  0.601795  0.780435  0.913715  1
  O  O46  1  0.340632  0.977433  0.407027  1
  O  O47  1  0.340632  0.522567  0.907027  1
  O  O48  1  0.915692  0.608224  0.889594  1
  O  O49  1  0.601795  0.719565  0.413715  1
  O  O50  1  0.328349  0.626349  0.196292  1
  O  O51  1  0.907108  0.957695  0.796647  1
