# generated using pymatgen
data_Y(MnS2)2
_symmetry_space_group_name_H-M   'P 1'
_cell_length_a   7.46036509
_cell_length_b   7.46036538
_cell_length_c   7.65147453
_cell_angle_alpha   119.17715948
_cell_angle_beta   119.17715644
_cell_angle_gamma   89.99999901
_symmetry_Int_Tables_number   1
_chemical_formula_structural   Y(MnS2)2
_chemical_formula_sum   'Y2 Mn4 S8'
_cell_volume   308.46529275
_cell_formula_units_Z   2
loop_
 _symmetry_equiv_pos_site_id
 _symmetry_equiv_pos_as_xyz
  1  'x, y, z'
loop_
 _atom_site_type_symbol
 _atom_site_label
 _atom_site_symmetry_multiplicity
 _atom_site_fract_x
 _atom_site_fract_y
 _atom_site_fract_z
 _atom_site_occupancy
  Y  Y0  1  0.375001  0.625001  0.750000  1
  Y  Y1  1  0.624999  0.375000  0.250000  1
  Mn  Mn2  1  0.000000  0.500001  0.000001  1
  Mn  Mn3  1  0.000001  0.000000  0.500000  1
  Mn  Mn4  1  0.500001  0.000000  0.500000  1
  Mn  Mn5  1  0.000000  0.000000  0.000000  1
  S  S6  1  0.769142  0.794657  0.538286  1
  S  S7  1  0.756372  0.230859  0.961716  1
  S  S8  1  0.205344  0.230859  0.961715  1
  S  S9  1  0.230858  0.205343  0.461715  1
  S  S10  1  0.230857  0.756371  0.461714  1
  S  S11  1  0.243628  0.769142  0.038286  1
  S  S12  1  0.769142  0.243628  0.538285  1
  S  S13  1  0.794656  0.769142  0.038285  1
