# generated using pymatgen
data_Ca(Co2O3)2
_symmetry_space_group_name_H-M   'P 1'
_cell_length_a   3.11063475
_cell_length_b   5.21289310
_cell_length_c   15.28212669
_cell_angle_alpha   90.00000000
_cell_angle_beta   90.00000000
_cell_angle_gamma   107.35911124
_symmetry_Int_Tables_number   1
_chemical_formula_structural   Ca(Co2O3)2
_chemical_formula_sum   'Ca2 Co8 O12'
_cell_volume   236.51920247
_cell_formula_units_Z   2
loop_
 _symmetry_equiv_pos_site_id
 _symmetry_equiv_pos_as_xyz
  1  'x, y, z'
loop_
 _atom_site_type_symbol
 _atom_site_label
 _atom_site_symmetry_multiplicity
 _atom_site_fract_x
 _atom_site_fract_y
 _atom_site_fract_z
 _atom_site_occupancy
  Ca  Ca0  1  0.662330  0.324662  0.750000  1
  Ca  Ca1  1  0.337670  0.675338  0.250000  1
  Co  Co2  1  0.862215  0.724433  0.044133  1
  Co  Co3  1  0.409246  0.818491  0.634646  1
  Co  Co4  1  0.137783  0.275566  0.955867  1
  Co  Co5  1  0.590754  0.181509  0.365355  1
  Co  Co6  1  0.862215  0.724433  0.455867  1
  Co  Co7  1  0.137783  0.275566  0.544133  1
  Co  Co8  1  0.590754  0.181509  0.134645  1
  Co  Co9  1  0.409246  0.818491  0.865354  1
  O  O10  1  0.499999  0.000000  0.500000  1
  O  O11  1  0.499999  0.000000  0.000000  1
  O  O12  1  0.052032  0.104062  0.848947  1
  O  O13  1  0.947968  0.895938  0.151054  1
  O  O14  1  0.947968  0.895938  0.348946  1
  O  O15  1  0.052032  0.104062  0.651054  1
  O  O16  1  0.774367  0.548738  0.927262  1
  O  O17  1  0.225632  0.451263  0.072738  1
  O  O18  1  0.225632  0.451263  0.427262  1
  O  O19  1  0.774367  0.548738  0.572738  1
  O  O20  1  0.327278  0.654558  0.750000  1
  O  O21  1  0.672720  0.345441  0.250000  1
