# generated using pymatgen
data_BaYCuMoO5
_symmetry_space_group_name_H-M   'P 1'
_cell_length_a   4.02652619
_cell_length_b   4.02651942
_cell_length_c   7.89682169
_cell_angle_alpha   90.00023727
_cell_angle_beta   90.00016533
_cell_angle_gamma   89.99975867
_symmetry_Int_Tables_number   1
_chemical_formula_structural   BaYCuMoO5
_chemical_formula_sum   'Ba1 Y1 Cu1 Mo1 O5'
_cell_volume   128.03026902
_cell_formula_units_Z   1
loop_
 _symmetry_equiv_pos_site_id
 _symmetry_equiv_pos_as_xyz
  1  'x, y, z'
loop_
 _atom_site_type_symbol
 _atom_site_label
 _atom_site_symmetry_multiplicity
 _atom_site_fract_x
 _atom_site_fract_y
 _atom_site_fract_z
 _atom_site_occupancy
  Ba  Ba0  1  0.999999  0.999996  0.994940  1
  Y  Y1  1  -0.000002  0.000007  0.442648  1
  Cu  Cu2  1  0.500011  0.500013  0.270117  1
  Mo  Mo3  1  0.499998  0.499996  0.685530  1
  O  O4  1  0.999995  0.499991  0.643019  1
  O  O5  1  0.499998  0.999993  0.643021  1
  O  O6  1  0.000001  0.500001  0.282566  1
  O  O7  1  0.499999  0.000005  0.282566  1
  O  O8  1  0.499998  0.499993  0.943511  1
