# generated using pymatgen
data_VZnBiO5
_symmetry_space_group_name_H-M   'P 1'
_cell_length_a   5.66391878
_cell_length_b   10.95993512
_cell_length_c   15.31204646
_cell_angle_alpha   90.00000000
_cell_angle_beta   90.00000000
_cell_angle_gamma   90.00000000
_symmetry_Int_Tables_number   1
_chemical_formula_structural   VZnBiO5
_chemical_formula_sum   'V8 Zn8 Bi8 O40'
_cell_volume   950.51338826
_cell_formula_units_Z   8
loop_
 _symmetry_equiv_pos_site_id
 _symmetry_equiv_pos_as_xyz
  1  'x, y, z'
loop_
 _atom_site_type_symbol
 _atom_site_label
 _atom_site_symmetry_multiplicity
 _atom_site_fract_x
 _atom_site_fract_y
 _atom_site_fract_z
 _atom_site_occupancy
  V  V0  1  0.919311  0.389358  0.593019  1
  V  V1  1  0.580689  0.889358  0.406981  1
  V  V2  1  0.080689  0.610642  0.406981  1
  V  V3  1  0.419311  0.110642  0.593019  1
  V  V4  1  0.080689  0.110642  0.093019  1
  V  V5  1  0.919311  0.889358  0.906981  1
  V  V6  1  0.580689  0.389358  0.093019  1
  V  V7  1  0.419311  0.610642  0.906981  1
  Zn  Zn8  1  0.417889  0.358590  0.472001  1
  Zn  Zn9  1  0.917889  0.141410  0.472001  1
  Zn  Zn10  1  0.917889  0.641410  0.027999  1
  Zn  Zn11  1  0.082111  0.358590  0.972001  1
  Zn  Zn12  1  0.582111  0.141410  0.972001  1
  Zn  Zn13  1  0.082111  0.858590  0.527999  1
  Zn  Zn14  1  0.582111  0.641410  0.527999  1
  Zn  Zn15  1  0.417889  0.858590  0.027999  1
  Bi  Bi16  1  0.033076  0.844920  0.223386  1
  Bi  Bi17  1  0.966924  0.155080  0.776614  1
  Bi  Bi18  1  0.466924  0.344920  0.776614  1
  Bi  Bi19  1  0.966924  0.655080  0.723386  1
  Bi  Bi20  1  0.533076  0.155080  0.276614  1
  Bi  Bi21  1  0.533076  0.655080  0.223386  1
  Bi  Bi22  1  0.466924  0.844920  0.723386  1
  Bi  Bi23  1  0.033076  0.344920  0.276614  1
  O  O24  1  0.827774  0.311127  0.688079  1
  O  O25  1  0.333002  0.043695  0.047509  1
  O  O26  1  0.166998  0.543695  0.952491  1
  O  O27  1  0.354513  0.795662  0.149523  1
  O  O28  1  0.145487  0.295662  0.850477  1
  O  O29  1  0.827774  0.811127  0.811921  1
  O  O30  1  0.145487  0.795662  0.649523  1
  O  O31  1  0.672226  0.811127  0.311921  1
  O  O32  1  0.333002  0.543695  0.452491  1
  O  O33  1  0.172226  0.688873  0.311921  1
  O  O34  1  0.672226  0.311127  0.188079  1
  O  O35  1  0.587058  0.201366  0.520834  1
  O  O36  1  0.833001  0.956305  0.452491  1
  O  O37  1  0.645487  0.704338  0.649523  1
  O  O38  1  0.099251  0.004752  0.871680  1
  O  O39  1  0.833001  0.456305  0.047509  1
  O  O40  1  0.172226  0.188873  0.188079  1
  O  O41  1  0.854513  0.204338  0.350477  1
  O  O42  1  0.087058  0.798634  0.979166  1
  O  O43  1  0.166998  0.043695  0.547509  1
  O  O44  1  0.412942  0.798634  0.479166  1
  O  O45  1  0.900749  0.995248  0.128320  1
  O  O46  1  0.645487  0.204338  0.850477  1
  O  O47  1  0.599251  0.995248  0.628320  1
  O  O48  1  0.412942  0.298634  0.020834  1
  O  O49  1  0.087058  0.298634  0.520834  1
  O  O50  1  0.666999  0.456305  0.547509  1
  O  O51  1  0.666999  0.956305  0.952491  1
  O  O52  1  0.599251  0.495248  0.871680  1
  O  O53  1  0.912942  0.701366  0.479166  1
  O  O54  1  0.912942  0.201366  0.020834  1
  O  O55  1  0.587058  0.701366  0.979166  1
  O  O56  1  0.900749  0.495248  0.371680  1
  O  O57  1  0.854513  0.704338  0.149523  1
  O  O58  1  0.354513  0.295662  0.350477  1
  O  O59  1  0.099251  0.504752  0.628320  1
  O  O60  1  0.400749  0.504752  0.128320  1
  O  O61  1  0.327774  0.188873  0.688079  1
  O  O62  1  0.400749  0.004752  0.371680  1
  O  O63  1  0.327774  0.688873  0.811921  1
