# generated using pymatgen
data_SbF5
_symmetry_space_group_name_H-M   'P 1'
_cell_length_a   3.70818743
_cell_length_b   5.47028876
_cell_length_c   5.47028885
_cell_angle_alpha   49.53338503
_cell_angle_beta   70.18777210
_cell_angle_gamma   70.18776049
_symmetry_Int_Tables_number   1
_chemical_formula_structural   SbF5
_chemical_formula_sum   'Sb1 F5'
_cell_volume   78.31799310
_cell_formula_units_Z   1
loop_
 _symmetry_equiv_pos_site_id
 _symmetry_equiv_pos_as_xyz
  1  'x, y, z'
loop_
 _atom_site_type_symbol
 _atom_site_label
 _atom_site_symmetry_multiplicity
 _atom_site_fract_x
 _atom_site_fract_y
 _atom_site_fract_z
 _atom_site_occupancy
  Sb  Sb0  1  0.000000  0.000000  0.000000  1
  F  F1  1  0.500000  0.765967  0.234033  1
  F  F2  1  0.500000  0.234033  0.765967  1
  F  F3  1  0.796089  0.203911  0.203911  1
  F  F4  1  0.203911  0.796089  0.796089  1
  F  F5  1  0.000000  0.500000  0.500000  1
