# generated using pymatgen
data_MnAlO3
_symmetry_space_group_name_H-M   'P 1'
_cell_length_a   5.60445194
_cell_length_b   5.60445170
_cell_length_c   11.39488385
_cell_angle_alpha   90.00000000
_cell_angle_beta   90.00000000
_cell_angle_gamma   120.00000140
_symmetry_Int_Tables_number   1
_chemical_formula_structural   MnAlO3
_chemical_formula_sum   'Mn6 Al6 O18'
_cell_volume   309.96082521
_cell_formula_units_Z   6
loop_
 _symmetry_equiv_pos_site_id
 _symmetry_equiv_pos_as_xyz
  1  'x, y, z'
loop_
 _atom_site_type_symbol
 _atom_site_label
 _atom_site_symmetry_multiplicity
 _atom_site_fract_x
 _atom_site_fract_y
 _atom_site_fract_z
 _atom_site_occupancy
  Mn  Mn0  1  0.666939  0.000000  0.501696  1
  Mn  Mn1  1  0.666939  0.666939  0.001696  1
  Mn  Mn2  1  1.000000  0.333061  0.001696  1
  Mn  Mn3  1  0.000000  0.666939  0.501696  1
  Mn  Mn4  1  0.333061  0.333061  0.501696  1
  Mn  Mn5  1  0.333061  0.000000  0.001696  1
  Al  Al6  1  0.666667  0.333333  0.250795  1
  Al  Al7  1  0.333333  0.666667  0.750795  1
  Al  Al8  1  0.666667  0.333333  0.750795  1
  Al  Al9  1  0.333333  0.666667  0.250795  1
  Al  Al10  1  0.000000  0.000000  0.754273  1
  Al  Al11  1  0.000000  0.000000  0.254273  1
  O  O12  1  0.666667  0.333333  0.009450  1
  O  O13  1  0.333333  0.666667  0.509450  1
  O  O14  1  0.666667  0.333333  0.509450  1
  O  O15  1  0.333333  0.666667  0.009450  1
  O  O16  1  0.000000  0.000000  0.984909  1
  O  O17  1  0.000000  0.000000  0.484909  1
  O  O18  1  0.346356  0.000000  0.827315  1
  O  O19  1  0.346356  0.346356  0.327315  1
  O  O20  1  1.000000  0.653644  0.327315  1
  O  O21  1  0.000000  0.346356  0.827315  1
  O  O22  1  0.653644  0.653644  0.827315  1
  O  O23  1  0.653644  0.000000  0.327315  1
  O  O24  1  0.321970  0.000000  0.176099  1
  O  O25  1  0.321970  0.321970  0.676099  1
  O  O26  1  0.000000  0.678030  0.676099  1
  O  O27  1  1.000000  0.321970  0.176099  1
  O  O28  1  0.678030  0.678030  0.176099  1
  O  O29  1  0.678030  0.000000  0.676099  1
