# generated using pymatgen
data_Zn2Cu9O13
_symmetry_space_group_name_H-M   'P 1'
_cell_length_a   2.93562126
_cell_length_b   5.14447621
_cell_length_c   16.35122568
_cell_angle_alpha   97.94738354
_cell_angle_beta   89.93630560
_cell_angle_gamma   107.16858792
_symmetry_Int_Tables_number   1
_chemical_formula_structural   Zn2Cu9O13
_chemical_formula_sum   'Zn2 Cu9 O13'
_cell_volume   233.46464839
_cell_formula_units_Z   1
loop_
 _symmetry_equiv_pos_site_id
 _symmetry_equiv_pos_as_xyz
  1  'x, y, z'
loop_
 _atom_site_type_symbol
 _atom_site_label
 _atom_site_symmetry_multiplicity
 _atom_site_fract_x
 _atom_site_fract_y
 _atom_site_fract_z
 _atom_site_occupancy
  Zn  Zn0  1  0.214076  0.436998  0.227305  1
  Zn  Zn1  1  0.785924  0.563002  0.772695  1
  Cu  Cu2  1  0.500000  0.000000  0.500000  1
  Cu  Cu3  1  0.647126  0.295771  0.041186  1
  Cu  Cu4  1  0.352874  0.704229  0.958814  1
  Cu  Cu5  1  0.751711  0.505485  0.418520  1
  Cu  Cu6  1  0.248289  0.494515  0.581480  1
  Cu  Cu7  1  0.935381  0.873164  0.122829  1
  Cu  Cu8  1  0.064619  0.126836  0.877171  1
  Cu  Cu9  1  0.994561  0.990692  0.332448  1
  Cu  Cu10  1  0.005439  0.009308  0.667552  1
  O  O11  1  0.000000  0.000000  0.000000  1
  O  O12  1  0.858724  0.719663  0.226902  1
  O  O13  1  0.141276  0.280337  0.773099  1
  O  O14  1  0.301154  0.605942  0.070353  1
  O  O15  1  0.698846  0.394058  0.929647  1
  O  O16  1  0.583388  0.168113  0.145828  1
  O  O17  1  0.416612  0.831887  0.854172  1
  O  O18  1  0.630895  0.260262  0.315920  1
  O  O19  1  0.369105  0.739738  0.684080  1
  O  O20  1  0.395222  0.790792  0.387842  1
  O  O21  1  0.604778  0.209208  0.612158  1
  O  O22  1  0.132726  0.270595  0.470346  1
  O  O23  1  0.867274  0.729405  0.529654  1
