# generated using pymatgen
data_SbO2
_symmetry_space_group_name_H-M   'P 1'
_cell_length_a   6.59658484
_cell_length_b   6.41801719
_cell_length_c   24.56684594
_cell_angle_alpha   58.41940486
_cell_angle_beta   72.07339652
_cell_angle_gamma   60.90728732
_symmetry_Int_Tables_number   1
_chemical_formula_structural   SbO2
_chemical_formula_sum   'Sb16 O32'
_cell_volume   772.28729198
_cell_formula_units_Z   16
loop_
 _symmetry_equiv_pos_site_id
 _symmetry_equiv_pos_as_xyz
  1  'x, y, z'
loop_
 _atom_site_type_symbol
 _atom_site_label
 _atom_site_symmetry_multiplicity
 _atom_site_fract_x
 _atom_site_fract_y
 _atom_site_fract_z
 _atom_site_occupancy
  Sb  Sb0  1  0.344000  0.587227  0.121702  1
  Sb  Sb1  1  0.440535  0.487245  0.271467  1
  Sb  Sb2  1  0.344671  0.078545  0.123685  1
  Sb  Sb3  1  0.194175  0.134729  0.509231  1
  Sb  Sb4  1  0.618367  0.423037  0.386734  1
  Sb  Sb5  1  0.782945  0.910515  0.224929  1
  Sb  Sb6  1  0.109298  0.203137  0.746007  1
  Sb  Sb7  1  0.618167  0.912331  0.386728  1
  Sb  Sb8  1  0.548324  0.483597  0.621091  1
  Sb  Sb9  1  -0.007574  0.770681  0.491573  1
  Sb  Sb10  1  0.548332  0.983765  0.621064  1
  Sb  Sb11  1  0.459984  0.062759  0.860499  1
  Sb  Sb12  1  0.460117  0.534614  0.860511  1
  Sb  Sb13  1  0.900862  0.825986  0.736627  1
  Sb  Sb14  1  0.427144  0.557197  0.989060  1
  Sb  Sb15  1  0.879858  0.803369  0.001921  1
  O  O16  1  0.184775  0.399825  0.027549  1
  O  O17  1  0.192559  0.329018  0.162649  1
  O  O18  1  0.187341  0.803704  0.027691  1
  O  O19  1  0.566951  0.315072  0.075683  1
  O  O20  1  0.150499  0.722677  0.227660  1
  O  O21  1  0.352445  0.176817  0.334678  1
  O  O22  1  0.587169  0.303798  0.213908  1
  O  O23  1  0.492509  0.114929  0.444520  1
  O  O24  1  0.353269  0.633370  0.334451  1
  O  O25  1  0.667120  0.759053  0.076078  1
  O  O26  1  0.741545  0.219684  0.330042  1
  O  O27  1  0.584606  0.758013  0.213117  1
  O  O28  1  0.304854  0.221567  0.558559  1
  O  O29  1  0.483232  0.638357  0.435060  1
  O  O30  1  0.892193  0.166216  0.437436  1
  O  O31  1  0.371451  0.225382  0.669388  1
  O  O32  1  0.304888  0.739506  0.558586  1
  O  O33  1  0.761460  0.714424  0.327712  1
  O  O34  1  0.700266  0.246115  0.576964  1
  O  O35  1  0.892162  0.692471  0.437427  1
  O  O36  1  0.398007  0.720406  0.665212  1
  O  O37  1  0.248848  0.284069  0.790223  1
  O  O38  1  0.783622  0.222300  0.686547  1
  O  O39  1  0.269626  0.321507  0.896587  1
  O  O40  1  0.248710  0.805606  0.790298  1
  O  O41  1  0.727926  0.745324  0.570430  1
  O  O42  1  0.670298  0.261403  0.826654  1
  O  O43  1  0.783531  0.747738  0.686550  1
  O  O44  1  0.276713  0.808019  0.901786  1
  O  O45  1  0.618063  0.328391  0.943328  1
  O  O46  1  0.643264  0.794725  0.816681  1
  O  O47  1  0.618524  0.778718  0.943336  1
