# generated using pymatgen
data_VZnNiP2O9
_symmetry_space_group_name_H-M   'P 1'
_cell_length_a   6.25504837
_cell_length_b   7.36822172
_cell_length_c   14.16939638
_cell_angle_alpha   89.94567231
_cell_angle_beta   89.99954535
_cell_angle_gamma   90.00222231
_symmetry_Int_Tables_number   1
_chemical_formula_structural   VZnNiP2O9
_chemical_formula_sum   'V4 Zn4 Ni4 P8 O36'
_cell_volume   653.04711101
_cell_formula_units_Z   4
loop_
 _symmetry_equiv_pos_site_id
 _symmetry_equiv_pos_as_xyz
  1  'x, y, z'
loop_
 _atom_site_type_symbol
 _atom_site_label
 _atom_site_symmetry_multiplicity
 _atom_site_fract_x
 _atom_site_fract_y
 _atom_site_fract_z
 _atom_site_occupancy
  V  V0  1  0.750005  0.345981  0.882755  1
  V  V1  1  0.249989  0.654114  0.117230  1
  V  V2  1  0.250012  0.845695  0.617387  1
  V  V3  1  0.749981  0.154217  0.382625  1
  Zn  Zn4  1  0.749992  0.885724  0.778825  1
  Zn  Zn5  1  0.749996  0.614970  0.278944  1
  Zn  Zn6  1  0.250001  0.114393  0.221164  1
  Zn  Zn7  1  0.249999  0.384961  0.721049  1
  Ni  Ni8  1  0.500252  -0.000016  0.000171  1
  Ni  Ni9  1  0.500338  0.499588  0.499927  1
  Ni  Ni10  1  0.999657  0.499621  0.499929  1
  Ni  Ni11  1  -0.000083  0.999753  0.000222  1
  P  P12  1  0.250006  0.354769  0.933020  1
  P  P13  1  0.749992  0.645291  0.066962  1
  P  P14  1  0.750014  0.854533  0.566915  1
  P  P15  1  0.249984  0.145416  0.433056  1
  P  P16  1  0.750002  0.384085  0.696450  1
  P  P17  1  0.249993  0.615902  0.303552  1
  P  P18  1  0.249994  0.884451  0.803562  1
  P  P19  1  0.750000  0.115806  0.196417  1
  O  O20  1  0.038150  0.610060  0.361585  1
  O  O21  1  0.538155  0.389926  0.638415  1
  O  O22  1  0.961855  0.109964  0.138262  1
  O  O23  1  0.461846  0.889978  0.861728  1
  O  O24  1  0.961842  0.389935  0.638411  1
  O  O25  1  0.461843  0.610072  0.361581  1
  O  O26  1  0.038131  0.889982  0.861722  1
  O  O27  1  0.538148  0.109954  0.138262  1
  O  O28  1  0.249994  0.333173  0.479204  1
  O  O29  1  0.750005  0.666749  0.520861  1
  O  O30  1  0.749998  0.833329  0.020707  1
  O  O31  1  0.250011  0.166692  0.979242  1
  O  O32  1  0.749990  0.145728  0.944427  1
  O  O33  1  0.249953  0.854274  0.055522  1
  O  O34  1  0.250020  0.645722  0.555644  1
  O  O35  1  0.749970  0.354432  0.444338  1
  O  O36  1  0.750001  0.207150  0.757675  1
  O  O37  1  0.249994  0.792867  0.242324  1
  O  O38  1  0.249994  0.707509  0.742531  1
  O  O39  1  0.750000  0.292644  0.257359  1
  O  O40  1  0.438357  0.127268  0.362481  1
  O  O41  1  0.938512  0.872661  0.637479  1
  O  O42  1  0.561645  0.627220  0.137474  1
  O  O43  1  0.061654  0.372869  0.862493  1
  O  O44  1  0.561532  0.872675  0.637488  1
  O  O45  1  0.061596  0.127285  0.362491  1
  O  O46  1  0.438360  0.372880  0.862492  1
  O  O47  1  0.938331  0.627218  0.137479  1
  O  O48  1  0.749991  0.960935  0.271533  1
  O  O49  1  0.250009  0.039323  0.728521  1
  O  O50  1  0.249985  0.461141  0.228452  1
  O  O51  1  0.750010  0.538920  0.771515  1
  O  O52  1  0.750000  0.995974  0.489931  1
  O  O53  1  0.249995  0.004164  0.510208  1
  O  O54  1  0.249999  0.495844  0.010095  1
  O  O55  1  0.749998  0.504229  0.989905  1
