# generated using pymatgen
data_Ta2MnZnO8
_symmetry_space_group_name_H-M   'P 1'
_cell_length_a   5.10230786
_cell_length_b   5.76054865
_cell_length_c   10.21671061
_cell_angle_alpha   106.38694882
_cell_angle_beta   86.47474570
_cell_angle_gamma   90.01538512
_symmetry_Int_Tables_number   1
_chemical_formula_structural   Ta2MnZnO8
_chemical_formula_sum   'Ta4 Mn2 Zn2 O16'
_cell_volume   287.50131317
_cell_formula_units_Z   2
loop_
 _symmetry_equiv_pos_site_id
 _symmetry_equiv_pos_as_xyz
  1  'x, y, z'
loop_
 _atom_site_type_symbol
 _atom_site_label
 _atom_site_symmetry_multiplicity
 _atom_site_fract_x
 _atom_site_fract_y
 _atom_site_fract_z
 _atom_site_occupancy
  Ta  Ta0  1  0.741191  0.291801  0.233329  1
  Ta  Ta1  1  0.763602  0.058345  0.767269  1
  Ta  Ta2  1  0.255373  0.704854  0.762472  1
  Ta  Ta3  1  0.249142  0.942577  0.238323  1
  Mn  Mn4  1  0.752124  0.646167  0.000256  1
  Mn  Mn5  1  0.252274  0.358283  0.000268  1
  Zn  Zn6  1  0.815522  0.436954  0.550767  1
  Zn  Zn7  1  0.688409  0.886683  0.449935  1
  O  O8  1  0.081129  0.194891  0.119423  1
  O  O9  1  0.423407  0.075657  0.881096  1
  O  O10  1  0.914670  0.812615  0.882964  1
  O  O11  1  0.589596  0.929863  0.117563  1
  O  O12  1  0.568477  0.442539  0.105334  1
  O  O13  1  0.936065  0.337451  0.895220  1
  O  O14  1  0.438587  0.558173  0.895885  1
  O  O15  1  0.065636  0.662531  0.104729  1
  O  O16  1  0.414459  0.251140  0.324014  1
  O  O17  1  0.090222  0.927018  0.676439  1
  O  O18  1  0.362202  0.799216  0.360686  1
  O  O19  1  0.141745  0.438329  0.639800  1
  O  O20  1  0.666680  0.168502  0.618364  1
  O  O21  1  0.837941  0.550931  0.382426  1
  O  O22  1  0.906314  0.064421  0.332430  1
  O  O23  1  0.598015  0.731852  0.668072  1
