# generated using pymatgen
data_CaCr2O4
_symmetry_space_group_name_H-M   'P 1'
_cell_length_a   6.30993341
_cell_length_b   6.17969789
_cell_length_c   6.17965940
_cell_angle_alpha   88.33706379
_cell_angle_beta   120.69469736
_cell_angle_gamma   120.69516935
_symmetry_Int_Tables_number   1
_chemical_formula_structural   CaCr2O4
_chemical_formula_sum   'Ca2 Cr4 O8'
_cell_volume   169.21415121
_cell_formula_units_Z   2
loop_
 _symmetry_equiv_pos_site_id
 _symmetry_equiv_pos_as_xyz
  1  'x, y, z'
loop_
 _atom_site_type_symbol
 _atom_site_label
 _atom_site_symmetry_multiplicity
 _atom_site_fract_x
 _atom_site_fract_y
 _atom_site_fract_z
 _atom_site_occupancy
  Ca  Ca0  1  -0.000020  0.000047  -0.000051  1
  Ca  Ca1  1  0.500025  0.000038  -0.000111  1
  Cr  Cr2  1  0.500240  0.000267  0.500404  1
  Cr  Cr3  1  0.500116  0.499847  0.500193  1
  Cr  Cr4  1  -0.000314  0.499744  -0.000259  1
  Cr  Cr5  1  0.000013  0.500007  0.500108  1
  O  O6  1  0.041561  0.735796  0.264195  1
  O  O7  1  0.471615  0.735191  0.708026  1
  O  O8  1  0.458432  0.735803  0.264122  1
  O  O9  1  0.971668  0.708111  0.735204  1
  O  O10  1  0.541629  0.264231  0.735779  1
  O  O11  1  0.528334  0.264803  0.291852  1
  O  O12  1  0.028381  0.291937  0.264818  1
  O  O13  1  0.958369  0.264144  0.735764  1
