# generated using pymatgen
data_Ta2O5
_symmetry_space_group_name_H-M   'P 1'
_cell_length_a   12.54387711
_cell_length_b   5.67587685
_cell_length_c   3.82781517
_cell_angle_alpha   109.70639490
_cell_angle_beta   90.00000000
_cell_angle_gamma   90.00000000
_symmetry_Int_Tables_number   1
_chemical_formula_structural   Ta2O5
_chemical_formula_sum   'Ta4 O10'
_cell_volume   256.56953812
_cell_formula_units_Z   2
loop_
 _symmetry_equiv_pos_site_id
 _symmetry_equiv_pos_as_xyz
  1  'x, y, z'
loop_
 _atom_site_type_symbol
 _atom_site_label
 _atom_site_symmetry_multiplicity
 _atom_site_fract_x
 _atom_site_fract_y
 _atom_site_fract_z
 _atom_site_occupancy
  Ta  Ta0  1  0.145907  0.913557  0.956778  1
  Ta  Ta1  1  0.354093  0.086443  0.543222  1
  Ta  Ta2  1  0.645907  0.086443  0.543222  1
  Ta  Ta3  1  0.854093  0.913557  0.956778  1
  O  O4  1  -0.000000  0.025554  0.012778  1
  O  O5  1  0.135325  0.589744  0.794871  1
  O  O6  1  0.185287  0.991241  0.495620  1
  O  O7  1  0.314713  0.008757  0.004379  1
  O  O8  1  0.364675  0.410256  0.705129  1
  O  O9  1  0.500000  0.974446  0.487222  1
  O  O10  1  0.635325  0.410256  0.705129  1
  O  O11  1  0.864675  0.589744  0.794871  1
  O  O12  1  0.685287  0.008757  0.004379  1
  O  O13  1  0.814713  0.991241  0.495620  1
