# generated using pymatgen
data_ZnSnF5
_symmetry_space_group_name_H-M   'P 1'
_cell_length_a   5.50065064
_cell_length_b   8.27406155
_cell_length_c   10.44226417
_cell_angle_alpha   90.00000000
_cell_angle_beta   90.00000000
_cell_angle_gamma   110.53730136
_symmetry_Int_Tables_number   1
_chemical_formula_structural   ZnSnF5
_chemical_formula_sum   'Zn4 Sn4 F20'
_cell_volume   445.05050184
_cell_formula_units_Z   4
loop_
 _symmetry_equiv_pos_site_id
 _symmetry_equiv_pos_as_xyz
  1  'x, y, z'
loop_
 _atom_site_type_symbol
 _atom_site_label
 _atom_site_symmetry_multiplicity
 _atom_site_fract_x
 _atom_site_fract_y
 _atom_site_fract_z
 _atom_site_occupancy
  Zn  Zn0  1  0.505665  0.763202  0.991600  1
  Zn  Zn1  1  0.494335  0.736798  0.491600  1
  Zn  Zn2  1  0.494335  0.236798  0.008400  1
  Zn  Zn3  1  0.505665  0.263202  0.508400  1
  Sn  Sn4  1  0.909191  0.606562  0.756032  1
  Sn  Sn5  1  0.090809  0.893438  0.256032  1
  Sn  Sn6  1  0.090809  0.393438  0.243968  1
  Sn  Sn7  1  0.909191  0.106562  0.743968  1
  F  F8  1  0.608340  0.589994  0.889837  1
  F  F9  1  0.391660  0.910006  0.389837  1
  F  F10  1  0.391660  0.410006  0.110163  1
  F  F11  1  0.608340  0.089994  0.610163  1
  F  F12  1  0.643535  0.487521  0.605285  1
  F  F13  1  0.356465  0.012479  0.105285  1
  F  F14  1  0.356465  0.512479  0.394715  1
  F  F15  1  0.643535  0.987521  0.894715  1
  F  F16  1  0.840470  0.803342  0.417842  1
  F  F17  1  0.159530  0.696658  0.917842  1
  F  F18  1  0.159530  0.196658  0.582158  1
  F  F19  1  0.840470  0.303342  0.082158  1
  F  F20  1  0.756385  0.830819  0.130160  1
  F  F21  1  0.243615  0.669181  0.630160  1
  F  F22  1  0.243615  0.169181  0.869840  1
  F  F23  1  0.756385  0.330819  0.369840  1
  F  F24  1  0.853028  0.841287  0.694003  1
  F  F25  1  0.146972  0.658713  0.194003  1
  F  F26  1  0.146972  0.158713  0.305997  1
  F  F27  1  0.853028  0.341287  0.805997  1
