# generated using pymatgen
data_Mn4ZnO9
_symmetry_space_group_name_H-M   'P 1'
_cell_length_a   4.76161745
_cell_length_b   8.55676163
_cell_length_c   8.55766714
_cell_angle_alpha   89.99985154
_cell_angle_beta   90.05918959
_cell_angle_gamma   89.99197615
_symmetry_Int_Tables_number   1
_chemical_formula_structural   Mn4ZnO9
_chemical_formula_sum   'Mn8 Zn2 O18'
_cell_volume   348.67361896
_cell_formula_units_Z   2
loop_
 _symmetry_equiv_pos_site_id
 _symmetry_equiv_pos_as_xyz
  1  'x, y, z'
loop_
 _atom_site_type_symbol
 _atom_site_label
 _atom_site_symmetry_multiplicity
 _atom_site_fract_x
 _atom_site_fract_y
 _atom_site_fract_z
 _atom_site_occupancy
  Mn  Mn0  1  0.603319  0.532229  0.340586  1
  Mn  Mn1  1  0.397008  0.840428  0.467698  1
  Mn  Mn2  1  0.603257  0.340457  0.967847  1
  Mn  Mn3  1  0.397140  0.032338  0.840317  1
  Mn  Mn4  1  0.602911  0.967669  0.159613  1
  Mn  Mn5  1  0.603020  0.159550  0.532240  1
  Mn  Mn6  1  0.396759  0.467737  0.659476  1
  Mn  Mn7  1  0.396741  0.659536  0.032234  1
  Zn  Zn8  1  0.005925  0.249950  0.250153  1
  Zn  Zn9  1  0.994027  0.750084  0.749834  1
  O  O10  1  0.500067  0.750103  0.250118  1
  O  O11  1  0.499986  0.249891  0.749911  1
  O  O12  1  0.047438  0.685290  0.971923  1
  O  O13  1  0.047580  0.527957  0.685215  1
  O  O14  1  0.047931  0.972137  0.814650  1
  O  O15  1  0.047996  0.814810  0.527758  1
  O  O16  1  0.952533  0.314720  0.028098  1
  O  O17  1  0.952440  0.472061  0.314819  1
  O  O18  1  0.952039  0.027905  0.185286  1
  O  O19  1  0.952056  0.185193  0.472169  1
  O  O20  1  0.469851  0.037717  0.358745  1
  O  O21  1  0.470095  0.141260  0.037627  1
  O  O22  1  0.470087  0.358760  0.462322  1
  O  O23  1  0.470387  0.462391  0.141283  1
  O  O24  1  0.529582  0.537565  0.858800  1
  O  O25  1  0.529794  0.858760  0.962383  1
  O  O26  1  0.529900  0.641222  0.537695  1
  O  O27  1  0.530131  0.962282  0.641203  1
