# generated using pymatgen
data_YW3O8
_symmetry_space_group_name_H-M   'P 1'
_cell_length_a   5.44692567
_cell_length_b   5.85626392
_cell_length_c   9.75748832
_cell_angle_alpha   89.99759172
_cell_angle_beta   92.43303405
_cell_angle_gamma   90.00277645
_symmetry_Int_Tables_number   1
_chemical_formula_structural   YW3O8
_chemical_formula_sum   'Y2 W6 O16'
_cell_volume   310.96996448
_cell_formula_units_Z   2
loop_
 _symmetry_equiv_pos_site_id
 _symmetry_equiv_pos_as_xyz
  1  'x, y, z'
loop_
 _atom_site_type_symbol
 _atom_site_label
 _atom_site_symmetry_multiplicity
 _atom_site_fract_x
 _atom_site_fract_y
 _atom_site_fract_z
 _atom_site_occupancy
  Y  Y0  1  0.249863  0.673775  0.249940  1
  Y  Y1  1  0.750137  0.326225  0.750060  1
  W  W2  1  0.749867  0.341139  0.249955  1
  W  W3  1  0.250126  0.658860  0.750046  1
  W  W4  1  0.247315  0.150779  0.501805  1
  W  W5  1  0.252715  0.150846  0.998152  1
  W  W6  1  0.752684  0.849219  0.498195  1
  W  W7  1  0.747284  0.849156  0.001847  1
  O  O8  1  0.441715  0.358707  0.141955  1
  O  O9  1  0.058065  0.358247  0.357852  1
  O  O10  1  0.558286  0.641290  0.858046  1
  O  O11  1  0.941935  0.641755  0.642148  1
  O  O12  1  0.417374  0.892851  0.618538  1
  O  O13  1  0.082968  0.892872  0.881561  1
  O  O14  1  0.582626  0.107150  0.381461  1
  O  O15  1  0.917032  0.107126  0.118438  1
  O  O16  1  0.889725  0.596233  0.129768  1
  O  O17  1  0.610321  0.596574  0.369989  1
  O  O18  1  0.110278  0.403767  0.870233  1
  O  O19  1  0.389682  0.403428  0.630012  1
  O  O20  1  0.419062  0.888126  0.102590  1
  O  O21  1  0.580937  0.111874  0.897410  1
  O  O22  1  0.081063  0.887702  0.397606  1
  O  O23  1  0.918937  0.112298  0.602393  1
