# generated using pymatgen
data_Mg2CoWO6
_symmetry_space_group_name_H-M   'P 1'
_cell_length_a   5.15853656
_cell_length_b   5.35655952
_cell_length_c   7.72745665
_cell_angle_alpha   90.00000000
_cell_angle_beta   90.19480491
_cell_angle_gamma   90.00000000
_symmetry_Int_Tables_number   1
_chemical_formula_structural   Mg2CoWO6
_chemical_formula_sum   'Mg4 Co2 W2 O12'
_cell_volume   213.52391063
_cell_formula_units_Z   2
loop_
 _symmetry_equiv_pos_site_id
 _symmetry_equiv_pos_as_xyz
  1  'x, y, z'
loop_
 _atom_site_type_symbol
 _atom_site_label
 _atom_site_symmetry_multiplicity
 _atom_site_fract_x
 _atom_site_fract_y
 _atom_site_fract_z
 _atom_site_occupancy
  Mg  Mg0  1  0.986573  0.057175  0.258996  1
  Mg  Mg1  1  0.513427  0.557176  0.241004  1
  Mg  Mg2  1  0.013428  0.942826  0.741004  1
  Mg  Mg3  1  0.486572  0.442825  0.758996  1
  Co  Co4  1  0.500000  0.000000  0.000000  1
  Co  Co5  1  0.000001  0.499999  0.500000  1
  W  W6  1  0.500000  0.000000  0.499999  1
  W  W7  1  0.000000  0.499999  0.000000  1
  O  O8  1  0.669181  0.301971  0.416560  1
  O  O9  1  0.830819  0.801972  0.083440  1
  O  O10  1  0.330818  0.698029  0.583440  1
  O  O11  1  0.169182  0.198028  0.916560  1
  O  O12  1  0.188861  0.180078  0.561135  1
  O  O13  1  0.311139  0.680077  0.938865  1
  O  O14  1  0.811140  0.819922  0.438865  1
  O  O15  1  0.688860  0.319923  0.061135  1
  O  O16  1  0.135916  0.427585  0.233606  1
  O  O17  1  0.364085  0.927586  0.266393  1
  O  O18  1  0.635916  0.072414  0.733607  1
  O  O19  1  0.864085  0.572415  0.766394  1
