# generated using pymatgen
data_Mg2SnWO6
_symmetry_space_group_name_H-M   'P 1'
_cell_length_a   5.57252506
_cell_length_b   5.57305292
_cell_length_c   8.10718717
_cell_angle_alpha   90.00000000
_cell_angle_beta   89.33609085
_cell_angle_gamma   90.00000000
_symmetry_Int_Tables_number   1
_chemical_formula_structural   Mg2SnWO6
_chemical_formula_sum   'Mg4 Sn2 W2 O12'
_cell_volume   251.75971617
_cell_formula_units_Z   2
loop_
 _symmetry_equiv_pos_site_id
 _symmetry_equiv_pos_as_xyz
  1  'x, y, z'
loop_
 _atom_site_type_symbol
 _atom_site_label
 _atom_site_symmetry_multiplicity
 _atom_site_fract_x
 _atom_site_fract_y
 _atom_site_fract_z
 _atom_site_occupancy
  Mg  Mg0  1  0.034403  0.015970  0.276734  1
  Mg  Mg1  1  0.465597  0.515971  0.223266  1
  Mg  Mg2  1  0.965598  0.984031  0.723266  1
  Mg  Mg3  1  0.534402  0.484030  0.776734  1
  Sn  Sn4  1  0.500000  0.000000  0.000000  1
  Sn  Sn5  1  0.000001  0.499999  0.500000  1
  W  W6  1  0.500000  0.000000  0.499999  1
  W  W7  1  0.000000  0.499999  0.000000  1
  O  O8  1  0.601555  0.294742  0.393771  1
  O  O9  1  0.898445  0.794743  0.106229  1
  O  O10  1  0.398444  0.705258  0.606229  1
  O  O11  1  0.101556  0.205257  0.893771  1
  O  O12  1  0.183152  0.128582  0.544195  1
  O  O13  1  0.316848  0.628581  0.955805  1
  O  O14  1  0.816849  0.871418  0.455805  1
  O  O15  1  0.683151  0.371419  0.044195  1
  O  O16  1  0.125647  0.364778  0.212634  1
  O  O17  1  0.374354  0.864779  0.287365  1
  O  O18  1  0.625647  0.135221  0.712635  1
  O  O19  1  0.874354  0.635222  0.787366  1
