# generated using pymatgen
data_Ca(VS2)2
_symmetry_space_group_name_H-M   'P 1'
_cell_length_a   7.50960757
_cell_length_b   7.51189646
_cell_length_c   7.50955986
_cell_angle_alpha   59.97466200
_cell_angle_beta   60.08771339
_cell_angle_gamma   59.94439588
_symmetry_Int_Tables_number   1
_chemical_formula_structural   Ca(VS2)2
_chemical_formula_sum   'Ca2 V4 S8'
_cell_volume   299.56221633
_cell_formula_units_Z   2
loop_
 _symmetry_equiv_pos_site_id
 _symmetry_equiv_pos_as_xyz
  1  'x, y, z'
loop_
 _atom_site_type_symbol
 _atom_site_label
 _atom_site_symmetry_multiplicity
 _atom_site_fract_x
 _atom_site_fract_y
 _atom_site_fract_z
 _atom_site_occupancy
  Ca  Ca0  1  0.875042  0.874938  0.875056  1
  Ca  Ca1  1  0.124959  0.125061  0.124944  1
  V  V2  1  0.500000  0.500000  0.500000  1
  V  V3  1  0.500000  0.499999  1.000000  1
  V  V4  1  0.999998  0.500000  0.500002  1
  V  V5  1  0.500002  1.000000  0.500000  1
  S  S6  1  0.732208  0.731771  0.732343  1
  S  S7  1  0.267917  0.267848  0.696361  1
  S  S8  1  0.267823  0.696315  0.267858  1
  S  S9  1  0.696416  0.267711  0.268103  1
  S  S10  1  0.732177  0.303683  0.732143  1
  S  S11  1  0.303585  0.732288  0.731898  1
  S  S12  1  0.267793  0.268229  0.267658  1
  S  S13  1  0.732084  0.732152  0.303638  1
