# generated using pymatgen
data_Ca(WO2)2
_symmetry_space_group_name_H-M   'P 1'
_cell_length_a   5.68621230
_cell_length_b   6.56865346
_cell_length_c   11.16577636
_cell_angle_alpha   89.99790020
_cell_angle_beta   90.00010259
_cell_angle_gamma   89.99241561
_symmetry_Int_Tables_number   1
_chemical_formula_structural   Ca(WO2)2
_chemical_formula_sum   'Ca4 W8 O16'
_cell_volume   417.05020814
_cell_formula_units_Z   4
loop_
 _symmetry_equiv_pos_site_id
 _symmetry_equiv_pos_as_xyz
  1  'x, y, z'
loop_
 _atom_site_type_symbol
 _atom_site_label
 _atom_site_symmetry_multiplicity
 _atom_site_fract_x
 _atom_site_fract_y
 _atom_site_fract_z
 _atom_site_occupancy
  Ca  Ca0  1  0.853503  0.250106  0.749989  1
  Ca  Ca1  1  0.146496  0.749894  0.249990  1
  Ca  Ca2  1  0.533617  0.249877  0.249983  1
  Ca  Ca3  1  0.466378  0.750123  0.749986  1
  W  W4  1  0.512213  0.749821  0.483687  1
  W  W5  1  0.511471  0.750116  0.016262  1
  W  W6  1  0.488534  0.249886  0.516263  1
  W  W7  1  0.487787  0.250176  0.983685  1
  W  W8  1  0.000335  0.499788  0.499923  1
  W  W9  1  0.999745  0.000239  0.000122  1
  W  W10  1  0.000255  0.999761  0.500121  1
  W  W11  1  0.999667  0.500213  0.999925  1
  O  O12  1  0.856094  0.749877  0.396526  1
  O  O13  1  0.855359  0.750111  0.103588  1
  O  O14  1  0.144642  0.249878  0.603588  1
  O  O15  1  0.143904  0.250136  0.896525  1
  O  O16  1  0.191982  0.749680  0.588792  1
  O  O17  1  0.191278  0.750338  0.911218  1
  O  O18  1  0.808721  0.249673  0.411217  1
  O  O19  1  0.808016  0.250310  0.088792  1
  O  O20  1  0.664707  0.506884  0.603457  1
  O  O21  1  0.664142  0.993116  0.896497  1
  O  O22  1  0.335859  0.006896  0.396497  1
  O  O23  1  0.335295  0.493105  0.103457  1
  O  O24  1  0.336128  0.492851  0.396321  1
  O  O25  1  0.335581  0.007141  0.103634  1
  O  O26  1  0.664420  0.992848  0.603633  1
  O  O27  1  0.663872  0.507159  0.896321  1
