# generated using pymatgen
data_CaPrTi2O6
_symmetry_space_group_name_H-M   'P 1'
_cell_length_a   5.50420137
_cell_length_b   5.55026145
_cell_length_c   7.83562583
_cell_angle_alpha   90.01933062
_cell_angle_beta   90.02185984
_cell_angle_gamma   90.08984964
_symmetry_Int_Tables_number   1
_chemical_formula_structural   CaPrTi2O6
_chemical_formula_sum   'Ca2 Pr2 Ti4 O12'
_cell_volume   239.37613712
_cell_formula_units_Z   2
loop_
 _symmetry_equiv_pos_site_id
 _symmetry_equiv_pos_as_xyz
  1  'x, y, z'
loop_
 _atom_site_type_symbol
 _atom_site_label
 _atom_site_symmetry_multiplicity
 _atom_site_fract_x
 _atom_site_fract_y
 _atom_site_fract_z
 _atom_site_occupancy
  Ca  Ca0  1  0.489588  0.457328  0.749946  1
  Ca  Ca1  1  0.989735  0.042689  0.250071  1
  Pr  Pr2  1  0.009666  0.958913  0.749891  1
  Pr  Pr3  1  0.509745  0.541132  0.250099  1
  Ti  Ti4  1  0.000450  0.498308  0.999638  1
  Ti  Ti5  1  0.000490  0.498342  0.500395  1
  Ti  Ti6  1  0.500655  0.001814  0.499616  1
  Ti  Ti7  1  0.500726  0.001828  0.000403  1
  O  O8  1  0.077831  0.479496  0.250078  1
  O  O9  1  0.214837  0.215387  0.958098  1
  O  O10  1  0.214626  0.215587  0.541909  1
  O  O11  1  0.286809  0.713994  0.543050  1
  O  O12  1  0.286986  0.714113  0.956922  1
  O  O13  1  0.418187  0.981997  0.249923  1
  O  O14  1  0.577703  0.020625  0.750066  1
  O  O15  1  0.714823  0.284487  0.041761  1
  O  O16  1  0.715013  0.284624  0.458259  1
  O  O17  1  0.786846  0.785907  0.043117  1
  O  O18  1  0.787069  0.785740  0.456843  1
  O  O19  1  0.918207  0.517693  0.749915  1
