# generated using pymatgen
data_MgTaTi(PO4)3
_symmetry_space_group_name_H-M   'P 1'
_cell_length_a   8.60576329
_cell_length_b   8.61055867
_cell_length_c   8.61589397
_cell_angle_alpha   61.30606085
_cell_angle_beta   61.37437949
_cell_angle_gamma   61.37716961
_symmetry_Int_Tables_number   1
_chemical_formula_structural   MgTaTi(PO4)3
_chemical_formula_sum   'Mg2 Ta2 Ti2 P6 O24'
_cell_volume   465.16628428
_cell_formula_units_Z   2
loop_
 _symmetry_equiv_pos_site_id
 _symmetry_equiv_pos_as_xyz
  1  'x, y, z'
loop_
 _atom_site_type_symbol
 _atom_site_label
 _atom_site_symmetry_multiplicity
 _atom_site_fract_x
 _atom_site_fract_y
 _atom_site_fract_z
 _atom_site_occupancy
  Mg  Mg0  1  0.003787  0.003659  0.003818  1
  Mg  Mg1  1  0.503916  0.503811  0.503715  1
  Ta  Ta2  1  0.355931  0.355994  0.356182  1
  Ta  Ta3  1  0.855858  0.856422  0.855820  1
  Ti  Ti4  1  0.145562  0.145043  0.144648  1
  Ti  Ti5  1  0.645451  0.644130  0.645337  1
  P  P6  1  0.045335  0.449680  0.751538  1
  P  P7  1  0.449438  0.751235  0.045281  1
  P  P8  1  0.751342  0.045440  0.449544  1
  P  P9  1  0.251405  0.949563  0.545339  1
  P  P10  1  0.545379  0.251507  0.949687  1
  P  P11  1  0.949410  0.545398  0.251216  1
  O  O12  1  0.108981  0.506519  0.315774  1
  O  O13  1  0.316354  0.108872  0.506214  1
  O  O14  1  0.060337  0.257251  0.907546  1
  O  O15  1  0.506266  0.315944  0.108976  1
  O  O16  1  0.006228  0.608865  0.816098  1
  O  O17  1  0.241691  0.438986  0.593048  1
  O  O18  1  0.257142  0.907321  0.060709  1
  O  O19  1  0.438676  0.592661  0.242097  1
  O  O20  1  0.181378  0.995573  0.391758  1
  O  O21  1  0.592969  0.241928  0.438819  1
  O  O22  1  0.093122  0.938951  0.741682  1
  O  O23  1  0.391301  0.181315  0.995692  1
  O  O24  1  0.609002  0.815625  0.006614  1
  O  O25  1  0.907620  0.060768  0.257212  1
  O  O26  1  0.407809  0.757190  0.560692  1
  O  O27  1  0.816363  0.006247  0.608898  1
  O  O28  1  0.560442  0.407530  0.757238  1
  O  O29  1  0.741757  0.092933  0.938938  1
  O  O30  1  0.757238  0.560712  0.407224  1
  O  O31  1  0.995539  0.391551  0.181704  1
  O  O32  1  0.495492  0.681675  0.891577  1
  O  O33  1  0.938700  0.742143  0.092654  1
  O  O34  1  0.681464  0.891837  0.495485  1
  O  O35  1  0.891311  0.495721  0.681225  1
