# generated using pymatgen
data_MgBiAsO5
_symmetry_space_group_name_H-M   'P 1'
_cell_length_a   7.09421247
_cell_length_b   7.49625372
_cell_length_c   8.97062438
_cell_angle_alpha   90.01090650
_cell_angle_beta   90.00633776
_cell_angle_gamma   89.99429943
_symmetry_Int_Tables_number   1
_chemical_formula_structural   MgBiAsO5
_chemical_formula_sum   'Mg4 Bi4 As4 O20'
_cell_volume   477.05793993
_cell_formula_units_Z   4
loop_
 _symmetry_equiv_pos_site_id
 _symmetry_equiv_pos_as_xyz
  1  'x, y, z'
loop_
 _atom_site_type_symbol
 _atom_site_label
 _atom_site_symmetry_multiplicity
 _atom_site_fract_x
 _atom_site_fract_y
 _atom_site_fract_z
 _atom_site_occupancy
  Mg  Mg0  1  0.085570  0.696025  0.062565  1
  Mg  Mg1  1  0.414412  0.303956  0.562543  1
  Mg  Mg2  1  0.585503  0.803958  0.937392  1
  Mg  Mg3  1  -0.085521  0.196039  0.437412  1
  Bi  Bi4  1  0.031579  0.462419  0.726501  1
  Bi  Bi5  1  0.468403  0.537551  0.226449  1
  Bi  Bi6  1  0.531750  0.037633  0.273563  1
  Bi  Bi7  1  0.968270  0.962385  0.773593  1
  As  As8  1  0.605249  0.277801  0.900934  1
  As  As9  1  0.894766  0.722009  0.401027  1
  As  As10  1  0.105351  0.222153  0.099023  1
  As  As11  1  0.394782  0.778058  0.599010  1
  O  O12  1  0.805275  0.257271  0.787147  1
  O  O13  1  0.694759  0.742758  0.287139  1
  O  O14  1  0.305233  0.242675  0.212964  1
  O  O15  1  0.194837  0.757235  0.712967  1
  O  O16  1  0.426048  0.328668  0.782044  1
  O  O17  1  0.073966  0.671403  0.282040  1
  O  O18  1  0.925987  0.171350  0.217916  1
  O  O19  1  0.573907  0.828573  0.717856  1
  O  O20  1  0.592982  0.075479  0.990052  1
  O  O21  1  0.906834  0.924722  0.490235  1
  O  O22  1  0.093034  0.424443  0.009925  1
  O  O23  1  0.406808  0.575353  0.509662  1
  O  O24  1  0.643949  0.449293  0.025605  1
  O  O25  1  0.856193  0.550840  0.525418  1
  O  O26  1  0.143911  0.050576  0.974460  1
  O  O27  1  0.356126  0.949323  0.474547  1
  O  O28  1  0.872653  0.766340  0.928278  1
  O  O29  1  0.627378  0.233815  0.428209  1
  O  O30  1  0.372740  0.733552  0.071739  1
  O  O31  1  0.127264  0.266346  0.571784  1
