# generated using pymatgen
data_CaSb2P2O9
_symmetry_space_group_name_H-M   'P 1'
_cell_length_a   7.00175778
_cell_length_b   7.14889256
_cell_length_c   15.79085945
_cell_angle_alpha   90.00000000
_cell_angle_beta   90.00000000
_cell_angle_gamma   90.00000000
_symmetry_Int_Tables_number   1
_chemical_formula_structural   CaSb2P2O9
_chemical_formula_sum   'Ca4 Sb8 P8 O36'
_cell_volume   790.40853425
_cell_formula_units_Z   4
loop_
 _symmetry_equiv_pos_site_id
 _symmetry_equiv_pos_as_xyz
  1  'x, y, z'
loop_
 _atom_site_type_symbol
 _atom_site_label
 _atom_site_symmetry_multiplicity
 _atom_site_fract_x
 _atom_site_fract_y
 _atom_site_fract_z
 _atom_site_occupancy
  Ca  Ca0  1  0.750000  0.901779  0.778662  1
  Ca  Ca1  1  0.750000  0.598221  0.278662  1
  Ca  Ca2  1  0.250001  0.401778  0.721338  1
  Ca  Ca3  1  0.250001  0.098221  0.221338  1
  Sb  Sb4  1  0.750000  0.392898  0.883101  1
  Sb  Sb5  1  0.250001  0.607102  0.116899  1
  Sb  Sb6  1  0.250001  0.892898  0.616899  1
  Sb  Sb7  1  0.750000  0.107102  0.383101  1
  Sb  Sb8  1  0.500000  -0.000000  -0.000000  1
  Sb  Sb9  1  0.500000  0.500000  0.500000  1
  Sb  Sb10  1  0.000000  0.500000  0.500000  1
  Sb  Sb11  1  0.000000  -0.000000  -0.000000  1
  P  P12  1  0.250001  0.392654  0.920403  1
  P  P13  1  0.750000  0.607346  0.079598  1
  P  P14  1  0.750000  0.892654  0.579597  1
  P  P15  1  0.250001  0.107347  0.420403  1
  P  P16  1  0.750000  0.401576  0.691870  1
  P  P17  1  0.750000  0.098424  0.191870  1
  P  P18  1  0.250001  0.901576  0.808130  1
  P  P19  1  0.250001  0.598423  0.308130  1
  O  O20  1  0.063479  0.611841  0.362485  1
  O  O21  1  0.563478  0.388158  0.637515  1
  O  O22  1  0.936521  0.111841  0.137515  1
  O  O23  1  0.436521  0.888159  0.862485  1
  O  O24  1  0.936521  0.388158  0.637515  1
  O  O25  1  0.436521  0.611841  0.362485  1
  O  O26  1  0.063479  0.888159  0.862485  1
  O  O27  1  0.563478  0.111841  0.137515  1
  O  O28  1  0.250001  0.281512  0.483985  1
  O  O29  1  0.750000  0.718489  0.516015  1
  O  O30  1  0.750000  0.781511  0.016014  1
  O  O31  1  0.250001  0.218489  0.983985  1
  O  O32  1  0.750000  0.119526  0.924068  1
  O  O33  1  0.250001  0.880474  0.075931  1
  O  O34  1  0.250001  0.619526  0.575931  1
  O  O35  1  0.750000  0.380475  0.424069  1
  O  O36  1  0.750000  0.236294  0.758214  1
  O  O37  1  0.250001  0.763706  0.241787  1
  O  O38  1  0.250001  0.736294  0.741786  1
  O  O39  1  0.750000  0.263707  0.258213  1
  O  O40  1  0.425894  0.124424  0.361219  1
  O  O41  1  0.925894  0.875576  0.638781  1
  O  O42  1  0.574106  0.624423  0.138781  1
  O  O43  1  0.074106  0.375576  0.861219  1
  O  O44  1  0.574106  0.875576  0.638781  1
  O  O45  1  0.074106  0.124424  0.361219  1
  O  O46  1  0.425894  0.375576  0.861219  1
  O  O47  1  0.925894  0.624423  0.138781  1
  O  O48  1  0.750000  0.426459  0.028127  1
  O  O49  1  0.250001  0.081311  0.754049  1
  O  O50  1  0.250001  0.418688  0.254049  1
  O  O51  1  0.750000  0.581311  0.745951  1
  O  O52  1  0.750000  0.073541  0.528127  1
  O  O53  1  0.250001  0.926459  0.471873  1
  O  O54  1  0.250001  0.573540  0.971872  1
  O  O55  1  0.750000  0.918689  0.245951  1
