# generated using pymatgen
data_ZnCuF4
_symmetry_space_group_name_H-M   'P 1'
_cell_length_a   5.18277104
_cell_length_b   5.14502508
_cell_length_c   6.24056514
_cell_angle_alpha   114.31051303
_cell_angle_beta   114.77622438
_cell_angle_gamma   90.02123788
_symmetry_Int_Tables_number   1
_chemical_formula_structural   ZnCuF4
_chemical_formula_sum   'Zn2 Cu2 F8'
_cell_volume   134.65315338
_cell_formula_units_Z   2
loop_
 _symmetry_equiv_pos_site_id
 _symmetry_equiv_pos_as_xyz
  1  'x, y, z'
loop_
 _atom_site_type_symbol
 _atom_site_label
 _atom_site_symmetry_multiplicity
 _atom_site_fract_x
 _atom_site_fract_y
 _atom_site_fract_z
 _atom_site_occupancy
  Zn  Zn0  1  0.255233  0.250461  0.501333  1
  Zn  Zn1  1  0.752562  0.747382  0.500230  1
  Cu  Cu2  1  0.997597  0.501955  0.999197  1
  Cu  Cu3  1  0.498365  0.998761  0.001163  1
  F  F4  1  0.949633  0.443061  0.266442  1
  F  F5  1  0.680784  0.175618  0.729670  1
  F  F6  1  0.048182  0.558900  0.732202  1
  F  F7  1  0.181270  0.057425  0.734285  1
  F  F8  1  0.322013  0.818355  0.268627  1
  F  F9  1  0.453011  0.320910  0.273059  1
  F  F10  1  0.820788  0.945467  0.269538  1
  F  F11  1  0.548770  0.675513  0.734436  1
