# generated using pymatgen
data_Bi3(PO5)2
_symmetry_space_group_name_H-M   'P 1'
_cell_length_a   6.94047735
_cell_length_b   7.77299494
_cell_length_c   9.32508662
_cell_angle_alpha   106.73222734
_cell_angle_beta   92.46844392
_cell_angle_gamma   112.68582606
_symmetry_Int_Tables_number   1
_chemical_formula_structural   Bi3(PO5)2
_chemical_formula_sum   'Bi6 P4 O20'
_cell_volume   437.68675360
_cell_formula_units_Z   2
loop_
 _symmetry_equiv_pos_site_id
 _symmetry_equiv_pos_as_xyz
  1  'x, y, z'
loop_
 _atom_site_type_symbol
 _atom_site_label
 _atom_site_symmetry_multiplicity
 _atom_site_fract_x
 _atom_site_fract_y
 _atom_site_fract_z
 _atom_site_occupancy
  Bi  Bi0  1  0.816525  0.802021  0.321301  1
  Bi  Bi1  1  0.337447  0.632804  0.509779  1
  Bi  Bi2  1  0.439917  0.297046  0.082531  1
  Bi  Bi3  1  0.560083  0.702954  0.917469  1
  Bi  Bi4  1  0.662553  0.367196  0.490221  1
  Bi  Bi5  1  0.183475  0.197979  0.678699  1
  P  P6  1  0.346274  0.891212  0.252515  1
  P  P7  1  0.653726  0.108788  0.747485  1
  P  P8  1  0.955363  0.234188  0.239507  1
  P  P9  1  0.044637  0.765812  0.760493  1
  O  O10  1  0.437715  0.467713  0.632082  1
  O  O11  1  0.139201  0.995950  0.829042  1
  O  O12  1  0.363993  0.830365  0.083374  1
  O  O13  1  0.222607  0.690265  0.762246  1
  O  O14  1  0.519294  0.874703  0.354376  1
  O  O15  1  0.873239  0.671391  0.848215  1
  O  O16  1  0.480706  0.125297  0.645624  1
  O  O17  1  0.048590  0.299422  0.412914  1
  O  O18  1  0.628380  0.888950  0.693404  1
  O  O19  1  0.860799  0.004050  0.170958  1
  O  O20  1  0.777393  0.309735  0.237754  1
  O  O21  1  0.951410  0.700578  0.587086  1
  O  O22  1  0.562285  0.532287  0.367918  1
  O  O23  1  0.870574  0.240942  0.717574  1
  O  O24  1  0.340596  0.397998  0.896771  1
  O  O25  1  0.636007  0.169635  0.916626  1
  O  O26  1  0.659404  0.602002  0.103229  1
  O  O27  1  0.126761  0.328609  0.151785  1
  O  O28  1  0.371620  0.111049  0.306596  1
  O  O29  1  0.129426  0.759058  0.282426  1
