# generated using pymatgen
data_CaCrAs2O7
_symmetry_space_group_name_H-M   'P 1'
_cell_length_a   7.50593659
_cell_length_b   9.19194607
_cell_length_c   9.57975364
_cell_angle_alpha   90.00000000
_cell_angle_beta   110.57350098
_cell_angle_gamma   90.00000000
_symmetry_Int_Tables_number   1
_chemical_formula_structural   CaCrAs2O7
_chemical_formula_sum   'Ca4 Cr4 As8 O28'
_cell_volume   618.79331868
_cell_formula_units_Z   4
loop_
 _symmetry_equiv_pos_site_id
 _symmetry_equiv_pos_as_xyz
  1  'x, y, z'
loop_
 _atom_site_type_symbol
 _atom_site_label
 _atom_site_symmetry_multiplicity
 _atom_site_fract_x
 _atom_site_fract_y
 _atom_site_fract_z
 _atom_site_occupancy
  Ca  Ca0  1  0.251305  0.934619  0.933191  1
  Ca  Ca1  1  0.748695  0.434619  0.566809  1
  Ca  Ca2  1  0.748695  0.065381  0.066809  1
  Ca  Ca3  1  0.251305  0.565381  0.433191  1
  Cr  Cr4  1  0.783840  0.049742  0.676433  1
  Cr  Cr5  1  0.216160  0.549742  0.823567  1
  Cr  Cr6  1  0.216160  0.950258  0.323567  1
  Cr  Cr7  1  0.783840  0.450258  0.176433  1
  As  As8  1  0.421002  0.235725  0.735140  1
  As  As9  1  0.578998  0.735725  0.764860  1
  As  As10  1  0.578998  0.764275  0.264860  1
  As  As11  1  0.421002  0.264275  0.235139  1
  As  As12  1  0.023172  0.293956  0.957300  1
  As  As13  1  0.976828  0.793956  0.542700  1
  As  As14  1  0.976828  0.706044  0.042700  1
  As  As15  1  0.023172  0.206044  0.457300  1
  O  O16  1  0.854691  0.308669  0.038498  1
  O  O17  1  0.145309  0.808669  0.461502  1
  O  O18  1  0.145309  0.691331  0.961502  1
  O  O19  1  0.854691  0.191331  0.538498  1
  O  O20  1  0.348400  0.412548  0.720728  1
  O  O21  1  0.651600  0.912548  0.779272  1
  O  O22  1  0.651600  0.587452  0.279272  1
  O  O23  1  0.348400  0.087452  0.220728  1
  O  O24  1  0.434056  0.136915  0.888829  1
  O  O25  1  0.565944  0.636915  0.611171  1
  O  O26  1  0.565944  0.863085  0.111171  1
  O  O27  1  0.434056  0.363085  0.388829  1
  O  O28  1  0.248114  0.140394  0.581580  1
  O  O29  1  0.751886  0.640394  0.918420  1
  O  O30  1  0.751886  0.859606  0.418420  1
  O  O31  1  0.248114  0.359606  0.081580  1
  O  O32  1  0.997089  0.090992  0.310987  1
  O  O33  1  0.002911  0.590991  0.189013  1
  O  O34  1  0.002911  0.909009  0.689013  1
  O  O35  1  0.997089  0.409009  0.810987  1
  O  O36  1  0.626773  0.270609  0.196908  1
  O  O37  1  0.373227  0.770609  0.303092  1
  O  O38  1  0.373227  0.729391  0.803092  1
  O  O39  1  0.626773  0.229391  0.696908  1
  O  O40  1  0.017820  0.384155  0.411720  1
  O  O41  1  0.982180  0.884155  0.088280  1
  O  O42  1  0.982180  0.615845  0.588280  1
  O  O43  1  0.017820  0.115845  0.911720  1
