# generated using pymatgen
data_Ba2Bi3O7
_symmetry_space_group_name_H-M   'P 1'
_cell_length_a   4.39248709
_cell_length_b   4.37098707
_cell_length_c   12.35877018
_cell_angle_alpha   89.96777868
_cell_angle_beta   89.96455976
_cell_angle_gamma   89.98669893
_symmetry_Int_Tables_number   1
_chemical_formula_structural   Ba2Bi3O7
_chemical_formula_sum   'Ba2 Bi3 O7'
_cell_volume   237.28217136
_cell_formula_units_Z   1
loop_
 _symmetry_equiv_pos_site_id
 _symmetry_equiv_pos_as_xyz
  1  'x, y, z'
loop_
 _atom_site_type_symbol
 _atom_site_label
 _atom_site_symmetry_multiplicity
 _atom_site_fract_x
 _atom_site_fract_y
 _atom_site_fract_z
 _atom_site_occupancy
  Ba  Ba0  1  0.475971  0.501933  0.792355  1
  Ba  Ba1  1  0.475568  0.500456  0.206617  1
  Bi  Bi2  1  0.982988  0.002103  0.635397  1
  Bi  Bi3  1  0.982414  0.000151  0.363572  1
  Bi  Bi4  1  0.983419  0.000731  0.999518  1
  O  O5  1  0.161403  0.501405  0.999464  1
  O  O6  1  0.483520  0.002321  0.663545  1
  O  O7  1  0.483140  0.000167  0.335364  1
  O  O8  1  0.985973  0.502081  0.661140  1
  O  O9  1  0.985243  0.500263  0.337784  1
  O  O10  1  0.976727  0.001741  0.817881  1
  O  O11  1  0.977372  0.000753  0.181072  1
