# generated using pymatgen
data_MgMnBiO5
_symmetry_space_group_name_H-M   'P 1'
_cell_length_a   5.38693111
_cell_length_b   7.65195274
_cell_length_c   11.62742294
_cell_angle_alpha   90.00000000
_cell_angle_beta   90.00000000
_cell_angle_gamma   107.58406393
_symmetry_Int_Tables_number   1
_chemical_formula_structural   MgMnBiO5
_chemical_formula_sum   'Mg4 Mn4 Bi4 O20'
_cell_volume   456.89378628
_cell_formula_units_Z   4
loop_
 _symmetry_equiv_pos_site_id
 _symmetry_equiv_pos_as_xyz
  1  'x, y, z'
loop_
 _atom_site_type_symbol
 _atom_site_label
 _atom_site_symmetry_multiplicity
 _atom_site_fract_x
 _atom_site_fract_y
 _atom_site_fract_z
 _atom_site_occupancy
  Mg  Mg0  1  0.624482  0.177618  0.920184  1
  Mg  Mg1  1  0.375518  0.822382  0.079816  1
  Mg  Mg2  1  0.875518  0.322382  0.420184  1
  Mg  Mg3  1  0.124482  0.677618  0.579816  1
  Mn  Mn4  1  0.782620  0.971506  0.647055  1
  Mn  Mn5  1  0.217380  0.028494  0.352945  1
  Mn  Mn6  1  0.717380  0.528494  0.147055  1
  Mn  Mn7  1  0.282620  0.471506  0.852945  1
  Bi  Bi8  1  0.115229  0.174663  0.100371  1
  Bi  Bi9  1  0.884771  0.825337  0.899629  1
  Bi  Bi10  1  0.615229  0.674663  0.399629  1
  Bi  Bi11  1  0.384771  0.325337  0.600371  1
  O  O12  1  0.576923  0.329825  0.072507  1
  O  O13  1  0.029653  0.328044  0.929137  1
  O  O14  1  0.489728  0.637440  0.179507  1
  O  O15  1  0.756160  0.513309  0.525759  1
  O  O16  1  0.803159  0.488126  0.286601  1
  O  O17  1  0.303159  0.988126  0.213399  1
  O  O18  1  0.529653  0.828044  0.570863  1
  O  O19  1  0.470347  0.171956  0.429137  1
  O  O20  1  0.243840  0.486691  0.474241  1
  O  O21  1  0.923077  0.170175  0.572507  1
  O  O22  1  0.196841  0.511874  0.713399  1
  O  O23  1  0.423077  0.670175  0.927493  1
  O  O24  1  0.076923  0.829825  0.427493  1
  O  O25  1  0.696841  0.011874  0.786601  1
  O  O26  1  0.743840  0.986691  0.025759  1
  O  O27  1  0.256160  0.013309  0.974241  1
  O  O28  1  0.510272  0.362560  0.820493  1
  O  O29  1  0.970347  0.671956  0.070863  1
  O  O30  1  0.010272  0.862560  0.679507  1
  O  O31  1  0.989728  0.137440  0.320493  1
