# generated using pymatgen
data_BaAlCuWO5
_symmetry_space_group_name_H-M   'P 1'
_cell_length_a   3.96227125
_cell_length_b   4.02119674
_cell_length_c   8.90709105
_cell_angle_alpha   89.99761053
_cell_angle_beta   89.99975503
_cell_angle_gamma   90.00132577
_symmetry_Int_Tables_number   1
_chemical_formula_structural   BaAlCuWO5
_chemical_formula_sum   'Ba1 Al1 Cu1 W1 O5'
_cell_volume   141.91732501
_cell_formula_units_Z   1
loop_
 _symmetry_equiv_pos_site_id
 _symmetry_equiv_pos_as_xyz
  1  'x, y, z'
loop_
 _atom_site_type_symbol
 _atom_site_label
 _atom_site_symmetry_multiplicity
 _atom_site_fract_x
 _atom_site_fract_y
 _atom_site_fract_z
 _atom_site_occupancy
  Ba  Ba0  1  0.999998  0.999991  0.918776  1
  Al  Al1  1  1.000000  0.999995  0.343958  1
  Cu  Cu2  1  0.499998  0.499994  0.331255  1
  W  W3  1  0.500002  0.500011  0.678989  1
  O  O4  1  -0.000001  0.500014  0.674519  1
  O  O5  1  0.500002  0.000010  0.683756  1
  O  O6  1  0.999998  0.499993  0.324012  1
  O  O7  1  0.500001  0.999993  0.322624  1
  O  O8  1  0.499998  0.499992  0.910029  1
