# generated using pymatgen
data_MgMn2O4
_symmetry_space_group_name_H-M   'P 1'
_cell_length_a   6.24942938
_cell_length_b   6.11376356
_cell_length_c   6.19594676
_cell_angle_alpha   85.22956803
_cell_angle_beta   124.27055380
_cell_angle_gamma   121.04783007
_symmetry_Int_Tables_number   1
_chemical_formula_structural   MgMn2O4
_chemical_formula_sum   'Mg2 Mn4 O8'
_cell_volume   160.26308319
_cell_formula_units_Z   2
loop_
 _symmetry_equiv_pos_site_id
 _symmetry_equiv_pos_as_xyz
  1  'x, y, z'
loop_
 _atom_site_type_symbol
 _atom_site_label
 _atom_site_symmetry_multiplicity
 _atom_site_fract_x
 _atom_site_fract_y
 _atom_site_fract_z
 _atom_site_occupancy
  Mg  Mg0  1  0.000042  0.000009  0.000039  1
  Mg  Mg1  1  0.500038  0.000020  0.000048  1
  Mn  Mn2  1  0.499981  0.999995  0.499983  1
  Mn  Mn3  1  0.499999  0.500043  0.499981  1
  Mn  Mn4  1  0.000086  0.500041  0.000073  1
  Mn  Mn5  1  -0.000025  0.499962  0.500000  1
  O  O6  1  0.038396  0.738406  0.230178  1
  O  O7  1  0.510563  0.792355  0.753035  1
  O  O8  1  0.457110  0.715512  0.245685  1
  O  O9  1  0.976492  0.728012  0.759826  1
  O  O10  1  0.542849  0.284481  0.754259  1
  O  O11  1  0.489447  0.207595  0.247007  1
  O  O12  1  0.023516  0.272010  0.240134  1
  O  O13  1  0.961556  0.261521  0.769793  1
