# generated using pymatgen
data_SbAs2O7
_symmetry_space_group_name_H-M   'P 1'
_cell_length_a   7.40993491
_cell_length_b   9.54617627
_cell_length_c   9.89105982
_cell_angle_alpha   90.00000000
_cell_angle_beta   108.26264702
_cell_angle_gamma   90.00000000
_symmetry_Int_Tables_number   1
_chemical_formula_structural   SbAs2O7
_chemical_formula_sum   'Sb4 As8 O28'
_cell_volume   664.41753614
_cell_formula_units_Z   4
loop_
 _symmetry_equiv_pos_site_id
 _symmetry_equiv_pos_as_xyz
  1  'x, y, z'
loop_
 _atom_site_type_symbol
 _atom_site_label
 _atom_site_symmetry_multiplicity
 _atom_site_fract_x
 _atom_site_fract_y
 _atom_site_fract_z
 _atom_site_occupancy
  Sb  Sb0  1  0.803656  0.068994  0.706652  1
  Sb  Sb1  1  0.196344  0.568994  0.793348  1
  Sb  Sb2  1  0.196344  0.931006  0.293348  1
  Sb  Sb3  1  0.803656  0.431006  0.206652  1
  As  As4  1  0.411387  0.250252  0.750000  1
  As  As5  1  0.588613  0.750252  0.750000  1
  As  As6  1  0.588613  0.749748  0.250000  1
  As  As7  1  0.411387  0.249748  0.250000  1
  As  As8  1  0.031725  0.291990  0.962163  1
  As  As9  1  0.968275  0.791990  0.537837  1
  As  As10  1  0.968275  0.708010  0.037837  1
  As  As11  1  0.031725  0.208010  0.462163  1
  O  O12  1  0.856717  0.317522  0.041420  1
  O  O13  1  0.143283  0.817522  0.458580  1
  O  O14  1  0.143283  0.682478  0.958580  1
  O  O15  1  0.856717  0.182478  0.541420  1
  O  O16  1  0.369073  0.431683  0.730544  1
  O  O17  1  0.630927  0.931683  0.769456  1
  O  O18  1  0.630927  0.568317  0.269456  1
  O  O19  1  0.369073  0.068317  0.230544  1
  O  O20  1  0.381907  0.176310  0.890743  1
  O  O21  1  0.618093  0.676310  0.609257  1
  O  O22  1  0.618093  0.823690  0.109257  1
  O  O23  1  0.381907  0.323690  0.390743  1
  O  O24  1  0.250590  0.169893  0.588043  1
  O  O25  1  0.749410  0.669893  0.911957  1
  O  O26  1  0.749410  0.830107  0.411957  1
  O  O27  1  0.250590  0.330107  0.088043  1
  O  O28  1  0.015554  0.091976  0.326156  1
  O  O29  1  0.984446  0.591976  0.173844  1
  O  O30  1  0.984446  0.908024  0.673844  1
  O  O31  1  0.015554  0.408024  0.826156  1
  O  O32  1  0.626727  0.267788  0.214811  1
  O  O33  1  0.373273  0.767788  0.285189  1
  O  O34  1  0.373273  0.732212  0.785189  1
  O  O35  1  0.626727  0.232212  0.714811  1
  O  O36  1  0.001272  0.378520  0.393404  1
  O  O37  1  0.998728  0.878520  0.106596  1
  O  O38  1  0.998728  0.621480  0.606596  1
  O  O39  1  0.001272  0.121480  0.893404  1
