# generated using pymatgen
data_MgVPO5
_symmetry_space_group_name_H-M   'P 1'
_cell_length_a   5.45143130
_cell_length_b   7.04879867
_cell_length_c   8.31581718
_cell_angle_alpha   90.90235884
_cell_angle_beta   141.25112433
_cell_angle_gamma   74.48690031
_symmetry_Int_Tables_number   1
_chemical_formula_structural   MgVPO5
_chemical_formula_sum   'Mg2 V2 P2 O10'
_cell_volume   182.60162868
_cell_formula_units_Z   2
loop_
 _symmetry_equiv_pos_site_id
 _symmetry_equiv_pos_as_xyz
  1  'x, y, z'
loop_
 _atom_site_type_symbol
 _atom_site_label
 _atom_site_symmetry_multiplicity
 _atom_site_fract_x
 _atom_site_fract_y
 _atom_site_fract_z
 _atom_site_occupancy
  Mg  Mg0  1  0.581566  0.237251  0.215851  1
  Mg  Mg1  1  0.499039  0.707247  0.824547  1
  V  V2  1  0.495610  0.494352  0.499665  1
  V  V3  1  0.501059  0.993106  0.497938  1
  P  P4  1  0.475163  0.251828  0.828962  1
  P  P5  1  0.502860  0.738694  0.162161  1
  O  O6  1  0.266481  0.143883  0.608762  1
  O  O7  1  0.631266  0.394516  0.811629  1
  O  O8  1  0.704358  0.859233  0.369031  1
  O  O9  1  0.325359  0.611200  0.176341  1
  O  O10  1  0.839198  0.590275  0.210132  1
  O  O11  1  0.159930  0.884936  0.869648  1
  O  O12  1  0.158195  0.383359  0.802303  1
  O  O13  1  0.839466  0.093261  0.117900  1
  O  O14  1  0.491748  0.748194  0.590358  1
  O  O15  1  0.493624  0.243165  0.401494  1
