# generated using pymatgen
data_Mg3Fe4(SbO4)6
_symmetry_space_group_name_H-M   'P 1'
_cell_length_a   6.92737894
_cell_length_b   8.31897414
_cell_length_c   10.27783922
_cell_angle_alpha   104.12441290
_cell_angle_beta   105.75514848
_cell_angle_gamma   102.66139029
_symmetry_Int_Tables_number   1
_chemical_formula_structural   Mg3Fe4(SbO4)6
_chemical_formula_sum   'Mg3 Fe4 Sb6 O24'
_cell_volume   526.32388628
_cell_formula_units_Z   1
loop_
 _symmetry_equiv_pos_site_id
 _symmetry_equiv_pos_as_xyz
  1  'x, y, z'
loop_
 _atom_site_type_symbol
 _atom_site_label
 _atom_site_symmetry_multiplicity
 _atom_site_fract_x
 _atom_site_fract_y
 _atom_site_fract_z
 _atom_site_occupancy
  Mg  Mg0  1  -0.000000  0.500000  0.500000  1
  Mg  Mg1  1  0.277554  0.283877  0.786746  1
  Mg  Mg2  1  0.722446  0.716123  0.213254  1
  Fe  Fe3  1  0.376283  0.957082  0.609414  1
  Fe  Fe4  1  0.623717  0.042918  0.390586  1
  Fe  Fe5  1  0.043712  0.210695  0.013206  1
  Fe  Fe6  1  0.956288  0.789305  0.986794  1
  Sb  Sb7  1  0.781292  0.346850  0.725636  1
  Sb  Sb8  1  0.218708  0.653150  0.274364  1
  Sb  Sb9  1  0.890923  0.894105  0.667300  1
  Sb  Sb10  1  0.396270  0.725848  0.874017  1
  Sb  Sb11  1  0.109077  0.105895  0.332700  1
  Sb  Sb12  1  0.603730  0.274152  0.125983  1
  O  O13  1  0.856810  0.661176  0.580100  1
  O  O14  1  0.143190  0.338824  0.419900  1
  O  O15  1  0.244366  0.500381  0.738089  1
  O  O16  1  0.755634  0.499619  0.261911  1
  O  O17  1  0.789248  0.296308  0.533991  1
  O  O18  1  0.210752  0.703692  0.466009  1
  O  O19  1  0.661622  0.971417  0.577296  1
  O  O20  1  0.338378  0.028583  0.422704  1
  O  O21  1  0.655597  0.749220  0.015765  1
  O  O22  1  0.344403  0.250780  0.984235  1
  O  O23  1  0.489718  0.778080  0.280877  1
  O  O24  1  0.510282  0.221920  0.719123  1
  O  O25  1  0.135633  0.034185  0.648390  1
  O  O26  1  0.068648  0.051327  0.133216  1
  O  O27  1  0.931352  0.948673  0.866784  1
  O  O28  1  0.549672  0.125650  0.233273  1
  O  O29  1  0.450328  0.874350  0.766727  1
  O  O30  1  0.198440  0.425741  0.172342  1
  O  O31  1  0.801560  0.574259  0.827658  1
  O  O32  1  0.995853  0.267311  0.828652  1
  O  O33  1  0.004147  0.732689  0.171348  1
  O  O34  1  0.234261  0.789893  0.986982  1
  O  O35  1  0.765739  0.210107  0.013018  1
  O  O36  1  0.864367  0.965815  0.351610  1
