# generated using pymatgen
data_CaMn2O5
_symmetry_space_group_name_H-M   'P 1'
_cell_length_a   3.70676424
_cell_length_b   5.49189039
_cell_length_c   10.37982723
_cell_angle_alpha   89.82581730
_cell_angle_beta   89.99999357
_cell_angle_gamma   90.00004118
_symmetry_Int_Tables_number   1
_chemical_formula_structural   CaMn2O5
_chemical_formula_sum   'Ca2 Mn4 O10'
_cell_volume   211.30264971
_cell_formula_units_Z   2
loop_
 _symmetry_equiv_pos_site_id
 _symmetry_equiv_pos_as_xyz
  1  'x, y, z'
loop_
 _atom_site_type_symbol
 _atom_site_label
 _atom_site_symmetry_multiplicity
 _atom_site_fract_x
 _atom_site_fract_y
 _atom_site_fract_z
 _atom_site_occupancy
  Ca  Ca0  1  0.500001  0.788317  0.130671  1
  Ca  Ca1  1  0.499999  0.711358  0.630456  1
  Mn  Mn2  1  0.000000  0.260116  0.637250  1
  Mn  Mn3  1  0.999998  0.715457  0.366583  1
  Mn  Mn4  1  0.000001  0.240643  0.136234  1
  Mn  Mn5  1  -0.000000  0.783722  0.866696  1
  O  O6  1  0.000000  0.544056  0.523112  1
  O  O7  1  0.000001  0.027465  0.273328  1
  O  O8  1  0.000002  0.559216  0.208178  1
  O  O9  1  0.000004  0.472871  0.773768  1
  O  O10  1  0.500002  0.283165  0.101507  1
  O  O11  1  0.499999  0.730894  0.888139  1
  O  O12  1  0.999999  0.940844  0.708514  1
  O  O13  1  0.499999  0.216963  0.602743  1
  O  O14  1  0.000001  0.955291  0.023244  1
  O  O15  1  0.500001  0.769622  0.387953  1
