# generated using pymatgen
data_CaCr2O4
_symmetry_space_group_name_H-M   'P 1'
_cell_length_a   6.33124439
_cell_length_b   6.16977038
_cell_length_c   24.63138251
_cell_angle_alpha   59.93591788
_cell_angle_beta   61.36319320
_cell_angle_gamma   60.84014966
_symmetry_Int_Tables_number   1
_chemical_formula_structural   CaCr2O4
_chemical_formula_sum   'Ca8 Cr16 O32'
_cell_volume   691.08394147
_cell_formula_units_Z   8
loop_
 _symmetry_equiv_pos_site_id
 _symmetry_equiv_pos_as_xyz
  1  'x, y, z'
loop_
 _atom_site_type_symbol
 _atom_site_label
 _atom_site_symmetry_multiplicity
 _atom_site_fract_x
 _atom_site_fract_y
 _atom_site_fract_z
 _atom_site_occupancy
  Ca  Ca0  1  0.136257  0.126099  0.027887  1
  Ca  Ca1  1  0.000935  0.499426  0.125053  1
  Ca  Ca2  1  0.126127  0.119047  0.283944  1
  Ca  Ca3  1  0.004456  0.497621  0.375076  1
  Ca  Ca4  1  0.999863  0.499859  0.625105  1
  Ca  Ca5  1  0.500397  0.504084  0.497859  1
  Ca  Ca6  1  0.994987  0.503462  0.874522  1
  Ca  Ca7  1  0.499591  0.497027  0.751588  1
  Cr  Cr8  1  0.497271  0.496516  0.125026  1
  Cr  Cr9  1  0.497470  0.498410  0.251427  1
  Cr  Cr10  1  0.497271  0.006107  0.125026  1
  Cr  Cr11  1  0.132881  0.115710  0.533925  1
  Cr  Cr12  1  0.496741  0.495782  0.374412  1
  Cr  Cr13  1  0.835329  0.887627  0.222354  1
  Cr  Cr14  1  0.136112  0.118661  0.781641  1
  Cr  Cr15  1  0.496741  0.009829  0.374412  1
  Cr  Cr16  1  0.499972  0.500192  0.624859  1
  Cr  Cr17  1  0.865469  0.881409  0.467928  1
  Cr  Cr18  1  0.499972  0.000399  0.624859  1
  Cr  Cr19  1  0.501579  0.995353  0.874819  1
  Cr  Cr20  1  0.501579  0.503791  0.874819  1
  Cr  Cr21  1  0.866383  0.883885  0.716461  1
  Cr  Cr22  1  0.496403  0.495629  0.003085  1
  Cr  Cr23  1  0.832865  0.892118  0.970725  1
  O  O24  1  0.299357  0.248946  0.062964  1
  O  O25  1  0.300980  0.247283  0.176113  1
  O  O26  1  0.299357  0.699844  0.062964  1
  O  O27  1  0.702000  0.263699  0.067651  1
  O  O28  1  0.286965  0.738352  0.184082  1
  O  O29  1  0.301159  0.254777  0.312141  1
  O  O30  1  0.717494  0.265212  0.190188  1
  O  O31  1  0.285345  0.234534  0.436396  1
  O  O32  1  0.301159  0.695498  0.312141  1
  O  O33  1  0.717482  0.760465  0.065397  1
  O  O34  1  0.692933  0.268204  0.317665  1
  O  O35  1  0.717494  0.756540  0.190188  1
  O  O36  1  0.268498  0.224908  0.566498  1
  O  O37  1  0.260313  0.769327  0.425258  1
  O  O38  1  0.739585  0.255809  0.430774  1
  O  O39  1  0.290958  0.238162  0.683180  1
  O  O40  1  0.268498  0.740602  0.566498  1
  O  O41  1  0.710196  0.760289  0.317306  1
  O  O42  1  0.730814  0.242006  0.571294  1
  O  O43  1  0.739585  0.781513  0.430774  1
  O  O44  1  0.267524  0.758991  0.678623  1
  O  O45  1  0.263934  0.217550  0.818366  1
  O  O46  1  0.731381  0.259327  0.683361  1
  O  O47  1  0.307315  0.255652  0.920345  1
  O  O48  1  0.263934  0.745052  0.818366  1
  O  O49  1  0.710013  0.762091  0.566451  1
  O  O50  1  0.747243  0.232253  0.822063  1
  O  O51  1  0.731381  0.775852  0.683361  1
  O  O52  1  0.292860  0.732462  0.935554  1
  O  O53  1  0.711164  0.270218  0.941227  1
  O  O54  1  0.715267  0.762829  0.814768  1
  O  O55  1  0.711164  0.753708  0.941227  1
