# generated using pymatgen
data_MgCu(SiO3)2
_symmetry_space_group_name_H-M   'P 1'
_cell_length_a   5.28266422
_cell_length_b   9.03880591
_cell_length_c   18.42246367
_cell_angle_alpha   90.00000000
_cell_angle_beta   90.00000000
_cell_angle_gamma   90.00000000
_symmetry_Int_Tables_number   1
_chemical_formula_structural   MgCu(SiO3)2
_chemical_formula_sum   'Mg8 Cu8 Si16 O48'
_cell_volume   879.65378618
_cell_formula_units_Z   8
loop_
 _symmetry_equiv_pos_site_id
 _symmetry_equiv_pos_as_xyz
  1  'x, y, z'
loop_
 _atom_site_type_symbol
 _atom_site_label
 _atom_site_symmetry_multiplicity
 _atom_site_fract_x
 _atom_site_fract_y
 _atom_site_fract_z
 _atom_site_occupancy
  Mg  Mg0  1  0.613771  0.152084  0.624214  1
  Mg  Mg1  1  0.386229  0.847916  0.375786  1
  Mg  Mg2  1  0.613771  0.652084  0.875786  1
  Mg  Mg3  1  0.113771  0.847916  0.875786  1
  Mg  Mg4  1  0.886229  0.152084  0.124214  1
  Mg  Mg5  1  0.386229  0.347916  0.124214  1
  Mg  Mg6  1  0.113771  0.347916  0.624214  1
  Mg  Mg7  1  0.886229  0.652084  0.375786  1
  Cu  Cu8  1  0.380361  0.992522  0.124485  1
  Cu  Cu9  1  0.619639  0.007478  0.875515  1
  Cu  Cu10  1  0.880361  0.007478  0.375515  1
  Cu  Cu11  1  0.119639  0.992522  0.624485  1
  Cu  Cu12  1  0.380361  0.492522  0.375515  1
  Cu  Cu13  1  0.619639  0.507478  0.624485  1
  Cu  Cu14  1  0.880361  0.507478  0.124485  1
  Cu  Cu15  1  0.119639  0.492522  0.875515  1
  Si  Si16  1  0.574495  0.661858  0.225742  1
  Si  Si17  1  0.727004  0.836207  0.526092  1
  Si  Si18  1  0.772996  0.836207  0.026092  1
  Si  Si19  1  0.925505  0.161858  0.774258  1
  Si  Si20  1  0.074495  0.338142  0.274258  1
  Si  Si21  1  0.425505  0.838142  0.725742  1
  Si  Si22  1  0.227004  0.663793  0.526092  1
  Si  Si23  1  0.727004  0.336207  0.973908  1
  Si  Si24  1  0.772996  0.336207  0.473908  1
  Si  Si25  1  0.925505  0.661858  0.725742  1
  Si  Si26  1  0.425505  0.338142  0.774258  1
  Si  Si27  1  0.574495  0.161858  0.274258  1
  Si  Si28  1  0.272996  0.163793  0.473908  1
  Si  Si29  1  0.074495  0.838142  0.225742  1
  Si  Si30  1  0.272996  0.663793  0.026092  1
  Si  Si31  1  0.227004  0.163793  0.973908  1
  O  O32  1  0.919106  0.500472  0.686300  1
  O  O33  1  0.309566  0.013520  0.931440  1
  O  O34  1  0.080894  0.499528  0.313700  1
  O  O35  1  0.716970  0.339466  0.063218  1
  O  O36  1  0.216970  0.160534  0.063218  1
  O  O37  1  0.933294  0.207210  0.949344  1
  O  O38  1  0.932971  0.666266  0.813730  1
  O  O39  1  0.067030  0.833734  0.313730  1
  O  O40  1  0.716970  0.839466  0.436782  1
  O  O41  1  0.932971  0.166266  0.686270  1
  O  O42  1  0.419106  0.499528  0.813700  1
  O  O43  1  0.783030  0.339466  0.563218  1
  O  O44  1  0.690434  0.986480  0.068560  1
  O  O45  1  0.432970  0.833734  0.813730  1
  O  O46  1  0.580894  0.000472  0.313700  1
  O  O47  1  0.309566  0.513520  0.568560  1
  O  O48  1  0.419106  0.999528  0.686300  1
  O  O49  1  0.158853  0.764988  0.694362  1
  O  O50  1  0.341147  0.764988  0.194362  1
  O  O51  1  0.566706  0.707210  0.050656  1
  O  O52  1  0.783030  0.839466  0.936782  1
  O  O53  1  0.567029  0.666266  0.313730  1
  O  O54  1  0.809566  0.486480  0.931440  1
  O  O55  1  0.158853  0.264988  0.805638  1
  O  O56  1  0.283030  0.160534  0.563218  1
  O  O57  1  0.567029  0.166266  0.186270  1
  O  O58  1  0.690434  0.486480  0.431440  1
  O  O59  1  0.216970  0.660534  0.436782  1
  O  O60  1  0.190434  0.513520  0.068560  1
  O  O61  1  0.658853  0.735012  0.694362  1
  O  O62  1  0.080894  0.999528  0.186300  1
  O  O63  1  0.841147  0.735012  0.194362  1
  O  O64  1  0.841147  0.235012  0.305638  1
  O  O65  1  0.809566  0.986480  0.568560  1
  O  O66  1  0.283030  0.660534  0.936782  1
  O  O67  1  0.190434  0.013520  0.431440  1
  O  O68  1  0.341147  0.264988  0.305638  1
  O  O69  1  0.066706  0.792790  0.050656  1
  O  O70  1  0.433294  0.792790  0.550656  1
  O  O71  1  0.658853  0.235012  0.805638  1
  O  O72  1  0.433294  0.292790  0.949344  1
  O  O73  1  0.566706  0.207210  0.449344  1
  O  O74  1  0.066706  0.292790  0.449344  1
  O  O75  1  0.432970  0.333734  0.686270  1
  O  O76  1  0.580894  0.500472  0.186300  1
  O  O77  1  0.933294  0.707210  0.550656  1
  O  O78  1  0.067030  0.333734  0.186270  1
  O  O79  1  0.919106  0.000472  0.813700  1
