# generated using pymatgen
data_Ca(CoO2)2
_symmetry_space_group_name_H-M   'P 1'
_cell_length_a   5.15157469
_cell_length_b   5.94726448
_cell_length_c   11.07033953
_cell_angle_alpha   89.99124762
_cell_angle_beta   90.00376546
_cell_angle_gamma   90.00032592
_symmetry_Int_Tables_number   1
_chemical_formula_structural   Ca(CoO2)2
_chemical_formula_sum   'Ca4 Co8 O16'
_cell_volume   339.17059101
_cell_formula_units_Z   4
loop_
 _symmetry_equiv_pos_site_id
 _symmetry_equiv_pos_as_xyz
  1  'x, y, z'
loop_
 _atom_site_type_symbol
 _atom_site_label
 _atom_site_symmetry_multiplicity
 _atom_site_fract_x
 _atom_site_fract_y
 _atom_site_fract_z
 _atom_site_occupancy
  Ca  Ca0  1  0.853328  0.249990  0.749972  1
  Ca  Ca1  1  0.146747  0.750007  0.250018  1
  Ca  Ca2  1  0.530386  0.250008  0.250026  1
  Ca  Ca3  1  0.469653  0.749998  0.749980  1
  Co  Co4  1  0.510708  0.750000  0.487771  1
  Co  Co5  1  0.510669  0.749999  0.012227  1
  Co  Co6  1  0.489298  0.250001  0.512233  1
  Co  Co7  1  0.489302  0.250000  0.987771  1
  Co  Co8  1  0.000008  0.500008  0.499996  1
  Co  Co9  1  0.999985  -0.000001  0.000003  1
  Co  Co10  1  -0.000002  0.999991  0.499997  1
  Co  Co11  1  0.999976  0.500000  0.000003  1
  O  O12  1  0.832857  0.750023  0.402296  1
  O  O13  1  0.832859  0.749983  0.097668  1
  O  O14  1  0.167163  0.249977  0.597694  1
  O  O15  1  0.167113  0.250017  0.902340  1
  O  O16  1  0.169262  0.749977  0.589170  1
  O  O17  1  0.169144  0.750014  0.910832  1
  O  O18  1  0.830732  0.250023  0.410840  1
  O  O19  1  0.830827  0.249985  0.089166  1
  O  O20  1  0.664006  0.501802  0.604551  1
  O  O21  1  0.663935  0.998208  0.895478  1
  O  O22  1  0.335997  0.001818  0.395453  1
  O  O23  1  0.336036  0.498192  0.104516  1
  O  O24  1  0.336002  0.498205  0.395444  1
  O  O25  1  0.336042  0.001796  0.104525  1
  O  O26  1  0.664020  0.998174  0.604550  1
  O  O27  1  0.663947  0.501805  0.895479  1
