# generated using pymatgen
data_TiZnNiP2O9
_symmetry_space_group_name_H-M   'P 1'
_cell_length_a   6.27203390
_cell_length_b   7.34325313
_cell_length_c   14.35996623
_cell_angle_alpha   90.00000000
_cell_angle_beta   90.00000000
_cell_angle_gamma   90.00000000
_symmetry_Int_Tables_number   1
_chemical_formula_structural   TiZnNiP2O9
_chemical_formula_sum   'Ti4 Zn4 Ni4 P8 O36'
_cell_volume   661.37886832
_cell_formula_units_Z   4
loop_
 _symmetry_equiv_pos_site_id
 _symmetry_equiv_pos_as_xyz
  1  'x, y, z'
loop_
 _atom_site_type_symbol
 _atom_site_label
 _atom_site_symmetry_multiplicity
 _atom_site_fract_x
 _atom_site_fract_y
 _atom_site_fract_z
 _atom_site_occupancy
  Ti  Ti0  1  0.750000  0.347622  0.885123  1
  Ti  Ti1  1  0.250000  0.652378  0.114877  1
  Ti  Ti2  1  0.250000  0.847622  0.614877  1
  Ti  Ti3  1  0.750000  0.152378  0.385123  1
  Zn  Zn4  1  0.750000  0.884006  0.783297  1
  Zn  Zn5  1  0.750000  0.615994  0.283297  1
  Zn  Zn6  1  0.250000  0.115994  0.216703  1
  Zn  Zn7  1  0.250000  0.384006  0.716703  1
  Ni  Ni8  1  0.500000  0.000000  -0.000000  1
  Ni  Ni9  1  0.500000  0.500000  0.500000  1
  Ni  Ni10  1  0.000000  0.500000  0.500000  1
  Ni  Ni11  1  0.000000  0.000000  -0.000000  1
  P  P12  1  0.250000  0.356243  0.930438  1
  P  P13  1  0.750000  0.643757  0.069562  1
  P  P14  1  0.750000  0.856243  0.569562  1
  P  P15  1  0.250000  0.143757  0.430438  1
  P  P16  1  0.750000  0.390033  0.698528  1
  P  P17  1  0.250000  0.609967  0.301472  1
  P  P18  1  0.250000  0.890033  0.801472  1
  P  P19  1  0.750000  0.109967  0.198528  1
  O  O20  1  0.038099  0.610767  0.359548  1
  O  O21  1  0.538099  0.389233  0.640452  1
  O  O22  1  0.961901  0.110767  0.140452  1
  O  O23  1  0.461901  0.889233  0.859548  1
  O  O24  1  0.961901  0.389233  0.640452  1
  O  O25  1  0.461901  0.610767  0.359548  1
  O  O26  1  0.038099  0.889233  0.859548  1
  O  O27  1  0.538099  0.110767  0.140452  1
  O  O28  1  0.250000  0.332976  0.475419  1
  O  O29  1  0.750000  0.667024  0.524581  1
  O  O30  1  0.750000  0.832976  0.024581  1
  O  O31  1  0.250000  0.167024  0.975419  1
  O  O32  1  0.750000  0.143552  0.947503  1
  O  O33  1  0.250000  0.856448  0.052497  1
  O  O34  1  0.250000  0.643552  0.552497  1
  O  O35  1  0.750000  0.356448  0.447503  1
  O  O36  1  0.750000  0.213701  0.761552  1
  O  O37  1  0.250000  0.786299  0.238448  1
  O  O38  1  0.250000  0.713701  0.738448  1
  O  O39  1  0.750000  0.286299  0.261552  1
  O  O40  1  0.440256  0.121078  0.362608  1
  O  O41  1  0.940257  0.878922  0.637392  1
  O  O42  1  0.559743  0.621078  0.137392  1
  O  O43  1  0.059743  0.378922  0.862608  1
  O  O44  1  0.559743  0.878922  0.637392  1
  O  O45  1  0.059743  0.121078  0.362608  1
  O  O46  1  0.440256  0.378922  0.862608  1
  O  O47  1  0.940257  0.621078  0.137392  1
  O  O48  1  0.750000  0.949924  0.269614  1
  O  O49  1  0.250000  0.050076  0.730386  1
  O  O50  1  0.250000  0.449924  0.230386  1
  O  O51  1  0.750000  0.550076  0.769614  1
  O  O52  1  0.750000  0.999690  0.493090  1
  O  O53  1  0.250000  0.000310  0.506910  1
  O  O54  1  0.250000  0.499690  0.006910  1
  O  O55  1  0.750000  0.500310  0.993090  1
