# generated using pymatgen
data_Sr2Y2V2O7
_symmetry_space_group_name_H-M   'P 1'
_cell_length_a   12.68176378
_cell_length_b   12.68176378
_cell_length_c   12.68176378
_cell_angle_alpha   37.03399805
_cell_angle_beta   153.83585870
_cell_angle_gamma   154.25600329
_symmetry_Int_Tables_number   1
_chemical_formula_structural   Sr2Y2V2O7
_chemical_formula_sum   'Sr4 Y4 V4 O14'
_cell_volume   390.07682891
_cell_formula_units_Z   2
loop_
 _symmetry_equiv_pos_site_id
 _symmetry_equiv_pos_as_xyz
  1  'x, y, z'
loop_
 _atom_site_type_symbol
 _atom_site_label
 _atom_site_symmetry_multiplicity
 _atom_site_fract_x
 _atom_site_fract_y
 _atom_site_fract_z
 _atom_site_occupancy
  Sr  Sr0  1  0.040008  0.872255  0.878730  1
  Sr  Sr1  1  0.993524  0.161278  0.121270  1
  Sr  Sr2  1  0.040008  0.661278  0.667753  1
  Sr  Sr3  1  0.993524  0.372255  0.332247  1
  Y  Y4  1  0.025524  0.525524  0.500000  1
  Y  Y5  1  0.025524  0.025524  0.000000  1
  Y  Y6  1  0.528442  0.728145  0.300297  1
  Y  Y7  1  0.427847  0.228145  0.699703  1
  V  V8  1  0.531900  0.461221  0.929699  1
  V  V9  1  0.531521  0.602201  0.070301  1
  V  V10  1  0.531900  0.102201  0.570681  1
  V  V11  1  0.531521  0.961221  0.429319  1
  O  O12  1  0.003966  0.837116  0.666850  1
  O  O13  1  0.170266  0.337116  0.333150  1
  O  O14  1  0.449914  0.178036  0.146534  1
  O  O15  1  0.031503  0.303381  0.853466  1
  O  O16  1  0.449914  0.803381  0.771878  1
  O  O17  1  0.031503  0.678036  0.228122  1
  O  O18  1  0.624309  0.761776  0.728752  1
  O  O19  1  0.033025  0.895557  0.271248  1
  O  O20  1  0.624309  0.395557  0.362533  1
  O  O21  1  0.033025  0.261776  0.637467  1
  O  O22  1  0.506953  0.882776  0.296217  1
  O  O23  1  0.586558  0.210734  0.703783  1
  O  O24  1  0.506953  0.710734  0.124177  1
  O  O25  1  0.586558  0.382776  0.875823  1
