# generated using pymatgen
data_MgCuF5
_symmetry_space_group_name_H-M   'P 1'
_cell_length_a   5.25248507
_cell_length_b   5.24561092
_cell_length_c   7.41709977
_cell_angle_alpha   97.39521298
_cell_angle_beta   110.22079048
_cell_angle_gamma   108.45794135
_symmetry_Int_Tables_number   1
_chemical_formula_structural   MgCuF5
_chemical_formula_sum   'Mg2 Cu2 F10'
_cell_volume   175.26803190
_cell_formula_units_Z   2
loop_
 _symmetry_equiv_pos_site_id
 _symmetry_equiv_pos_as_xyz
  1  'x, y, z'
loop_
 _atom_site_type_symbol
 _atom_site_label
 _atom_site_symmetry_multiplicity
 _atom_site_fract_x
 _atom_site_fract_y
 _atom_site_fract_z
 _atom_site_occupancy
  Mg  Mg0  1  0.289130  0.539561  0.749512  1
  Mg  Mg1  1  0.719998  0.463802  0.254773  1
  Cu  Cu2  1  0.004407  0.000283  0.002164  1
  Cu  Cu3  1  0.500397  -0.000415  0.499469  1
  F  F4  1  0.359510  0.114243  0.250109  1
  F  F5  1  0.640165  0.892791  0.752345  1
  F  F6  1  0.600561  0.732303  0.375911  1
  F  F7  1  0.857365  0.221064  0.124850  1
  F  F8  1  0.748527  0.678899  0.038543  1
  F  F9  1  0.144474  0.702149  0.465832  1
  F  F10  1  0.258511  0.319277  0.960454  1
  F  F11  1  0.859295  0.297932  0.536447  1
  F  F12  1  0.144160  0.778192  0.873602  1
  F  F13  1  0.397348  0.263638  0.626006  1
