# generated using pymatgen
data_MgTi2O5
_symmetry_space_group_name_H-M   'P 1'
_cell_length_a   3.46076190
_cell_length_b   4.82873433
_cell_length_c   11.83195320
_cell_angle_alpha   90.00000000
_cell_angle_beta   90.00000000
_cell_angle_gamma   90.00000000
_symmetry_Int_Tables_number   1
_chemical_formula_structural   MgTi2O5
_chemical_formula_sum   'Mg2 Ti4 O10'
_cell_volume   197.72495069
_cell_formula_units_Z   2
loop_
 _symmetry_equiv_pos_site_id
 _symmetry_equiv_pos_as_xyz
  1  'x, y, z'
loop_
 _atom_site_type_symbol
 _atom_site_label
 _atom_site_symmetry_multiplicity
 _atom_site_fract_x
 _atom_site_fract_y
 _atom_site_fract_z
 _atom_site_occupancy
  Mg  Mg0  1  0.750000  0.847728  0.250000  1
  Mg  Mg1  1  0.249999  0.152271  0.750000  1
  Ti  Ti2  1  0.249999  0.397082  0.101455  1
  Ti  Ti3  1  0.750000  0.602917  0.898545  1
  Ti  Ti4  1  0.750000  0.602917  0.601455  1
  Ti  Ti5  1  0.249999  0.397082  0.398545  1
  O  O6  1  0.750000  0.436934  0.750000  1
  O  O7  1  0.249999  0.563065  0.250000  1
  O  O8  1  0.750000  0.555195  0.074819  1
  O  O9  1  0.249999  0.444806  0.925180  1
  O  O10  1  0.750000  0.555195  0.425180  1
  O  O11  1  0.249999  0.444806  0.574820  1
  O  O12  1  0.249999  0.050105  0.362501  1
  O  O13  1  0.750000  0.949896  0.637499  1
  O  O14  1  0.750000  0.949896  0.862500  1
  O  O15  1  0.249999  0.050105  0.137500  1
