# generated using pymatgen
data_Ba2YNi3O7
_symmetry_space_group_name_H-M   'P 1'
_cell_length_a   3.90940762
_cell_length_b   3.95470240
_cell_length_c   11.54760249
_cell_angle_alpha   89.99941744
_cell_angle_beta   89.99899788
_cell_angle_gamma   90.04713212
_symmetry_Int_Tables_number   1
_chemical_formula_structural   Ba2YNi3O7
_chemical_formula_sum   'Ba2 Y1 Ni3 O7'
_cell_volume   178.53215226
_cell_formula_units_Z   1
loop_
 _symmetry_equiv_pos_site_id
 _symmetry_equiv_pos_as_xyz
  1  'x, y, z'
loop_
 _atom_site_type_symbol
 _atom_site_label
 _atom_site_symmetry_multiplicity
 _atom_site_fract_x
 _atom_site_fract_y
 _atom_site_fract_z
 _atom_site_occupancy
  Ba  Ba0  1  0.499995  0.500004  0.817349  1
  Ba  Ba1  1  0.500005  0.500004  0.182294  1
  Y  Y2  1  0.500000  0.499995  0.499921  1
  Ni  Ni3  1  0.000003  0.999987  0.657998  1
  Ni  Ni4  1  -0.000003  0.000003  0.342064  1
  Ni  Ni5  1  -0.000000  0.000005  -0.000043  1
  O  O6  1  0.999999  0.500007  0.000032  1
  O  O7  1  0.500003  0.999992  0.623970  1
  O  O8  1  0.499999  0.000000  0.376270  1
  O  O9  1  0.000000  0.499990  0.623515  1
  O  O10  1  1.000000  0.499996  0.376609  1
  O  O11  1  0.999984  0.000016  0.836101  1
  O  O12  1  0.000014  0.000002  0.163920  1
