# generated using pymatgen
data_Mg2SnSbO6
_symmetry_space_group_name_H-M   'P 1'
_cell_length_a   5.36858439
_cell_length_b   5.50149131
_cell_length_c   7.97256436
_cell_angle_alpha   90.00000000
_cell_angle_beta   90.00000000
_cell_angle_gamma   90.23776408
_symmetry_Int_Tables_number   1
_chemical_formula_structural   Mg2SnSbO6
_chemical_formula_sum   'Mg4 Sn2 Sb2 O12'
_cell_volume   235.46941746
_cell_formula_units_Z   2
loop_
 _symmetry_equiv_pos_site_id
 _symmetry_equiv_pos_as_xyz
  1  'x, y, z'
loop_
 _atom_site_type_symbol
 _atom_site_label
 _atom_site_symmetry_multiplicity
 _atom_site_fract_x
 _atom_site_fract_y
 _atom_site_fract_z
 _atom_site_occupancy
  Mg  Mg0  1  0.501296  0.547051  0.750000  1
  Mg  Mg1  1  0.498704  0.452949  0.250000  1
  Mg  Mg2  1  0.000525  0.039367  0.750000  1
  Mg  Mg3  1  0.999475  0.960633  0.250000  1
  Sn  Sn4  1  0.500000  0.000000  0.500000  1
  Sn  Sn5  1  0.500000  0.000000  0.000000  1
  Sb  Sb6  1  0.000000  0.500000  0.500000  1
  Sb  Sb7  1  0.000000  0.500000  0.000000  1
  O  O8  1  0.332499  0.677390  0.424920  1
  O  O9  1  0.174630  0.175381  0.075085  1
  O  O10  1  0.667501  0.322610  0.924920  1
  O  O11  1  0.825370  0.824619  0.575085  1
  O  O12  1  0.174630  0.175381  0.424915  1
  O  O13  1  0.825370  0.824619  0.924915  1
  O  O14  1  0.871207  0.584452  0.250000  1
  O  O15  1  0.332499  0.677390  0.075080  1
  O  O16  1  0.360850  0.909919  0.750000  1
  O  O17  1  0.667501  0.322610  0.575080  1
  O  O18  1  0.128793  0.415548  0.750000  1
  O  O19  1  0.639150  0.090081  0.250000  1
