# generated using pymatgen
data_Ca2SbWO6
_symmetry_space_group_name_H-M   'P 1'
_cell_length_a   6.20702502
_cell_length_b   7.16154740
_cell_length_c   8.30503074
_cell_angle_alpha   92.17047879
_cell_angle_beta   132.99803502
_cell_angle_gamma   123.14891899
_symmetry_Int_Tables_number   1
_chemical_formula_structural   Ca2SbWO6
_chemical_formula_sum   'Ca2 Sb1 W1 O6'
_cell_volume   167.64848898
_cell_formula_units_Z   1
loop_
 _symmetry_equiv_pos_site_id
 _symmetry_equiv_pos_as_xyz
  1  'x, y, z'
loop_
 _atom_site_type_symbol
 _atom_site_label
 _atom_site_symmetry_multiplicity
 _atom_site_fract_x
 _atom_site_fract_y
 _atom_site_fract_z
 _atom_site_occupancy
  Ca  Ca0  1  0.085074  0.672361  0.327289  1
  Ca  Ca1  1  0.929446  0.601292  0.679089  1
  Sb  Sb2  1  0.029795  0.066120  0.499944  1
  W  W3  1  0.991551  0.953600  0.994586  1
  O  O4  1  0.229387  0.076295  0.367267  1
  O  O5  1  0.707990  0.785734  0.626473  1
  O  O6  1  0.501625  0.359472  0.211100  1
  O  O7  1  0.496140  0.877354  0.790026  1
  O  O8  1  0.470100  0.952468  0.177677  1
  O  O9  1  0.575668  0.510156  0.840710  1
