# generated using pymatgen
data_Zn4Sn5(TeO6)3
_symmetry_space_group_name_H-M   'P 1'
_cell_length_a   9.19242945
_cell_length_b   9.19242980
_cell_length_c   11.31760862
_cell_angle_alpha   90.64589301
_cell_angle_beta   90.64589095
_cell_angle_gamma   60.92829568
_symmetry_Int_Tables_number   1
_chemical_formula_structural   Zn4Sn5(TeO6)3
_chemical_formula_sum   'Zn8 Sn10 Te6 O36'
_cell_volume   835.78716325
_cell_formula_units_Z   2
loop_
 _symmetry_equiv_pos_site_id
 _symmetry_equiv_pos_as_xyz
  1  'x, y, z'
loop_
 _atom_site_type_symbol
 _atom_site_label
 _atom_site_symmetry_multiplicity
 _atom_site_fract_x
 _atom_site_fract_y
 _atom_site_fract_z
 _atom_site_occupancy
  Zn  Zn0  1  0.852833  0.552760  0.323338  1
  Zn  Zn1  1  0.476846  0.578775  0.208368  1
  Zn  Zn2  1  0.447240  0.147167  0.676662  1
  Zn  Zn3  1  0.421225  0.523154  0.791632  1
  Zn  Zn4  1  0.181889  0.871499  0.707236  1
  Zn  Zn5  1  0.159769  0.247211  0.821995  1
  Zn  Zn6  1  0.752789  0.840231  0.178005  1
  Zn  Zn7  1  0.128501  0.818111  0.292764  1
  Sn  Sn8  1  0.802269  0.493988  0.001128  1
  Sn  Sn9  1  0.097712  0.198114  0.495837  1
  Sn  Sn10  1  0.362152  0.305044  0.309188  1
  Sn  Sn11  1  0.919497  0.754601  0.801139  1
  Sn  Sn12  1  0.694956  0.637848  0.690812  1
  Sn  Sn13  1  0.994720  0.005280  1.000000  1
  Sn  Sn14  1  0.623305  0.376695  0.500000  1
  Sn  Sn15  1  0.245399  0.080504  0.198861  1
  Sn  Sn16  1  0.801886  0.902288  0.504163  1
  Sn  Sn17  1  0.506012  0.197731  0.998872  1
  Te  Te18  1  0.462456  0.839293  0.954786  1
  Te  Te19  1  0.799835  0.196708  0.241898  1
  Te  Te20  1  0.803292  0.200165  0.758102  1
  Te  Te21  1  0.446197  0.854706  0.457211  1
  Te  Te22  1  0.145294  0.553803  0.542789  1
  Te  Te23  1  0.160707  0.537544  0.045215  1
  O  O24  1  0.412224  0.133309  0.851581  1
  O  O25  1  0.703631  0.414147  0.862204  1
  O  O26  1  0.539813  0.611965  0.561184  1
  O  O27  1  0.695941  0.138854  0.430117  1
  O  O28  1  0.585853  0.296369  0.137796  1
  O  O29  1  0.861146  0.304059  0.569883  1
  O  O30  1  0.356707  0.805365  0.305185  1
  O  O31  1  0.056307  0.083417  0.836187  1
  O  O32  1  0.552741  0.310818  0.676385  1
  O  O33  1  0.071275  0.401241  0.395072  1
  O  O34  1  0.545134  0.637258  0.057022  1
  O  O35  1  0.546721  0.989509  0.094645  1
  O  O36  1  0.904606  0.964541  0.659468  1
  O  O37  1  0.700628  0.734615  0.922137  1
  O  O38  1  0.362742  0.454866  0.942978  1
  O  O39  1  0.251900  0.589704  0.197012  1
  O  O40  1  0.060048  0.761598  0.445877  1
  O  O41  1  0.265385  0.299372  0.077863  1
  O  O42  1  0.388035  0.460187  0.438816  1
  O  O43  1  0.238402  0.939952  0.554123  1
  O  O44  1  0.741317  0.804470  0.352717  1
  O  O45  1  0.903224  0.656411  0.573167  1
  O  O46  1  0.916583  0.943693  0.163813  1
  O  O47  1  0.410296  0.748100  0.802988  1
  O  O48  1  0.073734  0.778671  0.929214  1
  O  O49  1  0.755396  0.093444  0.909131  1
  O  O50  1  0.010491  0.453279  0.905355  1
  O  O51  1  0.194635  0.643293  0.694815  1
  O  O52  1  0.035459  0.095394  0.340532  1
  O  O53  1  0.343589  0.096776  0.426833  1
  O  O54  1  0.195529  0.258683  0.647283  1
  O  O55  1  0.906556  0.244604  0.090869  1
  O  O56  1  0.689182  0.447259  0.323615  1
  O  O57  1  0.598759  0.928725  0.604928  1
  O  O58  1  0.221329  0.926266  0.070786  1
  O  O59  1  0.866691  0.587777  0.148419  1
