# generated using pymatgen
data_ZnCr2O4
_symmetry_space_group_name_H-M   'P 1'
_cell_length_a   5.97464675
_cell_length_b   6.04785704
_cell_length_c   17.88619759
_cell_angle_alpha   59.55885540
_cell_angle_beta   62.79286138
_cell_angle_gamma   59.55447277
_symmetry_Int_Tables_number   1
_chemical_formula_structural   ZnCr2O4
_chemical_formula_sum   'Zn6 Cr12 O24'
_cell_volume   462.56851840
_cell_formula_units_Z   6
loop_
 _symmetry_equiv_pos_site_id
 _symmetry_equiv_pos_as_xyz
  1  'x, y, z'
loop_
 _atom_site_type_symbol
 _atom_site_label
 _atom_site_symmetry_multiplicity
 _atom_site_fract_x
 _atom_site_fract_y
 _atom_site_fract_z
 _atom_site_occupancy
  Zn  Zn0  1  0.131405  0.122560  0.041174  1
  Zn  Zn1  1  0.502605  0.501045  0.331796  1
  Zn  Zn2  1  0.008742  0.496974  0.165800  1
  Zn  Zn3  1  0.498631  0.499018  0.667790  1
  Zn  Zn4  1  0.999817  0.501779  0.498883  1
  Zn  Zn5  1  0.994908  0.502677  0.833194  1
  Cr  Cr6  1  0.505073  0.999720  0.165426  1
  Cr  Cr7  1  0.126305  0.125484  0.374255  1
  Cr  Cr8  1  0.495974  0.498723  0.002184  1
  Cr  Cr9  1  0.505077  0.498999  0.165427  1
  Cr  Cr10  1  0.500699  0.000057  0.499581  1
  Cr  Cr11  1  0.120186  0.129948  0.706647  1
  Cr  Cr12  1  0.500712  0.500471  0.499589  1
  Cr  Cr13  1  0.492654  0.002160  0.834936  1
  Cr  Cr14  1  0.880013  0.874954  0.290036  1
  Cr  Cr15  1  0.492625  0.500304  0.834931  1
  Cr  Cr16  1  0.875129  0.873662  0.625839  1
  Cr  Cr17  1  0.865610  0.875538  0.961022  1
  O  O18  1  0.269402  0.266953  0.082317  1
  O  O19  1  0.300493  0.234995  0.243418  1
  O  O20  1  0.269104  0.716767  0.082417  1
  O  O21  1  0.720061  0.255001  0.089921  1
  O  O22  1  0.254432  0.261076  0.417124  1
  O  O23  1  0.277162  0.759318  0.234985  1
  O  O24  1  0.290723  0.241628  0.575532  1
  O  O25  1  0.756410  0.265589  0.246914  1
  O  O26  1  0.253849  0.733205  0.417326  1
  O  O27  1  0.715194  0.756316  0.090616  1
  O  O28  1  0.728217  0.241111  0.429642  1
  O  O29  1  0.755837  0.737304  0.247096  1
  O  O30  1  0.250740  0.257173  0.751064  1
  O  O31  1  0.271651  0.758973  0.570342  1
  O  O32  1  0.747663  0.265704  0.582949  1
  O  O33  1  0.250119  0.738946  0.751271  1
  O  O34  1  0.271549  0.256482  0.905238  1
  O  O35  1  0.710201  0.759991  0.423064  1
  O  O36  1  0.723272  0.239326  0.765800  1
  O  O37  1  0.747041  0.737742  0.583161  1
  O  O38  1  0.276124  0.748931  0.908785  1
  O  O39  1  0.727142  0.270361  0.921064  1
  O  O40  1  0.710664  0.753897  0.760272  1
  O  O41  1  0.726784  0.739136  0.921176  1
