# generated using pymatgen
data_Y(CoO2)2
_symmetry_space_group_name_H-M   'P 1'
_cell_length_a   5.62492914
_cell_length_b   5.61470522
_cell_length_c   6.26926012
_cell_angle_alpha   116.51773120
_cell_angle_beta   116.57010143
_cell_angle_gamma   90.16880522
_symmetry_Int_Tables_number   1
_chemical_formula_structural   Y(CoO2)2
_chemical_formula_sum   'Y2 Co4 O8'
_cell_volume   153.29226976
_cell_formula_units_Z   2
loop_
 _symmetry_equiv_pos_site_id
 _symmetry_equiv_pos_as_xyz
  1  'x, y, z'
loop_
 _atom_site_type_symbol
 _atom_site_label
 _atom_site_symmetry_multiplicity
 _atom_site_fract_x
 _atom_site_fract_y
 _atom_site_fract_z
 _atom_site_occupancy
  Y  Y0  1  0.875002  0.125002  0.750006  1
  Y  Y1  1  0.124998  0.874998  0.249994  1
  Co  Co2  1  0.500000  0.000000  0.000000  1
  Co  Co3  1  0.500000  0.500000  0.000000  1
  Co  Co4  1  0.000000  0.500000  0.500000  1
  Co  Co5  1  0.500000  0.500000  0.500000  1
  O  O6  1  0.713278  0.526282  0.852963  1
  O  O7  1  0.139685  0.826680  0.852963  1
  O  O8  1  0.286722  0.473718  0.147037  1
  O  O9  1  0.860315  0.173320  0.147037  1
  O  O10  1  0.527335  0.140195  0.353142  1
  O  O11  1  0.825807  0.712947  0.353142  1
  O  O12  1  0.174193  0.287053  0.646858  1
  O  O13  1  0.472665  0.859805  0.646858  1
