# generated using pymatgen
data_CoO2
_symmetry_space_group_name_H-M   'P 1'
_cell_length_a   5.53834238
_cell_length_b   5.53834244
_cell_length_c   5.72043996
_cell_angle_alpha   58.90626290
_cell_angle_beta   58.90627210
_cell_angle_gamma   63.19130684
_symmetry_Int_Tables_number   1
_chemical_formula_structural   CoO2
_chemical_formula_sum   'Co4 O8'
_cell_volume   124.53606992
_cell_formula_units_Z   4
loop_
 _symmetry_equiv_pos_site_id
 _symmetry_equiv_pos_as_xyz
  1  'x, y, z'
loop_
 _atom_site_type_symbol
 _atom_site_label
 _atom_site_symmetry_multiplicity
 _atom_site_fract_x
 _atom_site_fract_y
 _atom_site_fract_z
 _atom_site_occupancy
  Co  Co0  1  0.012373  0.012373  0.987627  1
  Co  Co1  1  0.237627  0.237627  0.262373  1
  Co  Co2  1  0.625000  0.625000  0.125000  1
  Co  Co3  1  0.625000  0.625000  0.625000  1
  O  O4  1  0.380348  0.380348  0.358957  1
  O  O5  1  0.409253  0.835370  0.377689  1
  O  O6  1  0.380348  0.380348  0.880347  1
  O  O7  1  0.835370  0.409253  0.377689  1
  O  O8  1  0.414630  0.840747  0.872311  1
  O  O9  1  0.840747  0.414630  0.872311  1
  O  O10  1  0.869652  0.869652  0.369653  1
  O  O11  1  0.869652  0.869652  0.891043  1
