# generated using pymatgen
data_Al4V13Si2(SbO14)2
_symmetry_space_group_name_H-M   'P 1'
_cell_length_a   5.62100275
_cell_length_b   8.93652278
_cell_length_c   12.12843798
_cell_angle_alpha   87.98010552
_cell_angle_beta   76.36359072
_cell_angle_gamma   79.76868903
_symmetry_Int_Tables_number   1
_chemical_formula_structural   Al4V13Si2(SbO14)2
_chemical_formula_sum   'Al4 V13 Si2 Sb2 O28'
_cell_volume   582.63615849
_cell_formula_units_Z   1
loop_
 _symmetry_equiv_pos_site_id
 _symmetry_equiv_pos_as_xyz
  1  'x, y, z'
loop_
 _atom_site_type_symbol
 _atom_site_label
 _atom_site_symmetry_multiplicity
 _atom_site_fract_x
 _atom_site_fract_y
 _atom_site_fract_z
 _atom_site_occupancy
  Al  Al0  1  0.061854  0.671358  0.434877  1
  Al  Al1  1  0.502918  0.327614  0.434509  1
  Al  Al2  1  0.941066  0.326629  0.564445  1
  Al  Al3  1  0.492775  0.673310  0.566045  1
  V  V4  1  0.917396  0.641985  0.710947  1
  V  V5  1  0.653860  0.351717  0.138092  1
  V  V6  1  0.368348  0.358908  0.710300  1
  V  V7  1  0.081114  0.359246  0.289493  1
  V  V8  1  0.348405  0.648867  0.861170  1
  V  V9  1  0.289540  0.998728  0.425059  1
  V  V10  1  0.209745  0.648031  0.137777  1
  V  V11  1  0.000008  0.000063  0.998656  1
  V  V12  1  0.424092  0.001781  0.147463  1
  V  V13  1  0.792806  0.351296  0.862324  1
  V  V14  1  0.630074  0.640782  0.291671  1
  V  V15  1  0.575349  0.998686  0.853468  1
  V  V16  1  0.714546  0.999820  0.573645  1
  Si  Si17  1  0.237961  0.314583  0.999350  1
  Si  Si18  1  0.764091  0.685185  0.001123  1
  Sb  Sb19  1  0.860627  0.999878  0.279732  1
  Sb  Sb20  1  0.146195  0.001555  0.716689  1
  O  O21  1  0.679356  0.390322  0.303253  1
  O  O22  1  0.173231  0.373713  0.448365  1
  O  O23  1  0.943589  0.350453  0.999697  1
  O  O24  1  0.318989  0.127291  0.999535  1
  O  O25  1  0.822264  0.632941  0.551225  1
  O  O26  1  0.320423  0.607963  0.696977  1
  O  O27  1  0.020966  0.121078  0.560997  1
  O  O28  1  0.007865  0.877249  0.432518  1
  O  O29  1  0.680123  0.872541  0.001937  1
  O  O30  1  0.153509  0.886400  0.134706  1
  O  O31  1  0.279533  0.390594  0.115332  1
  O  O32  1  0.018457  0.607837  0.303425  1
  O  O33  1  0.419639  0.878996  0.566251  1
  O  O34  1  0.715235  0.113654  0.137000  1
  O  O35  1  0.607025  0.609852  0.117355  1
  O  O36  1  0.058443  0.650689  0.000117  1
  O  O37  1  0.286190  0.886117  0.864096  1
  O  O38  1  0.844806  0.114918  0.867890  1
  O  O39  1  0.555391  0.121088  0.435085  1
  O  O40  1  0.188294  0.121237  0.280119  1
  O  O41  1  0.815252  0.878563  0.722392  1
  O  O42  1  0.396247  0.390431  0.883714  1
  O  O43  1  0.457335  0.121702  0.719491  1
  O  O44  1  0.625603  0.366710  0.550643  1
  O  O45  1  0.721715  0.609054  0.885357  1
  O  O46  1  0.528891  0.879746  0.288362  1
  O  O47  1  0.979906  0.391720  0.696243  1
  O  O48  1  0.377067  0.627351  0.449884  1
