# generated using pymatgen
data_MgCuP2O7
_symmetry_space_group_name_H-M   'P 1'
_cell_length_a   5.44204662
_cell_length_b   6.39734294
_cell_length_c   7.50299738
_cell_angle_alpha   81.92139720
_cell_angle_beta   88.84351955
_cell_angle_gamma   71.35772409
_symmetry_Int_Tables_number   1
_chemical_formula_structural   MgCuP2O7
_chemical_formula_sum   'Mg2 Cu2 P4 O14'
_cell_volume   244.96752047
_cell_formula_units_Z   2
loop_
 _symmetry_equiv_pos_site_id
 _symmetry_equiv_pos_as_xyz
  1  'x, y, z'
loop_
 _atom_site_type_symbol
 _atom_site_label
 _atom_site_symmetry_multiplicity
 _atom_site_fract_x
 _atom_site_fract_y
 _atom_site_fract_z
 _atom_site_occupancy
  Mg  Mg0  1  0.331593  0.662222  0.647642  1
  Mg  Mg1  1  0.668407  0.337777  0.352361  1
  Cu  Cu2  1  0.272954  0.151513  0.183135  1
  Cu  Cu3  1  0.727048  0.848487  0.816864  1
  P  P4  1  0.173297  0.681515  0.098566  1
  P  P5  1  0.826701  0.318483  0.901433  1
  P  P6  1  0.226369  0.205090  0.615303  1
  P  P7  1  0.773632  0.794908  0.384697  1
  O  O8  1  0.088399  0.702198  0.899626  1
  O  O9  1  0.911600  0.297803  0.100375  1
  O  O10  1  0.290348  0.855774  0.135532  1
  O  O11  1  0.709652  0.144228  0.864468  1
  O  O12  1  0.355251  0.443157  0.165364  1
  O  O13  1  0.644751  0.556843  0.834636  1
  O  O14  1  0.608666  0.644611  0.438250  1
  O  O15  1  0.391334  0.355389  0.561749  1
  O  O16  1  0.026472  0.217852  0.473716  1
  O  O17  1  0.973530  0.782146  0.526284  1
  O  O18  1  0.090991  0.294945  0.795162  1
  O  O19  1  0.608711  0.040020  0.320548  1
  O  O20  1  0.391289  0.959981  0.679452  1
  O  O21  1  0.909010  0.705055  0.204838  1
