# generated using pymatgen
data_MgNiBiP2O9
_symmetry_space_group_name_H-M   'P 1'
_cell_length_a   6.61688963
_cell_length_b   7.74618573
_cell_length_c   14.21493826
_cell_angle_alpha   90.02620005
_cell_angle_beta   89.97577303
_cell_angle_gamma   90.03179598
_symmetry_Int_Tables_number   1
_chemical_formula_structural   MgNiBiP2O9
_chemical_formula_sum   'Mg4 Ni4 Bi4 P8 O36'
_cell_volume   728.59573235
_cell_formula_units_Z   4
loop_
 _symmetry_equiv_pos_site_id
 _symmetry_equiv_pos_as_xyz
  1  'x, y, z'
loop_
 _atom_site_type_symbol
 _atom_site_label
 _atom_site_symmetry_multiplicity
 _atom_site_fract_x
 _atom_site_fract_y
 _atom_site_fract_z
 _atom_site_occupancy
  Mg  Mg0  1  0.750714  0.957286  0.798112  1
  Mg  Mg1  1  0.750199  0.543785  0.298066  1
  Mg  Mg2  1  0.249432  0.042683  0.201853  1
  Mg  Mg3  1  0.249752  0.456215  0.701903  1
  Ni  Ni4  1  0.500095  0.000175  0.000071  1
  Ni  Ni5  1  0.500034  0.499970  0.499971  1
  Ni  Ni6  1  0.000180  0.500135  0.499962  1
  Ni  Ni7  1  0.000252  0.999948  0.000066  1
  Bi  Bi8  1  0.750456  0.367172  0.883108  1
  Bi  Bi9  1  0.249424  0.632745  0.116843  1
  Bi  Bi10  1  0.250682  0.866542  0.616765  1
  Bi  Bi11  1  0.749284  0.133455  0.383238  1
  P  P12  1  0.250076  0.341453  0.905666  1
  P  P13  1  0.749799  0.658626  0.094389  1
  P  P14  1  0.750388  0.840945  0.594103  1
  P  P15  1  0.249587  0.159034  0.405948  1
  P  P16  1  0.749874  0.358471  0.677149  1
  P  P17  1  0.250132  0.641388  0.322813  1
  P  P18  1  0.250089  0.859051  0.823198  1
  P  P19  1  0.749850  0.140932  0.176788  1
  O  O20  1  0.048592  0.636086  0.379246  1
  O  O21  1  0.548645  0.364286  0.620976  1
  O  O22  1  0.951033  0.134883  0.120334  1
  O  O23  1  0.451594  0.864944  0.879619  1
  O  O24  1  0.951431  0.364014  0.620788  1
  O  O25  1  0.451380  0.635637  0.378994  1
  O  O26  1  0.048816  0.865008  0.879618  1
  O  O27  1  0.548280  0.135213  0.120443  1
  O  O28  1  0.249372  0.330383  0.459612  1
  O  O29  1  0.750818  0.669571  0.540419  1
  O  O30  1  0.749656  0.830755  0.040654  1
  O  O31  1  0.250275  0.169231  0.959331  1
  O  O32  1  0.752136  0.096687  0.928223  1
  O  O33  1  0.248333  0.903511  0.071792  1
  O  O34  1  0.250205  0.597545  0.573426  1
  O  O35  1  0.749829  0.402456  0.426563  1
  O  O36  1  0.749810  0.195061  0.741214  1
  O  O37  1  0.250183  0.804939  0.258791  1
  O  O38  1  0.249006  0.695348  0.759634  1
  O  O39  1  0.750878  0.304630  0.240355  1
  O  O40  1  0.426416  0.143781  0.333545  1
  O  O41  1  0.927596  0.857467  0.665988  1
  O  O42  1  0.572700  0.643576  0.166260  1
  O  O43  1  0.073568  0.356288  0.833413  1
  O  O44  1  0.573475  0.856060  0.666426  1
  O  O45  1  0.072274  0.142632  0.334077  1
  O  O46  1  0.427187  0.356324  0.833673  1
  O  O47  1  0.926223  0.643811  0.166594  1
  O  O48  1  0.749720  0.983563  0.247623  1
  O  O49  1  0.250411  0.016429  0.752361  1
  O  O50  1  0.249620  0.483261  0.252657  1
  O  O51  1  0.750240  0.516730  0.747406  1
  O  O52  1  0.749161  0.999043  0.528446  1
  O  O53  1  0.250880  0.000956  0.471565  1
  O  O54  1  0.249309  0.498178  0.971615  1
  O  O55  1  0.750648  0.501703  0.028308  1
