# generated using pymatgen
data_Ba2YTi3O8
_symmetry_space_group_name_H-M   'P 1'
_cell_length_a   3.99251381
_cell_length_b   3.99250263
_cell_length_c   11.58482379
_cell_angle_alpha   89.99998729
_cell_angle_beta   89.99996064
_cell_angle_gamma   90.00726180
_symmetry_Int_Tables_number   1
_chemical_formula_structural   Ba2YTi3O8
_chemical_formula_sum   'Ba2 Y1 Ti3 O8'
_cell_volume   184.66350158
_cell_formula_units_Z   1
loop_
 _symmetry_equiv_pos_site_id
 _symmetry_equiv_pos_as_xyz
  1  'x, y, z'
loop_
 _atom_site_type_symbol
 _atom_site_label
 _atom_site_symmetry_multiplicity
 _atom_site_fract_x
 _atom_site_fract_y
 _atom_site_fract_z
 _atom_site_occupancy
  Ba  Ba0  1  0.500002  0.499999  0.169940  1
  Ba  Ba1  1  0.500002  0.499997  0.830076  1
  Y  Y2  1  0.500000  0.500002  0.499983  1
  Ti  Ti3  1  0.999999  0.000002  0.352179  1
  Ti  Ti4  1  0.000001  1.000000  0.000017  1
  Ti  Ti5  1  0.999999  1.000000  0.647831  1
  O  O6  1  0.000003  0.500000  0.372167  1
  O  O7  1  0.500000  0.000002  0.372167  1
  O  O8  1  0.500001  1.000000  0.999999  1
  O  O9  1  0.999999  0.999999  0.183546  1
  O  O10  1  0.999999  0.500000  0.627826  1
  O  O11  1  0.499997  0.000001  0.627826  1
  O  O12  1  0.999996  1.000000  0.816449  1
  O  O13  1  0.000002  0.499999  0.999999  1
