# generated using pymatgen
data_YWO3
_symmetry_space_group_name_H-M   'P 1'
_cell_length_a   5.54625310
_cell_length_b   5.90712142
_cell_length_c   8.01414786
_cell_angle_alpha   89.99370321
_cell_angle_beta   90.00078545
_cell_angle_gamma   89.99272726
_symmetry_Int_Tables_number   1
_chemical_formula_structural   YWO3
_chemical_formula_sum   'Y4 W4 O12'
_cell_volume   262.56263828
_cell_formula_units_Z   4
loop_
 _symmetry_equiv_pos_site_id
 _symmetry_equiv_pos_as_xyz
  1  'x, y, z'
loop_
 _atom_site_type_symbol
 _atom_site_label
 _atom_site_symmetry_multiplicity
 _atom_site_fract_x
 _atom_site_fract_y
 _atom_site_fract_z
 _atom_site_occupancy
  Y  Y0  1  0.019330  0.932312  0.749999  1
  Y  Y1  1  0.519377  0.567614  0.249950  1
  Y  Y2  1  0.480623  0.432386  0.750049  1
  Y  Y3  1  0.980669  0.067688  0.250001  1
  W  W4  1  0.000001  0.500000  0.500000  1
  W  W5  1  0.500001  0.000002  0.500000  1
  W  W6  1  0.500000  0.999999  -0.000000  1
  W  W7  1  -0.000000  0.499998  0.000001  1
  O  O8  1  0.678621  0.313917  0.431917  1
  O  O9  1  0.178395  0.185901  0.567846  1
  O  O10  1  0.821684  0.814152  0.067823  1
  O  O11  1  0.321464  0.686029  0.932029  1
  O  O12  1  0.321379  0.686085  0.568083  1
  O  O13  1  0.821602  0.814098  0.432154  1
  O  O14  1  0.178318  0.185848  0.932176  1
  O  O15  1  0.678536  0.313970  0.067972  1
  O  O16  1  0.139049  0.434738  0.249996  1
  O  O17  1  0.639087  0.065478  0.749999  1
  O  O18  1  0.360913  0.934523  0.250002  1
  O  O19  1  0.860951  0.565262  0.750004  1
