# generated using pymatgen
data_CaMnF5
_symmetry_space_group_name_H-M   'P 1'
_cell_length_a   5.60922281
_cell_length_b   5.59058492
_cell_length_c   7.94248011
_cell_angle_alpha   97.32295118
_cell_angle_beta   110.28743280
_cell_angle_gamma   109.23029211
_symmetry_Int_Tables_number   1
_chemical_formula_structural   CaMnF5
_chemical_formula_sum   'Ca2 Mn2 F10'
_cell_volume   212.20990505
_cell_formula_units_Z   2
loop_
 _symmetry_equiv_pos_site_id
 _symmetry_equiv_pos_as_xyz
  1  'x, y, z'
loop_
 _atom_site_type_symbol
 _atom_site_label
 _atom_site_symmetry_multiplicity
 _atom_site_fract_x
 _atom_site_fract_y
 _atom_site_fract_z
 _atom_site_occupancy
  Ca  Ca0  1  0.291009  0.544671  0.749476  1
  Ca  Ca1  1  0.706295  0.458088  0.251111  1
  Mn  Mn2  1  0.997861  0.001020  0.999847  1
  Mn  Mn3  1  0.498550  0.002494  0.500340  1
  F  F4  1  0.347714  0.100587  0.249792  1
  F  F5  1  0.648985  0.904933  0.751623  1
  F  F6  1  0.597578  0.764767  0.384636  1
  F  F7  1  0.875931  0.212726  0.118831  1
  F  F8  1  0.746595  0.692281  0.033352  1
  F  F9  1  0.160331  0.712138  0.467292  1
  F  F10  1  0.249946  0.306982  0.964655  1
  F  F11  1  0.838008  0.292003  0.535141  1
  F  F12  1  0.121412  0.790459  0.881796  1
  F  F13  1  0.401010  0.243483  0.613923  1
