# generated using pymatgen
data_Al5Cu3Si6(O7F2)3
_symmetry_space_group_name_H-M   'P 1'
_cell_length_a   14.54149767
_cell_length_b   8.90176452
_cell_length_c   14.06366493
_cell_angle_alpha   90.01824209
_cell_angle_beta   90.01021415
_cell_angle_gamma   90.03413457
_symmetry_Int_Tables_number   1
_chemical_formula_structural   Al5Cu3Si6(O7F2)3
_chemical_formula_sum   'Al20 Cu12 Si24 O84 F24'
_cell_volume   1820.47049539
_cell_formula_units_Z   4
loop_
 _symmetry_equiv_pos_site_id
 _symmetry_equiv_pos_as_xyz
  1  'x, y, z'
loop_
 _atom_site_type_symbol
 _atom_site_label
 _atom_site_symmetry_multiplicity
 _atom_site_fract_x
 _atom_site_fract_y
 _atom_site_fract_z
 _atom_site_occupancy
  Al  Al0  1  0.195591  0.383129  0.954572  1
  Al  Al1  1  0.531925  0.368824  0.951320  1
  Al  Al2  1  0.863483  0.369095  0.952630  1
  Al  Al3  1  0.301523  0.868804  0.548551  1
  Al  Al4  1  0.637695  0.883145  0.545348  1
  Al  Al5  1  0.969646  0.869074  0.547482  1
  Al  Al6  1  0.036078  0.137258  0.452707  1
  Al  Al7  1  0.362948  0.137275  0.453768  1
  Al  Al8  1  0.297405  0.862763  0.952559  1
  Al  Al9  1  0.970293  0.862691  0.953755  1
  Al  Al10  1  0.470209  0.637013  0.046441  1
  Al  Al11  1  0.797553  0.636955  0.047200  1
  Al  Al12  1  0.137887  0.616584  0.454676  1
  Al  Al13  1  0.469672  0.630934  0.452577  1
  Al  Al14  1  0.801449  0.631189  0.451735  1
  Al  Al15  1  0.031928  0.131286  0.048434  1
  Al  Al16  1  0.363623  0.130923  0.047466  1
  Al  Al17  1  0.695977  0.117265  0.045282  1
  Al  Al18  1  0.535908  0.362768  0.547523  1
  Al  Al19  1  0.862882  0.362852  0.546192  1
  Cu  Cu20  1  0.285045  0.849392  0.749372  1
  Cu  Cu21  1  0.617642  0.850089  0.752561  1
  Cu  Cu22  1  0.952236  0.853156  0.750058  1
  Cu  Cu23  1  0.117579  0.649940  0.247623  1
  Cu  Cu24  1  0.452220  0.646816  0.249957  1
  Cu  Cu25  1  0.785030  0.650839  0.250645  1
  Cu  Cu26  1  0.215772  0.350009  0.747290  1
  Cu  Cu27  1  0.548300  0.349276  0.750661  1
  Cu  Cu28  1  0.881097  0.353188  0.749874  1
  Cu  Cu29  1  0.048325  0.150609  0.249382  1
  Cu  Cu30  1  0.381126  0.146841  0.250096  1
  Cu  Cu31  1  0.715770  0.150026  0.252636  1
  Si  Si32  1  0.032461  0.558479  0.852217  1
  Si  Si33  1  0.365936  0.558714  0.851790  1
  Si  Si34  1  0.697916  0.563870  0.852228  1
  Si  Si35  1  0.135216  0.060425  0.851325  1
  Si  Si36  1  0.468560  0.054636  0.851851  1
  Si  Si37  1  0.804220  0.059784  0.853173  1
  Si  Si38  1  0.197879  0.939698  0.351436  1
  Si  Si39  1  0.529115  0.940171  0.352985  1
  Si  Si40  1  0.864575  0.945510  0.351975  1
  Si  Si41  1  0.300888  0.441343  0.352235  1
  Si  Si42  1  0.635389  0.436310  0.352181  1
  Si  Si43  1  0.967502  0.440692  0.351784  1
  Si  Si44  1  0.304207  0.440132  0.147022  1
  Si  Si45  1  0.635306  0.439607  0.148519  1
  Si  Si46  1  0.968709  0.444986  0.148206  1
  Si  Si47  1  0.135297  0.063946  0.647750  1
  Si  Si48  1  0.467492  0.058873  0.648200  1
  Si  Si49  1  0.800887  0.058498  0.647777  1
  Si  Si50  1  0.197855  0.936589  0.147896  1
  Si  Si51  1  0.532330  0.941367  0.147846  1
  Si  Si52  1  0.865774  0.941016  0.148135  1
  Si  Si53  1  0.029119  0.559729  0.646828  1
  Si  Si54  1  0.364723  0.554359  0.648037  1
  Si  Si55  1  0.698015  0.560518  0.648591  1
  O  O56  1  0.253512  0.474538  0.248028  1
  O  O57  1  0.584400  0.482305  0.249813  1
  O  O58  1  0.913561  0.474206  0.250515  1
  O  O59  1  0.174120  0.757098  0.348982  1
  O  O60  1  0.505595  0.754470  0.349387  1
  O  O61  1  0.842879  0.757210  0.351589  1
  O  O62  1  0.008379  0.743294  0.849570  1
  O  O63  1  0.343259  0.743513  0.850015  1
  O  O64  1  0.677546  0.742491  0.845627  1
  O  O65  1  0.327722  0.254473  0.150527  1
  O  O66  1  0.659329  0.257036  0.151025  1
  O  O67  1  0.990296  0.257808  0.148266  1
  O  O68  1  0.098910  0.033766  0.350140  1
  O  O69  1  0.430668  0.037265  0.352294  1
  O  O70  1  0.766319  0.028599  0.343835  1
  O  O71  1  0.065054  0.537338  0.350641  1
  O  O72  1  0.401544  0.535664  0.352480  1
  O  O73  1  0.733886  0.536937  0.352605  1
  O  O74  1  0.234046  0.962906  0.647288  1
  O  O75  1  0.565098  0.962518  0.649487  1
  O  O76  1  0.901602  0.964236  0.647530  1
  O  O77  1  0.067041  0.528650  0.156012  1
  O  O78  1  0.402732  0.537410  0.147576  1
  O  O79  1  0.734445  0.534225  0.149824  1
  O  O80  1  0.099531  0.036792  0.147347  1
  O  O81  1  0.431776  0.035809  0.147376  1
  O  O82  1  0.768146  0.037455  0.149370  1
  O  O83  1  0.155779  0.242504  0.654542  1
  O  O84  1  0.489850  0.243048  0.649664  1
  O  O85  1  0.824940  0.243192  0.650494  1
  O  O86  1  0.324935  0.256796  0.349511  1
  O  O87  1  0.655817  0.257340  0.345529  1
  O  O88  1  0.989899  0.257180  0.350012  1
  O  O89  1  0.265781  0.982417  0.440366  1
  O  O90  1  0.586791  0.974105  0.445299  1
  O  O91  1  0.933968  0.986639  0.441040  1
  O  O92  1  0.067468  0.011719  0.559933  1
  O  O93  1  0.401871  0.009627  0.558688  1
  O  O94  1  0.737067  -0.001054  0.565494  1
  O  O95  1  0.268218  0.462421  0.850637  1
  O  O96  1  0.599534  0.463399  0.852996  1
  O  O97  1  0.931725  0.464143  0.852483  1
  O  O98  1  0.265914  0.988097  0.059957  1
  O  O99  1  0.596072  0.000578  0.065566  1
  O  O100  1  0.931610  0.990534  0.058570  1
  O  O101  1  0.096244  0.499027  0.934432  1
  O  O102  1  0.431558  0.509519  0.941414  1
  O  O103  1  0.765942  0.511807  0.940210  1
  O  O104  1  0.248910  0.982286  0.250236  1
  O  O105  1  0.579921  0.974434  0.252049  1
  O  O106  1  0.919814  0.974087  0.249473  1
  O  O107  1  0.246461  0.474349  0.054647  1
  O  O108  1  0.567416  0.482491  0.059501  1
  O  O109  1  0.899458  0.486662  0.058975  1
  O  O110  1  0.236895  0.501229  0.434534  1
  O  O111  1  0.567389  0.488246  0.440149  1
  O  O112  1  0.901942  0.490417  0.441263  1
  O  O113  1  0.086693  0.525838  0.554562  1
  O  O114  1  0.433918  0.513425  0.559130  1
  O  O115  1  0.765784  0.517495  0.559582  1
  O  O116  1  0.079818  0.525410  0.747905  1
  O  O117  1  0.419809  0.525974  0.750483  1
  O  O118  1  0.748942  0.517764  0.749884  1
  O  O119  1  0.266394  0.471632  0.656245  1
  O  O120  1  0.598940  0.466123  0.649537  1
  O  O121  1  0.930577  0.462602  0.647629  1
  O  O122  1  0.067529  0.017424  0.940414  1
  O  O123  1  0.399433  0.013531  0.940870  1
  O  O124  1  0.746645  0.025842  0.945356  1
  O  O125  1  0.159252  0.242792  0.849043  1
  O  O126  1  0.490233  0.242614  0.852008  1
  O  O127  1  0.827839  0.245511  0.849447  1
  O  O128  1  0.177692  0.757197  0.154328  1
  O  O129  1  0.508396  0.756659  0.150340  1
  O  O130  1  0.843319  0.756873  0.150041  1
  O  O131  1  0.234621  0.965673  0.850202  1
  O  O132  1  0.567095  0.971574  0.843981  1
  O  O133  1  0.902748  0.962665  0.852388  1
  O  O134  1  0.084453  0.017771  0.750123  1
  O  O135  1  0.413503  0.025888  0.749473  1
  O  O136  1  0.753526  0.025462  0.752062  1
  O  O137  1  0.005524  0.745488  0.650510  1
  O  O138  1  0.342889  0.742929  0.648288  1
  O  O139  1  0.673999  0.742752  0.651063  1
  F  F140  1  0.130925  0.252100  0.030055  1
  F  F141  1  0.463248  0.253647  0.030432  1
  F  F142  1  0.795687  0.257394  0.032825  1
  F  F143  1  0.030354  0.757308  0.031507  1
  F  F144  1  0.368023  0.754726  0.033114  1
  F  F145  1  0.703517  0.749322  0.033471  1
  F  F146  1  0.202312  0.747952  0.530154  1
  F  F147  1  0.537660  0.742530  0.532780  1
  F  F148  1  0.870079  0.746396  0.530461  1
  F  F149  1  0.303107  0.242698  0.531451  1
  F  F150  1  0.629666  0.250824  0.533468  1
  F  F151  1  0.965313  0.245324  0.533185  1
  F  F152  1  0.203664  0.750944  0.966611  1
  F  F153  1  0.530495  0.742974  0.968443  1
  F  F154  1  0.867975  0.745327  0.966949  1
  F  F155  1  0.129570  0.248919  0.466506  1
  F  F156  1  0.465400  0.254690  0.466864  1
  F  F157  1  0.803087  0.257388  0.468518  1
  F  F158  1  0.037635  0.757500  0.467170  1
  F  F159  1  0.370089  0.753554  0.469508  1
  F  F160  1  0.702300  0.752179  0.469902  1
  F  F161  1  0.295715  0.242495  0.967244  1
  F  F162  1  0.630934  0.247866  0.969894  1
  F  F163  1  0.963244  0.246525  0.969410  1
