# generated using pymatgen
data_Zn2Cr3O8
_symmetry_space_group_name_H-M   'P 1'
_cell_length_a   4.97315526
_cell_length_b   5.87133096
_cell_length_c   5.95074446
_cell_angle_alpha   119.55952102
_cell_angle_beta   108.76055448
_cell_angle_gamma   89.99999699
_symmetry_Int_Tables_number   1
_chemical_formula_structural   Zn2Cr3O8
_chemical_formula_sum   'Zn2 Cr3 O8'
_cell_volume   140.43019192
_cell_formula_units_Z   1
loop_
 _symmetry_equiv_pos_site_id
 _symmetry_equiv_pos_as_xyz
  1  'x, y, z'
loop_
 _atom_site_type_symbol
 _atom_site_label
 _atom_site_symmetry_multiplicity
 _atom_site_fract_x
 _atom_site_fract_y
 _atom_site_fract_z
 _atom_site_occupancy
  Zn  Zn0  1  0.658126  0.716894  0.433786  1
  Zn  Zn1  1  0.341873  0.283107  0.566214  1
  Cr  Cr2  1  0.500000  0.999999  0.000000  1
  Cr  Cr3  1  0.999999  0.740247  0.000000  1
  Cr  Cr4  1  0.999999  0.259753  1.000000  1
  O  O5  1  0.075020  0.395908  0.791816  1
  O  O6  1  0.924980  0.604091  0.208184  1
  O  O7  1  0.075055  0.891710  0.783421  1
  O  O8  1  0.924945  0.108289  0.216578  1
  O  O9  1  0.410112  0.339288  0.225667  1
  O  O10  1  0.410112  0.886379  0.225667  1
  O  O11  1  0.589889  0.113620  0.774333  1
  O  O12  1  0.589889  0.660712  0.774333  1
