# generated using pymatgen
data_Ba2Ni3O8
_symmetry_space_group_name_H-M   'P 1'
_cell_length_a   3.91451918
_cell_length_b   3.89410537
_cell_length_c   11.84971225
_cell_angle_alpha   90.00035530
_cell_angle_beta   90.00013550
_cell_angle_gamma   89.91691633
_symmetry_Int_Tables_number   1
_chemical_formula_structural   Ba2Ni3O8
_chemical_formula_sum   'Ba2 Ni3 O8'
_cell_volume   180.63149285
_cell_formula_units_Z   1
loop_
 _symmetry_equiv_pos_site_id
 _symmetry_equiv_pos_as_xyz
  1  'x, y, z'
loop_
 _atom_site_type_symbol
 _atom_site_label
 _atom_site_symmetry_multiplicity
 _atom_site_fract_x
 _atom_site_fract_y
 _atom_site_fract_z
 _atom_site_occupancy
  Ba  Ba0  1  0.500000  0.500000  0.173418  1
  Ba  Ba1  1  0.500004  0.499999  0.826468  1
  Ni  Ni2  1  0.999988  0.000006  0.347972  1
  Ni  Ni3  1  0.000003  0.999988  0.999923  1
  Ni  Ni4  1  0.000002  0.000016  0.653023  1
  O  O5  1  0.999995  0.500001  0.350986  1
  O  O6  1  0.499991  0.999997  0.350371  1
  O  O7  1  0.500004  0.000000  0.999931  1
  O  O8  1  0.000002  -0.000000  0.161427  1
  O  O9  1  0.000003  0.499997  0.648851  1
  O  O10  1  0.500002  0.999998  0.649428  1
  O  O11  1  0.000004  0.999998  0.838306  1
  O  O12  1  0.000003  0.499999  0.999894  1
