# generated using pymatgen
data_Zn3Si4(AgO7)2
_symmetry_space_group_name_H-M   'P 1'
_cell_length_a   7.70967091
_cell_length_b   9.78171322
_cell_length_c   9.71705671
_cell_angle_alpha   63.83140399
_cell_angle_beta   66.62745061
_cell_angle_gamma   66.79102077
_symmetry_Int_Tables_number   1
_chemical_formula_structural   Zn3Si4(AgO7)2
_chemical_formula_sum   'Zn6 Si8 Ag4 O28'
_cell_volume   581.97396144
_cell_formula_units_Z   2
loop_
 _symmetry_equiv_pos_site_id
 _symmetry_equiv_pos_as_xyz
  1  'x, y, z'
loop_
 _atom_site_type_symbol
 _atom_site_label
 _atom_site_symmetry_multiplicity
 _atom_site_fract_x
 _atom_site_fract_y
 _atom_site_fract_z
 _atom_site_occupancy
  Zn  Zn0  1  0.948328  0.873744  0.454388  1
  Zn  Zn1  1  0.276460  0.626256  0.045612  1
  Zn  Zn2  1  0.723540  0.373744  0.954388  1
  Zn  Zn3  1  0.617256  0.250000  0.750000  1
  Zn  Zn4  1  0.051672  0.126256  0.545612  1
  Zn  Zn5  1  0.382744  0.750000  0.250000  1
  Si  Si6  1  0.426093  0.294183  0.321846  1
  Si  Si7  1  0.957877  0.794183  0.821846  1
  Si  Si8  1  0.513728  0.891433  0.873361  1
  Si  Si9  1  0.721478  0.391433  0.373361  1
  Si  Si10  1  0.042123  0.205817  0.178154  1
  Si  Si11  1  0.486272  0.108567  0.126639  1
  Si  Si12  1  0.278522  0.608567  0.626639  1
  Si  Si13  1  0.573907  0.705817  0.678154  1
  Ag  Ag14  1  0.223578  0.250000  0.750000  1
  Ag  Ag15  1  0.776422  0.750000  0.250000  1
  Ag  Ag16  1  0.000000  0.000000  0.000000  1
  Ag  Ag17  1  0.000000  0.500000  0.500000  1
  O  O18  1  0.202578  0.687122  0.463904  1
  O  O19  1  0.035858  0.596480  0.265724  1
  O  O20  1  0.525222  0.916906  0.179662  1
  O  O21  1  0.101937  0.096480  0.765724  1
  O  O22  1  0.794865  0.709641  0.552419  1
  O  O23  1  0.910690  0.368813  0.219725  1
  O  O24  1  0.378209  0.416906  0.679662  1
  O  O25  1  0.056925  0.790359  0.947581  1
  O  O26  1  0.089310  0.631187  0.780275  1
  O  O27  1  0.429994  0.709562  0.588460  1
  O  O28  1  0.964142  0.403520  0.734276  1
  O  O29  1  0.205135  0.290359  0.447581  1
  O  O30  1  0.499229  0.131187  0.280275  1
  O  O31  1  0.646395  0.187122  0.963904  1
  O  O32  1  0.271984  0.209562  0.088460  1
  O  O33  1  0.943075  0.209641  0.052419  1
  O  O34  1  0.042231  0.060955  0.344981  1
  O  O35  1  0.570006  0.290438  0.411540  1
  O  O36  1  0.448166  0.439045  0.155019  1
  O  O37  1  0.728016  0.790438  0.911540  1
  O  O38  1  0.500771  0.868813  0.719725  1
  O  O39  1  0.898063  0.903520  0.234276  1
  O  O40  1  0.551834  0.560955  0.844981  1
  O  O41  1  0.474778  0.083094  0.820338  1
  O  O42  1  0.957769  0.939045  0.655019  1
  O  O43  1  0.621791  0.583094  0.320338  1
  O  O44  1  0.353605  0.812878  0.036096  1
  O  O45  1  0.797422  0.312878  0.536096  1
