# generated using pymatgen
data_Ca(TiS2)2
_symmetry_space_group_name_H-M   'P 1'
_cell_length_a   7.58827090
_cell_length_b   7.59046581
_cell_length_c   7.59606910
_cell_angle_alpha   60.04703962
_cell_angle_beta   60.03927897
_cell_angle_gamma   59.98645196
_symmetry_Int_Tables_number   1
_chemical_formula_structural   Ca(TiS2)2
_chemical_formula_sum   'Ca2 Ti4 S8'
_cell_volume   309.54487678
_cell_formula_units_Z   2
loop_
 _symmetry_equiv_pos_site_id
 _symmetry_equiv_pos_as_xyz
  1  'x, y, z'
loop_
 _atom_site_type_symbol
 _atom_site_label
 _atom_site_symmetry_multiplicity
 _atom_site_fract_x
 _atom_site_fract_y
 _atom_site_fract_z
 _atom_site_occupancy
  Ca  Ca0  1  0.875053  0.875029  0.874970  1
  Ca  Ca1  1  0.124948  0.124971  0.125029  1
  Ti  Ti2  1  0.499999  0.500000  0.499999  1
  Ti  Ti3  1  0.500003  0.499998  0.000001  1
  Ti  Ti4  1  0.999998  0.500001  0.500001  1
  Ti  Ti5  1  0.500000  0.999995  0.500003  1
  S  S6  1  0.733859  0.733894  0.733773  1
  S  S7  1  0.266197  0.266160  0.701501  1
  S  S8  1  0.266084  0.701591  0.266237  1
  S  S9  1  0.701606  0.266061  0.266241  1
  S  S10  1  0.733916  0.298408  0.733763  1
  S  S11  1  0.298394  0.733940  0.733760  1
  S  S12  1  0.266142  0.266106  0.266225  1
  S  S13  1  0.733804  0.733841  0.298498  1
