# generated using pymatgen
data_CaTiF6
_symmetry_space_group_name_H-M   'P 1'
_cell_length_a   5.79684321
_cell_length_b   5.79684255
_cell_length_c   5.79684217
_cell_angle_alpha   58.00181317
_cell_angle_beta   58.00181158
_cell_angle_gamma   58.00181708
_symmetry_Int_Tables_number   1
_chemical_formula_structural   CaTiF6
_chemical_formula_sum   'Ca1 Ti1 F6'
_cell_volume   131.42643276
_cell_formula_units_Z   1
loop_
 _symmetry_equiv_pos_site_id
 _symmetry_equiv_pos_as_xyz
  1  'x, y, z'
loop_
 _atom_site_type_symbol
 _atom_site_label
 _atom_site_symmetry_multiplicity
 _atom_site_fract_x
 _atom_site_fract_y
 _atom_site_fract_z
 _atom_site_occupancy
  Ca  Ca0  1  0.500000  0.500000  0.500000  1
  Ti  Ti1  1  0.000000  0.000000  0.000000  1
  F  F2  1  0.318255  0.134174  0.775567  1
  F  F3  1  0.134174  0.775567  0.318255  1
  F  F4  1  0.224433  0.681745  0.865826  1
  F  F5  1  0.865826  0.224433  0.681745  1
  F  F6  1  0.681745  0.865826  0.224433  1
  F  F7  1  0.775567  0.318255  0.134174  1
