# generated using pymatgen
data_Ca2IrWO6
_symmetry_space_group_name_H-M   'P 1'
_cell_length_a   5.44582545
_cell_length_b   5.67792575
_cell_length_c   7.87224433
_cell_angle_alpha   90.00000000
_cell_angle_beta   89.24128474
_cell_angle_gamma   90.00000000
_symmetry_Int_Tables_number   1
_chemical_formula_structural   Ca2IrWO6
_chemical_formula_sum   'Ca4 Ir2 W2 O12'
_cell_volume   243.39626672
_cell_formula_units_Z   2
loop_
 _symmetry_equiv_pos_site_id
 _symmetry_equiv_pos_as_xyz
  1  'x, y, z'
loop_
 _atom_site_type_symbol
 _atom_site_label
 _atom_site_symmetry_multiplicity
 _atom_site_fract_x
 _atom_site_fract_y
 _atom_site_fract_z
 _atom_site_occupancy
  Ca  Ca0  1  0.014679  0.945679  0.252844  1
  Ca  Ca1  1  0.485321  0.445679  0.247156  1
  Ca  Ca2  1  0.514679  0.554321  0.752844  1
  Ca  Ca3  1  0.985321  0.054321  0.747156  1
  Ir  Ir4  1  0.000000  0.500000  0.500000  1
  Ir  Ir5  1  0.500000  0.000000  0.000000  1
  W  W6  1  0.000000  0.500000  0.000000  1
  W  W7  1  0.500000  0.000000  0.500000  1
  O  O8  1  0.103192  0.455756  0.752968  1
  O  O9  1  0.195894  0.209117  0.061031  1
  O  O10  1  0.208545  0.198736  0.455770  1
  O  O11  1  0.291455  0.698736  0.044230  1
  O  O12  1  0.304106  0.709117  0.438969  1
  O  O13  1  0.396808  0.955756  0.747032  1
  O  O14  1  0.603192  0.044244  0.252968  1
  O  O15  1  0.695894  0.290883  0.561031  1
  O  O16  1  0.708545  0.301264  0.955770  1
  O  O17  1  0.804106  0.790883  0.938969  1
  O  O18  1  0.791455  0.801264  0.544230  1
  O  O19  1  0.896808  0.544244  0.247032  1
