# generated using pymatgen
data_Ca2Ni3O8
_symmetry_space_group_name_H-M   'P 1'
_cell_length_a   4.93153346
_cell_length_b   5.82497990
_cell_length_c   6.20025879
_cell_angle_alpha   118.01721670
_cell_angle_beta   107.10446117
_cell_angle_gamma   89.99999703
_symmetry_Int_Tables_number   1
_chemical_formula_structural   Ca2Ni3O8
_chemical_formula_sum   'Ca2 Ni3 O8'
_cell_volume   148.25314153
_cell_formula_units_Z   1
loop_
 _symmetry_equiv_pos_site_id
 _symmetry_equiv_pos_as_xyz
  1  'x, y, z'
loop_
 _atom_site_type_symbol
 _atom_site_label
 _atom_site_symmetry_multiplicity
 _atom_site_fract_x
 _atom_site_fract_y
 _atom_site_fract_z
 _atom_site_occupancy
  Ca  Ca0  1  0.662650  0.721736  0.443472  1
  Ca  Ca1  1  0.337349  0.278265  0.556528  1
  Ni  Ni2  1  0.500000  0.999999  0.000000  1
  Ni  Ni3  1  0.999999  0.747438  0.000000  1
  Ni  Ni4  1  0.999999  0.252562  1.000000  1
  O  O5  1  0.038081  0.399305  0.798611  1
  O  O6  1  0.961919  0.600694  0.201389  1
  O  O7  1  0.099989  0.906157  0.812315  1
  O  O8  1  0.900011  0.093842  0.187684  1
  O  O9  1  0.388278  0.320466  0.199046  1
  O  O10  1  0.388278  0.878580  0.199046  1
  O  O11  1  0.611723  0.121419  0.800954  1
  O  O12  1  0.611723  0.679534  0.800954  1
