# generated using pymatgen
data_Si4MoO10
_symmetry_space_group_name_H-M   'P 1'
_cell_length_a   7.55614912
_cell_length_b   7.55614912
_cell_length_c   15.77303202
_cell_angle_alpha   90.00000000
_cell_angle_beta   90.00000000
_cell_angle_gamma   90.00000000
_symmetry_Int_Tables_number   1
_chemical_formula_structural   Si4MoO10
_chemical_formula_sum   'Si16 Mo4 O40'
_cell_volume   900.56740715
_cell_formula_units_Z   4
loop_
 _symmetry_equiv_pos_site_id
 _symmetry_equiv_pos_as_xyz
  1  'x, y, z'
loop_
 _atom_site_type_symbol
 _atom_site_label
 _atom_site_symmetry_multiplicity
 _atom_site_fract_x
 _atom_site_fract_y
 _atom_site_fract_z
 _atom_site_occupancy
  Si  Si0  1  0.919164  0.509153  0.651547  1
  Si  Si1  1  0.580836  0.990847  0.651547  1
  Si  Si2  1  0.009153  0.419164  0.848453  1
  Si  Si3  1  0.509153  0.580836  0.651547  1
  Si  Si4  1  0.990847  0.919164  0.651547  1
  Si  Si5  1  0.080836  0.009153  0.848453  1
  Si  Si6  1  0.419164  0.490847  0.848453  1
  Si  Si7  1  0.490847  0.080836  0.848453  1
  Si  Si8  1  0.080836  0.490847  0.348453  1
  Si  Si9  1  0.419164  0.009153  0.348453  1
  Si  Si10  1  0.990847  0.580836  0.151547  1
  Si  Si11  1  0.490847  0.419164  0.348453  1
  Si  Si12  1  0.009153  0.080836  0.348453  1
  Si  Si13  1  0.919164  0.990847  0.151547  1
  Si  Si14  1  0.580836  0.509153  0.151547  1
  Si  Si15  1  0.509153  0.919164  0.151547  1
  Mo  Mo16  1  0.250000  0.250000  0.578446  1
  Mo  Mo17  1  0.750000  0.750000  0.921554  1
  Mo  Mo18  1  0.750000  0.750000  0.421554  1
  Mo  Mo19  1  0.250000  0.250000  0.078446  1
  O  O20  1  0.021371  0.369120  0.590324  1
  O  O21  1  0.478629  0.130880  0.590324  1
  O  O22  1  0.869120  0.521371  0.909676  1
  O  O23  1  0.369120  0.478629  0.590324  1
  O  O24  1  0.130880  0.021371  0.590324  1
  O  O25  1  0.978629  0.869120  0.909676  1
  O  O26  1  0.521371  0.630880  0.909676  1
  O  O27  1  0.630880  0.978629  0.909676  1
  O  O28  1  0.978629  0.630880  0.409676  1
  O  O29  1  0.521371  0.869120  0.409676  1
  O  O30  1  0.130880  0.478629  0.090324  1
  O  O31  1  0.630880  0.521371  0.409676  1
  O  O32  1  0.869120  0.978629  0.409676  1
  O  O33  1  0.021371  0.130880  0.090324  1
  O  O34  1  0.478629  0.369120  0.090324  1
  O  O35  1  0.006286  0.292196  0.367331  1
  O  O36  1  0.369120  0.021371  0.090324  1
  O  O37  1  0.506286  0.792196  0.632669  1
  O  O38  1  0.207804  0.493714  0.867331  1
  O  O39  1  0.707804  0.506286  0.632669  1
  O  O40  1  0.792196  0.993714  0.632669  1
  O  O41  1  0.006286  0.207804  0.867331  1
  O  O42  1  0.493714  0.292196  0.867331  1
  O  O43  1  0.292196  0.006286  0.867331  1
  O  O44  1  0.454988  0.954987  0.250000  1
  O  O45  1  0.545012  0.454988  0.250000  1
  O  O46  1  0.954987  0.045012  0.250000  1
  O  O47  1  0.045012  0.545012  0.250000  1
  O  O48  1  0.545012  0.045012  0.750000  1
  O  O49  1  0.454988  0.545012  0.750000  1
  O  O50  1  0.045012  0.954987  0.750000  1
  O  O51  1  0.954987  0.454988  0.750000  1
  O  O52  1  0.707804  0.993714  0.132669  1
  O  O53  1  0.506286  0.707804  0.132669  1
  O  O54  1  0.993714  0.792196  0.132669  1
  O  O55  1  0.207804  0.006286  0.367331  1
  O  O56  1  0.292196  0.493714  0.367331  1
  O  O57  1  0.792196  0.506286  0.132669  1
  O  O58  1  0.493714  0.207804  0.367331  1
  O  O59  1  0.993714  0.707804  0.632669  1
