# generated using pymatgen
data_CaCo2(SiO3)4
_symmetry_space_group_name_H-M   'P 1'
_cell_length_a   5.27480396
_cell_length_b   6.50231674
_cell_length_c   6.50231697
_cell_angle_alpha   84.44978737
_cell_angle_beta   77.50285282
_cell_angle_gamma   77.50285214
_symmetry_Int_Tables_number   1
_chemical_formula_structural   CaCo2(SiO3)4
_chemical_formula_sum   'Ca1 Co2 Si4 O12'
_cell_volume   212.28505258
_cell_formula_units_Z   1
loop_
 _symmetry_equiv_pos_site_id
 _symmetry_equiv_pos_as_xyz
  1  'x, y, z'
loop_
 _atom_site_type_symbol
 _atom_site_label
 _atom_site_symmetry_multiplicity
 _atom_site_fract_x
 _atom_site_fract_y
 _atom_site_fract_z
 _atom_site_occupancy
  Ca  Ca0  1  0.750000  0.302194  0.697806  1
  Co  Co1  1  0.250000  0.090065  0.909936  1
  Co  Co2  1  0.749999  0.888992  0.111007  1
  Si  Si3  1  0.275210  0.198800  0.379793  1
  Si  Si4  1  0.224790  0.620206  0.801200  1
  Si  Si5  1  0.774386  0.380158  0.197756  1
  Si  Si6  1  0.725614  0.802244  0.619843  1
  O  O7  1  0.514192  0.327391  0.371816  1
  O  O8  1  0.985807  0.628184  0.672609  1
  O  O9  1  0.503098  0.655211  0.638225  1
  O  O10  1  0.996902  0.361775  0.344788  1
  O  O11  1  0.185117  0.107408  0.620838  1
  O  O12  1  0.314883  0.379162  0.892592  1
  O  O13  1  0.798713  0.907903  0.387364  1
  O  O14  1  0.701287  0.612636  0.092097  1
  O  O15  1  0.877376  0.197080  0.022908  1
  O  O16  1  0.622625  0.977091  0.802919  1
  O  O17  1  0.366573  0.041560  0.181463  1
  O  O18  1  0.133427  0.818537  0.958441  1
