# generated using pymatgen
data_BaMgSnF7
_symmetry_space_group_name_H-M   'P 1'
_cell_length_a   5.80196423
_cell_length_b   9.96785136
_cell_length_c   10.37032397
_cell_angle_alpha   90.00000000
_cell_angle_beta   90.00000000
_cell_angle_gamma   92.66311866
_symmetry_Int_Tables_number   1
_chemical_formula_structural   BaMgSnF7
_chemical_formula_sum   'Ba4 Mg4 Sn4 F28'
_cell_volume   599.10042661
_cell_formula_units_Z   4
loop_
 _symmetry_equiv_pos_site_id
 _symmetry_equiv_pos_as_xyz
  1  'x, y, z'
loop_
 _atom_site_type_symbol
 _atom_site_label
 _atom_site_symmetry_multiplicity
 _atom_site_fract_x
 _atom_site_fract_y
 _atom_site_fract_z
 _atom_site_occupancy
  Ba  Ba0  1  0.271266  0.495308  0.326211  1
  Ba  Ba1  1  0.728734  0.004692  0.826211  1
  Ba  Ba2  1  0.728734  0.504692  0.673789  1
  Ba  Ba3  1  0.271266  0.995308  0.173789  1
  Mg  Mg4  1  0.694262  0.806888  0.388999  1
  Mg  Mg5  1  0.305738  0.693112  0.888999  1
  Mg  Mg6  1  0.694262  0.306888  0.111001  1
  Mg  Mg7  1  0.305738  0.193112  0.611001  1
  Sn  Sn8  1  0.198449  0.817455  0.600180  1
  Sn  Sn9  1  0.801551  0.182545  0.399820  1
  Sn  Sn10  1  0.198449  0.317455  0.899820  1
  Sn  Sn11  1  0.801551  0.682545  0.100180  1
  F  F12  1  0.143888  0.125323  0.450986  1
  F  F13  1  0.384034  0.383010  0.072887  1
  F  F14  1  0.484691  0.753538  0.722398  1
  F  F15  1  0.515309  0.246462  0.277602  1
  F  F16  1  0.905004  0.379185  0.459869  1
  F  F17  1  0.241906  0.511399  0.799012  1
  F  F18  1  0.027932  0.755188  0.785475  1
  F  F19  1  0.094996  0.120815  0.959869  1
  F  F20  1  0.384034  0.883010  0.427113  1
  F  F21  1  0.515309  0.746462  0.222398  1
  F  F22  1  0.143888  0.625323  0.049014  1
  F  F23  1  0.856112  0.874677  0.549014  1
  F  F24  1  0.972068  0.744812  0.285475  1
  F  F25  1  0.407264  0.865442  0.963805  1
  F  F26  1  0.094996  0.620815  0.540131  1
  F  F27  1  0.905004  0.879185  0.040131  1
  F  F28  1  0.972068  0.244812  0.214525  1
  F  F29  1  0.856112  0.374677  0.950986  1
  F  F30  1  0.592736  0.634558  0.463805  1
  F  F31  1  0.615966  0.616990  0.927113  1
  F  F32  1  0.592736  0.134558  0.036195  1
  F  F33  1  0.027932  0.255188  0.714525  1
  F  F34  1  0.407264  0.365442  0.536195  1
  F  F35  1  0.758094  0.988601  0.299012  1
  F  F36  1  0.758094  0.488601  0.200988  1
  F  F37  1  0.241906  0.011399  0.700988  1
  F  F38  1  0.615966  0.116990  0.572887  1
  F  F39  1  0.484691  0.253538  0.777602  1
