# generated using pymatgen
data_Ba2MgCuSb2F14
_symmetry_space_group_name_H-M   'P 1'
_cell_length_a   5.35212424
_cell_length_b   7.77257061
_cell_length_c   16.22369021
_cell_angle_alpha   90.34378285
_cell_angle_beta   89.32934791
_cell_angle_gamma   110.81350571
_symmetry_Int_Tables_number   1
_chemical_formula_structural   Ba2MgCuSb2F14
_chemical_formula_sum   'Ba4 Mg2 Cu2 Sb4 F28'
_cell_volume   630.81446590
_cell_formula_units_Z   2
loop_
 _symmetry_equiv_pos_site_id
 _symmetry_equiv_pos_as_xyz
  1  'x, y, z'
loop_
 _atom_site_type_symbol
 _atom_site_label
 _atom_site_symmetry_multiplicity
 _atom_site_fract_x
 _atom_site_fract_y
 _atom_site_fract_z
 _atom_site_occupancy
  Ba  Ba0  1  0.089776  0.353974  0.627200  1
  Ba  Ba1  1  0.261200  0.351796  0.127410  1
  Ba  Ba2  1  0.911348  0.645636  0.372536  1
  Ba  Ba3  1  0.740836  0.648066  0.872552  1
  Mg  Mg4  1  0.449036  0.998858  0.747433  1
  Mg  Mg5  1  0.552079  0.000354  0.253136  1
  Cu  Cu6  1  0.500959  0.999261  0.999822  1
  Cu  Cu7  1  0.500503  0.999056  0.499691  1
  Sb  Sb8  1  0.072224  0.226583  0.875229  1
  Sb  Sb9  1  0.928938  0.774293  0.124619  1
  Sb  Sb10  1  0.157994  0.225670  0.376874  1
  Sb  Sb11  1  0.845458  0.775078  0.623069  1
  F  F12  1  0.823652  0.978325  0.328733  1
  F  F13  1  0.887833  0.300865  0.451043  1
  F  F14  1  0.113730  0.698142  0.548504  1
  F  F15  1  0.615769  0.496673  0.604773  1
  F  F16  1  0.654044  0.060454  0.608120  1
  F  F17  1  0.598562  0.935860  0.893516  1
  F  F18  1  0.415191  0.303188  0.948182  1
  F  F19  1  0.834149  0.023945  0.170047  1
  F  F20  1  0.345595  0.354083  0.782373  1
  F  F21  1  0.386573  0.503776  0.396513  1
  F  F22  1  0.774843  0.212480  0.761636  1
  F  F23  1  0.118124  0.501777  0.895943  1
  F  F24  1  0.439602  0.212467  0.263452  1
  F  F25  1  0.224993  0.788058  0.237759  1
  F  F26  1  0.402520  0.063575  0.105838  1
  F  F27  1  0.654805  0.647943  0.217585  1
  F  F28  1  0.127993  0.836454  0.987906  1
  F  F29  1  0.179469  0.023077  0.671620  1
  F  F30  1  0.874247  0.161551  0.011970  1
  F  F31  1  0.708834  0.841926  0.486023  1
  F  F32  1  0.586090  0.696183  0.051232  1
  F  F33  1  0.565300  0.788501  0.736251  1
  F  F34  1  0.013001  0.348011  0.284994  1
  F  F35  1  0.291816  0.156044  0.513599  1
  F  F36  1  0.347929  0.938426  0.390963  1
  F  F37  1  0.167675  0.977471  0.830449  1
  F  F38  1  0.993267  0.654585  0.715054  1
  F  F39  1  0.884022  0.498987  0.104921  1
