# generated using pymatgen
data_MgBiAsO6
_symmetry_space_group_name_H-M   'P 1'
_cell_length_a   5.49568463
_cell_length_b   8.82123912
_cell_length_c   6.54994348
_cell_angle_alpha   118.95961191
_cell_angle_beta   90.00000000
_cell_angle_gamma   90.00000000
_symmetry_Int_Tables_number   1
_chemical_formula_structural   MgBiAsO6
_chemical_formula_sum   'Mg2 Bi2 As2 O12'
_cell_volume   277.82911920
_cell_formula_units_Z   2
loop_
 _symmetry_equiv_pos_site_id
 _symmetry_equiv_pos_as_xyz
  1  'x, y, z'
loop_
 _atom_site_type_symbol
 _atom_site_label
 _atom_site_symmetry_multiplicity
 _atom_site_fract_x
 _atom_site_fract_y
 _atom_site_fract_z
 _atom_site_occupancy
  Mg  Mg0  1  0.750000  0.081623  0.200392  1
  Mg  Mg1  1  0.250000  0.918377  0.799608  1
  Bi  Bi2  1  0.250000  0.467073  0.659167  1
  Bi  Bi3  1  0.750000  0.532927  0.340833  1
  As  As4  1  0.250000  0.830239  0.200031  1
  As  As5  1  0.750000  0.169761  0.799969  1
  O  O6  1  0.986446  0.108662  0.917278  1
  O  O7  1  0.250000  0.604116  0.066862  1
  O  O8  1  0.040241  0.673360  0.634193  1
  O  O9  1  0.250000  0.916603  0.490664  1
  O  O10  1  0.486446  0.891338  0.082722  1
  O  O11  1  0.959759  0.326640  0.365807  1
  O  O12  1  0.459759  0.673360  0.634193  1
  O  O13  1  0.750000  0.083397  0.509336  1
  O  O14  1  0.540241  0.326640  0.365807  1
  O  O15  1  0.513554  0.108662  0.917278  1
  O  O16  1  0.013554  0.891338  0.082722  1
  O  O17  1  0.750000  0.395884  0.933138  1
