# generated using pymatgen
data_CaCu2(BiO4)2
_symmetry_space_group_name_H-M   'P 1'
_cell_length_a   6.70452200
_cell_length_b   9.10796777
_cell_length_c   13.52471546
_cell_angle_alpha   90.00000000
_cell_angle_beta   89.14381383
_cell_angle_gamma   90.00000000
_symmetry_Int_Tables_number   1
_chemical_formula_structural   CaCu2(BiO4)2
_chemical_formula_sum   'Ca4 Cu8 Bi8 O32'
_cell_volume   825.78872929
_cell_formula_units_Z   4
loop_
 _symmetry_equiv_pos_site_id
 _symmetry_equiv_pos_as_xyz
  1  'x, y, z'
loop_
 _atom_site_type_symbol
 _atom_site_label
 _atom_site_symmetry_multiplicity
 _atom_site_fract_x
 _atom_site_fract_y
 _atom_site_fract_z
 _atom_site_occupancy
  Ca  Ca0  1  0.119771  0.159321  0.040275  1
  Ca  Ca1  1  0.880229  0.840679  0.959725  1
  Ca  Ca2  1  0.880229  0.659321  0.459725  1
  Ca  Ca3  1  0.119771  0.340679  0.540275  1
  Cu  Cu4  1  0.747134  0.191470  0.881491  1
  Cu  Cu5  1  0.375501  0.050517  0.616947  1
  Cu  Cu6  1  0.624499  0.949483  0.383053  1
  Cu  Cu7  1  0.252866  0.808530  0.118509  1
  Cu  Cu8  1  0.747134  0.308530  0.381491  1
  Cu  Cu9  1  0.375501  0.449483  0.116947  1
  Cu  Cu10  1  0.252866  0.691470  0.618509  1
  Cu  Cu11  1  0.624499  0.550517  0.883053  1
  Bi  Bi12  1  0.100328  0.449458  0.835419  1
  Bi  Bi13  1  0.100328  0.050542  0.335419  1
  Bi  Bi14  1  0.612134  0.094610  0.143289  1
  Bi  Bi15  1  0.899672  0.949458  0.664581  1
  Bi  Bi16  1  0.387866  0.905390  0.856711  1
  Bi  Bi17  1  0.387866  0.594610  0.356711  1
  Bi  Bi18  1  0.612134  0.405390  0.643289  1
  Bi  Bi19  1  0.899672  0.550542  0.164581  1
  O  O20  1  0.018505  0.257829  0.387022  1
  O  O21  1  0.645145  0.013780  0.588829  1
  O  O22  1  0.208949  0.581097  0.490945  1
  O  O23  1  0.791051  0.081097  0.009055  1
  O  O24  1  0.018505  0.242171  0.887022  1
  O  O25  1  0.981495  0.742171  0.612978  1
  O  O26  1  0.103875  0.100556  0.606176  1
  O  O27  1  0.508331  0.876702  0.137974  1
  O  O28  1  0.508331  0.623298  0.637974  1
  O  O29  1  0.306970  0.874696  0.684590  1
  O  O30  1  0.693030  0.374696  0.815410  1
  O  O31  1  0.491669  0.123298  0.862026  1
  O  O32  1  0.896125  0.899444  0.393824  1
  O  O33  1  0.864204  0.520556  0.312753  1
  O  O34  1  0.417249  0.247800  0.584924  1
  O  O35  1  0.417249  0.252200  0.084924  1
  O  O36  1  0.135796  0.020556  0.187247  1
  O  O37  1  0.491669  0.376702  0.362026  1
  O  O38  1  0.135796  0.479444  0.687247  1
  O  O39  1  0.791051  0.418903  0.509055  1
  O  O40  1  0.645145  0.486220  0.088829  1
  O  O41  1  0.693030  0.125304  0.315410  1
  O  O42  1  0.981495  0.757829  0.112978  1
  O  O43  1  0.103875  0.399444  0.106176  1
  O  O44  1  0.208949  0.918903  0.990945  1
  O  O45  1  0.582751  0.747800  0.915076  1
  O  O46  1  0.354855  0.986220  0.411171  1
  O  O47  1  0.354855  0.513780  0.911171  1
  O  O48  1  0.896125  0.600556  0.893824  1
  O  O49  1  0.582751  0.752200  0.415076  1
  O  O50  1  0.306970  0.625304  0.184590  1
  O  O51  1  0.864204  0.979444  0.812753  1
