# generated using pymatgen
data_BiF4
_symmetry_space_group_name_H-M   'P 1'
_cell_length_a   5.40830481
_cell_length_b   5.40989321
_cell_length_c   6.62556860
_cell_angle_alpha   113.61676965
_cell_angle_beta   114.11515837
_cell_angle_gamma   90.00691893
_symmetry_Int_Tables_number   1
_chemical_formula_structural   BiF4
_chemical_formula_sum   'Bi2 F8'
_cell_volume   158.97562352
_cell_formula_units_Z   2
loop_
 _symmetry_equiv_pos_site_id
 _symmetry_equiv_pos_as_xyz
  1  'x, y, z'
loop_
 _atom_site_type_symbol
 _atom_site_label
 _atom_site_symmetry_multiplicity
 _atom_site_fract_x
 _atom_site_fract_y
 _atom_site_fract_z
 _atom_site_occupancy
  Bi  Bi0  1  0.998866  0.499294  0.998875  1
  Bi  Bi1  1  0.498311  0.998492  0.998540  1
  F  F2  1  0.878724  0.369405  0.223178  1
  F  F3  1  0.647498  0.158151  0.772178  1
  F  F4  1  0.121175  0.620104  0.772201  1
  F  F5  1  0.117953  0.150038  0.773759  1
  F  F6  1  0.346040  0.847559  0.223906  1
  F  F7  1  0.348941  0.379374  0.225303  1
  F  F8  1  0.875314  0.841833  0.225139  1
  F  F9  1  0.651824  0.628388  0.774390  1
