# generated using pymatgen
data_CaMn2P2O9
_symmetry_space_group_name_H-M   'P 1'
_cell_length_a   6.58057909
_cell_length_b   7.41232212
_cell_length_c   14.35952970
_cell_angle_alpha   89.99554413
_cell_angle_beta   90.00431470
_cell_angle_gamma   90.00053653
_symmetry_Int_Tables_number   1
_chemical_formula_structural   CaMn2P2O9
_chemical_formula_sum   'Ca4 Mn8 P8 O36'
_cell_volume   700.42011723
_cell_formula_units_Z   4
loop_
 _symmetry_equiv_pos_site_id
 _symmetry_equiv_pos_as_xyz
  1  'x, y, z'
loop_
 _atom_site_type_symbol
 _atom_site_label
 _atom_site_symmetry_multiplicity
 _atom_site_fract_x
 _atom_site_fract_y
 _atom_site_fract_z
 _atom_site_occupancy
  Ca  Ca0  1  0.749975  0.884855  0.780092  1
  Ca  Ca1  1  0.750009  0.615169  0.280135  1
  Ca  Ca2  1  0.250004  0.384894  0.719915  1
  Ca  Ca3  1  0.250018  0.115120  0.219856  1
  Mn  Mn4  1  0.749980  0.351140  0.879979  1
  Mn  Mn5  1  0.250019  0.648772  0.120027  1
  Mn  Mn6  1  0.250005  0.851162  0.620050  1
  Mn  Mn7  1  0.749990  0.148845  0.379933  1
  Mn  Mn8  1  0.499960  0.000033  0.000023  1
  Mn  Mn9  1  0.500002  0.500024  0.499980  1
  Mn  Mn10  1  -0.000017  0.499997  0.499980  1
  Mn  Mn11  1  -0.000006  0.999968  0.000004  1
  P  P12  1  0.249995  0.364577  0.934368  1
  P  P13  1  0.749998  0.635474  0.065757  1
  P  P14  1  0.750006  0.864627  0.565649  1
  P  P15  1  0.250003  0.135560  0.434187  1
  P  P16  1  0.750002  0.390035  0.694524  1
  P  P17  1  0.749879  0.109895  0.194531  1
  P  P18  1  0.250119  0.890083  0.805553  1
  P  P19  1  0.250003  0.609872  0.305414  1
  O  O20  1  0.055395  0.607239  0.364780  1
  O  O21  1  0.555408  0.392776  0.635177  1
  O  O22  1  0.944687  0.107245  0.135171  1
  O  O23  1  0.444516  0.892776  0.864834  1
  O  O24  1  0.944612  0.392776  0.635179  1
  O  O25  1  0.444610  0.607243  0.364780  1
  O  O26  1  0.055335  0.892767  0.864862  1
  O  O27  1  0.555474  0.107251  0.135210  1
  O  O28  1  0.249997  0.320989  0.484665  1
  O  O29  1  0.750010  0.679090  0.515271  1
  O  O30  1  0.749965  0.820961  0.015320  1
  O  O31  1  0.250003  0.179075  0.984759  1
  O  O32  1  0.749954  0.123836  0.945936  1
  O  O33  1  0.250036  0.876148  0.054098  1
  O  O34  1  0.249997  0.623869  0.554092  1
  O  O35  1  0.750009  0.376176  0.445846  1
  O  O36  1  0.750006  0.217374  0.758970  1
  O  O37  1  0.250000  0.782505  0.240945  1
  O  O38  1  0.250005  0.717397  0.741065  1
  O  O39  1  0.750003  0.282585  0.258993  1
  O  O40  1  0.433185  0.126442  0.366823  1
  O  O41  1  0.933230  0.873639  0.633156  1
  O  O42  1  0.566775  0.626364  0.133189  1
  O  O43  1  0.066768  0.373600  0.866861  1
  O  O44  1  0.566777  0.873634  0.633153  1
  O  O45  1  0.066821  0.126436  0.366819  1
  O  O46  1  0.433249  0.373619  0.866850  1
  O  O47  1  0.933219  0.626395  0.133172  1
  O  O48  1  0.750000  0.486754  0.993170  1
  O  O49  1  0.249994  0.043144  0.730665  1
  O  O50  1  0.250002  0.456812  0.230618  1
  O  O51  1  0.750005  0.543073  0.769372  1
  O  O52  1  0.750000  0.013165  0.493177  1
  O  O53  1  0.250007  0.986724  0.506867  1
  O  O54  1  0.250009  0.513130  0.006817  1
  O  O55  1  0.750009  0.956884  0.269378  1
