# generated using pymatgen
data_SrMgFe(PO4)2
_symmetry_space_group_name_H-M   'P 1'
_cell_length_a   5.58894258
_cell_length_b   6.78895066
_cell_length_c   9.50498164
_cell_angle_alpha   110.21656738
_cell_angle_beta   101.64268438
_cell_angle_gamma   98.16531646
_symmetry_Int_Tables_number   1
_chemical_formula_structural   SrMgFe(PO4)2
_chemical_formula_sum   'Sr2 Mg2 Fe2 P4 O16'
_cell_volume   322.54781404
_cell_formula_units_Z   2
loop_
 _symmetry_equiv_pos_site_id
 _symmetry_equiv_pos_as_xyz
  1  'x, y, z'
loop_
 _atom_site_type_symbol
 _atom_site_label
 _atom_site_symmetry_multiplicity
 _atom_site_fract_x
 _atom_site_fract_y
 _atom_site_fract_z
 _atom_site_occupancy
  Sr  Sr0  1  0.256800  0.799179  0.052628  1
  Sr  Sr1  1  0.743200  0.200821  0.947372  1
  Mg  Mg2  1  0.996587  0.401374  0.647944  1
  Mg  Mg3  1  0.003413  0.598626  0.352056  1
  Fe  Fe4  1  0.630395  0.845071  0.555670  1
  Fe  Fe5  1  0.369605  0.154929  0.444330  1
  P  P6  1  0.389233  0.421290  0.233513  1
  P  P7  1  0.610767  0.578710  0.766487  1
  P  P8  1  0.845155  0.025780  0.302167  1
  P  P9  1  0.154845  0.974220  0.697833  1
  O  O10  1  0.826671  0.552956  0.885123  1
  O  O11  1  0.651800  0.476533  0.207844  1
  O  O12  1  0.661394  0.807756  0.766958  1
  O  O13  1  0.955000  0.114964  0.685090  1
  O  O14  1  0.348200  0.523467  0.792156  1
  O  O15  1  0.011967  0.735872  0.582840  1
  O  O16  1  0.988033  0.264128  0.417160  1
  O  O17  1  0.247794  0.998477  0.866589  1
  O  O18  1  0.338606  0.192244  0.233042  1
  O  O19  1  0.752206  0.001523  0.133411  1
  O  O20  1  0.173329  0.447044  0.114877  1
  O  O21  1  0.372391  0.584988  0.393998  1
  O  O22  1  0.627609  0.415012  0.606002  1
  O  O23  1  0.622137  0.950840  0.362217  1
  O  O24  1  0.045000  0.885036  0.314910  1
  O  O25  1  0.377863  0.049160  0.637783  1
