# generated using pymatgen
data_ZnNiP2WO9
_symmetry_space_group_name_H-M   'P 1'
_cell_length_a   6.46817173
_cell_length_b   7.68592368
_cell_length_c   14.51003753
_cell_angle_alpha   90.01590198
_cell_angle_beta   90.01928345
_cell_angle_gamma   90.24447546
_symmetry_Int_Tables_number   1
_chemical_formula_structural   ZnNiP2WO9
_chemical_formula_sum   'Zn4 Ni4 P8 W4 O36'
_cell_volume   721.34354562
_cell_formula_units_Z   4
loop_
 _symmetry_equiv_pos_site_id
 _symmetry_equiv_pos_as_xyz
  1  'x, y, z'
loop_
 _atom_site_type_symbol
 _atom_site_label
 _atom_site_symmetry_multiplicity
 _atom_site_fract_x
 _atom_site_fract_y
 _atom_site_fract_z
 _atom_site_occupancy
  Zn  Zn0  1  0.746971  0.970026  0.816121  1
  Zn  Zn1  1  0.751222  0.529748  0.316767  1
  Zn  Zn2  1  0.245745  0.030073  0.183530  1
  Zn  Zn3  1  0.252032  0.470032  0.683815  1
  Ni  Ni4  1  0.497623  0.000362  0.000106  1
  Ni  Ni5  1  0.500127  0.500280  0.500453  1
  Ni  Ni6  1  0.000262  0.499567  0.499733  1
  Ni  Ni7  1  0.997642  0.999776  0.999709  1
  P  P8  1  0.252063  0.347826  0.928535  1
  P  P9  1  0.751280  0.652360  0.071382  1
  P  P10  1  0.749668  0.847558  0.571407  1
  P  P11  1  0.249186  0.152403  0.428645  1
  P  P12  1  0.750864  0.376868  0.690229  1
  P  P13  1  0.250370  0.623026  0.309697  1
  P  P14  1  0.248356  0.876199  0.810049  1
  P  P15  1  0.748391  0.123937  0.189959  1
  W  W16  1  0.751092  0.363718  0.882453  1
  W  W17  1  0.253162  0.636600  0.117619  1
  W  W18  1  0.249490  0.863688  0.617705  1
  W  W19  1  0.749260  0.136080  0.382357  1
  O  O20  1  0.047633  0.617734  0.367798  1
  O  O21  1  0.547349  0.383908  0.632714  1
  O  O22  1  0.951407  0.117580  0.132178  1
  O  O23  1  0.451076  0.882813  0.868082  1
  O  O24  1  0.954063  0.384144  0.632589  1
  O  O25  1  0.454159  0.613906  0.366940  1
  O  O26  1  0.044270  0.883493  0.866968  1
  O  O27  1  0.544776  0.116356  0.132639  1
  O  O28  1  0.249660  0.335721  0.472936  1
  O  O29  1  0.750627  0.664301  0.527139  1
  O  O30  1  0.745976  0.835468  0.027113  1
  O  O31  1  0.249476  0.164675  0.972991  1
  O  O32  1  0.747605  0.121992  0.934881  1
  O  O33  1  0.243808  0.877974  0.064997  1
  O  O34  1  0.254244  0.622144  0.565060  1
  O  O35  1  0.753304  0.377562  0.435209  1
  O  O36  1  0.750596  0.209142  0.753715  1
  O  O37  1  0.254143  0.790853  0.246250  1
  O  O38  1  0.248112  0.708766  0.746267  1
  O  O39  1  0.748855  0.291291  0.253799  1
  O  O40  1  0.433880  0.123166  0.365036  1
  O  O41  1  0.934521  0.878215  0.635048  1
  O  O42  1  0.567641  0.618645  0.135611  1
  O  O43  1  0.066460  0.378640  0.865522  1
  O  O44  1  0.566553  0.875314  0.636104  1
  O  O45  1  0.065992  0.123260  0.364029  1
  O  O46  1  0.434413  0.374304  0.862961  1
  O  O47  1  0.935990  0.628135  0.135489  1
  O  O48  1  0.750321  0.977885  0.264704  1
  O  O49  1  0.252362  0.022178  0.735261  1
  O  O50  1  0.244552  0.477341  0.234821  1
  O  O51  1  0.750998  0.522510  0.765117  1
  O  O52  1  0.747671  0.982489  0.492227  1
  O  O53  1  0.247791  0.017450  0.507882  1
  O  O54  1  0.259684  0.483367  0.007262  1
  O  O55  1  0.755228  0.517155  0.992390  1
