# generated using pymatgen
data_Zn3Fe4(SbO4)6
_symmetry_space_group_name_H-M   'P 1'
_cell_length_a   6.94576913
_cell_length_b   8.30349285
_cell_length_c   10.30242846
_cell_angle_alpha   104.55279425
_cell_angle_beta   105.44611228
_cell_angle_gamma   102.22580751
_symmetry_Int_Tables_number   1
_chemical_formula_structural   Zn3Fe4(SbO4)6
_chemical_formula_sum   'Zn3 Fe4 Sb6 O24'
_cell_volume   529.03775817
_cell_formula_units_Z   1
loop_
 _symmetry_equiv_pos_site_id
 _symmetry_equiv_pos_as_xyz
  1  'x, y, z'
loop_
 _atom_site_type_symbol
 _atom_site_label
 _atom_site_symmetry_multiplicity
 _atom_site_fract_x
 _atom_site_fract_y
 _atom_site_fract_z
 _atom_site_occupancy
  Zn  Zn0  1  0.000000  0.500000  0.500000  1
  Zn  Zn1  1  0.283953  0.287515  0.791326  1
  Zn  Zn2  1  0.716047  0.712485  0.208674  1
  Fe  Fe3  1  0.378380  0.955824  0.610106  1
  Fe  Fe4  1  0.621620  0.044176  0.389894  1
  Fe  Fe5  1  0.042452  0.209546  0.013219  1
  Fe  Fe6  1  0.957548  0.790454  0.986781  1
  Sb  Sb7  1  0.781383  0.346917  0.727190  1
  Sb  Sb8  1  0.218617  0.653083  0.272810  1
  Sb  Sb9  1  0.893026  0.893279  0.666005  1
  Sb  Sb10  1  0.399086  0.725462  0.875513  1
  Sb  Sb11  1  0.106974  0.106721  0.333995  1
  Sb  Sb12  1  0.600914  0.274538  0.124487  1
  O  O13  1  0.852918  0.655449  0.578748  1
  O  O14  1  0.147082  0.344551  0.421252  1
  O  O15  1  0.249837  0.498190  0.741087  1
  O  O16  1  0.750163  0.501810  0.258913  1
  O  O17  1  0.786739  0.294693  0.534488  1
  O  O18  1  0.213261  0.705307  0.465512  1
  O  O19  1  0.661504  0.968550  0.576663  1
  O  O20  1  0.338496  0.031450  0.423337  1
  O  O21  1  0.660386  0.757607  0.017552  1
  O  O22  1  0.339614  0.242393  0.982448  1
  O  O23  1  0.488239  0.780065  0.279593  1
  O  O24  1  0.511761  0.219935  0.720407  1
  O  O25  1  0.135232  0.032072  0.646205  1
  O  O26  1  0.068420  0.053118  0.135147  1
  O  O27  1  0.931580  0.946882  0.864853  1
  O  O28  1  0.552687  0.127300  0.233200  1
  O  O29  1  0.447313  0.872700  0.766800  1
  O  O30  1  0.200066  0.424426  0.172083  1
  O  O31  1  0.799934  0.575574  0.827917  1
  O  O32  1  0.994317  0.266949  0.829640  1
  O  O33  1  0.005683  0.733051  0.170360  1
  O  O34  1  0.233626  0.788102  0.986118  1
  O  O35  1  0.766374  0.211898  0.013882  1
  O  O36  1  0.864768  0.967928  0.353795  1
