# generated using pymatgen
data_MgBiSbO5
_symmetry_space_group_name_H-M   'P 1'
_cell_length_a   5.46289449
_cell_length_b   8.01594813
_cell_length_c   12.05445861
_cell_angle_alpha   90.00000000
_cell_angle_beta   90.00000000
_cell_angle_gamma   107.05774365
_symmetry_Int_Tables_number   1
_chemical_formula_structural   MgBiSbO5
_chemical_formula_sum   'Mg4 Bi4 Sb4 O20'
_cell_volume   504.64698235
_cell_formula_units_Z   4
loop_
 _symmetry_equiv_pos_site_id
 _symmetry_equiv_pos_as_xyz
  1  'x, y, z'
loop_
 _atom_site_type_symbol
 _atom_site_label
 _atom_site_symmetry_multiplicity
 _atom_site_fract_x
 _atom_site_fract_y
 _atom_site_fract_z
 _atom_site_occupancy
  Mg  Mg0  1  0.621707  0.173512  0.920770  1
  Mg  Mg1  1  0.378293  0.826488  0.079230  1
  Mg  Mg2  1  0.878293  0.326488  0.420770  1
  Mg  Mg3  1  0.121707  0.673512  0.579230  1
  Bi  Bi4  1  0.107146  0.163171  0.096913  1
  Bi  Bi5  1  0.892854  0.836829  0.903087  1
  Bi  Bi6  1  0.607146  0.663171  0.403087  1
  Bi  Bi7  1  0.392854  0.336829  0.596913  1
  Sb  Sb8  1  0.787370  0.967647  0.643689  1
  Sb  Sb9  1  0.212630  0.032353  0.356311  1
  Sb  Sb10  1  0.712630  0.532353  0.143689  1
  Sb  Sb11  1  0.287370  0.467647  0.856311  1
  O  O12  1  0.554668  0.321599  0.064572  1
  O  O13  1  0.012949  0.319522  0.940102  1
  O  O14  1  0.473543  0.652954  0.182621  1
  O  O15  1  0.757545  0.514622  0.523741  1
  O  O16  1  0.796402  0.482246  0.292540  1
  O  O17  1  0.296402  0.982246  0.207460  1
  O  O18  1  0.512949  0.819522  0.559898  1
  O  O19  1  0.487051  0.180478  0.440102  1
  O  O20  1  0.242455  0.485378  0.476259  1
  O  O21  1  0.945332  0.178401  0.564572  1
  O  O22  1  0.203598  0.517754  0.707460  1
  O  O23  1  0.445332  0.678401  0.935428  1
  O  O24  1  0.054668  0.821599  0.435428  1
  O  O25  1  0.703598  0.017754  0.792540  1
  O  O26  1  0.742455  0.985378  0.023741  1
  O  O27  1  0.257545  0.014622  0.976259  1
  O  O28  1  0.526457  0.347046  0.817379  1
  O  O29  1  0.987051  0.680478  0.059898  1
  O  O30  1  0.026457  0.847046  0.682621  1
  O  O31  1  0.973543  0.152954  0.317379  1
