# generated using pymatgen
data_Ca(SbO2)2
_symmetry_space_group_name_H-M   'P 1'
_cell_length_a   5.76868364
_cell_length_b   6.86938151
_cell_length_c   12.13845100
_cell_angle_alpha   90.00027405
_cell_angle_beta   90.00004300
_cell_angle_gamma   89.99956836
_symmetry_Int_Tables_number   1
_chemical_formula_structural   Ca(SbO2)2
_chemical_formula_sum   'Ca4 Sb8 O16'
_cell_volume   481.01390255
_cell_formula_units_Z   4
loop_
 _symmetry_equiv_pos_site_id
 _symmetry_equiv_pos_as_xyz
  1  'x, y, z'
loop_
 _atom_site_type_symbol
 _atom_site_label
 _atom_site_symmetry_multiplicity
 _atom_site_fract_x
 _atom_site_fract_y
 _atom_site_fract_z
 _atom_site_occupancy
  Ca  Ca0  1  0.868984  0.249994  0.750029  1
  Ca  Ca1  1  0.131012  0.750005  0.250030  1
  Ca  Ca2  1  0.541123  0.250013  0.250004  1
  Ca  Ca3  1  0.458867  0.749992  0.750007  1
  Sb  Sb4  1  0.502246  0.749997  0.458120  1
  Sb  Sb5  1  0.502025  0.749998  0.041754  1
  Sb  Sb6  1  0.498009  0.250001  0.541733  1
  Sb  Sb7  1  0.497783  0.250000  0.958137  1
  Sb  Sb8  1  0.000057  0.500012  0.500121  1
  Sb  Sb9  1  0.000024  0.999972  0.000032  1
  Sb  Sb10  1  0.999993  0.000017  0.500058  1
  Sb  Sb11  1  0.999949  0.499981  0.000103  1
  O  O12  1  0.843210  0.750056  0.383309  1
  O  O13  1  0.843457  0.749945  0.116651  1
  O  O14  1  0.156510  0.250053  0.616648  1
  O  O15  1  0.156764  0.249937  0.883309  1
  O  O16  1  0.177638  0.749932  0.595295  1
  O  O17  1  0.178008  0.750079  0.904835  1
  O  O18  1  0.821918  0.249936  0.404858  1
  O  O19  1  0.822308  0.250086  0.095275  1
  O  O20  1  0.667954  0.461352  0.627471  1
  O  O21  1  0.667730  0.038627  0.872456  1
  O  O22  1  0.332299  0.961371  0.372449  1
  O  O23  1  0.332074  0.538647  0.127481  1
  O  O24  1  0.332325  0.538629  0.372441  1
  O  O25  1  0.332108  0.961358  0.127479  1
  O  O26  1  0.667926  0.038643  0.627468  1
  O  O27  1  0.667698  0.461368  0.872450  1
