# generated using pymatgen
data_Mn3Al2(SiO4)3
_symmetry_space_group_name_H-M   'P 1'
_cell_length_a   10.17292439
_cell_length_b   10.17292439
_cell_length_c   10.17292439
_cell_angle_alpha   109.47122065
_cell_angle_beta   109.47122066
_cell_angle_gamma   109.47122063
_symmetry_Int_Tables_number   1
_chemical_formula_structural   Mn3Al2(SiO4)3
_chemical_formula_sum   'Mn12 Al8 Si12 O48'
_cell_volume   810.43009277
_cell_formula_units_Z   4
loop_
 _symmetry_equiv_pos_site_id
 _symmetry_equiv_pos_as_xyz
  1  'x, y, z'
loop_
 _atom_site_type_symbol
 _atom_site_label
 _atom_site_symmetry_multiplicity
 _atom_site_fract_x
 _atom_site_fract_y
 _atom_site_fract_z
 _atom_site_occupancy
  O  O0  1  0.300569  0.487695  0.382729  1
  O  O1  1  0.012305  0.312874  0.895034  1
  O  O2  1  0.117271  0.604966  0.917840  1
  O  O3  1  0.199431  0.582160  0.187126  1
  O  O4  1  0.199431  0.117271  0.012305  1
  O  O5  1  0.582160  0.187126  0.199431  1
  O  O6  1  0.604966  0.187126  0.487695  1
  O  O7  1  0.187126  0.199431  0.582160  1
  O  O8  1  0.895034  0.382729  0.582160  1
  O  O9  1  0.312874  0.917840  0.300569  1
  O  O10  1  0.917840  0.300569  0.312874  1
  O  O11  1  0.012305  0.199431  0.117271  1
  O  O12  1  0.187126  0.487695  0.604966  1
  O  O13  1  0.582160  0.895034  0.382729  1
  O  O14  1  0.117271  0.012305  0.199431  1
  O  O15  1  0.487695  0.604966  0.187126  1
  O  O16  1  0.382729  0.582160  0.895034  1
  O  O17  1  0.895034  0.012305  0.312874  1
  O  O18  1  0.604966  0.917840  0.117271  1
  O  O19  1  0.104966  0.617271  0.417840  1
  O  O20  1  0.917840  0.117271  0.604966  1
  O  O21  1  0.382729  0.300569  0.487695  1
  O  O22  1  0.312874  0.895034  0.012305  1
  O  O23  1  0.300569  0.312874  0.917840  1
  O  O24  1  0.699431  0.512305  0.617271  1
  O  O25  1  0.987695  0.687126  0.104966  1
  O  O26  1  0.882729  0.395034  0.082160  1
  O  O27  1  0.800569  0.417840  0.812874  1
  O  O28  1  0.800569  0.882729  0.987695  1
  O  O29  1  0.417840  0.812874  0.800569  1
  O  O30  1  0.395034  0.812874  0.512305  1
  O  O31  1  0.812874  0.800569  0.417840  1
  O  O32  1  0.699431  0.687126  0.082160  1
  O  O33  1  0.687126  0.104966  0.987695  1
  O  O34  1  0.617271  0.699431  0.512305  1
  O  O35  1  0.512305  0.617271  0.699431  1
  O  O36  1  0.082160  0.882729  0.395034  1
  O  O37  1  0.395034  0.082160  0.882729  1
  O  O38  1  0.104966  0.987695  0.687126  1
  O  O39  1  0.617271  0.417840  0.104966  1
  O  O40  1  0.512305  0.395034  0.812874  1
  O  O41  1  0.882729  0.987695  0.800569  1
  O  O42  1  0.417840  0.104966  0.617271  1
  O  O43  1  0.812874  0.512305  0.395034  1
  O  O44  1  0.987695  0.800569  0.882729  1
  O  O45  1  0.082160  0.699431  0.687126  1
  O  O46  1  0.687126  0.082160  0.699431  1
  O  O47  1  0.487695  0.382729  0.300569  1
  Al  Al48  1  0.000000  0.000000  0.000000  1
  Al  Al49  1  0.500000  0.000000  0.500000  1
  Al  Al50  1  0.500000  0.500000  0.500000  1
  Al  Al51  1  0.000000  0.500000  0.500000  1
  Al  Al52  1  0.500000  0.000000  0.000000  1
  Al  Al53  1  0.000000  0.000000  0.500000  1
  Al  Al54  1  0.000000  0.500000  0.000000  1
  Al  Al55  1  0.500000  0.500000  0.000000  1
  Si  Si56  1  0.125000  0.875000  0.250000  1
  Si  Si57  1  0.375000  0.625000  0.750000  1
  Si  Si58  1  0.625000  0.750000  0.375000  1
  Si  Si59  1  0.250000  0.625000  0.375000  1
  Si  Si60  1  0.750000  0.375000  0.625000  1
  Si  Si61  1  0.875000  0.125000  0.750000  1
  Si  Si62  1  0.125000  0.750000  0.875000  1
  Si  Si63  1  0.625000  0.375000  0.250000  1
  Si  Si64  1  0.375000  0.250000  0.625000  1
  Si  Si65  1  0.750000  0.875000  0.125000  1
  Si  Si66  1  0.875000  0.250000  0.125000  1
  Si  Si67  1  0.250000  0.125000  0.875000  1
  Mn  Mn68  1  0.375000  0.125000  0.250000  1
  Mn  Mn69  1  0.125000  0.250000  0.375000  1
  Mn  Mn70  1  0.375000  0.750000  0.125000  1
  Mn  Mn71  1  0.250000  0.375000  0.125000  1
  Mn  Mn72  1  0.125000  0.375000  0.750000  1
  Mn  Mn73  1  0.750000  0.125000  0.375000  1
  Mn  Mn74  1  0.750000  0.625000  0.875000  1
  Mn  Mn75  1  0.875000  0.750000  0.625000  1
  Mn  Mn76  1  0.625000  0.875000  0.750000  1
  Mn  Mn77  1  0.875000  0.625000  0.250000  1
  Mn  Mn78  1  0.250000  0.875000  0.625000  1
  Mn  Mn79  1  0.625000  0.250000  0.875000  1
