# generated using pymatgen
data_Mg(SnN)2
_symmetry_space_group_name_H-M   'P 1'
_cell_length_a   3.36024309
_cell_length_b   3.36085552
_cell_length_c   8.18839429
_cell_angle_alpha   89.99993273
_cell_angle_beta   89.99999730
_cell_angle_gamma   89.99991833
_symmetry_Int_Tables_number   1
_chemical_formula_structural   Mg(SnN)2
_chemical_formula_sum   'Mg1 Sn2 N2'
_cell_volume   92.47392394
_cell_formula_units_Z   1
loop_
 _symmetry_equiv_pos_site_id
 _symmetry_equiv_pos_as_xyz
  1  'x, y, z'
loop_
 _atom_site_type_symbol
 _atom_site_label
 _atom_site_symmetry_multiplicity
 _atom_site_fract_x
 _atom_site_fract_y
 _atom_site_fract_z
 _atom_site_occupancy
  Mg  Mg0  1  1.000000  -0.000001  0.250000  1
  Sn  Sn1  1  0.500000  0.500002  0.942137  1
  Sn  Sn2  1  0.500000  0.500000  0.557832  1
  N  N3  1  0.500000  0.000001  0.402698  1
  N  N4  1  0.000000  0.499998  0.097333  1
