# generated using pymatgen
data_BaCuWO5
_symmetry_space_group_name_H-M   'P 1'
_cell_length_a   3.83829997
_cell_length_b   3.83845553
_cell_length_c   8.99196240
_cell_angle_alpha   90.00009186
_cell_angle_beta   90.00001015
_cell_angle_gamma   90.00006657
_symmetry_Int_Tables_number   1
_chemical_formula_structural   BaCuWO5
_chemical_formula_sum   'Ba1 Cu1 W1 O5'
_cell_volume   132.47987459
_cell_formula_units_Z   1
loop_
 _symmetry_equiv_pos_site_id
 _symmetry_equiv_pos_as_xyz
  1  'x, y, z'
loop_
 _atom_site_type_symbol
 _atom_site_label
 _atom_site_symmetry_multiplicity
 _atom_site_fract_x
 _atom_site_fract_y
 _atom_site_fract_z
 _atom_site_occupancy
  Ba  Ba0  1  0.000000  0.999999  0.065513  1
  Cu  Cu1  1  0.499998  0.500001  0.284335  1
  W  W2  1  0.499999  0.500000  0.687645  1
  O  O3  1  0.999999  0.500000  0.652642  1
  O  O4  1  0.499998  0.999998  0.652653  1
  O  O5  1  0.999999  0.499999  0.247527  1
  O  O6  1  0.500001  1.000000  0.247619  1
  O  O7  1  0.500000  0.499998  0.885984  1
