# generated using pymatgen
data_CaV(Si2O5)2
_symmetry_space_group_name_H-M   'P 1'
_cell_length_a   7.48291321
_cell_length_b   7.48291321
_cell_length_c   15.43614798
_cell_angle_alpha   90.00000000
_cell_angle_beta   90.00000000
_cell_angle_gamma   90.00000000
_symmetry_Int_Tables_number   1
_chemical_formula_structural   CaV(Si2O5)2
_chemical_formula_sum   'Ca4 V4 Si16 O40'
_cell_volume   864.33151730
_cell_formula_units_Z   4
loop_
 _symmetry_equiv_pos_site_id
 _symmetry_equiv_pos_as_xyz
  1  'x, y, z'
loop_
 _atom_site_type_symbol
 _atom_site_label
 _atom_site_symmetry_multiplicity
 _atom_site_fract_x
 _atom_site_fract_y
 _atom_site_fract_z
 _atom_site_occupancy
  Ca  Ca0  1  0.250000  0.750000  0.500000  1
  Ca  Ca1  1  0.750000  0.250000  0.500000  1
  Ca  Ca2  1  0.750000  0.250000  0.000000  1
  Ca  Ca3  1  0.250000  0.750000  0.000000  1
  V  V4  1  0.250000  0.250000  0.581264  1
  V  V5  1  0.750000  0.750000  0.918736  1
  V  V6  1  0.750000  0.750000  0.418736  1
  V  V7  1  0.250000  0.250000  0.081264  1
  Si  Si8  1  0.919415  0.502117  0.648835  1
  Si  Si9  1  0.580585  0.997883  0.648835  1
  Si  Si10  1  0.002117  0.419415  0.851165  1
  Si  Si11  1  0.502117  0.580585  0.648835  1
  Si  Si12  1  0.997883  0.919415  0.648835  1
  Si  Si13  1  0.080585  0.002117  0.851165  1
  Si  Si14  1  0.419415  0.497883  0.851165  1
  Si  Si15  1  0.497883  0.080585  0.851165  1
  Si  Si16  1  0.080585  0.497883  0.351165  1
  Si  Si17  1  0.419415  0.002117  0.351165  1
  Si  Si18  1  0.997883  0.580585  0.148835  1
  Si  Si19  1  0.497883  0.419415  0.351165  1
  Si  Si20  1  0.002117  0.080585  0.351165  1
  Si  Si21  1  0.919415  0.997883  0.148835  1
  Si  Si22  1  0.580585  0.502117  0.148835  1
  Si  Si23  1  0.502117  0.919415  0.148835  1
  O  O24  1  0.997954  0.357164  0.581941  1
  O  O25  1  0.502046  0.142836  0.581941  1
  O  O26  1  0.857164  0.497954  0.918059  1
  O  O27  1  0.357164  0.502046  0.581941  1
  O  O28  1  0.142836  0.997954  0.581941  1
  O  O29  1  0.002046  0.857164  0.918059  1
  O  O30  1  0.497954  0.642836  0.918059  1
  O  O31  1  0.642836  0.002046  0.918059  1
  O  O32  1  0.002046  0.642836  0.418059  1
  O  O33  1  0.497954  0.857164  0.418059  1
  O  O34  1  0.142836  0.502046  0.081941  1
  O  O35  1  0.642836  0.497954  0.418059  1
  O  O36  1  0.857164  0.002046  0.418059  1
  O  O37  1  0.997954  0.142836  0.081941  1
  O  O38  1  0.502046  0.357164  0.081941  1
  O  O39  1  0.001143  0.297278  0.370862  1
  O  O40  1  0.357164  0.997954  0.081941  1
  O  O41  1  0.501143  0.797278  0.629138  1
  O  O42  1  0.202722  0.498857  0.870862  1
  O  O43  1  0.702722  0.501143  0.629138  1
  O  O44  1  0.797278  0.998857  0.629138  1
  O  O45  1  0.001143  0.202722  0.870862  1
  O  O46  1  0.498857  0.297278  0.870862  1
  O  O47  1  0.297278  0.001143  0.870862  1
  O  O48  1  0.455012  0.955011  0.250000  1
  O  O49  1  0.544989  0.455012  0.250000  1
  O  O50  1  0.955011  0.044989  0.250000  1
  O  O51  1  0.044989  0.544989  0.250000  1
  O  O52  1  0.544989  0.044989  0.750000  1
  O  O53  1  0.455012  0.544989  0.750000  1
  O  O54  1  0.044989  0.955011  0.750000  1
  O  O55  1  0.955011  0.455012  0.750000  1
  O  O56  1  0.702722  0.998857  0.129138  1
  O  O57  1  0.501143  0.702722  0.129138  1
  O  O58  1  0.998857  0.797278  0.129138  1
  O  O59  1  0.202722  0.001143  0.370862  1
  O  O60  1  0.297278  0.498857  0.370862  1
  O  O61  1  0.797278  0.501143  0.129138  1
  O  O62  1  0.498857  0.202722  0.370862  1
  O  O63  1  0.998857  0.702722  0.629138  1
