# generated using pymatgen
data_Zn3Ni3(AsO4)4
_symmetry_space_group_name_H-M   'P 1'
_cell_length_a   5.18426082
_cell_length_b   8.56137503
_cell_length_c   15.15495594
_cell_angle_alpha   101.70700234
_cell_angle_beta   90.00000000
_cell_angle_gamma   90.00000000
_symmetry_Int_Tables_number   1
_chemical_formula_structural   Zn3Ni3(AsO4)4
_chemical_formula_sum   'Zn6 Ni6 As8 O32'
_cell_volume   658.65132360
_cell_formula_units_Z   2
loop_
 _symmetry_equiv_pos_site_id
 _symmetry_equiv_pos_as_xyz
  1  'x, y, z'
loop_
 _atom_site_type_symbol
 _atom_site_label
 _atom_site_symmetry_multiplicity
 _atom_site_fract_x
 _atom_site_fract_y
 _atom_site_fract_z
 _atom_site_occupancy
  Zn  Zn0  1  0.945638  0.014499  0.719050  1
  Zn  Zn1  1  0.445638  0.485501  0.780950  1
  Zn  Zn2  1  0.054362  0.985501  0.280950  1
  Zn  Zn3  1  0.554362  0.514499  0.219050  1
  Zn  Zn4  1  -0.000000  -0.000000  0.000000  1
  Zn  Zn5  1  0.500000  0.500000  0.500000  1
  Ni  Ni6  1  0.012773  0.335119  0.123006  1
  Ni  Ni7  1  0.987227  0.664881  0.876994  1
  Ni  Ni8  1  0.512773  0.164881  0.376994  1
  Ni  Ni9  1  0.487227  0.835119  0.623006  1
  Ni  Ni10  1  0.500000  0.500000  0.000000  1
  Ni  Ni11  1  -0.000000  -0.000000  0.500000  1
  As  As12  1  0.507748  0.890209  0.851385  1
  As  As13  1  0.015363  0.314569  0.896806  1
  As  As14  1  0.515363  0.185431  0.603194  1
  As  As15  1  0.484637  0.814569  0.396806  1
  As  As16  1  0.492252  0.109791  0.148615  1
  As  As17  1  0.984637  0.685431  0.103194  1
  As  As18  1  0.992252  0.390209  0.351385  1
  As  As19  1  0.007748  0.609791  0.648615  1
  O  O20  1  0.083084  0.556918  0.751103  1
  O  O21  1  0.583390  0.259170  0.508644  1
  O  O22  1  0.100368  0.192659  0.799343  1
  O  O23  1  0.117987  0.805632  0.658009  1
  O  O24  1  0.899632  0.807341  0.200657  1
  O  O25  1  0.416916  0.056918  0.251103  1
  O  O26  1  0.600368  0.307341  0.700657  1
  O  O27  1  0.777265  0.909657  0.396840  1
  O  O28  1  0.823709  0.522517  0.427537  1
  O  O29  1  0.916916  0.443082  0.248897  1
  O  O30  1  0.382013  0.305632  0.158009  1
  O  O31  1  0.222735  0.090343  0.603160  1
  O  O32  1  0.228853  0.481276  0.904565  1
  O  O33  1  0.176291  0.477483  0.572463  1
  O  O34  1  0.819892  0.120695  0.129311  1
  O  O35  1  0.319892  0.379305  0.370689  1
  O  O36  1  0.728853  0.018724  0.595435  1
  O  O37  1  0.399632  0.692659  0.299343  1
  O  O38  1  0.323709  0.977483  0.072463  1
  O  O39  1  0.277265  0.590343  0.103160  1
  O  O40  1  0.680108  0.620695  0.629311  1
  O  O41  1  0.180108  0.879305  0.870689  1
  O  O42  1  0.416610  0.740830  0.491356  1
  O  O43  1  0.083390  0.240830  0.991356  1
  O  O44  1  0.771147  0.518724  0.095435  1
  O  O45  1  0.583084  0.943082  0.748897  1
  O  O46  1  0.882013  0.194368  0.341991  1
  O  O47  1  0.676291  0.022517  0.927537  1
  O  O48  1  0.916610  0.759170  0.008644  1
  O  O49  1  0.722735  0.409657  0.896840  1
  O  O50  1  0.271147  0.981276  0.404565  1
  O  O51  1  0.617987  0.694368  0.841991  1
