# generated using pymatgen
data_HoMgCr2O6
_symmetry_space_group_name_H-M   'P 1'
_cell_length_a   5.15683372
_cell_length_b   5.40130234
_cell_length_c   7.53689908
_cell_angle_alpha   89.99286558
_cell_angle_beta   90.24204322
_cell_angle_gamma   89.99140941
_symmetry_Int_Tables_number   1
_chemical_formula_structural   HoMgCr2O6
_chemical_formula_sum   'Ho2 Mg2 Cr4 O12'
_cell_volume   209.92803091
_cell_formula_units_Z   2
loop_
 _symmetry_equiv_pos_site_id
 _symmetry_equiv_pos_as_xyz
  1  'x, y, z'
loop_
 _atom_site_type_symbol
 _atom_site_label
 _atom_site_symmetry_multiplicity
 _atom_site_fract_x
 _atom_site_fract_y
 _atom_site_fract_z
 _atom_site_occupancy
  Ho  Ho0  1  0.014486  0.932118  0.749830  1
  Ho  Ho1  1  0.514669  0.567870  0.249773  1
  Mg  Mg2  1  0.486766  0.444683  0.750189  1
  Mg  Mg3  1  0.987126  0.055090  0.249737  1
  Cr  Cr4  1  0.999394  0.494422  0.999870  1
  Cr  Cr5  1  0.998729  0.491422  0.499947  1
  Cr  Cr6  1  0.499282  0.005628  0.499896  1
  Cr  Cr7  1  0.498925  0.008461  0.000014  1
  O  O8  1  0.108786  0.439507  0.252721  1
  O  O9  1  0.199792  0.194929  0.938932  1
  O  O10  1  0.187877  0.201993  0.561701  1
  O  O11  1  0.321603  0.693162  0.939968  1
  O  O12  1  0.309267  0.685195  0.561216  1
  O  O13  1  0.373042  0.961740  0.246477  1
  O  O14  1  0.608387  0.060945  0.752762  1
  O  O15  1  0.700187  0.304568  0.438409  1
  O  O16  1  0.688005  0.298100  0.061470  1
  O  O17  1  0.809813  0.815084  0.060907  1
  O  O18  1  0.821339  0.806537  0.439711  1
  O  O19  1  0.872523  0.538546  0.746474  1
