# generated using pymatgen
data_V2ZnO4
_symmetry_space_group_name_H-M   'P 1'
_cell_length_a   6.14798510
_cell_length_b   6.04709944
_cell_length_c   5.99285958
_cell_angle_alpha   88.09969916
_cell_angle_beta   120.87716973
_cell_angle_gamma   120.56737057
_symmetry_Int_Tables_number   1
_chemical_formula_structural   V2ZnO4
_chemical_formula_sum   'V4 Zn2 O8'
_cell_volume   156.62838173
_cell_formula_units_Z   2
loop_
 _symmetry_equiv_pos_site_id
 _symmetry_equiv_pos_as_xyz
  1  'x, y, z'
loop_
 _atom_site_type_symbol
 _atom_site_label
 _atom_site_symmetry_multiplicity
 _atom_site_fract_x
 _atom_site_fract_y
 _atom_site_fract_z
 _atom_site_occupancy
  V  V0  1  0.499985  0.000001  0.499997  1
  V  V1  1  0.500015  0.500015  0.500009  1
  V  V2  1  0.000017  0.500004  0.000013  1
  V  V3  1  0.999988  0.499963  0.499991  1
  Zn  Zn4  1  0.000003  0.999997  0.999995  1
  Zn  Zn5  1  0.499984  0.999988  0.999985  1
  O  O6  1  0.031711  0.744985  0.252657  1
  O  O7  1  0.494197  0.749247  0.739780  1
  O  O8  1  0.466992  0.746005  0.253037  1
  O  O9  1  0.978900  0.725973  0.732760  1
  O  O10  1  0.533031  0.254014  0.746987  1
  O  O11  1  0.505805  0.250751  0.260218  1
  O  O12  1  0.021128  0.274016  0.267252  1
  O  O13  1  0.968293  0.255008  0.747359  1
