# generated using pymatgen
data_ZnCoAs2O7
_symmetry_space_group_name_H-M   'P 1'
_cell_length_a   7.35130394
_cell_length_b   8.75716937
_cell_length_c   9.66434716
_cell_angle_alpha   90.00000000
_cell_angle_beta   114.09075981
_cell_angle_gamma   90.00000000
_symmetry_Int_Tables_number   1
_chemical_formula_structural   ZnCoAs2O7
_chemical_formula_sum   'Zn4 Co4 As8 O28'
_cell_volume   567.96799730
_cell_formula_units_Z   4
loop_
 _symmetry_equiv_pos_site_id
 _symmetry_equiv_pos_as_xyz
  1  'x, y, z'
loop_
 _atom_site_type_symbol
 _atom_site_label
 _atom_site_symmetry_multiplicity
 _atom_site_fract_x
 _atom_site_fract_y
 _atom_site_fract_z
 _atom_site_occupancy
  Zn  Zn0  1  0.280885  0.919718  0.889149  1
  Zn  Zn1  1  0.719115  0.419718  0.610851  1
  Zn  Zn2  1  0.719115  0.080282  0.110851  1
  Zn  Zn3  1  0.280885  0.580282  0.389149  1
  Co  Co4  1  0.816760  0.059548  0.688392  1
  Co  Co5  1  0.183240  0.559548  0.811608  1
  Co  Co6  1  0.183240  0.940452  0.311608  1
  Co  Co7  1  0.816760  0.440452  0.188392  1
  As  As8  1  0.431080  0.231316  0.755647  1
  As  As9  1  0.568920  0.731316  0.744353  1
  As  As10  1  0.568920  0.768684  0.244353  1
  As  As11  1  0.431080  0.268684  0.255646  1
  As  As12  1  0.010677  0.279235  0.958030  1
  As  As13  1  0.989323  0.779235  0.541970  1
  As  As14  1  0.989323  0.720765  0.041970  1
  As  As15  1  0.010677  0.220765  0.458030  1
  O  O16  1  0.855890  0.273546  0.052629  1
  O  O17  1  0.144110  0.773546  0.447371  1
  O  O18  1  0.144110  0.726454  0.947371  1
  O  O19  1  0.855890  0.226454  0.552629  1
  O  O20  1  0.364554  0.406467  0.788816  1
  O  O21  1  0.635446  0.906467  0.711184  1
  O  O22  1  0.635446  0.593533  0.211184  1
  O  O23  1  0.364554  0.093533  0.288816  1
  O  O24  1  0.463431  0.098769  0.895081  1
  O  O25  1  0.536569  0.598769  0.604919  1
  O  O26  1  0.536569  0.901231  0.104919  1
  O  O27  1  0.463431  0.401231  0.395081  1
  O  O28  1  0.248956  0.152248  0.584204  1
  O  O29  1  0.751044  0.652248  0.915796  1
  O  O30  1  0.751044  0.847752  0.415796  1
  O  O31  1  0.248956  0.347752  0.084204  1
  O  O32  1  0.960854  0.077797  0.326906  1
  O  O33  1  0.039146  0.577797  0.173094  1
  O  O34  1  0.039146  0.922203  0.673094  1
  O  O35  1  0.960854  0.422203  0.826906  1
  O  O36  1  0.635626  0.262750  0.213100  1
  O  O37  1  0.364374  0.762750  0.286900  1
  O  O38  1  0.364374  0.737250  0.786900  1
  O  O39  1  0.635626  0.237250  0.713100  1
  O  O40  1  0.040156  0.396231  0.391163  1
  O  O41  1  0.959844  0.896231  0.108837  1
  O  O42  1  0.959844  0.603769  0.608837  1
  O  O43  1  0.040156  0.103769  0.891163  1
