# generated using pymatgen
data_TaTiZn2O6
_symmetry_space_group_name_H-M   'P 1'
_cell_length_a   5.29575385
_cell_length_b   5.34439847
_cell_length_c   7.69637255
_cell_angle_alpha   90.00000000
_cell_angle_beta   90.00000000
_cell_angle_gamma   89.60489575
_symmetry_Int_Tables_number   1
_chemical_formula_structural   TaTiZn2O6
_chemical_formula_sum   'Ta2 Ti2 Zn4 O12'
_cell_volume   217.82231904
_cell_formula_units_Z   2
loop_
 _symmetry_equiv_pos_site_id
 _symmetry_equiv_pos_as_xyz
  1  'x, y, z'
loop_
 _atom_site_type_symbol
 _atom_site_label
 _atom_site_symmetry_multiplicity
 _atom_site_fract_x
 _atom_site_fract_y
 _atom_site_fract_z
 _atom_site_occupancy
  Ta  Ta0  1  0.000000  0.500000  0.000000  1
  Ta  Ta1  1  0.000000  0.500000  0.500000  1
  Ti  Ti2  1  0.500000  0.000000  0.000000  1
  Ti  Ti3  1  0.500000  0.000000  0.500000  1
  Zn  Zn4  1  0.988039  0.982368  0.250000  1
  Zn  Zn5  1  0.491781  0.453688  0.250000  1
  Zn  Zn6  1  0.508219  0.546312  0.750000  1
  Zn  Zn7  1  0.011961  0.017632  0.750000  1
  O  O8  1  0.827010  0.818013  0.564031  1
  O  O9  1  0.317073  0.679784  0.433584  1
  O  O10  1  0.172990  0.181987  0.435969  1
  O  O11  1  0.682927  0.320216  0.933584  1
  O  O12  1  0.127017  0.444943  0.750000  1
  O  O13  1  0.682927  0.320216  0.566416  1
  O  O14  1  0.317073  0.679784  0.066416  1
  O  O15  1  0.827010  0.818013  0.935969  1
  O  O16  1  0.614590  0.068951  0.250000  1
  O  O17  1  0.172990  0.181987  0.064031  1
  O  O18  1  0.385410  0.931049  0.750000  1
  O  O19  1  0.872983  0.555057  0.250000  1
