# generated using pymatgen
data_CaNiMoP2O9
_symmetry_space_group_name_H-M   'P 1'
_cell_length_a   6.61341607
_cell_length_b   7.63707872
_cell_length_c   14.45964867
_cell_angle_alpha   90.01946934
_cell_angle_beta   89.99013119
_cell_angle_gamma   90.02735406
_symmetry_Int_Tables_number   1
_chemical_formula_structural   CaNiMoP2O9
_chemical_formula_sum   'Ca4 Ni4 Mo4 P8 O36'
_cell_volume   730.31592963
_cell_formula_units_Z   4
loop_
 _symmetry_equiv_pos_site_id
 _symmetry_equiv_pos_as_xyz
  1  'x, y, z'
loop_
 _atom_site_type_symbol
 _atom_site_label
 _atom_site_symmetry_multiplicity
 _atom_site_fract_x
 _atom_site_fract_y
 _atom_site_fract_z
 _atom_site_occupancy
  Ca  Ca0  1  0.749919  0.887584  0.781345  1
  Ca  Ca1  1  0.749985  0.612237  0.281318  1
  Ca  Ca2  1  0.250049  0.112096  0.218390  1
  Ca  Ca3  1  0.249983  0.387977  0.718456  1
  Ni  Ni4  1  0.500165  0.000000  0.000165  1
  Ni  Ni5  1  0.499758  0.500093  0.500067  1
  Ni  Ni6  1  0.000090  0.500297  0.499957  1
  Ni  Ni7  1  0.999763  0.000394  0.999907  1
  Mo  Mo8  1  0.749969  0.349433  0.882844  1
  Mo  Mo9  1  0.250094  0.650528  0.117140  1
  Mo  Mo10  1  0.249992  0.849749  0.617189  1
  Mo  Mo11  1  0.750388  0.150601  0.382904  1
  P  P12  1  0.249956  0.345051  0.935216  1
  P  P13  1  0.750079  0.654952  0.064670  1
  P  P14  1  0.750052  0.844865  0.564704  1
  P  P15  1  0.250203  0.154758  0.435332  1
  P  P16  1  0.750056  0.387090  0.689486  1
  P  P17  1  0.250028  0.612624  0.310538  1
  P  P18  1  0.249976  0.887230  0.810438  1
  P  P19  1  0.749993  0.113132  0.189648  1
  O  O20  1  0.053941  0.607051  0.367565  1
  O  O21  1  0.553702  0.392554  0.632524  1
  O  O22  1  0.946139  0.107147  0.132568  1
  O  O23  1  0.446255  0.892835  0.867569  1
  O  O24  1  0.945962  0.392673  0.632401  1
  O  O25  1  0.446300  0.607103  0.367523  1
  O  O26  1  0.053648  0.892898  0.867563  1
  O  O27  1  0.553827  0.107179  0.132622  1
  O  O28  1  0.249872  0.333934  0.483050  1
  O  O29  1  0.750014  0.665670  0.516927  1
  O  O30  1  0.750163  0.833951  0.016865  1
  O  O31  1  0.249824  0.166088  0.983075  1
  O  O32  1  0.749768  0.130111  0.942810  1
  O  O33  1  0.250463  0.870311  0.057641  1
  O  O34  1  0.250086  0.629855  0.557645  1
  O  O35  1  0.749090  0.370233  0.442475  1
  O  O36  1  0.749948  0.216887  0.752437  1
  O  O37  1  0.250051  0.782861  0.247663  1
  O  O38  1  0.249866  0.717108  0.747587  1
  O  O39  1  0.750201  0.283557  0.252377  1
  O  O40  1  0.431749  0.133629  0.368338  1
  O  O41  1  0.931461  0.866217  0.631545  1
  O  O42  1  0.568563  0.633600  0.131584  1
  O  O43  1  0.068434  0.366230  0.868321  1
  O  O44  1  0.568559  0.866250  0.631505  1
  O  O45  1  0.068527  0.133303  0.368413  1
  O  O46  1  0.431558  0.366361  0.868368  1
  O  O47  1  0.931632  0.633657  0.131545  1
  O  O48  1  0.749544  0.965460  0.266351  1
  O  O49  1  0.250046  0.035050  0.733912  1
  O  O50  1  0.250021  0.464801  0.233795  1
  O  O51  1  0.750093  0.534952  0.766234  1
  O  O52  1  0.750349  0.986304  0.489363  1
  O  O53  1  0.250029  0.013306  0.510267  1
  O  O54  1  0.249889  0.486846  0.010281  1
  O  O55  1  0.749929  0.513338  0.989568  1
