# generated using pymatgen
data_CaMn4O8
_symmetry_space_group_name_H-M   'P 1'
_cell_length_a   6.60825057
_cell_length_b   6.60825037
_cell_length_c   6.60825125
_cell_angle_alpha   53.90730074
_cell_angle_beta   53.90729650
_cell_angle_gamma   53.90730157
_symmetry_Int_Tables_number   1
_chemical_formula_structural   CaMn4O8
_chemical_formula_sum   'Ca1 Mn4 O8'
_cell_volume   175.00489809
_cell_formula_units_Z   1
loop_
 _symmetry_equiv_pos_site_id
 _symmetry_equiv_pos_as_xyz
  1  'x, y, z'
loop_
 _atom_site_type_symbol
 _atom_site_label
 _atom_site_symmetry_multiplicity
 _atom_site_fract_x
 _atom_site_fract_y
 _atom_site_fract_z
 _atom_site_occupancy
  Ca  Ca0  1  0.500000  0.500001  0.499999  1
  Mn  Mn1  1  0.500001  0.999999  0.500001  1
  Mn  Mn2  1  0.999999  0.500000  0.500001  1
  Mn  Mn3  1  0.500000  0.500000  0.000000  1
  Mn  Mn4  1  0.000000  0.000000  0.000000  1
  O  O5  1  0.758535  0.301436  0.758535  1
  O  O6  1  0.241464  0.241465  0.698564  1
  O  O7  1  0.241464  0.698565  0.241464  1
  O  O8  1  0.698563  0.241465  0.241465  1
  O  O9  1  0.274959  0.274960  0.274959  1
  O  O10  1  0.725041  0.725041  0.725041  1
  O  O11  1  0.301437  0.758536  0.758535  1
  O  O12  1  0.758536  0.758536  0.301436  1
