# generated using pymatgen
data_ZnFeP2O7
_symmetry_space_group_name_H-M   'P 1'
_cell_length_a   7.08608274
_cell_length_b   8.50491644
_cell_length_c   9.21534641
_cell_angle_alpha   90.00000000
_cell_angle_beta   112.72262137
_cell_angle_gamma   90.00000000
_symmetry_Int_Tables_number   1
_chemical_formula_structural   ZnFeP2O7
_chemical_formula_sum   'Zn4 Fe4 P8 O28'
_cell_volume   512.27183121
_cell_formula_units_Z   4
loop_
 _symmetry_equiv_pos_site_id
 _symmetry_equiv_pos_as_xyz
  1  'x, y, z'
loop_
 _atom_site_type_symbol
 _atom_site_label
 _atom_site_symmetry_multiplicity
 _atom_site_fract_x
 _atom_site_fract_y
 _atom_site_fract_z
 _atom_site_occupancy
  Zn  Zn0  1  0.121263  0.941986  0.817340  1
  Zn  Zn1  1  0.378737  0.441986  0.682660  1
  Zn  Zn2  1  0.621263  0.558014  0.317340  1
  Zn  Zn3  1  0.878737  0.058014  0.182660  1
  Fe  Fe4  1  0.374575  0.068976  0.606931  1
  Fe  Fe5  1  0.625425  0.931024  0.393069  1
  Fe  Fe6  1  0.125425  0.568976  0.893069  1
  Fe  Fe7  1  0.874575  0.431024  0.106931  1
  P  P8  1  0.180829  0.733840  0.242384  1
  P  P9  1  0.435849  0.225566  0.969573  1
  P  P10  1  0.680829  0.766160  0.742384  1
  P  P11  1  0.935849  0.274434  0.469573  1
  P  P12  1  0.319171  0.233840  0.257616  1
  P  P13  1  0.064151  0.725566  0.530427  1
  P  P14  1  0.564151  0.774434  0.030427  1
  P  P15  1  0.819171  0.266160  0.757616  1
  O  O16  1  0.352724  0.176541  0.101421  1
  O  O17  1  0.576503  0.609715  0.686617  1
  O  O18  1  0.076503  0.890285  0.186617  1
  O  O19  1  0.346440  0.387114  0.898806  1
  O  O20  1  0.647276  0.823459  0.898579  1
  O  O21  1  0.406347  0.099893  0.377571  1
  O  O22  1  0.653560  0.612886  0.101194  1
  O  O23  1  0.360885  0.091792  0.848724  1
  O  O24  1  0.171354  0.266622  0.548233  1
  O  O25  1  0.593653  0.900107  0.622429  1
  O  O26  1  0.906347  0.400107  0.877571  1
  O  O27  1  0.915894  0.759548  0.797261  1
  O  O28  1  0.584106  0.259548  0.702739  1
  O  O29  1  0.852724  0.323459  0.601421  1
  O  O30  1  0.093653  0.599893  0.122429  1
  O  O31  1  0.923497  0.109715  0.813383  1
  O  O32  1  0.084106  0.240452  0.202739  1
  O  O33  1  0.639115  0.908208  0.151276  1
  O  O34  1  0.671354  0.233378  0.048233  1
  O  O35  1  0.328646  0.766622  0.951767  1
  O  O36  1  0.153560  0.887114  0.601194  1
  O  O37  1  0.860885  0.408208  0.348724  1
  O  O38  1  0.139115  0.591792  0.651276  1
  O  O39  1  0.423497  0.390285  0.313383  1
  O  O40  1  0.415894  0.740452  0.297261  1
  O  O41  1  0.846440  0.112886  0.398806  1
  O  O42  1  0.828646  0.733378  0.451767  1
  O  O43  1  0.147276  0.676541  0.398579  1
