# generated using pymatgen
data_SrCaMn(PO4)2
_symmetry_space_group_name_H-M   'P 1'
_cell_length_a   5.75864450
_cell_length_b   6.96803539
_cell_length_c   9.69410197
_cell_angle_alpha   109.50956124
_cell_angle_beta   101.38552358
_cell_angle_gamma   98.63741821
_symmetry_Int_Tables_number   1
_chemical_formula_structural   SrCaMn(PO4)2
_chemical_formula_sum   'Sr2 Ca2 Mn2 P4 O16'
_cell_volume   349.47238073
_cell_formula_units_Z   2
loop_
 _symmetry_equiv_pos_site_id
 _symmetry_equiv_pos_as_xyz
  1  'x, y, z'
loop_
 _atom_site_type_symbol
 _atom_site_label
 _atom_site_symmetry_multiplicity
 _atom_site_fract_x
 _atom_site_fract_y
 _atom_site_fract_z
 _atom_site_occupancy
  Sr  Sr0  1  0.262475  0.807359  0.055554  1
  Sr  Sr1  1  0.737525  0.192641  0.944446  1
  Ca  Ca2  1  0.002631  0.420089  0.662321  1
  Ca  Ca3  1  0.997369  0.579911  0.337679  1
  Mn  Mn4  1  0.636694  0.841721  0.561950  1
  Mn  Mn5  1  0.363306  0.158279  0.438050  1
  P  P6  1  0.387614  0.413064  0.218299  1
  P  P7  1  0.612386  0.586936  0.781701  1
  P  P8  1  0.836996  0.033238  0.298333  1
  P  P9  1  0.163004  0.966762  0.701667  1
  O  O10  1  0.840554  0.553006  0.880189  1
  O  O11  1  0.619032  0.451346  0.164631  1
  O  O12  1  0.666423  0.808255  0.776401  1
  O  O13  1  0.966738  0.100107  0.691321  1
  O  O14  1  0.380968  0.548654  0.835369  1
  O  O15  1  0.023127  0.733922  0.597042  1
  O  O16  1  0.976873  0.266078  0.402958  1
  O  O17  1  0.268196  0.996237  0.866722  1
  O  O18  1  0.333578  0.191745  0.223599  1
  O  O19  1  0.731804  0.003763  0.133278  1
  O  O20  1  0.159446  0.446994  0.119811  1
  O  O21  1  0.419728  0.575993  0.382503  1
  O  O22  1  0.580272  0.424007  0.617497  1
  O  O23  1  0.629955  0.967171  0.369088  1
  O  O24  1  0.033262  0.899893  0.308679  1
  O  O25  1  0.370045  0.032829  0.630912  1
