# generated using pymatgen
data_Bi(WO4)2
_symmetry_space_group_name_H-M   'P 1'
_cell_length_a   5.37379106
_cell_length_b   5.97118215
_cell_length_c   7.18935339
_cell_angle_alpha   121.85470382
_cell_angle_beta   116.81876982
_cell_angle_gamma   88.95344511
_symmetry_Int_Tables_number   1
_chemical_formula_structural   Bi(WO4)2
_chemical_formula_sum   'Bi1 W2 O8'
_cell_volume   167.35402612
_cell_formula_units_Z   1
loop_
 _symmetry_equiv_pos_site_id
 _symmetry_equiv_pos_as_xyz
  1  'x, y, z'
loop_
 _atom_site_type_symbol
 _atom_site_label
 _atom_site_symmetry_multiplicity
 _atom_site_fract_x
 _atom_site_fract_y
 _atom_site_fract_z
 _atom_site_occupancy
  Bi  Bi0  1  0.124999  0.223197  0.099904  1
  W  W1  1  0.890924  0.408366  0.610880  1
  W  W2  1  0.358374  0.038082  0.588515  1
  O  O3  1  0.128340  0.754720  0.866630  1
  O  O4  1  0.627169  0.459162  0.376638  1
  O  O5  1  0.160025  0.215559  0.775394  1
  O  O6  1  0.545564  0.039915  0.408518  1
  O  O7  1  0.622554  0.987633  0.822855  1
  O  O8  1  0.121296  0.691603  0.332860  1
  O  O9  1  0.089100  0.230665  0.423856  1
  O  O10  1  0.703316  0.406728  0.790565  1
