# generated using pymatgen
data_BaTi2TlO6
_symmetry_space_group_name_H-M   'P 1'
_cell_length_a   3.45443794
_cell_length_b   3.41629407
_cell_length_c   27.03346194
_cell_angle_alpha   95.90673187
_cell_angle_beta   93.44656414
_cell_angle_gamma   89.89985222
_symmetry_Int_Tables_number   1
_chemical_formula_structural   BaTi2TlO6
_chemical_formula_sum   'Ba2 Ti4 Tl2 O12'
_cell_volume   316.76108327
_cell_formula_units_Z   2
loop_
 _symmetry_equiv_pos_site_id
 _symmetry_equiv_pos_as_xyz
  1  'x, y, z'
loop_
 _atom_site_type_symbol
 _atom_site_label
 _atom_site_symmetry_multiplicity
 _atom_site_fract_x
 _atom_site_fract_y
 _atom_site_fract_z
 _atom_site_occupancy
  Ba  Ba0  1  0.160506  0.155386  0.331901  1
  Ba  Ba1  1  0.836651  0.865543  0.673273  1
  Ti  Ti2  1  0.555429  0.531607  0.091463  1
  Ti  Ti3  1  0.397798  0.550107  0.799200  1
  Ti  Ti4  1  0.607177  0.609572  0.210068  1
  Ti  Ti5  1  0.435067  0.366586  0.905069  1
  Tl  Tl6  1  0.723376  0.719447  0.449525  1
  Tl  Tl7  1  0.277412  0.283153  0.553177  1
  O  O8  1  0.379006  0.946433  0.758863  1
  O  O9  1  0.568359  0.055772  0.121357  1
  O  O10  1  0.225492  0.224015  0.454587  1
  O  O11  1  0.948126  0.401484  0.933401  1
  O  O12  1  0.772941  0.776476  0.543957  1
  O  O13  1  0.095288  0.598820  0.184843  1
  O  O14  1  0.623021  0.138683  0.244690  1
  O  O15  1  0.320511  0.336376  0.639397  1
  O  O16  1  0.904413  0.407427  0.814867  1
  O  O17  1  0.041925  0.506623  0.062424  1
  O  O18  1  0.425315  0.845190  0.872081  1
  O  O19  1  0.675425  0.677818  0.363844  1
