# generated using pymatgen
data_CaWO3
_symmetry_space_group_name_H-M   'P 1'
_cell_length_a   4.09738376
_cell_length_b   5.95953675
_cell_length_c   4.12867939
_cell_angle_alpha   91.51388173
_cell_angle_beta   88.95749668
_cell_angle_gamma   136.59634058
_symmetry_Int_Tables_number   1
_chemical_formula_structural   CaWO3
_chemical_formula_sum   'Ca1 W1 O3'
_cell_volume   69.24997355
_cell_formula_units_Z   1
loop_
 _symmetry_equiv_pos_site_id
 _symmetry_equiv_pos_as_xyz
  1  'x, y, z'
loop_
 _atom_site_type_symbol
 _atom_site_label
 _atom_site_symmetry_multiplicity
 _atom_site_fract_x
 _atom_site_fract_y
 _atom_site_fract_z
 _atom_site_occupancy
  Ca  Ca0  1  0.997761  0.550788  0.500265  1
  W  W1  1  0.999890  0.974139  0.992361  1
  O  O2  1  0.000347  0.949857  0.489408  1
  O  O3  1  0.528408  0.469350  0.981676  1
  O  O4  1  0.473594  0.942525  0.981304  1
