# generated using pymatgen
data_Ca3Cu6(AsO4)8
_symmetry_space_group_name_H-M   'P 1'
_cell_length_a   5.03297937
_cell_length_b   9.48753441
_cell_length_c   14.94476153
_cell_angle_alpha   96.18259422
_cell_angle_beta   90.32511581
_cell_angle_gamma   89.06272162
_symmetry_Int_Tables_number   1
_chemical_formula_structural   Ca3Cu6(AsO4)8
_chemical_formula_sum   'Ca3 Cu6 As8 O32'
_cell_volume   709.36977191
_cell_formula_units_Z   1
loop_
 _symmetry_equiv_pos_site_id
 _symmetry_equiv_pos_as_xyz
  1  'x, y, z'
loop_
 _atom_site_type_symbol
 _atom_site_label
 _atom_site_symmetry_multiplicity
 _atom_site_fract_x
 _atom_site_fract_y
 _atom_site_fract_z
 _atom_site_occupancy
  Ca  Ca0  1  0.042586  0.955035  0.264171  1
  Ca  Ca1  1  0.010064  0.003532  0.993078  1
  Ca  Ca2  1  0.505346  0.496632  0.503284  1
  Cu  Cu3  1  0.033043  0.338641  0.117824  1
  Cu  Cu4  1  0.978783  0.667606  0.880274  1
  Cu  Cu5  1  0.518405  0.173853  0.383607  1
  Cu  Cu6  1  0.481421  0.830471  0.620332  1
  Cu  Cu7  1  0.500993  0.499982  0.999581  1
  Cu  Cu8  1  0.000405  0.999950  0.502530  1
  As  As9  1  0.498784  0.881030  0.839125  1
  As  As10  1  0.007638  0.344349  0.904125  1
  As  As11  1  0.504596  0.155120  0.596143  1
  As  As12  1  0.492242  0.845054  0.407863  1
  As  As13  1  0.504650  0.119832  0.159033  1
  As  As14  1  0.994993  0.656249  0.090988  1
  As  As15  1  0.002956  0.376337  0.337727  1
  As  As16  1  0.003112  0.620428  0.662119  1
  O  O17  1  0.058932  0.575597  0.770415  1
  O  O18  1  0.582693  0.246436  0.502520  1
  O  O19  1  0.095950  0.236771  0.815373  1
  O  O20  1  0.120280  0.789062  0.646803  1
  O  O21  1  0.902446  0.761297  0.181714  1
  O  O22  1  0.447629  0.079855  0.270290  1
  O  O23  1  0.594659  0.262790  0.684807  1
  O  O24  1  0.819822  0.902630  0.401975  1
  O  O25  1  0.858133  0.508543  0.406118  1
  O  O26  1  0.943352  0.422244  0.229965  1
  O  O27  1  0.388373  0.288976  0.146245  1
  O  O28  1  0.177270  0.098148  0.598084  1
  O  O29  1  0.188618  0.507412  0.929354  1
  O  O30  1  0.139196  0.484587  0.594257  1
  O  O31  1  0.838938  0.110975  0.140424  1
  O  O32  1  0.334077  0.365232  0.365890  1
  O  O33  1  0.687093  0.990545  0.571066  1
  O  O34  1  0.376161  0.768400  0.310493  1
  O  O35  1  0.333257  0.984698  0.103556  1
  O  O36  1  0.322566  0.596676  0.097407  1
  O  O37  1  0.671427  0.637555  0.634530  1
  O  O38  1  0.170494  0.864664  0.865390  1
  O  O39  1  0.423673  0.750465  0.497602  1
  O  O40  1  0.080460  0.254827  0.999344  1
  O  O41  1  0.808040  0.496079  0.073896  1
  O  O42  1  0.555147  0.924295  0.730255  1
  O  O43  1  0.891109  0.203216  0.349287  1
  O  O44  1  0.631268  0.015632  0.907811  1
  O  O45  1  0.913261  0.748966  -0.000128  1
  O  O46  1  0.677631  0.403393  0.902578  1
  O  O47  1  0.298158  0.009049  0.426032  1
  O  O48  1  0.621625  0.710860  0.852028  1
