# generated using pymatgen
data_TiZnO3
_symmetry_space_group_name_H-M   'P 1'
_cell_length_a   5.14579239
_cell_length_b   5.28354762
_cell_length_c   7.56957461
_cell_angle_alpha   90.00000000
_cell_angle_beta   90.00000000
_cell_angle_gamma   90.00000000
_symmetry_Int_Tables_number   1
_chemical_formula_structural   TiZnO3
_chemical_formula_sum   'Ti4 Zn4 O12'
_cell_volume   205.80189073
_cell_formula_units_Z   4
loop_
 _symmetry_equiv_pos_site_id
 _symmetry_equiv_pos_as_xyz
  1  'x, y, z'
loop_
 _atom_site_type_symbol
 _atom_site_label
 _atom_site_symmetry_multiplicity
 _atom_site_fract_x
 _atom_site_fract_y
 _atom_site_fract_z
 _atom_site_occupancy
  Ti  Ti0  1  0.500000  0.000000  0.000000  1
  Ti  Ti1  1  0.000000  0.499999  0.000000  1
  Ti  Ti2  1  0.000000  0.499999  0.500000  1
  Ti  Ti3  1  0.500000  0.000000  0.500000  1
  Zn  Zn4  1  0.995516  0.038010  0.249999  1
  Zn  Zn5  1  0.495516  0.461990  0.750000  1
  Zn  Zn6  1  0.504484  0.538011  0.249999  1
  Zn  Zn7  1  0.004484  0.961991  0.750000  1
  O  O8  1  0.880247  0.553757  0.750000  1
  O  O9  1  0.380247  0.946245  0.249999  1
  O  O10  1  0.619753  0.053756  0.750000  1
  O  O11  1  0.119753  0.446244  0.249999  1
  O  O12  1  0.682195  0.313815  0.436425  1
  O  O13  1  0.182195  0.186186  0.563576  1
  O  O14  1  0.817805  0.813814  0.063576  1
  O  O15  1  0.317805  0.686185  0.936424  1
  O  O16  1  0.682195  0.313815  0.063576  1
  O  O17  1  0.182195  0.186186  0.936424  1
  O  O18  1  0.317805  0.686185  0.563576  1
  O  O19  1  0.817805  0.813814  0.436425  1
