# generated using pymatgen
data_Ca2CoIrO6
_symmetry_space_group_name_H-M   'P 1'
_cell_length_a   5.37722631
_cell_length_b   5.59944852
_cell_length_c   7.69984640
_cell_angle_alpha   90.00000000
_cell_angle_beta   90.44019565
_cell_angle_gamma   90.00000000
_symmetry_Int_Tables_number   1
_chemical_formula_structural   Ca2CoIrO6
_chemical_formula_sum   'Ca4 Co2 Ir2 O12'
_cell_volume   231.83169763
_cell_formula_units_Z   2
loop_
 _symmetry_equiv_pos_site_id
 _symmetry_equiv_pos_as_xyz
  1  'x, y, z'
loop_
 _atom_site_type_symbol
 _atom_site_label
 _atom_site_symmetry_multiplicity
 _atom_site_fract_x
 _atom_site_fract_y
 _atom_site_fract_z
 _atom_site_occupancy
  Ca  Ca0  1  0.015026  0.939757  0.249010  1
  Ca  Ca1  1  0.484974  0.439757  0.250990  1
  Ca  Ca2  1  0.515026  0.560243  0.749010  1
  Ca  Ca3  1  0.984974  0.060243  0.750990  1
  Co  Co4  1  0.000000  0.500000  0.000000  1
  Co  Co5  1  0.500000  -0.000000  0.500000  1
  Ir  Ir6  1  0.000000  0.500000  0.500000  1
  Ir  Ir7  1  0.500000  -0.000000  0.000000  1
  O  O8  1  0.096745  0.469664  0.747914  1
  O  O9  1  0.200925  0.197633  0.047628  1
  O  O10  1  0.194663  0.205690  0.448998  1
  O  O11  1  0.305337  0.705690  0.051002  1
  O  O12  1  0.299075  0.697633  0.452372  1
  O  O13  1  0.403255  0.969664  0.752086  1
  O  O14  1  0.596745  0.030336  0.247914  1
  O  O15  1  0.700925  0.302367  0.547628  1
  O  O16  1  0.694663  0.294310  0.948998  1
  O  O17  1  0.799075  0.802367  0.952372  1
  O  O18  1  0.805337  0.794310  0.551002  1
  O  O19  1  0.903255  0.530336  0.252086  1
