# generated using pymatgen
data_Ca(CoS2)4
_symmetry_space_group_name_H-M   'P 1'
_cell_length_a   7.30841077
_cell_length_b   7.30841053
_cell_length_c   7.30841165
_cell_angle_alpha   55.29197754
_cell_angle_beta   55.29197251
_cell_angle_gamma   55.29197850
_symmetry_Int_Tables_number   1
_chemical_formula_structural   Ca(CoS2)4
_chemical_formula_sum   'Ca1 Co4 S8'
_cell_volume   245.82854233
_cell_formula_units_Z   1
loop_
 _symmetry_equiv_pos_site_id
 _symmetry_equiv_pos_as_xyz
  1  'x, y, z'
loop_
 _atom_site_type_symbol
 _atom_site_label
 _atom_site_symmetry_multiplicity
 _atom_site_fract_x
 _atom_site_fract_y
 _atom_site_fract_z
 _atom_site_occupancy
  Ca  Ca0  1  0.500000  0.500001  0.499999  1
  Co  Co1  1  0.500001  0.999999  0.500001  1
  Co  Co2  1  0.999999  0.500000  0.500001  1
  Co  Co3  1  0.500000  0.500000  0.000000  1
  Co  Co4  1  0.000000  0.000000  0.000000  1
  S  S5  1  0.773337  0.268143  0.773337  1
  S  S6  1  0.226662  0.226663  0.731857  1
  S  S7  1  0.226662  0.731858  0.226662  1
  S  S8  1  0.731856  0.226663  0.226663  1
  S  S9  1  0.271829  0.271830  0.271829  1
  S  S10  1  0.728171  0.728171  0.728171  1
  S  S11  1  0.268144  0.773338  0.773337  1
  S  S12  1  0.773338  0.773338  0.268143  1
