# generated using pymatgen
data_Ba2YV2F11
_symmetry_space_group_name_H-M   'P 1'
_cell_length_a   7.95439637
_cell_length_b   7.95439624
_cell_length_c   13.80849604
_cell_angle_alpha   90.00000000
_cell_angle_beta   90.00000000
_cell_angle_gamma   120.00000056
_symmetry_Int_Tables_number   1
_chemical_formula_structural   Ba2YV2F11
_chemical_formula_sum   'Ba6 Y3 V6 F33'
_cell_volume   756.64376643
_cell_formula_units_Z   3
loop_
 _symmetry_equiv_pos_site_id
 _symmetry_equiv_pos_as_xyz
  1  'x, y, z'
loop_
 _atom_site_type_symbol
 _atom_site_label
 _atom_site_symmetry_multiplicity
 _atom_site_fract_x
 _atom_site_fract_y
 _atom_site_fract_z
 _atom_site_occupancy
  Ba  Ba0  1  0.558459  0.194559  0.663964  1
  Ba  Ba1  1  0.195167  0.522549  0.812887  1
  Ba  Ba2  1  0.636100  0.441541  0.997297  1
  Ba  Ba3  1  0.477451  0.672616  0.479553  1
  Ba  Ba4  1  0.327384  0.804833  0.146220  1
  Ba  Ba5  1  0.805441  0.363900  0.330630  1
  Y  Y6  1  0.132482  0.999968  0.892606  1
  Y  Y7  1  0.867485  0.867518  0.225939  1
  Y  Y8  1  0.000032  0.132515  0.559272  1
  V  V9  1  0.633848  0.994864  0.882002  1
  V  V10  1  0.783631  0.739303  0.720999  1
  V  V11  1  0.260697  0.044327  0.387665  1
  V  V12  1  0.361017  0.366152  0.215335  1
  V  V13  1  0.955673  0.216369  0.054332  1
  V  V14  1  0.005136  0.638983  0.548668  1
  F  F15  1  0.659086  0.086418  0.026627  1
  F  F16  1  0.510069  0.704450  0.927877  1
  F  F17  1  0.427332  0.340914  0.359960  1
  F  F18  1  0.093375  0.429972  0.499669  1
  F  F19  1  0.567263  0.289892  0.176652  1
  F  F20  1  0.944764  0.649616  0.191088  1
  F  F21  1  0.570028  0.663403  0.166336  1
  F  F22  1  0.350384  0.295148  0.857755  1
  F  F23  1  0.722629  0.432737  0.509985  1
  F  F24  1  0.257795  0.342358  0.072968  1
  F  F25  1  0.336597  0.906625  0.833003  1
  F  F26  1  0.913582  0.572668  0.693294  1
  F  F27  1  0.299450  0.016998  0.014605  1
  F  F28  1  0.021860  0.498472  0.010509  1
  F  F29  1  0.717548  0.700550  0.347938  1
  F  F30  1  0.295550  0.805619  0.594543  1
  F  F31  1  0.957916  0.150383  0.902449  1
  F  F32  1  0.084563  0.742205  0.406301  1
  F  F33  1  0.005206  0.075961  0.394859  1
  F  F34  1  0.983002  0.282452  0.681271  1
  F  F35  1  0.070754  0.994794  0.728193  1
  F  F36  1  0.501528  0.523388  0.677176  1
  F  F37  1  0.476612  0.978140  0.343842  1
  F  F38  1  0.192466  0.042084  0.235782  1
  F  F39  1  0.657642  0.915437  0.739635  1
  F  F40  1  0.710108  0.277371  0.843319  1
  F  F41  1  0.194381  0.489931  0.261210  1
  F  F42  1  0.867630  0.717165  0.868210  1
  F  F43  1  0.849535  0.132370  0.201543  1
  F  F44  1  0.924039  0.929246  0.061526  1
  F  F45  1  0.704852  0.055236  0.524421  1
  F  F46  1  0.849617  0.807534  0.569115  1
  F  F47  1  0.282835  0.150465  0.534876  1
