# generated using pymatgen
data_Bi3(AsO4)4
_symmetry_space_group_name_H-M   'P 1'
_cell_length_a   5.60017589
_cell_length_b   9.10831725
_cell_length_c   16.24555916
_cell_angle_alpha   104.06456204
_cell_angle_beta   90.00000000
_cell_angle_gamma   90.00000000
_symmetry_Int_Tables_number   1
_chemical_formula_structural   Bi3(AsO4)4
_chemical_formula_sum   'Bi6 As8 O32'
_cell_volume   803.81534355
_cell_formula_units_Z   2
loop_
 _symmetry_equiv_pos_site_id
 _symmetry_equiv_pos_as_xyz
  1  'x, y, z'
loop_
 _atom_site_type_symbol
 _atom_site_label
 _atom_site_symmetry_multiplicity
 _atom_site_fract_x
 _atom_site_fract_y
 _atom_site_fract_z
 _atom_site_occupancy
  Bi  Bi0  1  0.036756  0.307611  0.123785  1
  Bi  Bi1  1  0.963244  0.692389  0.876215  1
  Bi  Bi2  1  0.536756  0.192389  0.376215  1
  Bi  Bi3  1  0.463244  0.807611  0.623785  1
  Bi  Bi4  1  0.500000  0.500000  -0.000000  1
  Bi  Bi5  1  -0.000000  -0.000000  0.500000  1
  As  As6  1  0.472781  0.907241  0.858273  1
  As  As7  1  0.047958  0.323596  0.889994  1
  As  As8  1  0.547958  0.176404  0.610006  1
  As  As9  1  0.452042  0.823596  0.389994  1
  As  As10  1  0.527219  0.092759  0.141727  1
  As  As11  1  0.952042  0.676404  0.110006  1
  As  As12  1  0.027219  0.407241  0.358273  1
  As  As13  1  0.972781  0.592759  0.641727  1
  O  O14  1  0.025978  0.575790  0.744589  1
  O  O15  1  0.675790  0.198301  0.512837  1
  O  O16  1  0.132906  0.184093  0.809307  1
  O  O17  1  0.075175  0.774857  0.638255  1
  O  O18  1  0.867094  0.815907  0.190693  1
  O  O19  1  0.474022  0.075790  0.244589  1
  O  O20  1  0.632906  0.315907  0.690693  1
  O  O21  1  0.745900  0.878080  0.395825  1
  O  O22  1  0.878076  0.546103  0.423925  1
  O  O23  1  0.974022  0.424210  0.255411  1
  O  O24  1  0.424825  0.274857  0.138255  1
  O  O25  1  0.254100  0.121920  0.604175  1
  O  O26  1  0.202011  0.501137  0.895879  1
  O  O27  1  0.121924  0.453897  0.576075  1
  O  O28  1  0.834080  0.102551  0.121908  1
  O  O29  1  0.334080  0.397449  0.378092  1
  O  O30  1  0.702011  0.998863  0.604121  1
  O  O31  1  0.367094  0.684093  0.309307  1
  O  O32  1  0.378076  0.953897  0.076075  1
  O  O33  1  0.245900  0.621920  0.104175  1
  O  O34  1  0.665920  0.602551  0.621908  1
  O  O35  1  0.165920  0.897449  0.878092  1
  O  O36  1  0.324210  0.801699  0.487163  1
  O  O37  1  0.175790  0.301699  0.987163  1
  O  O38  1  0.797989  0.498863  0.104121  1
  O  O39  1  0.525978  0.924210  0.755411  1
  O  O40  1  0.924825  0.225142  0.361745  1
  O  O41  1  0.621924  0.046103  0.923925  1
  O  O42  1  0.824210  0.698301  0.012837  1
  O  O43  1  0.754100  0.378080  0.895825  1
  O  O44  1  0.297989  0.001137  0.395879  1
  O  O45  1  0.575175  0.725143  0.861745  1
