# generated using pymatgen
data_Sb3(AsO4)4
_symmetry_space_group_name_H-M   'P 1'
_cell_length_a   5.49265471
_cell_length_b   8.46860184
_cell_length_c   15.91405049
_cell_angle_alpha   100.77550337
_cell_angle_beta   90.00000000
_cell_angle_gamma   90.00000000
_symmetry_Int_Tables_number   1
_chemical_formula_structural   Sb3(AsO4)4
_chemical_formula_sum   'Sb6 As8 O32'
_cell_volume   727.19122782
_cell_formula_units_Z   2
loop_
 _symmetry_equiv_pos_site_id
 _symmetry_equiv_pos_as_xyz
  1  'x, y, z'
loop_
 _atom_site_type_symbol
 _atom_site_label
 _atom_site_symmetry_multiplicity
 _atom_site_fract_x
 _atom_site_fract_y
 _atom_site_fract_z
 _atom_site_occupancy
  Sb  Sb0  1  0.040700  0.324767  0.125820  1
  Sb  Sb1  1  0.959300  0.675233  0.874180  1
  Sb  Sb2  1  0.540700  0.175233  0.374180  1
  Sb  Sb3  1  0.459300  0.824767  0.625820  1
  Sb  Sb4  1  0.500000  0.500000  -0.000000  1
  Sb  Sb5  1  -0.000000  0.000000  0.500000  1
  As  As6  1  0.471855  0.914512  0.855888  1
  As  As7  1  0.039952  0.309303  0.892407  1
  As  As8  1  0.539952  0.190697  0.607593  1
  As  As9  1  0.460048  0.809303  0.392407  1
  As  As10  1  0.528146  0.085488  0.144112  1
  As  As11  1  0.960048  0.690697  0.107593  1
  As  As12  1  0.028146  0.414512  0.355888  1
  As  As13  1  0.971854  0.585488  0.644112  1
  O  O14  1  0.001249  0.572126  0.752294  1
  O  O15  1  0.656175  0.208088  0.503819  1
  O  O16  1  0.125321  0.165695  0.814570  1
  O  O17  1  0.107290  0.777415  0.642803  1
  O  O18  1  0.874679  0.834305  0.185430  1
  O  O19  1  0.498751  0.072126  0.252294  1
  O  O20  1  0.625321  0.334305  0.685430  1
  O  O21  1  0.744103  0.900655  0.395498  1
  O  O22  1  0.890804  0.564210  0.419467  1
  O  O23  1  -0.001249  0.427874  0.247706  1
  O  O24  1  0.392710  0.277415  0.142803  1
  O  O25  1  0.255897  0.099345  0.604502  1
  O  O26  1  0.206120  0.501959  0.896666  1
  O  O27  1  0.109196  0.435790  0.580533  1
  O  O28  1  0.833322  0.130989  0.117571  1
  O  O29  1  0.333322  0.369011  0.382429  1
  O  O30  1  0.706120  0.998041  0.603334  1
  O  O31  1  0.374679  0.665695  0.314570  1
  O  O32  1  0.390804  0.935790  0.080533  1
  O  O33  1  0.244103  0.599345  0.104502  1
  O  O34  1  0.666678  0.630989  0.617571  1
  O  O35  1  0.166678  0.869011  0.882429  1
  O  O36  1  0.343825  0.791912  0.496181  1
  O  O37  1  0.156175  0.291912  0.996181  1
  O  O38  1  0.793880  0.498041  0.103334  1
  O  O39  1  0.501249  0.927874  0.747706  1
  O  O40  1  0.892710  0.222585  0.357197  1
  O  O41  1  0.609196  0.064210  0.919467  1
  O  O42  1  0.843825  0.708088  0.003819  1
  O  O43  1  0.755897  0.400655  0.895498  1
  O  O44  1  0.293880  0.001959  0.396666  1
  O  O45  1  0.607290  0.722585  0.857197  1
