# generated using pymatgen
data_BiPO4
_symmetry_space_group_name_H-M   'P 1'
_cell_length_a   5.71478413
_cell_length_b   9.61395395
_cell_length_c   16.96105169
_cell_angle_alpha   92.93007212
_cell_angle_beta   80.30125043
_cell_angle_gamma   72.70971427
_symmetry_Int_Tables_number   1
_chemical_formula_structural   BiPO4
_chemical_formula_sum   'Bi8 P8 O32'
_cell_volume   871.95765463
_cell_formula_units_Z   8
loop_
 _symmetry_equiv_pos_site_id
 _symmetry_equiv_pos_as_xyz
  1  'x, y, z'
loop_
 _atom_site_type_symbol
 _atom_site_label
 _atom_site_symmetry_multiplicity
 _atom_site_fract_x
 _atom_site_fract_y
 _atom_site_fract_z
 _atom_site_occupancy
  Bi  Bi0  1  0.205148  0.193426  0.001837  1
  Bi  Bi1  1  0.400411  0.306574  0.498163  1
  Bi  Bi2  1  0.794852  0.806574  0.998163  1
  Bi  Bi3  1  0.500000  0.500000  0.000000  1
  Bi  Bi4  1  0.599589  0.693426  0.501837  1
  Bi  Bi5  1  0.568614  0.750000  0.250000  1
  Bi  Bi6  1  0.431386  0.250000  0.750000  1
  Bi  Bi7  1  0.000000  0.000000  0.500000  1
  P  P8  1  0.073454  0.508955  0.876765  1
  P  P9  1  0.783754  0.379674  0.598984  1
  P  P10  1  0.926546  0.491045  0.123235  1
  P  P11  1  0.237587  0.879674  0.098984  1
  P  P12  1  0.540826  0.008955  0.376765  1
  P  P13  1  0.459174  0.991045  0.623235  1
  P  P14  1  0.216246  0.620326  0.401016  1
  P  P15  1  0.762413  0.120326  0.901016  1
  O  O16  1  0.819116  0.390029  0.072318  1
  O  O17  1  0.636841  0.998389  0.917027  1
  O  O18  1  0.718538  0.890029  0.572318  1
  O  O19  1  0.808529  0.251704  0.532137  1
  O  O20  1  0.214506  0.422186  0.092269  1
  O  O21  1  0.734249  0.327015  0.683016  1
  O  O22  1  0.592370  0.248296  0.967863  1
  O  O23  1  0.967402  0.924271  0.084914  1
  O  O24  1  0.191471  0.748296  0.467863  1
  O  O25  1  0.552256  0.501611  0.582973  1
  O  O26  1  0.830279  0.653288  0.102161  1
  O  O27  1  0.547582  0.001329  0.286338  1
  O  O28  1  0.363159  0.001611  0.082973  1
  O  O29  1  0.023412  0.424271  0.584914  1
  O  O30  1  0.180884  0.609971  0.927682  1
  O  O31  1  0.169721  0.346712  0.897839  1
  O  O32  1  0.164748  0.501329  0.786338  1
  O  O33  1  0.407630  0.751704  0.032137  1
  O  O34  1  0.414272  0.153288  0.602161  1
  O  O35  1  0.452418  0.998671  0.713662  1
  O  O36  1  0.976588  0.575729  0.415086  1
  O  O37  1  0.271040  0.922186  0.592269  1
  O  O38  1  0.032598  0.075729  0.915086  1
  O  O39  1  0.255721  0.827015  0.183016  1
  O  O40  1  0.447744  0.498389  0.417027  1
  O  O41  1  0.281462  0.109971  0.427682  1
  O  O42  1  0.835252  0.498671  0.213662  1
  O  O43  1  0.728960  0.077814  0.407731  1
  O  O44  1  0.785494  0.577814  0.907731  1
  O  O45  1  0.744279  0.172985  0.816984  1
  O  O46  1  0.265751  0.672985  0.316984  1
  O  O47  1  0.585729  0.846712  0.397839  1
