# generated using pymatgen
data_CaMn(GeO3)2
_symmetry_space_group_name_H-M   'P 1'
_cell_length_a   5.54120206
_cell_length_b   6.95286780
_cell_length_c   6.95286763
_cell_angle_alpha   83.16644183
_cell_angle_beta   79.15280307
_cell_angle_gamma   79.15279386
_symmetry_Int_Tables_number   1
_chemical_formula_structural   CaMn(GeO3)2
_chemical_formula_sum   'Ca2 Mn2 Ge4 O12'
_cell_volume   257.41629385
_cell_formula_units_Z   2
loop_
 _symmetry_equiv_pos_site_id
 _symmetry_equiv_pos_as_xyz
  1  'x, y, z'
loop_
 _atom_site_type_symbol
 _atom_site_label
 _atom_site_symmetry_multiplicity
 _atom_site_fract_x
 _atom_site_fract_y
 _atom_site_fract_z
 _atom_site_occupancy
  Ca  Ca0  1  0.750000  0.302249  0.697751  1
  Ca  Ca1  1  0.250000  0.697751  0.302249  1
  Mn  Mn2  1  0.750000  0.908730  0.091270  1
  Mn  Mn3  1  0.250000  0.091270  0.908730  1
  Ge  Ge4  1  0.771193  0.384386  0.189644  1
  Ge  Ge5  1  0.728807  0.810356  0.615614  1
  Ge  Ge6  1  0.228807  0.615614  0.810356  1
  Ge  Ge7  1  0.271193  0.189644  0.384386  1
  O  O8  1  0.521200  0.325021  0.391134  1
  O  O9  1  0.978800  0.608866  0.674979  1
  O  O10  1  0.478799  0.674979  0.608866  1
  O  O11  1  0.021201  0.391134  0.325021  1
  O  O12  1  0.151904  0.108885  0.621626  1
  O  O13  1  0.348096  0.378374  0.891115  1
  O  O14  1  0.848096  0.891115  0.378374  1
  O  O15  1  0.651904  0.621626  0.108885  1
  O  O16  1  0.857723  0.207996  0.019338  1
  O  O17  1  0.642277  0.980662  0.792004  1
  O  O18  1  0.142277  0.792004  0.980662  1
  O  O19  1  0.357723  0.019338  0.207996  1
