# generated using pymatgen
data_Sr2YTi2TlO7
_symmetry_space_group_name_H-M   'P 1'
_cell_length_a   3.91044608
_cell_length_b   3.91045661
_cell_length_c   12.82923831
_cell_angle_alpha   90.00005682
_cell_angle_beta   90.00006541
_cell_angle_gamma   89.99723195
_symmetry_Int_Tables_number   1
_chemical_formula_structural   Sr2YTi2TlO7
_chemical_formula_sum   'Sr2 Y1 Ti2 Tl1 O7'
_cell_volume   196.17996173
_cell_formula_units_Z   1
loop_
 _symmetry_equiv_pos_site_id
 _symmetry_equiv_pos_as_xyz
  1  'x, y, z'
loop_
 _atom_site_type_symbol
 _atom_site_label
 _atom_site_symmetry_multiplicity
 _atom_site_fract_x
 _atom_site_fract_y
 _atom_site_fract_z
 _atom_site_occupancy
  Sr  Sr0  1  0.500003  0.499998  0.814256  1
  Sr  Sr1  1  0.499999  0.500002  0.185757  1
  Y  Y2  1  0.500001  0.500000  0.499982  1
  Ti  Ti3  1  0.000003  -0.000005  0.638277  1
  Ti  Ti4  1  0.999996  0.999996  0.361670  1
  Tl  Tl5  1  1.000000  0.000001  0.999996  1
  O  O6  1  0.499999  -0.000003  0.615080  1
  O  O7  1  0.000001  0.500002  0.615081  1
  O  O8  1  0.499999  0.999998  0.384932  1
  O  O9  1  0.000000  0.499997  0.384932  1
  O  O10  1  0.000003  0.000006  0.786546  1
  O  O11  1  0.000001  0.000002  0.213504  1
  O  O12  1  0.499996  0.500008  -0.000012  1
