# generated using pymatgen
data_CaV2O4
_symmetry_space_group_name_H-M   'P 1'
_cell_length_a   6.28162540
_cell_length_b   6.28162571
_cell_length_c   6.28162549
_cell_angle_alpha   60.00000113
_cell_angle_beta   59.99999950
_cell_angle_gamma   60.00000484
_symmetry_Int_Tables_number   1
_chemical_formula_structural   CaV2O4
_chemical_formula_sum   'Ca2 V4 O8'
_cell_volume   175.26740253
_cell_formula_units_Z   2
loop_
 _symmetry_equiv_pos_site_id
 _symmetry_equiv_pos_as_xyz
  1  'x, y, z'
loop_
 _atom_site_type_symbol
 _atom_site_label
 _atom_site_symmetry_multiplicity
 _atom_site_fract_x
 _atom_site_fract_y
 _atom_site_fract_z
 _atom_site_occupancy
  Ca  Ca0  1  0.875000  0.875000  0.875000  1
  Ca  Ca1  1  0.125000  0.125000  0.125000  1
  V  V2  1  0.500000  0.000000  0.500000  1
  V  V3  1  0.000000  0.500000  0.500000  1
  V  V4  1  0.500000  0.500000  0.000000  1
  V  V5  1  0.500000  0.500000  0.500000  1
  O  O6  1  0.732526  0.732526  0.732526  1
  O  O7  1  0.267474  0.267474  0.697578  1
  O  O8  1  0.267474  0.697578  0.267474  1
  O  O9  1  0.697578  0.267474  0.267474  1
  O  O10  1  0.732526  0.302422  0.732526  1
  O  O11  1  0.302422  0.732526  0.732526  1
  O  O12  1  0.267474  0.267474  0.267474  1
  O  O13  1  0.732526  0.732526  0.302422  1
