# generated using pymatgen
data_Mn2ZnO4
_symmetry_space_group_name_H-M   'P 1'
_cell_length_a   5.81762350
_cell_length_b   5.81762420
_cell_length_c   6.25063419
_cell_angle_alpha   117.73369478
_cell_angle_beta   117.73369838
_cell_angle_gamma   89.99999520
_symmetry_Int_Tables_number   1
_chemical_formula_structural   Mn2ZnO4
_chemical_formula_sum   'Mn4 Zn2 O8'
_cell_volume   159.27920607
_cell_formula_units_Z   2
loop_
 _symmetry_equiv_pos_site_id
 _symmetry_equiv_pos_as_xyz
  1  'x, y, z'
loop_
 _atom_site_type_symbol
 _atom_site_label
 _atom_site_symmetry_multiplicity
 _atom_site_fract_x
 _atom_site_fract_y
 _atom_site_fract_z
 _atom_site_occupancy
  Mn  Mn0  1  0.000000  0.000000  0.500000  1
  Mn  Mn1  1  0.000000  0.500000  0.000000  1
  Mn  Mn2  1  0.500000  0.000000  0.500000  1
  Mn  Mn3  1  0.000000  0.000000  0.000000  1
  Zn  Zn4  1  0.375000  0.625000  0.750000  1
  Zn  Zn5  1  0.625000  0.375000  0.250000  1
  O  O6  1  0.754662  0.778367  0.509324  1
  O  O7  1  0.769045  0.245338  0.990676  1
  O  O8  1  0.221633  0.245338  0.990676  1
  O  O9  1  0.245338  0.221633  0.490676  1
  O  O10  1  0.245338  0.769045  0.490676  1
  O  O11  1  0.230955  0.754662  0.009324  1
  O  O12  1  0.754662  0.230955  0.509324  1
  O  O13  1  0.778367  0.754662  0.009324  1
