# generated using pymatgen
data_HoCr2O6
_symmetry_space_group_name_H-M   'P 1'
_cell_length_a   5.11840269
_cell_length_b   5.45324726
_cell_length_c   7.44139801
_cell_angle_alpha   90.00255685
_cell_angle_beta   90.18120656
_cell_angle_gamma   90.02310394
_symmetry_Int_Tables_number   1
_chemical_formula_structural   HoCr2O6
_chemical_formula_sum   'Ho2 Cr4 O12'
_cell_volume   207.70261602
_cell_formula_units_Z   2
loop_
 _symmetry_equiv_pos_site_id
 _symmetry_equiv_pos_as_xyz
  1  'x, y, z'
loop_
 _atom_site_type_symbol
 _atom_site_label
 _atom_site_symmetry_multiplicity
 _atom_site_fract_x
 _atom_site_fract_y
 _atom_site_fract_z
 _atom_site_occupancy
  Ho  Ho0  1  0.016785  0.912067  0.750212  1
  Ho  Ho1  1  0.516968  0.588048  0.251330  1
  Cr  Cr2  1  0.023536  0.470674  0.995020  1
  Cr  Cr3  1  0.023979  0.474159  0.506533  1
  Cr  Cr4  1  0.522058  0.028694  0.495688  1
  Cr  Cr5  1  0.525004  0.026404  0.007193  1
  O  O6  1  0.095004  0.472039  0.255537  1
  O  O7  1  0.194534  0.189257  0.945561  1
  O  O8  1  0.187779  0.194520  0.553221  1
  O  O9  1  0.278622  0.706347  0.962497  1
  O  O10  1  0.276973  0.706498  0.534374  1
  O  O11  1  0.415108  0.989576  0.245257  1
  O  O12  1  0.595409  0.027745  0.755612  1
  O  O13  1  0.693427  0.310316  0.446253  1
  O  O14  1  0.688234  0.305982  0.053625  1
  O  O15  1  0.775690  0.793953  0.034627  1
  O  O16  1  0.779706  0.793386  0.462387  1
  O  O17  1  0.915287  0.510332  0.745072  1
