# generated using pymatgen
data_Mg(SbO2)2
_symmetry_space_group_name_H-M   'P 1'
_cell_length_a   3.08421708
_cell_length_b   9.53200817
_cell_length_c   13.63664191
_cell_angle_alpha   89.99908741
_cell_angle_beta   90.00146134
_cell_angle_gamma   90.03024444
_symmetry_Int_Tables_number   1
_chemical_formula_structural   Mg(SbO2)2
_chemical_formula_sum   'Mg4 Sb8 O16'
_cell_volume   400.90061205
_cell_formula_units_Z   4
loop_
 _symmetry_equiv_pos_site_id
 _symmetry_equiv_pos_as_xyz
  1  'x, y, z'
loop_
 _atom_site_type_symbol
 _atom_site_label
 _atom_site_symmetry_multiplicity
 _atom_site_fract_x
 _atom_site_fract_y
 _atom_site_fract_z
 _atom_site_occupancy
  Mg  Mg0  1  0.750272  0.209127  0.348459  1
  Mg  Mg1  1  0.249757  0.790881  0.651540  1
  Mg  Mg2  1  0.750236  0.709167  0.151527  1
  Mg  Mg3  1  0.249666  0.290831  0.848471  1
  Sb  Sb4  1  0.249810  0.399387  0.103420  1
  Sb  Sb5  1  0.750145  0.100551  0.603460  1
  Sb  Sb6  1  0.249874  0.899473  0.396542  1
  Sb  Sb7  1  0.750135  0.600597  0.896572  1
  Sb  Sb8  1  0.750600  0.542465  0.351121  1
  Sb  Sb9  1  0.250033  0.457554  0.648878  1
  Sb  Sb10  1  0.750187  0.042470  0.148873  1
  Sb  Sb11  1  0.249646  0.957504  0.851127  1
  O  O12  1  0.249477  0.882224  0.136385  1
  O  O13  1  0.750663  0.117771  0.863618  1
  O  O14  1  0.249373  0.382242  0.363622  1
  O  O15  1  0.750365  0.617759  0.636375  1
  O  O16  1  0.250151  0.053652  0.699382  1
  O  O17  1  0.749870  0.946350  0.300623  1
  O  O18  1  0.250091  0.553621  0.800543  1
  O  O19  1  0.749843  0.446381  0.199467  1
  O  O20  1  0.250161  0.602893  0.065946  1
  O  O21  1  0.749783  0.397093  0.934054  1
  O  O22  1  0.250204  0.102841  0.434078  1
  O  O23  1  0.749822  0.897164  0.565917  1
  O  O24  1  0.750148  0.841354  0.769380  1
  O  O25  1  0.249988  0.158652  0.230619  1
  O  O26  1  0.249835  0.658641  0.269400  1
  O  O27  1  0.749851  0.341352  0.730598  1
