# generated using pymatgen
data_YMn2O4
_symmetry_space_group_name_H-M   'P 1'
_cell_length_a   5.74382912
_cell_length_b   5.74284882
_cell_length_c   6.38680003
_cell_angle_alpha   116.68701747
_cell_angle_beta   116.69193639
_cell_angle_gamma   90.05998142
_symmetry_Int_Tables_number   1
_chemical_formula_structural   YMn2O4
_chemical_formula_sum   'Y2 Mn4 O8'
_cell_volume   162.65611821
_cell_formula_units_Z   2
loop_
 _symmetry_equiv_pos_site_id
 _symmetry_equiv_pos_as_xyz
  1  'x, y, z'
loop_
 _atom_site_type_symbol
 _atom_site_label
 _atom_site_symmetry_multiplicity
 _atom_site_fract_x
 _atom_site_fract_y
 _atom_site_fract_z
 _atom_site_occupancy
  Y  Y0  1  0.875035  0.125035  0.750070  1
  Y  Y1  1  0.124965  0.874965  0.249930  1
  Mn  Mn2  1  0.500000  0.000000  0.000000  1
  Mn  Mn3  1  0.500000  0.500000  0.000000  1
  Mn  Mn4  1  0.000000  0.500000  0.500000  1
  Mn  Mn5  1  0.500000  0.500000  0.500000  1
  O  O6  1  0.721889  0.523478  0.852156  1
  O  O7  1  0.130267  0.828678  0.852156  1
  O  O8  1  0.278111  0.476522  0.147844  1
  O  O9  1  0.869733  0.171322  0.147844  1
  O  O10  1  0.523907  0.130551  0.352196  1
  O  O11  1  0.828289  0.721645  0.352196  1
  O  O12  1  0.171711  0.278355  0.647804  1
  O  O13  1  0.476093  0.869449  0.647804  1
