# generated using pymatgen
data_Ca(MoO2)4
_symmetry_space_group_name_H-M   'P 1'
_cell_length_a   3.29391157
_cell_length_b   7.20634479
_cell_length_c   7.30908132
_cell_angle_alpha   87.35605043
_cell_angle_beta   78.04313513
_cell_angle_gamma   78.88058482
_symmetry_Int_Tables_number   1
_chemical_formula_structural   Ca(MoO2)4
_chemical_formula_sum   'Ca1 Mo4 O8'
_cell_volume   166.54216219
_cell_formula_units_Z   1
loop_
 _symmetry_equiv_pos_site_id
 _symmetry_equiv_pos_as_xyz
  1  'x, y, z'
loop_
 _atom_site_type_symbol
 _atom_site_label
 _atom_site_symmetry_multiplicity
 _atom_site_fract_x
 _atom_site_fract_y
 _atom_site_fract_z
 _atom_site_occupancy
  Ca  Ca0  1  0.485620  0.997544  0.031557  1
  Mo  Mo1  1  0.616547  0.175008  0.562613  1
  Mo  Mo2  1  0.136567  0.470058  0.208874  1
  Mo  Mo3  1  0.832086  0.526258  0.857547  1
  Mo  Mo4  1  0.352069  0.821605  0.503627  1
  O  O5  1  0.844344  0.709625  0.639990  1
  O  O6  1  0.445769  0.384395  0.753090  1
  O  O7  1  0.522286  0.611988  0.313788  1
  O  O8  1  0.125499  0.287291  0.425808  1
  O  O9  1  0.118310  0.038369  0.717758  1
  O  O10  1  0.780119  0.311655  0.077934  1
  O  O11  1  0.849930  0.957058  0.348826  1
  O  O12  1  0.188336  0.685253  0.989235  1
