# generated using pymatgen
data_Ca(FeS2)2
_symmetry_space_group_name_H-M   'P 1'
_cell_length_a   7.22876415
_cell_length_b   7.22276009
_cell_length_c   7.24236910
_cell_angle_alpha   119.76175095
_cell_angle_beta   120.38209507
_cell_angle_gamma   89.68874401
_symmetry_Int_Tables_number   1
_chemical_formula_structural   Ca(FeS2)2
_chemical_formula_sum   'Ca2 Fe4 S8'
_cell_volume   267.51429632
_cell_formula_units_Z   2
loop_
 _symmetry_equiv_pos_site_id
 _symmetry_equiv_pos_as_xyz
  1  'x, y, z'
loop_
 _atom_site_type_symbol
 _atom_site_label
 _atom_site_symmetry_multiplicity
 _atom_site_fract_x
 _atom_site_fract_y
 _atom_site_fract_z
 _atom_site_occupancy
  Ca  Ca0  1  0.000009  0.500011  0.999998  1
  Ca  Ca1  1  -0.000002  0.000013  0.499993  1
  Fe  Fe2  1  0.379831  0.629889  0.749949  1
  Fe  Fe3  1  0.620116  0.370063  0.250043  1
  Fe  Fe4  1  0.500009  0.000007  0.500035  1
  Fe  Fe5  1  0.999965  0.999966  0.999961  1
  S  S6  1  0.739003  0.775050  0.538937  1
  S  S7  1  0.735863  0.200123  0.960870  1
  S  S8  1  0.248421  0.225638  0.019593  1
  S  S9  1  0.261029  0.224998  0.461122  1
  S  S10  1  0.293881  0.772065  0.518661  1
  S  S11  1  0.264166  0.799855  0.039101  1
  S  S12  1  0.706127  0.227937  0.481347  1
  S  S13  1  0.751584  0.774391  0.980393  1
