# generated using pymatgen
data_Co(GeO3)2
_symmetry_space_group_name_H-M   'P 1'
_cell_length_a   5.49960469
_cell_length_b   8.95063620
_cell_length_c   10.29665315
_cell_angle_alpha   90.00000000
_cell_angle_beta   107.07201301
_cell_angle_gamma   90.00000000
_symmetry_Int_Tables_number   1
_chemical_formula_structural   Co(GeO3)2
_chemical_formula_sum   'Co4 Ge8 O24'
_cell_volume   484.51867421
_cell_formula_units_Z   4
loop_
 _symmetry_equiv_pos_site_id
 _symmetry_equiv_pos_as_xyz
  1  'x, y, z'
loop_
 _atom_site_type_symbol
 _atom_site_label
 _atom_site_symmetry_multiplicity
 _atom_site_fract_x
 _atom_site_fract_y
 _atom_site_fract_z
 _atom_site_occupancy
  Co  Co0  1  -0.018440  0.649400  0.241311  1
  Co  Co1  1  0.518440  0.149400  0.758689  1
  Co  Co2  1  0.018440  0.350600  0.758689  1
  Co  Co3  1  0.481560  0.850600  0.241311  1
  Ge  Ge4  1  0.857374  0.333082  0.048377  1
  Ge  Ge5  1  0.642626  0.833082  0.951623  1
  Ge  Ge6  1  0.142626  0.666918  0.951623  1
  Ge  Ge7  1  0.357374  0.166918  0.048377  1
  Ge  Ge8  1  0.111525  0.342107  0.478983  1
  Ge  Ge9  1  0.388475  0.842107  0.521017  1
  Ge  Ge10  1  0.888475  0.657893  0.521017  1
  Ge  Ge11  1  0.611525  0.157893  0.478983  1
  O  O12  1  0.354758  0.279162  0.406848  1
  O  O13  1  0.145242  0.779162  0.593152  1
  O  O14  1  0.645242  0.720838  0.593152  1
  O  O15  1  0.854758  0.220838  0.406848  1
  O  O16  1  0.186104  0.298087  0.114704  1
  O  O17  1  0.313896  0.798087  0.885296  1
  O  O18  1  0.813896  0.701913  0.885297  1
  O  O19  1  0.686104  0.201913  0.114703  1
  O  O20  1  0.594688  0.968938  0.406812  1
  O  O21  1  0.905312  0.468938  0.593188  1
  O  O22  1  0.405312  0.031062  0.593188  1
  O  O23  1  0.094688  0.531062  0.406812  1
  O  O24  1  0.318018  0.991020  0.119107  1
  O  O25  1  0.181982  0.491020  0.880893  1
  O  O26  1  0.681982  0.008980  0.880893  1
  O  O27  1  0.818018  0.508980  0.119107  1
  O  O28  1  0.762562  0.320702  0.867042  1
  O  O29  1  0.737438  0.820702  0.132958  1
  O  O30  1  0.237438  0.679298  0.132958  1
  O  O31  1  0.262562  0.179298  0.867042  1
  O  O32  1  0.268078  0.299760  0.658789  1
  O  O33  1  0.231922  0.799760  0.341211  1
  O  O34  1  0.731922  0.700240  0.341211  1
  O  O35  1  0.768078  0.200240  0.658789  1
