# generated using pymatgen
data_Mg2TaCuO6
_symmetry_space_group_name_H-M   'P 1'
_cell_length_a   5.16164040
_cell_length_b   5.43788928
_cell_length_c   7.51650266
_cell_angle_alpha   90.00000000
_cell_angle_beta   90.00000000
_cell_angle_gamma   86.51290014
_symmetry_Int_Tables_number   1
_chemical_formula_structural   Mg2TaCuO6
_chemical_formula_sum   'Mg4 Ta2 Cu2 O12'
_cell_volume   210.58580234
_cell_formula_units_Z   2
loop_
 _symmetry_equiv_pos_site_id
 _symmetry_equiv_pos_as_xyz
  1  'x, y, z'
loop_
 _atom_site_type_symbol
 _atom_site_label
 _atom_site_symmetry_multiplicity
 _atom_site_fract_x
 _atom_site_fract_y
 _atom_site_fract_z
 _atom_site_occupancy
  Mg  Mg0  1  0.026896  0.948941  0.250000  1
  Mg  Mg1  1  0.493774  0.428244  0.250000  1
  Mg  Mg2  1  0.506226  0.571756  0.750000  1
  Mg  Mg3  1  0.973104  0.051059  0.750000  1
  Ta  Ta4  1  0.000000  0.500000  0.000000  1
  Ta  Ta5  1  0.000000  0.500000  0.500000  1
  Cu  Cu6  1  0.500000  0.000000  0.000000  1
  Cu  Cu7  1  0.500000  0.000000  0.500000  1
  O  O8  1  0.818237  0.818315  0.565431  1
  O  O9  1  0.306017  0.674742  0.429284  1
  O  O10  1  0.181763  0.181685  0.434569  1
  O  O11  1  0.693983  0.325258  0.929284  1
  O  O12  1  0.136132  0.448808  0.750000  1
  O  O13  1  0.693983  0.325258  0.570716  1
  O  O14  1  0.306017  0.674742  0.070716  1
  O  O15  1  0.818237  0.818315  0.934569  1
  O  O16  1  0.632581  0.064167  0.250000  1
  O  O17  1  0.181763  0.181685  0.065431  1
  O  O18  1  0.367419  0.935833  0.750000  1
  O  O19  1  0.863868  0.551192  0.250000  1
