# generated using pymatgen
data_Zn(FeS2)4
_symmetry_space_group_name_H-M   'P 1'
_cell_length_a   7.28458411
_cell_length_b   7.28458386
_cell_length_c   7.28458501
_cell_angle_alpha   53.69493388
_cell_angle_beta   53.69492889
_cell_angle_gamma   53.69493491
_symmetry_Int_Tables_number   1
_chemical_formula_structural   Zn(FeS2)4
_chemical_formula_sum   'Zn1 Fe4 S8'
_cell_volume   233.03850808
_cell_formula_units_Z   1
loop_
 _symmetry_equiv_pos_site_id
 _symmetry_equiv_pos_as_xyz
  1  'x, y, z'
loop_
 _atom_site_type_symbol
 _atom_site_label
 _atom_site_symmetry_multiplicity
 _atom_site_fract_x
 _atom_site_fract_y
 _atom_site_fract_z
 _atom_site_occupancy
  Zn  Zn0  1  0.500000  0.500001  0.499999  1
  Fe  Fe1  1  0.500001  0.999999  0.500001  1
  Fe  Fe2  1  0.999999  0.500000  0.500001  1
  Fe  Fe3  1  0.500000  0.500000  0.000000  1
  Fe  Fe4  1  0.000000  0.000000  0.000000  1
  S  S5  1  0.757332  0.271637  0.757332  1
  S  S6  1  0.242667  0.242668  0.728363  1
  S  S7  1  0.242667  0.728364  0.242667  1
  S  S8  1  0.728362  0.242668  0.242668  1
  S  S9  1  0.263466  0.263467  0.263466  1
  S  S10  1  0.736534  0.736534  0.736534  1
  S  S11  1  0.271638  0.757333  0.757332  1
  S  S12  1  0.757333  0.757333  0.271637  1
