# generated using pymatgen
data_Mn2Zn(PO4)2
_symmetry_space_group_name_H-M   'P 1'
_cell_length_a   4.98901714
_cell_length_b   8.64910303
_cell_length_c   15.68283695
_cell_angle_alpha   88.18242553
_cell_angle_beta   80.84768128
_cell_angle_gamma   73.23706224
_symmetry_Int_Tables_number   1
_chemical_formula_structural   Mn2Zn(PO4)2
_chemical_formula_sum   'Mn8 Zn4 P8 O32'
_cell_volume   639.64512579
_cell_formula_units_Z   4
loop_
 _symmetry_equiv_pos_site_id
 _symmetry_equiv_pos_as_xyz
  1  'x, y, z'
loop_
 _atom_site_type_symbol
 _atom_site_label
 _atom_site_symmetry_multiplicity
 _atom_site_fract_x
 _atom_site_fract_y
 _atom_site_fract_z
 _atom_site_occupancy
  Mn  Mn0  1  0.217787  0.206662  0.967850  1
  Mn  Mn1  1  0.392298  0.293338  0.532150  1
  Mn  Mn2  1  0.782213  0.793338  0.032150  1
  Mn  Mn3  1  0.500000  0.500000  -0.000000  1
  Mn  Mn4  1  0.607702  0.706662  0.467850  1
  Mn  Mn5  1  0.581517  0.750000  0.250000  1
  Mn  Mn6  1  0.418483  0.250000  0.750000  1
  Mn  Mn7  1  0.000000  -0.000000  0.500000  1
  Zn  Zn8  1  0.466652  0.824530  0.842075  1
  Zn  Zn9  1  0.133257  0.675470  0.657925  1
  Zn  Zn10  1  0.866743  0.324530  0.342075  1
  Zn  Zn11  1  0.533348  0.175470  0.157925  1
  P  P12  1  0.067835  0.567865  0.863723  1
  P  P13  1  0.765929  0.432022  0.618006  1
  P  P14  1  0.932165  0.432135  0.136277  1
  P  P15  1  0.184042  0.932022  0.118006  1
  P  P16  1  0.500578  0.067865  0.363723  1
  P  P17  1  0.499422  0.932135  0.636277  1
  P  P18  1  0.234071  0.567978  0.381994  1
  P  P19  1  0.815958  0.067978  0.881994  1
  O  O20  1  0.692723  0.367070  0.110177  1
  O  O21  1  0.705077  0.920434  0.915329  1
  O  O22  1  0.830030  0.867070  0.610177  1
  O  O23  1  0.817345  0.284006  0.556543  1
  O  O24  1  0.177903  0.397528  0.057692  1
  O  O25  1  0.647679  0.406640  0.710724  1
  O  O26  1  0.657896  0.215994  0.943457  1
  O  O27  1  0.861296  0.970057  0.110046  1
  O  O28  1  0.182655  0.715994  0.443457  1
  O  O29  1  0.540841  0.579566  0.584671  1
  O  O30  1  0.830297  0.619604  0.144390  1
  O  O31  1  0.603828  0.152002  0.282153  1
  O  O32  1  0.294923  0.079566  0.084671  1
  O  O33  1  0.058602  0.470057  0.610046  1
  O  O34  1  0.307276  0.632930  0.889823  1
  O  O35  1  0.169703  0.380396  0.855610  1
  O  O36  1  0.962017  0.652002  0.782153  1
  O  O37  1  0.342104  0.784006  0.056543  1
  O  O38  1  0.405709  0.119604  0.644390  1
  O  O39  1  0.396172  0.847998  0.717847  1
  O  O40  1  0.941398  0.529943  0.389954  1
  O  O41  1  0.366876  0.897528  0.557692  1
  O  O42  1  0.138704  0.029943  0.889954  1
  O  O43  1  0.234956  0.906640  0.210724  1
  O  O44  1  0.459159  0.420434  0.415329  1
  O  O45  1  0.169970  0.132930  0.389823  1
  O  O46  1  0.037983  0.347998  0.217847  1
  O  O47  1  0.633124  0.102472  0.442308  1
  O  O48  1  0.822097  0.602472  0.942308  1
  O  O49  1  0.765044  0.093360  0.789276  1
  O  O50  1  0.352321  0.593360  0.289276  1
  O  O51  1  0.594291  0.880396  0.355610  1
