# generated using pymatgen
data_Ba2YMn3O7
_symmetry_space_group_name_H-M   'P 1'
_cell_length_a   3.94728586
_cell_length_b   4.07419842
_cell_length_c   11.86043973
_cell_angle_alpha   89.99976974
_cell_angle_beta   89.99992027
_cell_angle_gamma   89.99405353
_symmetry_Int_Tables_number   1
_chemical_formula_structural   Ba2YMn3O7
_chemical_formula_sum   'Ba2 Y1 Mn3 O7'
_cell_volume   190.73989644
_cell_formula_units_Z   1
loop_
 _symmetry_equiv_pos_site_id
 _symmetry_equiv_pos_as_xyz
  1  'x, y, z'
loop_
 _atom_site_type_symbol
 _atom_site_label
 _atom_site_symmetry_multiplicity
 _atom_site_fract_x
 _atom_site_fract_y
 _atom_site_fract_z
 _atom_site_occupancy
  Ba  Ba0  1  0.500004  0.500002  0.819228  1
  Ba  Ba1  1  0.500001  0.500001  0.180783  1
  Y  Y2  1  0.500002  0.500003  0.499998  1
  Mn  Mn3  1  0.000000  -0.000005  0.654128  1
  Mn  Mn4  1  0.999986  -0.000006  0.345867  1
  Mn  Mn5  1  0.000002  0.999996  0.000001  1
  O  O6  1  0.999995  0.499999  0.000007  1
  O  O7  1  0.499999  0.000002  0.619303  1
  O  O8  1  0.500002  0.999998  0.380685  1
  O  O9  1  0.000007  0.500007  0.620473  1
  O  O10  1  0.999999  0.500004  0.379518  1
  O  O11  1  0.000004  0.000001  0.833516  1
  O  O12  1  0.999997  0.000000  0.166491  1
