# generated using pymatgen
data_MgCuW2O7
_symmetry_space_group_name_H-M   'P 1'
_cell_length_a   8.94110829
_cell_length_b   9.33509874
_cell_length_c   11.37407058
_cell_angle_alpha   102.46948821
_cell_angle_beta   90.00000000
_cell_angle_gamma   90.00000000
_symmetry_Int_Tables_number   1
_chemical_formula_structural   MgCuW2O7
_chemical_formula_sum   'Mg6 Cu6 W12 O42'
_cell_volume   926.95555390
_cell_formula_units_Z   6
loop_
 _symmetry_equiv_pos_site_id
 _symmetry_equiv_pos_as_xyz
  1  'x, y, z'
loop_
 _atom_site_type_symbol
 _atom_site_label
 _atom_site_symmetry_multiplicity
 _atom_site_fract_x
 _atom_site_fract_y
 _atom_site_fract_z
 _atom_site_occupancy
  Mg  Mg0  1  0.431382  0.153255  0.577435  1
  Mg  Mg1  1  0.935498  0.500000  0.750000  1
  Mg  Mg2  1  0.431382  0.846745  0.922565  1
  Mg  Mg3  1  0.064502  0.500000  0.250000  1
  Mg  Mg4  1  0.568618  0.846745  0.422565  1
  Mg  Mg5  1  0.568618  0.153255  0.077435  1
  Cu  Cu6  1  0.933070  0.820712  0.405082  1
  Cu  Cu7  1  0.066930  0.179288  0.594918  1
  Cu  Cu8  1  0.433558  0.500000  0.250000  1
  Cu  Cu9  1  0.933070  0.179288  0.094918  1
  Cu  Cu10  1  0.566442  0.500000  0.750000  1
  Cu  Cu11  1  0.066930  0.820712  0.905082  1
  W  W12  1  0.247291  0.206786  0.293528  1
  W  W13  1  0.764630  0.121033  0.374344  1
  W  W14  1  0.235370  0.121033  0.874344  1
  W  W15  1  0.752709  0.206786  0.793528  1
  W  W16  1  0.266275  0.538177  0.960844  1
  W  W17  1  0.764630  0.878967  0.125656  1
  W  W18  1  0.733725  0.538177  0.460844  1
  W  W19  1  0.235370  0.878967  0.625656  1
  W  W20  1  0.266275  0.461823  0.539156  1
  W  W21  1  0.733725  0.461823  0.039156  1
  W  W22  1  0.752709  0.793214  0.706472  1
  W  W23  1  0.247291  0.793214  0.206472  1
  O  O24  1  0.739107  0.226271  0.971314  1
  O  O25  1  0.763312  0.890156  0.306532  1
  O  O26  1  0.800608  0.000000  0.750000  1
  O  O27  1  0.908570  0.447192  0.114354  1
  O  O28  1  0.412413  0.921403  0.550625  1
  O  O29  1  0.922957  0.272919  0.722042  1
  O  O30  1  0.287243  0.336710  0.918343  1
  O  O31  1  0.091430  0.447192  0.614354  1
  O  O32  1  0.743582  0.446465  0.866196  1
  O  O33  1  0.412413  0.078597  0.949375  1
  O  O34  1  0.743582  0.553535  0.633804  1
  O  O35  1  0.430883  0.591332  0.884552  1
  O  O36  1  0.943119  0.865568  0.050682  1
  O  O37  1  0.077043  0.272919  0.222042  1
  O  O38  1  0.712757  0.663290  0.081657  1
  O  O39  1  0.287243  0.663290  0.581657  1
  O  O40  1  0.922957  0.727081  0.777958  1
  O  O41  1  0.587587  0.078597  0.449375  1
  O  O42  1  0.260893  0.226271  0.471314  1
  O  O43  1  0.569117  0.408668  0.115448  1
  O  O44  1  0.424670  0.797110  0.282903  1
  O  O45  1  0.256418  0.553535  0.133804  1
  O  O46  1  0.056881  0.865568  0.550682  1
  O  O47  1  0.256418  0.446465  0.366196  1
  O  O48  1  0.908570  0.552808  0.385646  1
  O  O49  1  0.569117  0.591332  0.384552  1
  O  O50  1  0.091430  0.552808  0.885646  1
  O  O51  1  0.575330  0.797110  0.782903  1
  O  O52  1  0.575330  0.202890  0.717097  1
  O  O53  1  0.056881  0.134432  0.949318  1
  O  O54  1  0.077043  0.727081  0.277958  1
  O  O55  1  0.739107  0.773729  0.528686  1
  O  O56  1  0.199392  0.000000  0.250000  1
  O  O57  1  0.236688  0.890156  0.806532  1
  O  O58  1  0.587587  0.921403  0.050625  1
  O  O59  1  0.943119  0.134432  0.449318  1
  O  O60  1  0.260893  0.773729  0.028686  1
  O  O61  1  0.763312  0.109844  0.193468  1
  O  O62  1  0.430883  0.408668  0.615448  1
  O  O63  1  0.712757  0.336710  0.418343  1
  O  O64  1  0.236688  0.109844  0.693468  1
  O  O65  1  0.424670  0.202890  0.217097  1
