# generated using pymatgen
data_SrZnCr(PO4)2
_symmetry_space_group_name_H-M   'P 1'
_cell_length_a   5.60995034
_cell_length_b   6.95922174
_cell_length_c   9.39964034
_cell_angle_alpha   109.39576075
_cell_angle_beta   102.65584290
_cell_angle_gamma   98.79594485
_symmetry_Int_Tables_number   1
_chemical_formula_structural   SrZnCr(PO4)2
_chemical_formula_sum   'Sr2 Zn2 Cr2 P4 O16'
_cell_volume   327.42259127
_cell_formula_units_Z   2
loop_
 _symmetry_equiv_pos_site_id
 _symmetry_equiv_pos_as_xyz
  1  'x, y, z'
loop_
 _atom_site_type_symbol
 _atom_site_label
 _atom_site_symmetry_multiplicity
 _atom_site_fract_x
 _atom_site_fract_y
 _atom_site_fract_z
 _atom_site_occupancy
  Sr  Sr0  1  0.252507  0.799855  0.053074  1
  Sr  Sr1  1  0.747493  0.200145  0.946926  1
  Zn  Zn2  1  0.996020  0.379948  0.641421  1
  Zn  Zn3  1  0.003980  0.620052  0.358579  1
  Cr  Cr4  1  0.635921  0.840215  0.546595  1
  Cr  Cr5  1  0.364079  0.159785  0.453405  1
  P  P6  1  0.390334  0.421376  0.232233  1
  P  P7  1  0.609666  0.578624  0.767767  1
  P  P8  1  0.834576  0.019836  0.296343  1
  P  P9  1  0.165424  0.980164  0.703657  1
  O  O10  1  0.808687  0.563890  0.902507  1
  O  O11  1  0.660938  0.479396  0.216559  1
  O  O12  1  0.659187  0.797695  0.757757  1
  O  O13  1  0.948276  0.103380  0.688434  1
  O  O14  1  0.339062  0.520604  0.783441  1
  O  O15  1  0.038224  0.747260  0.589105  1
  O  O16  1  0.961776  0.252740  0.410895  1
  O  O17  1  0.266414  0.003749  0.873946  1
  O  O18  1  0.340813  0.202305  0.242243  1
  O  O19  1  0.733586  0.996251  0.126055  1
  O  O20  1  0.191313  0.436110  0.097493  1
  O  O21  1  0.357962  0.582286  0.389140  1
  O  O22  1  0.642038  0.417714  0.610860  1
  O  O23  1  0.618162  0.924716  0.351095  1
  O  O24  1  0.051724  0.896620  0.311566  1
  O  O25  1  0.381838  0.075284  0.648905  1
