# generated using pymatgen
data_MgCuO2
_symmetry_space_group_name_H-M   'P 1'
_cell_length_a   2.87889776
_cell_length_b   8.08172040
_cell_length_c   7.56488043
_cell_angle_alpha   96.10389626
_cell_angle_beta   89.71190766
_cell_angle_gamma   69.11622332
_symmetry_Int_Tables_number   1
_chemical_formula_structural   MgCuO2
_chemical_formula_sum   'Mg4 Cu4 O8'
_cell_volume   163.33814407
_cell_formula_units_Z   4
loop_
 _symmetry_equiv_pos_site_id
 _symmetry_equiv_pos_as_xyz
  1  'x, y, z'
loop_
 _atom_site_type_symbol
 _atom_site_label
 _atom_site_symmetry_multiplicity
 _atom_site_fract_x
 _atom_site_fract_y
 _atom_site_fract_z
 _atom_site_occupancy
  Mg  Mg0  1  0.196708  0.036032  0.188451  1
  Mg  Mg1  1  0.796647  0.945061  0.840202  1
  Mg  Mg2  1  0.060782  0.675526  0.080497  1
  Mg  Mg3  1  0.935041  0.305820  0.948034  1
  Cu  Cu4  1  0.564268  0.175711  0.570089  1
  Cu  Cu5  1  0.337384  0.397259  0.304580  1
  Cu  Cu6  1  0.660769  0.583398  0.724980  1
  Cu  Cu7  1  0.434302  0.799096  0.454961  1
  O  O8  1  0.018731  0.722088  0.614058  1
  O  O9  1  0.272576  0.471049  0.848773  1
  O  O10  1  0.724039  0.511692  0.182006  1
  O  O11  1  0.980266  0.254913  0.413291  1
  O  O12  1  0.141023  0.100679  0.720371  1
  O  O13  1  0.579151  0.157845  0.054270  1
  O  O14  1  0.851946  0.879181  0.307027  1
  O  O15  1  0.414642  0.823984  0.974026  1
