# generated using pymatgen
data_YAgO3
_symmetry_space_group_name_H-M   'P 1'
_cell_length_a   5.49373897
_cell_length_b   6.02797243
_cell_length_c   7.93753594
_cell_angle_alpha   90.00000000
_cell_angle_beta   90.00000000
_cell_angle_gamma   90.00000000
_symmetry_Int_Tables_number   1
_chemical_formula_structural   YAgO3
_chemical_formula_sum   'Y4 Ag4 O12'
_cell_volume   262.86028989
_cell_formula_units_Z   4
loop_
 _symmetry_equiv_pos_site_id
 _symmetry_equiv_pos_as_xyz
  1  'x, y, z'
loop_
 _atom_site_type_symbol
 _atom_site_label
 _atom_site_symmetry_multiplicity
 _atom_site_fract_x
 _atom_site_fract_y
 _atom_site_fract_z
 _atom_site_occupancy
  Y  Y0  1  0.031187  0.914459  0.750000  1
  Y  Y1  1  0.531187  0.585541  0.250000  1
  Y  Y2  1  0.468813  0.414459  0.750000  1
  Y  Y3  1  0.968813  0.085541  0.250000  1
  Ag  Ag4  1  0.000000  0.500000  0.500000  1
  Ag  Ag5  1  0.500000  0.000000  0.500000  1
  Ag  Ag6  1  0.500000  0.000000  0.000000  1
  Ag  Ag7  1  0.000000  0.500000  0.000000  1
  O  O8  1  0.696401  0.319782  0.427738  1
  O  O9  1  0.196401  0.180218  0.572262  1
  O  O10  1  0.803599  0.819782  0.072262  1
  O  O11  1  0.303599  0.680218  0.927738  1
  O  O12  1  0.303599  0.680218  0.572262  1
  O  O13  1  0.803599  0.819782  0.427738  1
  O  O14  1  0.196401  0.180218  0.927738  1
  O  O15  1  0.696401  0.319782  0.072262  1
  O  O16  1  0.148662  0.436224  0.250000  1
  O  O17  1  0.648662  0.063776  0.750000  1
  O  O18  1  0.351338  0.936224  0.250000  1
  O  O19  1  0.851338  0.563776  0.750000  1
