# generated using pymatgen
data_Ni5O7
_symmetry_space_group_name_H-M   'P 1'
_cell_length_a   2.90690213
_cell_length_b   5.12726510
_cell_length_c   16.97827063
_cell_angle_alpha   90.00000000
_cell_angle_beta   90.00000000
_cell_angle_gamma   106.46770400
_symmetry_Int_Tables_number   1
_chemical_formula_structural   Ni5O7
_chemical_formula_sum   'Ni10 O14'
_cell_volume   242.67164640
_cell_formula_units_Z   2
loop_
 _symmetry_equiv_pos_site_id
 _symmetry_equiv_pos_as_xyz
  1  'x, y, z'
loop_
 _atom_site_type_symbol
 _atom_site_label
 _atom_site_symmetry_multiplicity
 _atom_site_fract_x
 _atom_site_fract_y
 _atom_site_fract_z
 _atom_site_occupancy
  Ni  Ni0  1  0.268522  0.537042  0.579075  1
  Ni  Ni1  1  0.000000  0.000000  0.500000  1
  Ni  Ni2  1  0.000000  0.000000  0.000000  1
  Ni  Ni3  1  0.731478  0.462957  0.420925  1
  Ni  Ni4  1  0.731478  0.462957  0.079075  1
  Ni  Ni5  1  0.268522  0.537042  0.920925  1
  Ni  Ni6  1  0.467396  0.934791  0.153977  1
  Ni  Ni7  1  0.532604  0.065208  0.846024  1
  Ni  Ni8  1  0.532604  0.065208  0.653976  1
  Ni  Ni9  1  0.467396  0.934791  0.346024  1
  O  O10  1  0.638908  0.277817  0.965423  1
  O  O11  1  0.361093  0.722184  0.034577  1
  O  O12  1  0.361093  0.722184  0.465423  1
  O  O13  1  0.638908  0.277817  0.534577  1
  O  O14  1  0.155014  0.310030  0.825580  1
  O  O15  1  0.844986  0.689970  0.174420  1
  O  O16  1  0.844986  0.689970  0.325581  1
  O  O17  1  0.155014  0.310030  0.674420  1
  O  O18  1  0.912196  0.824389  0.893800  1
  O  O19  1  0.087804  0.175611  0.106200  1
  O  O20  1  0.087804  0.175611  0.393800  1
  O  O21  1  0.912196  0.824389  0.606200  1
  O  O22  1  0.439969  0.879938  0.750000  1
  O  O23  1  0.560032  0.120064  0.250000  1
