# generated using pymatgen
data_Mg3Si4(SbO7)2
_symmetry_space_group_name_H-M   'P 1'
_cell_length_a   8.25381335
_cell_length_b   9.99771358
_cell_length_c   9.51204297
_cell_angle_alpha   65.18790278
_cell_angle_beta   64.28714499
_cell_angle_gamma   65.62009040
_symmetry_Int_Tables_number   1
_chemical_formula_structural   Mg3Si4(SbO7)2
_chemical_formula_sum   'Mg6 Si8 Sb4 O28'
_cell_volume   615.84557762
_cell_formula_units_Z   2
loop_
 _symmetry_equiv_pos_site_id
 _symmetry_equiv_pos_as_xyz
  1  'x, y, z'
loop_
 _atom_site_type_symbol
 _atom_site_label
 _atom_site_symmetry_multiplicity
 _atom_site_fract_x
 _atom_site_fract_y
 _atom_site_fract_z
 _atom_site_occupancy
  Mg  Mg0  1  0.966519  0.896504  0.442226  1
  Mg  Mg1  1  0.305249  0.603496  0.057774  1
  Mg  Mg2  1  0.694751  0.396504  0.942226  1
  Mg  Mg3  1  0.587100  0.250000  0.750000  1
  Mg  Mg4  1  0.033481  0.103496  0.557774  1
  Mg  Mg5  1  0.412900  0.750000  0.250000  1
  Si  Si6  1  0.471956  0.286822  0.325887  1
  Si  Si7  1  0.915335  0.786822  0.825887  1
  Si  Si8  1  0.509293  0.883518  0.874671  1
  Si  Si9  1  0.732520  0.383518  0.374671  1
  Si  Si10  1  0.084665  0.213178  0.174113  1
  Si  Si11  1  0.490707  0.116482  0.125329  1
  Si  Si12  1  0.267480  0.616482  0.625329  1
  Si  Si13  1  0.528044  0.713178  0.674113  1
  Sb  Sb14  1  0.204181  0.250000  0.750000  1
  Sb  Sb15  1  0.795819  0.750000  0.250000  1
  Sb  Sb16  1  0.000000  0.000000  0.000000  1
  Sb  Sb17  1  0.000000  0.500000  0.500000  1
  O  O18  1  0.192062  0.691536  0.461679  1
  O  O19  1  0.060957  0.599027  0.237119  1
  O  O20  1  0.499526  0.939761  0.167329  1
  O  O21  1  0.102897  0.099027  0.737119  1
  O  O22  1  0.735653  0.688056  0.532156  1
  O  O23  1  0.923153  0.368902  0.213631  1
  O  O24  1  0.393383  0.439761  0.667329  1
  O  O25  1  0.955864  0.811944  0.967844  1
  O  O26  1  0.076847  0.631098  0.786369  1
  O  O27  1  0.371010  0.743480  0.593528  1
  O  O28  1  0.939043  0.400973  0.762881  1
  O  O29  1  0.264347  0.311944  0.467844  1
  O  O30  1  0.505686  0.131098  0.286369  1
  O  O31  1  0.654722  0.191536  0.961679  1
  O  O32  1  0.291981  0.243480  0.093528  1
  O  O33  1  0.044136  0.188056  0.032156  1
  O  O34  1  0.077593  0.072689  0.343562  1
  O  O35  1  0.628990  0.256520  0.406472  1
  O  O36  1  0.493843  0.427311  0.156438  1
  O  O37  1  0.708019  0.756520  0.906472  1
  O  O38  1  0.494314  0.868902  0.713631  1
  O  O39  1  0.897103  0.900973  0.262881  1
  O  O40  1  0.506157  0.572689  0.843562  1
  O  O41  1  0.500474  0.060239  0.832671  1
  O  O42  1  0.922407  0.927311  0.656438  1
  O  O43  1  0.606617  0.560239  0.332671  1
  O  O44  1  0.345278  0.808464  0.038321  1
  O  O45  1  0.807938  0.308464  0.538321  1
