# generated using pymatgen
data_AlCu3(BiO3)4
_symmetry_space_group_name_H-M   'P 1'
_cell_length_a   7.11172999
_cell_length_b   7.11243470
_cell_length_c   7.11040569
_cell_angle_alpha   109.47308761
_cell_angle_beta   109.49846720
_cell_angle_gamma   109.46222778
_symmetry_Int_Tables_number   1
_chemical_formula_structural   AlCu3(BiO3)4
_chemical_formula_sum   'Al1 Cu3 Bi4 O12'
_cell_volume   276.79492118
_cell_formula_units_Z   1
loop_
 _symmetry_equiv_pos_site_id
 _symmetry_equiv_pos_as_xyz
  1  'x, y, z'
loop_
 _atom_site_type_symbol
 _atom_site_label
 _atom_site_symmetry_multiplicity
 _atom_site_fract_x
 _atom_site_fract_y
 _atom_site_fract_z
 _atom_site_occupancy
  Al  Al0  1  0.000427  0.000321  1.000043  1
  Cu  Cu1  1  0.499984  0.000035  0.499890  1
  Cu  Cu2  1  0.499808  0.499867  1.000028  1
  Cu  Cu3  1  0.000065  0.500009  0.500049  1
  Bi  Bi4  1  0.500023  0.999974  0.999968  1
  Bi  Bi5  1  1.000003  0.999980  0.499970  1
  Bi  Bi6  1  0.999990  0.500024  -0.000001  1
  Bi  Bi7  1  0.500028  0.500032  0.500017  1
  O  O8  1  0.841607  0.330690  0.172239  1
  O  O9  1  0.158554  0.669265  0.827842  1
  O  O10  1  0.841535  0.669584  0.511040  1
  O  O11  1  0.330426  0.488707  0.158436  1
  O  O12  1  0.488665  0.158370  0.330165  1
  O  O13  1  0.171940  0.841500  0.330333  1
  O  O14  1  0.669189  0.827804  0.158715  1
  O  O15  1  0.511223  0.841699  0.669612  1
  O  O16  1  0.158640  0.330473  0.489133  1
  O  O17  1  0.669330  0.511046  0.841571  1
  O  O18  1  0.828110  0.158619  0.669543  1
  O  O19  1  0.330454  0.171998  0.841409  1
