# generated using pymatgen
data_Ba2YMn2F11
_symmetry_space_group_name_H-M   'P 1'
_cell_length_a   8.02298729
_cell_length_b   8.02298729
_cell_length_c   13.66651906
_cell_angle_alpha   90.00000000
_cell_angle_beta   90.00000000
_cell_angle_gamma   119.99999559
_symmetry_Int_Tables_number   1
_chemical_formula_structural   Ba2YMn2F11
_chemical_formula_sum   'Ba6 Y3 Mn6 F33'
_cell_volume   761.83473686
_cell_formula_units_Z   3
loop_
 _symmetry_equiv_pos_site_id
 _symmetry_equiv_pos_as_xyz
  1  'x, y, z'
loop_
 _atom_site_type_symbol
 _atom_site_label
 _atom_site_symmetry_multiplicity
 _atom_site_fract_x
 _atom_site_fract_y
 _atom_site_fract_z
 _atom_site_occupancy
  Ba  Ba0  1  0.550055  0.176220  0.663333  1
  Ba  Ba1  1  0.169339  0.519175  0.814502  1
  Ba  Ba2  1  0.626165  0.449945  0.996666  1
  Ba  Ba3  1  0.480825  0.650163  0.481168  1
  Ba  Ba4  1  0.349837  0.830661  0.147835  1
  Ba  Ba5  1  0.823780  0.373835  0.329999  1
  Y  Y6  1  0.125863  0.007730  0.892465  1
  Y  Y7  1  0.881868  0.874137  0.225798  1
  Y  Y8  1  0.992270  0.118132  0.559131  1
  Mn  Mn9  1  0.613597  0.992649  0.891180  1
  Mn  Mn10  1  0.759107  0.730069  0.724702  1
  Mn  Mn11  1  0.269931  0.029038  0.391368  1
  Mn  Mn12  1  0.379053  0.386403  0.224513  1
  Mn  Mn13  1  0.970962  0.240893  0.058035  1
  Mn  Mn14  1  0.007351  0.620947  0.557846  1
  F  F15  1  0.673700  0.096089  0.036386  1
  F  F16  1  0.485221  0.707045  0.930477  1
  F  F17  1  0.422389  0.326300  0.369719  1
  F  F18  1  0.094629  0.405577  0.486140  1
  F  F19  1  0.585159  0.317846  0.179891  1
  F  F20  1  0.966141  0.660909  0.191472  1
  F  F21  1  0.594423  0.689052  0.152807  1
  F  F22  1  0.339091  0.305231  0.858139  1
  F  F23  1  0.732685  0.414841  0.513224  1
  F  F24  1  0.265056  0.345957  0.079181  1
  F  F25  1  0.310948  0.905371  0.819474  1
  F  F26  1  0.903911  0.577611  0.703053  1
  F  F27  1  0.328065  0.029742  0.001863  1
  F  F28  1  0.025694  0.506918  0.001825  1
  F  F29  1  0.701677  0.671935  0.335196  1
  F  F30  1  0.292955  0.778176  0.597143  1
  F  F31  1  0.952398  0.155179  0.901721  1
  F  F32  1  0.080901  0.734945  0.412514  1
  F  F33  1  0.990995  0.041224  0.390725  1
  F  F34  1  0.970258  0.298323  0.668529  1
  F  F35  1  0.050229  0.009005  0.724059  1
  F  F36  1  0.493082  0.518777  0.668492  1
  F  F37  1  0.481223  0.974306  0.335158  1
  F  F38  1  0.202781  0.047602  0.235054  1
  F  F39  1  0.654043  0.919099  0.745848  1
  F  F40  1  0.682154  0.267315  0.846558  1
  F  F41  1  0.221824  0.514779  0.263810  1
  F  F42  1  0.859019  0.730234  0.872104  1
  F  F43  1  0.871215  0.140981  0.205437  1
  F  F44  1  0.958776  0.949771  0.057392  1
  F  F45  1  0.694769  0.033859  0.524805  1
  F  F46  1  0.844821  0.797219  0.568387  1
  F  F47  1  0.269766  0.128785  0.538770  1
