# generated using pymatgen
data_MgV4O9
_symmetry_space_group_name_H-M   'P 1'
_cell_length_a   4.99367884
_cell_length_b   8.30219169
_cell_length_c   8.30218419
_cell_angle_alpha   89.99999565
_cell_angle_beta   89.99977564
_cell_angle_gamma   90.00018031
_symmetry_Int_Tables_number   1
_chemical_formula_structural   MgV4O9
_chemical_formula_sum   'Mg2 V8 O18'
_cell_volume   344.19592863
_cell_formula_units_Z   2
loop_
 _symmetry_equiv_pos_site_id
 _symmetry_equiv_pos_as_xyz
  1  'x, y, z'
loop_
 _atom_site_type_symbol
 _atom_site_label
 _atom_site_symmetry_multiplicity
 _atom_site_fract_x
 _atom_site_fract_y
 _atom_site_fract_z
 _atom_site_occupancy
  Mg  Mg0  1  0.160384  0.249998  0.250002  1
  Mg  Mg1  1  0.839619  0.750002  0.749996  1
  V  V2  1  0.631509  0.532063  0.340063  1
  V  V3  1  0.368478  0.840062  0.467939  1
  V  V4  1  0.631515  0.340064  0.967940  1
  V  V5  1  0.368478  0.032059  0.840063  1
  V  V6  1  0.631513  0.967938  0.159935  1
  V  V7  1  0.631523  0.159936  0.532060  1
  V  V8  1  0.368481  0.467941  0.659938  1
  V  V9  1  0.368495  0.659937  0.032064  1
  O  O10  1  0.500000  0.750000  0.250000  1
  O  O11  1  0.500000  0.250001  0.750000  1
  O  O12  1  0.051619  0.685499  0.980392  1
  O  O13  1  0.051614  0.519612  0.685499  1
  O  O14  1  0.051612  0.980387  0.814500  1
  O  O15  1  0.051614  0.814500  0.519611  1
  O  O16  1  0.948387  0.314501  0.019610  1
  O  O17  1  0.948384  0.480391  0.314501  1
  O  O18  1  0.948385  0.019609  0.185498  1
  O  O19  1  0.948388  0.185500  0.480387  1
  O  O20  1  0.447003  0.047181  0.355760  1
  O  O21  1  0.447004  0.144240  0.047181  1
  O  O22  1  0.447003  0.355761  0.452818  1
  O  O23  1  0.447002  0.452820  0.144240  1
  O  O24  1  0.552998  0.547180  0.855761  1
  O  O25  1  0.552998  0.855759  0.952820  1
  O  O26  1  0.553000  0.644239  0.547179  1
  O  O27  1  0.552998  0.952819  0.644239  1
