# generated using pymatgen
data_Ba2Cr2F11
_symmetry_space_group_name_H-M   'P 1'
_cell_length_a   7.77360388
_cell_length_b   7.77360375
_cell_length_c   14.27526516
_cell_angle_alpha   90.00000000
_cell_angle_beta   90.00000000
_cell_angle_gamma   119.99999646
_symmetry_Int_Tables_number   1
_chemical_formula_structural   Ba2Cr2F11
_chemical_formula_sum   'Ba6 Cr6 F33'
_cell_volume   747.06714427
_cell_formula_units_Z   3
loop_
 _symmetry_equiv_pos_site_id
 _symmetry_equiv_pos_as_xyz
  1  'x, y, z'
loop_
 _atom_site_type_symbol
 _atom_site_label
 _atom_site_symmetry_multiplicity
 _atom_site_fract_x
 _atom_site_fract_y
 _atom_site_fract_z
 _atom_site_occupancy
  Ba  Ba0  1  0.572703  0.178722  0.662980  1
  Ba  Ba1  1  0.165756  0.458789  0.806922  1
  Ba  Ba2  1  0.606019  0.427297  0.996313  1
  Ba  Ba3  1  0.541211  0.706967  0.473588  1
  Ba  Ba4  1  0.293033  0.834244  0.140255  1
  Ba  Ba5  1  0.821278  0.393981  0.329646  1
  Cr  Cr6  1  0.643717  0.981313  0.885607  1
  Cr  Cr7  1  0.848970  0.776404  0.725889  1
  Cr  Cr8  1  0.223596  0.072566  0.392555  1
  Cr  Cr9  1  0.337596  0.356283  0.218940  1
  Cr  Cr10  1  0.927434  0.151030  0.059222  1
  Cr  Cr11  1  0.018687  0.662404  0.552273  1
  F  F12  1  0.657111  0.061757  0.022724  1
  F  F13  1  0.527918  0.720118  0.936800  1
  F  F14  1  0.404648  0.342889  0.356057  1
  F  F15  1  0.103731  0.500811  0.491766  1
  F  F16  1  0.518734  0.264874  0.183396  1
  F  F17  1  0.944548  0.590578  0.176579  1
  F  F18  1  0.499189  0.602921  0.158433  1
  F  F19  1  0.409422  0.353971  0.843246  1
  F  F20  1  0.746140  0.481266  0.516729  1
  F  F21  1  0.204548  0.279920  0.095286  1
  F  F22  1  0.397079  0.896269  0.825100  1
  F  F23  1  0.938243  0.595352  0.689391  1
  F  F24  1  0.334323  0.057525  0.009491  1
  F  F25  1  0.994564  0.402734  0.015936  1
  F  F26  1  0.723202  0.665677  0.342824  1
  F  F27  1  0.279882  0.807800  0.603466  1
  F  F28  1  0.936002  0.097820  0.924604  1
  F  F29  1  0.075373  0.795452  0.428619  1
  F  F30  1  0.010810  0.100191  0.405119  1
  F  F31  1  0.942475  0.276798  0.676157  1
  F  F32  1  0.089380  0.989190  0.738453  1
  F  F33  1  0.597266  0.591828  0.682603  1
  F  F34  1  0.408172  0.005436  0.349269  1
  F  F35  1  0.161818  0.063998  0.257937  1
  F  F36  1  0.720080  0.924627  0.761953  1
  F  F37  1  0.735125  0.253860  0.850063  1
  F  F38  1  0.192200  0.472082  0.270133  1
  F  F39  1  0.833829  0.687629  0.842973  1
  F  F40  1  0.853800  0.166171  0.176306  1
  F  F41  1  0.899809  0.910620  0.071786  1
  F  F42  1  0.646029  0.055452  0.509912  1
  F  F43  1  0.902180  0.838182  0.591270  1
  F  F44  1  0.312371  0.146200  0.509639  1
