# generated using pymatgen
data_AlMo3Se2ClO8
_symmetry_space_group_name_H-M   'P 1'
_cell_length_a   7.21932276
_cell_length_b   6.56432203
_cell_length_c   9.91129139
_cell_angle_alpha   92.94645357
_cell_angle_beta   105.36672705
_cell_angle_gamma   94.05908038
_symmetry_Int_Tables_number   1
_chemical_formula_structural   AlMo3Se2ClO8
_chemical_formula_sum   'Al2 Mo6 Se4 Cl2 O16'
_cell_volume   450.56423776
_cell_formula_units_Z   2
loop_
 _symmetry_equiv_pos_site_id
 _symmetry_equiv_pos_as_xyz
  1  'x, y, z'
loop_
 _atom_site_type_symbol
 _atom_site_label
 _atom_site_symmetry_multiplicity
 _atom_site_fract_x
 _atom_site_fract_y
 _atom_site_fract_z
 _atom_site_occupancy
  Al  Al0  1  0.274392  0.259749  0.258018  1
  Al  Al1  1  0.727769  0.742134  0.745728  1
  Mo  Mo2  1  0.500275  0.002352  -0.000217  1
  Mo  Mo3  1  0.493797  0.997381  0.502834  1
  Mo  Mo4  1  0.002964  0.995779  0.001903  1
  Mo  Mo5  1  0.730416  0.253838  0.751645  1
  Mo  Mo6  1  0.277787  0.745548  0.249614  1
  Mo  Mo7  1  0.994229  -0.001404  0.496414  1
  Se  Se8  1  0.839079  0.429576  0.134346  1
  Se  Se9  1  0.167604  0.576257  0.853759  1
  Se  Se10  1  0.733854  0.441888  0.428405  1
  Se  Se11  1  0.257182  0.555457  0.573273  1
  Cl  Cl12  1  0.265870  0.121461  0.747726  1
  Cl  Cl13  1  0.735058  0.878663  0.251383  1
  O  O14  1  0.299523  0.026019  0.130679  1
  O  O15  1  0.319876  0.479821  0.165389  1
  O  O16  1  0.733936  0.493725  0.604272  1
  O  O17  1  0.620587  0.294767  0.059748  1
  O  O18  1  0.451713  0.749284  0.628731  1
  O  O19  1  0.062311  0.699485  0.530742  1
  O  O20  1  0.705628  0.976419  0.872443  1
  O  O21  1  0.001270  0.228723  0.161881  1
  O  O22  1  0.927928  0.298020  0.458748  1
  O  O23  1  0.002481  0.775605  0.833288  1
  O  O24  1  0.213467  0.037521  0.376679  1
  O  O25  1  0.778221  0.960771  0.620939  1
  O  O26  1  0.381545  0.708806  0.948330  1
  O  O27  1  0.541876  0.243287  0.377875  1
  O  O28  1  0.690582  0.522186  0.839096  1
  O  O29  1  0.268783  0.506884  0.396327  1
