# generated using pymatgen
data_CaFeO2
_symmetry_space_group_name_H-M   'P 1'
_cell_length_a   3.25646301
_cell_length_b   8.66108843
_cell_length_c   7.91428158
_cell_angle_alpha   106.32266064
_cell_angle_beta   89.29883753
_cell_angle_gamma   67.81605010
_symmetry_Int_Tables_number   1
_chemical_formula_structural   CaFeO2
_chemical_formula_sum   'Ca4 Fe4 O8'
_cell_volume   196.59684529
_cell_formula_units_Z   4
loop_
 _symmetry_equiv_pos_site_id
 _symmetry_equiv_pos_as_xyz
  1  'x, y, z'
loop_
 _atom_site_type_symbol
 _atom_site_label
 _atom_site_symmetry_multiplicity
 _atom_site_fract_x
 _atom_site_fract_y
 _atom_site_fract_z
 _atom_site_occupancy
  Ca  Ca0  1  0.180387  0.059182  0.216776  1
  Ca  Ca1  1  0.815442  0.920763  0.811416  1
  Ca  Ca2  1  0.050128  0.676518  0.078907  1
  Ca  Ca3  1  0.945919  0.303396  0.949276  1
  Fe  Fe4  1  0.560380  0.184959  0.580516  1
  Fe  Fe5  1  0.307923  0.430846  0.333295  1
  Fe  Fe6  1  0.688213  0.548979  0.694813  1
  Fe  Fe7  1  0.435742  0.794931  0.447704  1
  O  O8  1  0.014771  0.669254  0.566751  1
  O  O9  1  0.328598  0.436034  0.811421  1
  O  O10  1  0.667452  0.543947  0.216784  1
  O  O11  1  -0.018470  0.310693  0.461491  1
  O  O12  1  0.162701  0.062882  0.683348  1
  O  O13  1  0.567240  0.177925  0.079633  1
  O  O14  1  0.833195  0.917033  0.344871  1
  O  O15  1  0.428656  0.801991  0.948614  1
