# generated using pymatgen
data_CaBi2O5
_symmetry_space_group_name_H-M   'P 1'
_cell_length_a   5.95358344
_cell_length_b   8.91965202
_cell_length_c   12.12437798
_cell_angle_alpha   90.00000000
_cell_angle_beta   90.00000000
_cell_angle_gamma   109.57624894
_symmetry_Int_Tables_number   1
_chemical_formula_structural   CaBi2O5
_chemical_formula_sum   'Ca4 Bi8 O20'
_cell_volume   606.63473940
_cell_formula_units_Z   4
loop_
 _symmetry_equiv_pos_site_id
 _symmetry_equiv_pos_as_xyz
  1  'x, y, z'
loop_
 _atom_site_type_symbol
 _atom_site_label
 _atom_site_symmetry_multiplicity
 _atom_site_fract_x
 _atom_site_fract_y
 _atom_site_fract_z
 _atom_site_occupancy
  Ca  Ca0  1  0.627604  0.171815  0.911479  1
  Ca  Ca1  1  0.372396  0.828185  0.088521  1
  Ca  Ca2  1  0.872396  0.328185  0.411479  1
  Ca  Ca3  1  0.127604  0.671815  0.588521  1
  Bi  Bi4  1  0.817179  0.956101  0.630378  1
  Bi  Bi5  1  0.182821  0.043899  0.369622  1
  Bi  Bi6  1  0.682821  0.543899  0.130378  1
  Bi  Bi7  1  0.317179  0.456101  0.869622  1
  Bi  Bi8  1  0.110129  0.148306  0.095861  1
  Bi  Bi9  1  0.889871  0.851695  0.904139  1
  Bi  Bi10  1  0.610129  0.648305  0.404139  1
  Bi  Bi11  1  0.389871  0.351695  0.595861  1
  O  O12  1  0.506028  0.336812  0.046547  1
  O  O13  1  0.029217  0.313683  0.955086  1
  O  O14  1  0.467256  0.650886  0.201603  1
  O  O15  1  0.741406  0.513701  0.525277  1
  O  O16  1  0.782361  0.495416  0.286020  1
  O  O17  1  0.282361  0.995416  0.213980  1
  O  O18  1  0.529217  0.813683  0.544914  1
  O  O19  1  0.470783  0.186317  0.455086  1
  O  O20  1  0.258594  0.486299  0.474722  1
  O  O21  1  0.993972  0.163188  0.546547  1
  O  O22  1  0.217639  0.504584  0.713980  1
  O  O23  1  0.493972  0.663188  0.953453  1
  O  O24  1  0.006028  0.836812  0.453453  1
  O  O25  1  0.717639  0.004584  0.786020  1
  O  O26  1  0.758594  0.986299  0.025278  1
  O  O27  1  0.241406  0.013701  0.974723  1
  O  O28  1  0.532744  0.349114  0.798397  1
  O  O29  1  0.970783  0.686317  0.044914  1
  O  O30  1  0.032744  0.849114  0.701603  1
  O  O31  1  0.967256  0.150886  0.298397  1
