# generated using pymatgen
data_Mg(CuO2)2
_symmetry_space_group_name_H-M   'P 1'
_cell_length_a   5.94521856
_cell_length_b   5.87624084
_cell_length_c   5.87134037
_cell_angle_alpha   90.52111824
_cell_angle_beta   119.10268796
_cell_angle_gamma   119.30563993
_symmetry_Int_Tables_number   1
_chemical_formula_structural   Mg(CuO2)2
_chemical_formula_sum   'Mg2 Cu4 O8'
_cell_volume   147.83413273
_cell_formula_units_Z   2
loop_
 _symmetry_equiv_pos_site_id
 _symmetry_equiv_pos_as_xyz
  1  'x, y, z'
loop_
 _atom_site_type_symbol
 _atom_site_label
 _atom_site_symmetry_multiplicity
 _atom_site_fract_x
 _atom_site_fract_y
 _atom_site_fract_z
 _atom_site_occupancy
  Mg  Mg0  1  0.246056  0.122633  0.875805  1
  Mg  Mg1  1  0.753957  0.877384  0.124223  1
  Cu  Cu2  1  0.499990  0.999997  0.499996  1
  Cu  Cu3  1  0.500000  0.500000  0.500001  1
  Cu  Cu4  1  -0.000001  0.499999  0.000003  1
  Cu  Cu5  1  -0.000001  0.499999  0.499993  1
  O  O6  1  0.026141  0.738032  0.256582  1
  O  O7  1  0.466420  0.735158  0.715143  1
  O  O8  1  0.496976  0.747433  0.276241  1
  O  O9  1  0.971963  0.711481  0.746096  1
  O  O10  1  0.503002  0.252547  0.723751  1
  O  O11  1  0.533595  0.264845  0.284880  1
  O  O12  1  0.028051  0.288529  0.253889  1
  O  O13  1  0.973852  0.261962  0.743397  1
