# generated using pymatgen
data_Ca(SnO2)2
_symmetry_space_group_name_H-M   'P 1'
_cell_length_a   7.01729567
_cell_length_b   7.08464639
_cell_length_c   21.67768234
_cell_angle_alpha   55.87925289
_cell_angle_beta   55.69100124
_cell_angle_gamma   55.74347454
_symmetry_Int_Tables_number   1
_chemical_formula_structural   Ca(SnO2)2
_chemical_formula_sum   'Ca6 Sn12 O24'
_cell_volume   687.31640976
_cell_formula_units_Z   6
loop_
 _symmetry_equiv_pos_site_id
 _symmetry_equiv_pos_as_xyz
  1  'x, y, z'
loop_
 _atom_site_type_symbol
 _atom_site_label
 _atom_site_symmetry_multiplicity
 _atom_site_fract_x
 _atom_site_fract_y
 _atom_site_fract_z
 _atom_site_occupancy
  Ca  Ca0  1  0.120294  0.108511  0.036820  1
  Ca  Ca1  1  0.119782  0.108190  0.371385  1
  Ca  Ca2  1  0.495664  0.495036  0.334440  1
  Ca  Ca3  1  0.118138  0.133393  0.708091  1
  Ca  Ca4  1  0.509521  0.479598  0.996626  1
  Ca  Ca5  1  0.898592  0.871327  0.628140  1
  Sn  Sn6  1  0.490799  0.479800  0.159188  1
  Sn  Sn7  1  0.498192  0.991980  0.167888  1
  Sn  Sn8  1  0.501351  0.489160  0.493106  1
  Sn  Sn9  1  0.998809  0.496652  0.165610  1
  Sn  Sn10  1  0.505519  0.001968  0.502237  1
  Sn  Sn11  1  0.499005  0.508370  0.666745  1
  Sn  Sn12  1  0.883261  0.891311  0.296221  1
  Sn  Sn13  1  0.505549  0.492732  0.827357  1
  Sn  Sn14  1  0.999195  0.498705  0.505330  1
  Sn  Sn15  1  0.468006  0.977050  0.838751  1
  Sn  Sn16  1  0.004520  0.493811  0.824471  1
  Sn  Sn17  1  0.854873  0.875441  0.965092  1
  O  O18  1  0.250924  0.241476  0.103435  1
  O  O19  1  0.259277  0.250936  0.232956  1
  O  O20  1  0.245112  0.687085  0.094457  1
  O  O21  1  0.699537  0.230639  0.094796  1
  O  O22  1  0.243906  0.248236  0.441249  1
  O  O23  1  0.261692  0.795371  0.257046  1
  O  O24  1  0.265219  0.260585  0.566628  1
  O  O25  1  0.799358  0.263866  0.256111  1
  O  O26  1  0.773139  0.775790  0.095028  1
  O  O27  1  0.240501  0.696293  0.432684  1
  O  O28  1  0.704342  0.236617  0.429494  1
  O  O29  1  0.736448  0.729124  0.232714  1
  O  O30  1  0.245078  0.341972  0.726393  1
  O  O31  1  0.310299  0.774438  0.583977  1
  O  O32  1  0.774328  0.294149  0.593104  1
  O  O33  1  0.201159  0.265325  0.903048  1
  O  O34  1  0.788736  0.781577  0.431655  1
  O  O35  1  0.239906  0.714562  0.742472  1
  O  O36  1  0.718115  0.337504  0.732732  1
  O  O37  1  0.736114  0.743965  0.575944  1
  O  O38  1  0.227658  0.760838  0.936664  1
  O  O39  1  0.789482  0.262751  0.899889  1
  O  O40  1  0.772425  0.697703  0.757866  1
  O  O41  1  0.746179  0.716161  0.892162  1
