# generated using pymatgen
data_CaTi2O4
_symmetry_space_group_name_H-M   'P 1'
_cell_length_a   6.26525120
_cell_length_b   6.26525096
_cell_length_c   6.27037372
_cell_angle_alpha   119.18333538
_cell_angle_beta   121.23134363
_cell_angle_gamma   89.60332001
_symmetry_Int_Tables_number   1
_chemical_formula_structural   CaTi2O4
_chemical_formula_sum   'Ca2 Ti4 O8'
_cell_volume   173.49456581
_cell_formula_units_Z   2
loop_
 _symmetry_equiv_pos_site_id
 _symmetry_equiv_pos_as_xyz
  1  'x, y, z'
loop_
 _atom_site_type_symbol
 _atom_site_label
 _atom_site_symmetry_multiplicity
 _atom_site_fract_x
 _atom_site_fract_y
 _atom_site_fract_z
 _atom_site_occupancy
  Ca  Ca0  1  -0.000000  0.500001  0.000001  1
  Ca  Ca1  1  0.000001  0.000000  0.500000  1
  Ti  Ti2  1  0.381760  0.631760  0.750000  1
  Ti  Ti3  1  0.618240  0.368241  0.250000  1
  Ti  Ti4  1  0.500001  0.000000  0.500000  1
  Ti  Ti5  1  -0.000000  -0.000000  0.000000  1
  O  O6  1  0.738175  0.743901  0.506967  1
  O  O7  1  0.736935  0.231210  0.993035  1
  O  O8  1  0.254010  0.236133  0.016487  1
  O  O9  1  0.261825  0.256099  0.493034  1
  O  O10  1  0.280354  0.762476  0.516486  1
  O  O11  1  0.263065  0.768791  0.006967  1
  O  O12  1  0.719645  0.237523  0.483513  1
  O  O13  1  0.745990  0.763869  0.983513  1
