# generated using pymatgen
data_ZnSi4SnO10
_symmetry_space_group_name_H-M   'P 1'
_cell_length_a   7.63857104
_cell_length_b   7.63857104
_cell_length_c   15.05240745
_cell_angle_alpha   90.00000000
_cell_angle_beta   90.00000000
_cell_angle_gamma   90.00000000
_symmetry_Int_Tables_number   1
_chemical_formula_structural   ZnSi4SnO10
_chemical_formula_sum   'Zn4 Si16 Sn4 O40'
_cell_volume   878.27437071
_cell_formula_units_Z   4
loop_
 _symmetry_equiv_pos_site_id
 _symmetry_equiv_pos_as_xyz
  1  'x, y, z'
loop_
 _atom_site_type_symbol
 _atom_site_label
 _atom_site_symmetry_multiplicity
 _atom_site_fract_x
 _atom_site_fract_y
 _atom_site_fract_z
 _atom_site_occupancy
  Zn  Zn0  1  0.250000  0.750000  0.500000  1
  Zn  Zn1  1  0.750000  0.250000  0.500000  1
  Zn  Zn2  1  0.750000  0.250000  -0.000000  1
  Zn  Zn3  1  0.250000  0.750000  -0.000000  1
  Si  Si4  1  0.885339  0.488013  0.648526  1
  Si  Si5  1  0.614661  0.011987  0.648526  1
  Si  Si6  1  0.988013  0.385339  0.851474  1
  Si  Si7  1  0.488013  0.614661  0.648526  1
  Si  Si8  1  0.011987  0.885339  0.648526  1
  Si  Si9  1  0.114661  0.988013  0.851474  1
  Si  Si10  1  0.385339  0.511987  0.851474  1
  Si  Si11  1  0.511987  0.114661  0.851474  1
  Si  Si12  1  0.114661  0.511987  0.351474  1
  Si  Si13  1  0.385339  0.988013  0.351474  1
  Si  Si14  1  0.011987  0.614661  0.148526  1
  Si  Si15  1  0.511987  0.385339  0.351474  1
  Si  Si16  1  0.988013  0.114661  0.351474  1
  Si  Si17  1  0.885339  0.011987  0.148526  1
  Si  Si18  1  0.614661  0.488013  0.148526  1
  Si  Si19  1  0.488013  0.885339  0.148526  1
  Sn  Sn20  1  0.250000  0.250000  0.599107  1
  Sn  Sn21  1  0.750000  0.750000  0.900893  1
  Sn  Sn22  1  0.750000  0.750000  0.400893  1
  Sn  Sn23  1  0.250000  0.250000  0.099107  1
  O  O24  1  0.950458  0.344203  0.576013  1
  O  O25  1  0.549542  0.155797  0.576013  1
  O  O26  1  0.844203  0.450458  0.923987  1
  O  O27  1  0.344203  0.549542  0.576013  1
  O  O28  1  0.155797  0.950458  0.576013  1
  O  O29  1  0.049542  0.844203  0.923987  1
  O  O30  1  0.450458  0.655797  0.923987  1
  O  O31  1  0.655797  0.049542  0.923987  1
  O  O32  1  0.049542  0.655797  0.423987  1
  O  O33  1  0.450458  0.844203  0.423987  1
  O  O34  1  0.155797  0.549542  0.076013  1
  O  O35  1  0.655797  0.450458  0.423987  1
  O  O36  1  0.844203  0.049542  0.423987  1
  O  O37  1  0.950458  0.155797  0.076013  1
  O  O38  1  0.549542  0.344203  0.076013  1
  O  O39  1  0.016684  0.324324  0.364963  1
  O  O40  1  0.344203  0.950458  0.076013  1
  O  O41  1  0.516684  0.824324  0.635037  1
  O  O42  1  0.175676  0.483316  0.864963  1
  O  O43  1  0.675676  0.516684  0.635037  1
  O  O44  1  0.824324  0.983316  0.635037  1
  O  O45  1  0.016684  0.175676  0.864963  1
  O  O46  1  0.483316  0.324324  0.864963  1
  O  O47  1  0.324324  0.016684  0.864963  1
  O  O48  1  0.423999  0.923999  0.250000  1
  O  O49  1  0.576001  0.423999  0.250000  1
  O  O50  1  0.923999  0.076002  0.250000  1
  O  O51  1  0.076002  0.576001  0.250000  1
  O  O52  1  0.576001  0.076002  0.750000  1
  O  O53  1  0.423999  0.576001  0.750000  1
  O  O54  1  0.076002  0.923999  0.750000  1
  O  O55  1  0.923999  0.423999  0.750000  1
  O  O56  1  0.675676  0.983316  0.135037  1
  O  O57  1  0.516684  0.675676  0.135037  1
  O  O58  1  0.983316  0.824324  0.135037  1
  O  O59  1  0.175676  0.016684  0.364963  1
  O  O60  1  0.324324  0.483316  0.364963  1
  O  O61  1  0.824324  0.516684  0.135037  1
  O  O62  1  0.483316  0.175676  0.364963  1
  O  O63  1  0.983316  0.675676  0.635037  1
