# generated using pymatgen
data_Ba2Tl2Zn2Cu3O10
_symmetry_space_group_name_H-M   'P 1'
_cell_length_a   3.77671294
_cell_length_b   3.75612078
_cell_length_c   19.00282162
_cell_angle_alpha   94.83978968
_cell_angle_beta   95.67402848
_cell_angle_gamma   90.03008465
_symmetry_Int_Tables_number   1
_chemical_formula_structural   Ba2Tl2Zn2Cu3O10
_chemical_formula_sum   'Ba2 Tl2 Zn2 Cu3 O10'
_cell_volume   267.28214683
_cell_formula_units_Z   1
loop_
 _symmetry_equiv_pos_site_id
 _symmetry_equiv_pos_as_xyz
  1  'x, y, z'
loop_
 _atom_site_type_symbol
 _atom_site_label
 _atom_site_symmetry_multiplicity
 _atom_site_fract_x
 _atom_site_fract_y
 _atom_site_fract_z
 _atom_site_occupancy
  Ba  Ba0  1  0.101815  0.169383  0.279870  1
  Ba  Ba1  1  0.805046  0.829354  0.719625  1
  Tl  Tl2  1  0.644184  0.722902  0.435726  1
  Tl  Tl3  1  0.205212  0.270939  0.563537  1
  Zn  Zn4  1  0.871277  0.922128  0.913579  1
  Zn  Zn5  1  0.989520  0.061327  0.085851  1
  Cu  Cu6  1  0.354749  0.383169  0.841412  1
  Cu  Cu7  1  0.532957  0.614937  0.158025  1
  Cu  Cu8  1  0.412411  0.510661  0.999732  1
  O  O9  1  0.353932  0.873421  0.820534  1
  O  O10  1  0.292710  0.311874  0.675479  1
  O  O11  1  0.864451  0.396636  0.860293  1
  O  O12  1  0.806310  0.765545  0.549757  1
  O  O13  1  0.925652  0.537095  0.026044  1
  O  O14  1  0.043612  0.632266  0.178304  1
  O  O15  1  0.629963  0.683831  0.323786  1
  O  O16  1  0.518116  0.107121  0.137775  1
  O  O17  1  0.258331  0.227726  0.449581  1
  O  O18  1  0.390838  0.997646  0.972050  1
