# generated using pymatgen
data_CaMn2O5
_symmetry_space_group_name_H-M   'P 1'
_cell_length_a   3.69099864
_cell_length_b   4.68095972
_cell_length_c   11.50517243
_cell_angle_alpha   89.99873567
_cell_angle_beta   89.99990618
_cell_angle_gamma   90.00017441
_symmetry_Int_Tables_number   1
_chemical_formula_structural   CaMn2O5
_chemical_formula_sum   'Ca2 Mn4 O10'
_cell_volume   198.77964975
_cell_formula_units_Z   2
loop_
 _symmetry_equiv_pos_site_id
 _symmetry_equiv_pos_as_xyz
  1  'x, y, z'
loop_
 _atom_site_type_symbol
 _atom_site_label
 _atom_site_symmetry_multiplicity
 _atom_site_fract_x
 _atom_site_fract_y
 _atom_site_fract_z
 _atom_site_occupancy
  Ca  Ca0  1  0.749992  0.904685  0.250023  1
  Ca  Ca1  1  0.250005  0.095258  0.750026  1
  Mn  Mn2  1  0.250001  0.427438  0.096325  1
  Mn  Mn3  1  0.750001  0.572722  0.903656  1
  Mn  Mn4  1  0.749996  0.572602  0.596333  1
  Mn  Mn5  1  0.250000  0.427275  0.403664  1
  O  O6  1  0.750000  0.444379  0.750014  1
  O  O7  1  0.250000  0.555606  0.250006  1
  O  O8  1  0.750001  0.525367  0.076051  1
  O  O9  1  0.250002  0.474820  0.923936  1
  O  O10  1  0.749999  0.525241  0.423937  1
  O  O11  1  0.249999  0.474607  0.576056  1
  O  O12  1  0.249996  0.061841  0.374894  1
  O  O13  1  0.750001  0.938010  0.625112  1
  O  O14  1  0.750001  0.938134  0.874877  1
  O  O15  1  0.249998  0.062015  0.125091  1
