# generated using pymatgen
data_Y(FeO2)2
_symmetry_space_group_name_H-M   'P 1'
_cell_length_a   6.32617645
_cell_length_b   6.32617631
_cell_length_c   6.32617668
_cell_angle_alpha   59.48687284
_cell_angle_beta   59.48687883
_cell_angle_gamma   59.48687493
_symmetry_Int_Tables_number   1
_chemical_formula_structural   Y(FeO2)2
_chemical_formula_sum   'Y2 Fe4 O8'
_cell_volume   176.93369945
_cell_formula_units_Z   2
loop_
 _symmetry_equiv_pos_site_id
 _symmetry_equiv_pos_as_xyz
  1  'x, y, z'
loop_
 _atom_site_type_symbol
 _atom_site_label
 _atom_site_symmetry_multiplicity
 _atom_site_fract_x
 _atom_site_fract_y
 _atom_site_fract_z
 _atom_site_occupancy
  Y  Y0  1  0.624392  0.624392  0.624392  1
  Y  Y1  1  0.375608  0.375608  0.375608  1
  Fe  Fe2  1  0.000000  0.500000  0.000000  1
  Fe  Fe3  1  0.000000  0.000000  0.000000  1
  Fe  Fe4  1  0.500000  0.000000  0.000000  1
  Fe  Fe5  1  0.000000  0.000000  0.500000  1
  O  O6  1  0.206609  0.761457  0.761457  1
  O  O7  1  0.238543  0.238543  0.793391  1
  O  O8  1  0.238543  0.793391  0.238543  1
  O  O9  1  0.236985  0.236985  0.236985  1
  O  O10  1  0.761457  0.761457  0.206609  1
  O  O11  1  0.793391  0.238543  0.238543  1
  O  O12  1  0.761457  0.206609  0.761457  1
  O  O13  1  0.763015  0.763015  0.763015  1
