# generated using pymatgen
data_MoO3
_symmetry_space_group_name_H-M   'P 1'
_cell_length_a   3.53326788
_cell_length_b   3.53326886
_cell_length_c   10.78896164
_cell_angle_alpha   90.00000000
_cell_angle_beta   90.00000000
_cell_angle_gamma   120.00000211
_symmetry_Int_Tables_number   1
_chemical_formula_structural   MoO3
_chemical_formula_sum   'Mo2 O6'
_cell_volume   116.64430054
_cell_formula_units_Z   2
loop_
 _symmetry_equiv_pos_site_id
 _symmetry_equiv_pos_as_xyz
  1  'x, y, z'
loop_
 _atom_site_type_symbol
 _atom_site_label
 _atom_site_symmetry_multiplicity
 _atom_site_fract_x
 _atom_site_fract_y
 _atom_site_fract_z
 _atom_site_occupancy
  Mo  Mo0  1  0.666665  0.333332  0.750000  1
  Mo  Mo1  1  0.333334  0.666668  0.250000  1
  O  O2  1  0.333334  0.666668  0.415223  1
  O  O3  1  0.666665  0.333332  0.915223  1
  O  O4  1  0.666665  0.333332  0.584778  1
  O  O5  1  0.333334  0.666668  0.084777  1
  O  O6  1  0.000000  0.000000  0.250000  1
  O  O7  1  0.000000  0.000000  0.750000  1
