# generated using pymatgen
data_Ba2Ti3Tl2Zn2O10
_symmetry_space_group_name_H-M   'P 1'
_cell_length_a   3.86713352
_cell_length_b   3.87986382
_cell_length_c   19.96293758
_cell_angle_alpha   92.72144123
_cell_angle_beta   93.28805397
_cell_angle_gamma   89.99588714
_symmetry_Int_Tables_number   1
_chemical_formula_structural   Ba2Ti3Tl2Zn2O10
_chemical_formula_sum   'Ba2 Ti3 Tl2 Zn2 O10'
_cell_volume   298.69156153
_cell_formula_units_Z   1
loop_
 _symmetry_equiv_pos_site_id
 _symmetry_equiv_pos_as_xyz
  1  'x, y, z'
loop_
 _atom_site_type_symbol
 _atom_site_label
 _atom_site_symmetry_multiplicity
 _atom_site_fract_x
 _atom_site_fract_y
 _atom_site_fract_z
 _atom_site_occupancy
  Ba  Ba0  1  0.113475  0.170059  0.320973  1
  Ba  Ba1  1  0.778773  0.815616  0.676725  1
  Ti  Ti2  1  0.337226  0.338254  0.820431  1
  Ti  Ti3  1  0.574448  0.613472  0.178281  1
  Ti  Ti4  1  0.357745  0.587371  0.001704  1
  Tl  Tl5  1  0.707454  0.723605  0.439863  1
  Tl  Tl6  1  0.252173  0.265007  0.557697  1
  Zn  Zn7  1  0.862736  0.857256  0.895105  1
  Zn  Zn8  1  0.042705  0.092187  0.103153  1
  O  O9  1  0.351546  0.841646  0.845098  1
  O  O10  1  0.307758  0.331109  0.731177  1
  O  O11  1  0.845799  0.321843  0.842667  1
  O  O12  1  0.806808  0.749291  0.554061  1
  O  O13  1  0.827843  0.620843  0.981187  1
  O  O14  1  0.071597  0.603118  0.151612  1
  O  O15  1  0.579097  0.636370  0.267718  1
  O  O16  1  0.595937  0.107765  0.159023  1
  O  O17  1  0.274736  0.236068  0.443221  1
  O  O18  1  0.313233  0.107082  0.021271  1
