# generated using pymatgen
data_Ca11(FeN5)2
_symmetry_space_group_name_H-M   'P 1'
_cell_length_a   6.19433225
_cell_length_b   6.19433202
_cell_length_c   12.25268518
_cell_angle_alpha   89.82324211
_cell_angle_beta   89.82324209
_cell_angle_gamma   118.07344441
_symmetry_Int_Tables_number   1
_chemical_formula_structural   Ca11(FeN5)2
_chemical_formula_sum   'Ca11 Fe2 N10'
_cell_volume   414.81161679
_cell_formula_units_Z   1
loop_
 _symmetry_equiv_pos_site_id
 _symmetry_equiv_pos_as_xyz
  1  'x, y, z'
loop_
 _atom_site_type_symbol
 _atom_site_label
 _atom_site_symmetry_multiplicity
 _atom_site_fract_x
 _atom_site_fract_y
 _atom_site_fract_z
 _atom_site_occupancy
  Ca  Ca0  1  0.005077  0.430785  0.881629  1
  Ca  Ca1  1  0.595343  0.981777  0.120154  1
  Ca  Ca2  1  0.390378  0.998100  0.618147  1
  Ca  Ca3  1  0.406091  0.406091  0.381158  1
  Ca  Ca4  1  0.605155  0.999507  0.385418  1
  Ca  Ca5  1  0.396918  0.396918  0.089710  1
  Ca  Ca6  1  0.981777  0.595343  0.120154  1
  Ca  Ca7  1  0.998100  0.390378  0.618147  1
  Ca  Ca8  1  0.592794  0.592794  0.638121  1
  Ca  Ca9  1  0.430785  0.005077  0.881629  1
  Ca  Ca10  1  0.999507  0.605155  0.385418  1
  Fe  Fe11  1  0.991062  0.991062  0.750579  1
  Fe  Fe12  1  0.008504  0.008504  0.254270  1
  N  N13  1  0.723130  0.013869  0.736841  1
  N  N14  1  0.255600  0.255600  0.732075  1
  N  N15  1  0.282537  0.000928  0.259801  1
  N  N16  1  0.666697  0.334061  0.500044  1
  N  N17  1  0.304639  0.678739  0.008522  1
  N  N18  1  0.334061  0.666697  0.500044  1
  N  N19  1  0.678739  0.304639  0.008522  1
  N  N20  1  0.735202  0.735202  0.253114  1
  N  N21  1  0.000928  0.282537  0.259801  1
  N  N22  1  0.013869  0.723130  0.736841  1
