# generated using pymatgen
data_CaMnAsO5
_symmetry_space_group_name_H-M   'P 1'
_cell_length_a   7.70008094
_cell_length_b   5.93444854
_cell_length_c   9.07755246
_cell_angle_alpha   89.99804824
_cell_angle_beta   89.99846033
_cell_angle_gamma   89.99900694
_symmetry_Int_Tables_number   1
_chemical_formula_structural   CaMnAsO5
_chemical_formula_sum   'Ca4 Mn4 As4 O20'
_cell_volume   414.80542320
_cell_formula_units_Z   4
loop_
 _symmetry_equiv_pos_site_id
 _symmetry_equiv_pos_as_xyz
  1  'x, y, z'
loop_
 _atom_site_type_symbol
 _atom_site_label
 _atom_site_symmetry_multiplicity
 _atom_site_fract_x
 _atom_site_fract_y
 _atom_site_fract_z
 _atom_site_occupancy
  Ca  Ca0  1  0.899379  0.772219  0.080057  1
  Ca  Ca1  1  0.600609  0.227700  0.580109  1
  Ca  Ca2  1  0.399360  0.727713  0.919937  1
  Ca  Ca3  1  0.100600  0.272230  0.419886  1
  Mn  Mn4  1  0.996603  0.497968  0.753124  1
  Mn  Mn5  1  0.503381  0.502100  0.253325  1
  Mn  Mn6  1  0.496583  0.002161  0.246727  1
  Mn  Mn7  1  0.003504  0.998022  0.746810  1
  As  As8  1  0.639392  0.268960  0.933957  1
  As  As9  1  0.860605  0.730982  0.434002  1
  As  As10  1  0.139394  0.231044  0.065973  1
  As  As11  1  0.360603  0.768996  0.566032  1
  O  O12  1  0.820936  0.241916  0.818641  1
  O  O13  1  0.679023  0.758105  0.318649  1
  O  O14  1  0.320915  0.258092  0.181396  1
  O  O15  1  0.179065  0.741898  0.681355  1
  O  O16  1  0.476150  0.337442  0.816174  1
  O  O17  1  0.023817  0.662506  0.316178  1
  O  O18  1  0.976104  0.162495  0.183835  1
  O  O19  1  0.523823  0.837436  0.683797  1
  O  O20  1  0.614663  0.015196  0.025746  1
  O  O21  1  0.885323  0.984822  0.525740  1
  O  O22  1  0.114672  0.484750  0.974265  1
  O  O23  1  0.385304  0.515140  0.474255  1
  O  O24  1  0.655160  0.499103  0.050227  1
  O  O25  1  0.844795  0.500886  0.550168  1
  O  O26  1  0.155211  0.000906  0.949809  1
  O  O27  1  0.344789  0.999115  0.449799  1
  O  O28  1  0.881739  0.752835  0.826858  1
  O  O29  1  0.618367  0.247210  0.326945  1
  O  O30  1  0.381764  0.747219  0.173168  1
  O  O31  1  0.118362  0.252832  0.673057  1
