# generated using pymatgen
data_CaCrNiP2O9
_symmetry_space_group_name_H-M   'P 1'
_cell_length_a   6.46135350
_cell_length_b   7.51246503
_cell_length_c   14.18058259
_cell_angle_alpha   89.99489992
_cell_angle_beta   90.00064717
_cell_angle_gamma   89.99699013
_symmetry_Int_Tables_number   1
_chemical_formula_structural   CaCrNiP2O9
_chemical_formula_sum   'Ca4 Cr4 Ni4 P8 O36'
_cell_volume   688.33529167
_cell_formula_units_Z   4
loop_
 _symmetry_equiv_pos_site_id
 _symmetry_equiv_pos_as_xyz
  1  'x, y, z'
loop_
 _atom_site_type_symbol
 _atom_site_label
 _atom_site_symmetry_multiplicity
 _atom_site_fract_x
 _atom_site_fract_y
 _atom_site_fract_z
 _atom_site_occupancy
  Ca  Ca0  1  0.749911  0.879306  0.778912  1
  Ca  Ca1  1  0.749908  0.620734  0.278934  1
  Ca  Ca2  1  0.250085  0.120697  0.221089  1
  Ca  Ca3  1  0.250088  0.379271  0.721055  1
  Cr  Cr4  1  0.750011  0.348628  0.883565  1
  Cr  Cr5  1  0.249985  0.651415  0.116499  1
  Cr  Cr6  1  0.249968  0.848469  0.616475  1
  Cr  Cr7  1  0.750021  0.151418  0.383495  1
  Ni  Ni8  1  0.500022  0.999971  0.999995  1
  Ni  Ni9  1  0.500002  0.499931  0.499990  1
  Ni  Ni10  1  -0.000007  0.499930  0.499986  1
  Ni  Ni11  1  -0.000024  0.999972  0.999996  1
  P  P12  1  0.250033  0.349117  0.939049  1
  P  P13  1  0.749976  0.650887  0.060973  1
  P  P14  1  0.749970  0.849182  0.560941  1
  P  P15  1  0.250026  0.150864  0.439057  1
  P  P16  1  0.750077  0.389139  0.693833  1
  P  P17  1  0.249926  0.610850  0.306176  1
  P  P18  1  0.249928  0.889130  0.806197  1
  P  P19  1  0.750068  0.110902  0.193800  1
  O  O20  1  0.052035  0.606217  0.366132  1
  O  O21  1  0.552230  0.393753  0.633845  1
  O  O22  1  0.947964  0.106251  0.133838  1
  O  O23  1  0.447802  0.893701  0.866185  1
  O  O24  1  0.947938  0.393799  0.633858  1
  O  O25  1  0.447789  0.606257  0.366152  1
  O  O26  1  0.052031  0.893772  0.866165  1
  O  O27  1  0.552195  0.106323  0.133820  1
  O  O28  1  0.250084  0.334118  0.487175  1
  O  O29  1  0.749906  0.665973  0.512814  1
  O  O30  1  0.749910  0.834136  0.012846  1
  O  O31  1  0.250093  0.165869  0.987181  1
  O  O32  1  0.750020  0.145068  0.944175  1
  O  O33  1  0.249992  0.854946  0.055835  1
  O  O34  1  0.249987  0.645016  0.555815  1
  O  O35  1  0.750002  0.354915  0.444165  1
  O  O36  1  0.750052  0.217952  0.758760  1
  O  O37  1  0.249957  0.782056  0.241238  1
  O  O38  1  0.249970  0.717921  0.741286  1
  O  O39  1  0.750027  0.282066  0.258719  1
  O  O40  1  0.437798  0.132630  0.371124  1
  O  O41  1  0.937736  0.867192  0.628887  1
  O  O42  1  0.562188  0.632587  0.128878  1
  O  O43  1  0.062246  0.367218  0.871101  1
  O  O44  1  0.562199  0.867390  0.628871  1
  O  O45  1  0.062267  0.132824  0.371107  1
  O  O46  1  0.437847  0.367386  0.871119  1
  O  O47  1  0.937748  0.632764  0.128892  1
  O  O48  1  0.750043  0.962425  0.272017  1
  O  O49  1  0.249946  0.037586  0.727994  1
  O  O50  1  0.249969  0.462400  0.227977  1
  O  O51  1  0.750039  0.537626  0.772021  1
  O  O52  1  0.750055  0.991210  0.484089  1
  O  O53  1  0.249943  0.008830  0.515893  1
  O  O54  1  0.249964  0.491132  0.015875  1
  O  O55  1  0.750053  0.508881  0.984132  1
