# generated using pymatgen
data_TiTe(PO4)3
_symmetry_space_group_name_H-M   'P 1'
_cell_length_a   8.93734131
_cell_length_b   8.93732417
_cell_length_c   8.93732428
_cell_angle_alpha   58.47341878
_cell_angle_beta   58.47339764
_cell_angle_gamma   58.47339523
_symmetry_Int_Tables_number   1
_chemical_formula_structural   TiTe(PO4)3
_chemical_formula_sum   'Ti2 Te2 P6 O24'
_cell_volume   487.15633680
_cell_formula_units_Z   2
loop_
 _symmetry_equiv_pos_site_id
 _symmetry_equiv_pos_as_xyz
  1  'x, y, z'
loop_
 _atom_site_type_symbol
 _atom_site_label
 _atom_site_symmetry_multiplicity
 _atom_site_fract_x
 _atom_site_fract_y
 _atom_site_fract_z
 _atom_site_occupancy
  Ti  Ti0  1  0.139165  0.139165  0.139164  1
  Ti  Ti1  1  0.639165  0.639164  0.639165  1
  Te  Te2  1  0.356242  0.356242  0.356242  1
  Te  Te3  1  0.856242  0.856242  0.856242  1
  P  P4  1  0.034395  0.459936  0.750190  1
  P  P5  1  0.459936  0.750189  0.034395  1
  P  P6  1  0.750190  0.034395  0.459935  1
  P  P7  1  0.250190  0.959935  0.534395  1
  P  P8  1  0.534395  0.250190  0.959936  1
  P  P9  1  0.959936  0.534395  0.250189  1
  O  O10  1  0.128637  0.522684  0.271858  1
  O  O11  1  0.271858  0.128636  0.522683  1
  O  O12  1  0.061154  0.285045  0.923484  1
  O  O13  1  0.522684  0.271858  0.128636  1
  O  O14  1  0.022684  0.628636  0.771858  1
  O  O15  1  0.220658  0.439251  0.579606  1
  O  O16  1  0.285044  0.923484  0.061154  1
  O  O17  1  0.439251  0.579605  0.220659  1
  O  O18  1  0.212980  0.999574  0.366890  1
  O  O19  1  0.579604  0.220661  0.439251  1
  O  O20  1  0.079604  0.939251  0.720661  1
  O  O21  1  0.366888  0.212979  0.999574  1
  O  O22  1  0.628637  0.771858  0.022684  1
  O  O23  1  0.923484  0.061154  0.285044  1
  O  O24  1  0.423484  0.785044  0.561154  1
  O  O25  1  0.771858  0.022683  0.628636  1
  O  O26  1  0.561154  0.423484  0.785045  1
  O  O27  1  0.720658  0.079606  0.939251  1
  O  O28  1  0.785044  0.561154  0.423484  1
  O  O29  1  0.999574  0.366889  0.212979  1
  O  O30  1  0.499574  0.712979  0.866889  1
  O  O31  1  0.939251  0.720659  0.079605  1
  O  O32  1  0.712980  0.866890  0.499574  1
  O  O33  1  0.866888  0.499574  0.712979  1
