# generated using pymatgen
data_Zn3Bi2(PO6)2
_symmetry_space_group_name_H-M   'P 1'
_cell_length_a   5.25335435
_cell_length_b   7.93856081
_cell_length_c   12.04439104
_cell_angle_alpha   88.87129509
_cell_angle_beta   90.00000000
_cell_angle_gamma   90.00000000
_symmetry_Int_Tables_number   1
_chemical_formula_structural   Zn3Bi2(PO6)2
_chemical_formula_sum   'Zn6 Bi4 P4 O24'
_cell_volume   502.20270082
_cell_formula_units_Z   2
loop_
 _symmetry_equiv_pos_site_id
 _symmetry_equiv_pos_as_xyz
  1  'x, y, z'
loop_
 _atom_site_type_symbol
 _atom_site_label
 _atom_site_symmetry_multiplicity
 _atom_site_fract_x
 _atom_site_fract_y
 _atom_site_fract_z
 _atom_site_occupancy
  Zn  Zn0  1  0.250000  0.693918  0.919526  1
  Zn  Zn1  1  0.750000  0.818648  0.598683  1
  Zn  Zn2  1  0.750000  0.318841  0.081394  1
  Zn  Zn3  1  0.250000  0.797928  0.413045  1
  Zn  Zn4  1  0.250000  0.186047  0.402167  1
  Zn  Zn5  1  0.250000  0.304395  0.894400  1
  Bi  Bi6  1  0.750000  0.984176  0.892049  1
  Bi  Bi7  1  0.750000  0.535945  0.389327  1
  Bi  Bi8  1  0.250000  0.456294  0.605869  1
  Bi  Bi9  1  0.250000  0.008428  0.101778  1
  P  P10  1  0.750000  0.969021  0.304395  1
  P  P11  1  0.250000  0.016734  0.697928  1
  P  P12  1  0.750000  0.539424  0.800084  1
  P  P13  1  0.250000  0.461057  0.200019  1
  O  O14  1  0.013289  0.334565  0.481150  1
  O  O15  1  0.998165  0.992103  0.376379  1
  O  O16  1  0.499001  0.180099  0.994448  1
  O  O17  1  0.250000  0.590172  0.295875  1
  O  O18  1  0.011983  0.994603  0.626007  1
  O  O19  1  0.996607  0.508741  0.872715  1
  O  O20  1  0.007569  0.484454  0.128596  1
  O  O21  1  0.250000  0.277141  0.246658  1
  O  O22  1  0.750000  0.422967  0.701273  1
  O  O23  1  0.488017  0.994603  0.626007  1
  O  O24  1  0.000999  0.180099  0.994448  1
  O  O25  1  0.001897  0.835657  0.000971  1
  O  O26  1  0.492431  0.484454  0.128596  1
  O  O27  1  0.503393  0.508741  0.872715  1
  O  O28  1  0.250000  0.204805  0.740130  1
  O  O29  1  0.486711  0.334565  0.481150  1
  O  O30  1  0.498103  0.835657  0.000971  1
  O  O31  1  0.504480  0.674552  0.509474  1
  O  O32  1  0.995520  0.674552  0.509474  1
  O  O33  1  0.750000  0.095172  0.206258  1
  O  O34  1  0.750000  0.784989  0.268870  1
  O  O35  1  0.501835  0.992103  0.376379  1
  O  O36  1  0.250000  0.900884  0.801928  1
  O  O37  1  0.750000  0.727804  0.763342  1
