# generated using pymatgen
data_Ca2SbWO6
_symmetry_space_group_name_H-M   'P 1'
_cell_length_a   5.70863278
_cell_length_b   5.90241543
_cell_length_c   8.11124552
_cell_angle_alpha   90.00000000
_cell_angle_beta   90.00000000
_cell_angle_gamma   91.45444470
_symmetry_Int_Tables_number   1
_chemical_formula_structural   Ca2SbWO6
_chemical_formula_sum   'Ca4 Sb2 W2 O12'
_cell_volume   273.21811097
_cell_formula_units_Z   2
loop_
 _symmetry_equiv_pos_site_id
 _symmetry_equiv_pos_as_xyz
  1  'x, y, z'
loop_
 _atom_site_type_symbol
 _atom_site_label
 _atom_site_symmetry_multiplicity
 _atom_site_fract_x
 _atom_site_fract_y
 _atom_site_fract_z
 _atom_site_occupancy
  Ca  Ca0  1  0.514149  0.559356  0.750000  1
  Ca  Ca1  1  0.485851  0.440644  0.250000  1
  Ca  Ca2  1  0.001272  0.050747  0.750000  1
  Ca  Ca3  1  0.998728  0.949253  0.250000  1
  Sb  Sb4  1  0.000000  0.500000  0.500000  1
  Sb  Sb5  1  0.000000  0.500000  0.000000  1
  W  W6  1  0.500000  0.000000  0.500000  1
  W  W7  1  0.500000  0.000000  0.000000  1
  O  O8  1  0.343936  0.711289  0.443971  1
  O  O9  1  0.205507  0.174273  0.058413  1
  O  O10  1  0.656064  0.288711  0.943971  1
  O  O11  1  0.794493  0.825727  0.558413  1
  O  O12  1  0.205507  0.174273  0.441587  1
  O  O13  1  0.794493  0.825727  0.941587  1
  O  O14  1  0.874979  0.556957  0.250000  1
  O  O15  1  0.343936  0.711289  0.056029  1
  O  O16  1  0.396012  0.954642  0.750000  1
  O  O17  1  0.656064  0.288711  0.556029  1
  O  O18  1  0.125021  0.443043  0.750000  1
  O  O19  1  0.603988  0.045358  0.250000  1
