# generated using pymatgen
data_CuReO4
_symmetry_space_group_name_H-M   'P 1'
_cell_length_a   6.62143819
_cell_length_b   9.04658876
_cell_length_c   13.07881831
_cell_angle_alpha   89.99585602
_cell_angle_beta   89.59983733
_cell_angle_gamma   89.98022749
_symmetry_Int_Tables_number   1
_chemical_formula_structural   CuReO4
_chemical_formula_sum   'Cu8 Re8 O32'
_cell_volume   783.42074083
_cell_formula_units_Z   8
loop_
 _symmetry_equiv_pos_site_id
 _symmetry_equiv_pos_as_xyz
  1  'x, y, z'
loop_
 _atom_site_type_symbol
 _atom_site_label
 _atom_site_symmetry_multiplicity
 _atom_site_fract_x
 _atom_site_fract_y
 _atom_site_fract_z
 _atom_site_occupancy
  Cu  Cu0  1  0.807362  0.135913  0.890518  1
  Cu  Cu1  1  0.379322  0.053229  0.612927  1
  Cu  Cu2  1  0.620666  0.946773  0.387014  1
  Cu  Cu3  1  0.192425  0.864241  0.109453  1
  Cu  Cu4  1  0.807478  0.364209  0.390541  1
  Cu  Cu5  1  0.379285  0.446856  0.112951  1
  Cu  Cu6  1  0.192693  0.635858  0.609497  1
  Cu  Cu7  1  0.620700  0.553192  0.887041  1
  Re  Re8  1  0.103029  0.450217  0.852835  1
  Re  Re9  1  0.102949  0.049713  0.352834  1
  Re  Re10  1  0.600160  0.086351  0.135743  1
  Re  Re11  1  0.897064  0.950268  0.647172  1
  Re  Re12  1  0.399844  0.913615  0.864273  1
  Re  Re13  1  0.399868  0.586415  0.364291  1
  Re  Re14  1  0.600162  0.413542  0.635698  1
  Re  Re15  1  0.896935  0.549812  0.147164  1
  O  O16  1  0.040106  0.237053  0.375235  1
  O  O17  1  0.657882  0.991355  0.592574  1
  O  O18  1  0.201715  0.605684  0.454213  1
  O  O19  1  0.798316  0.105665  0.045835  1
  O  O20  1  0.040138  0.262888  0.875248  1
  O  O21  1  0.960028  0.762950  0.624777  1
  O  O22  1  0.085290  0.068306  0.594927  1
  O  O23  1  0.483124  0.910970  0.121834  1
  O  O24  1  0.483235  0.589002  0.621851  1
  O  O25  1  0.312543  0.898466  0.736922  1
  O  O26  1  0.687504  0.398429  0.763030  1
  O  O27  1  0.516789  0.089031  0.878138  1
  O  O28  1  0.914739  0.931685  0.405096  1
  O  O29  1  0.876824  0.515784  0.279405  1
  O  O30  1  0.421935  0.272864  0.614026  1
  O  O31  1  0.421967  0.227140  0.114083  1
  O  O32  1  0.123131  0.015672  0.220595  1
  O  O33  1  0.516844  0.410979  0.378162  1
  O  O34  1  0.123203  0.484270  0.720590  1
  O  O35  1  0.798360  0.394263  0.545782  1
  O  O36  1  0.657827  0.508626  0.092557  1
  O  O37  1  0.687500  0.101447  0.263097  1
  O  O38  1  0.959759  0.737141  0.124759  1
  O  O39  1  0.085221  0.431772  0.094927  1
  O  O40  1  0.201635  0.894325  0.954184  1
  O  O41  1  0.578047  0.772836  0.885968  1
  O  O42  1  0.342126  0.008607  0.407438  1
  O  O43  1  0.342200  0.491346  0.907435  1
  O  O44  1  0.914695  0.568255  0.905059  1
  O  O45  1  0.578052  0.727138  0.385945  1
  O  O46  1  0.312470  0.601506  0.236961  1
  O  O47  1  0.876855  0.984337  0.779395  1
