# generated using pymatgen
data_As4W3O16
_symmetry_space_group_name_H-M   'P 1'
_cell_length_a   4.98840817
_cell_length_b   8.53944338
_cell_length_c   16.86571309
_cell_angle_alpha   111.53114244
_cell_angle_beta   90.00000000
_cell_angle_gamma   90.00000000
_symmetry_Int_Tables_number   1
_chemical_formula_structural   As4W3O16
_chemical_formula_sum   'As8 W6 O32'
_cell_volume   668.31482748
_cell_formula_units_Z   2
loop_
 _symmetry_equiv_pos_site_id
 _symmetry_equiv_pos_as_xyz
  1  'x, y, z'
loop_
 _atom_site_type_symbol
 _atom_site_label
 _atom_site_symmetry_multiplicity
 _atom_site_fract_x
 _atom_site_fract_y
 _atom_site_fract_z
 _atom_site_occupancy
  As  As0  1  0.487107  0.003964  0.831818  1
  As  As1  1  0.018673  0.277543  0.894800  1
  As  As2  1  0.518673  0.222457  0.605200  1
  As  As3  1  0.481327  0.777543  0.394800  1
  As  As4  1  0.512893  0.996036  0.168182  1
  As  As5  1  0.981327  0.722457  0.105200  1
  As  As6  1  0.012893  0.503964  0.331818  1
  As  As7  1  0.987107  0.496036  0.668182  1
  W  W8  1  0.046126  0.333270  0.114216  1
  W  W9  1  0.953874  0.666730  0.885784  1
  W  W10  1  0.546126  0.166730  0.385784  1
  W  W11  1  0.453874  0.833270  0.614216  1
  W  W12  1  0.500000  0.500000  0.000000  1
  W  W13  1  -0.000000  0.000000  0.500000  1
  O  O14  1  0.109658  0.544066  0.774059  1
  O  O15  1  0.713401  0.208626  0.510913  1
  O  O16  1  0.244517  0.177675  0.814265  1
  O  O17  1  0.145145  0.780008  0.650324  1
  O  O18  1  0.755483  0.822325  0.185735  1
  O  O19  1  0.390342  0.044066  0.274059  1
  O  O20  1  0.744517  0.322325  0.685735  1
  O  O21  1  0.750941  0.914802  0.391490  1
  O  O22  1  0.717158  0.616830  0.392133  1
  O  O23  1  0.890342  0.455934  0.225941  1
  O  O24  1  0.354855  0.280008  0.150324  1
  O  O25  1  0.249059  0.085198  0.608510  1
  O  O26  1  0.209746  0.507488  0.921869  1
  O  O27  1  0.282842  0.383170  0.607867  1
  O  O28  1  0.862070  0.147103  0.078575  1
  O  O29  1  0.362070  0.352897  0.421425  1
  O  O30  1  0.709746  0.992512  0.578131  1
  O  O31  1  0.255483  0.677675  0.314265  1
  O  O32  1  0.217158  0.883170  0.107867  1
  O  O33  1  0.250941  0.585198  0.108510  1
  O  O34  1  0.637930  0.647103  0.578575  1
  O  O35  1  0.137930  0.852897  0.921425  1
  O  O36  1  0.286599  0.791374  0.489087  1
  O  O37  1  0.213401  0.291374  0.989087  1
  O  O38  1  0.790254  0.492512  0.078131  1
  O  O39  1  0.609658  0.955934  0.725941  1
  O  O40  1  0.854855  0.219992  0.349676  1
  O  O41  1  0.782842  0.116830  0.892133  1
  O  O42  1  0.786599  0.708626  0.010913  1
  O  O43  1  0.749059  0.414802  0.891490  1
  O  O44  1  0.290254  0.007488  0.421869  1
  O  O45  1  0.645145  0.719992  0.849676  1
