# generated using pymatgen
data_Zn(Co2O3)2
_symmetry_space_group_name_H-M   'P 1'
_cell_length_a   2.94345642
_cell_length_b   5.13327489
_cell_length_c   14.99847390
_cell_angle_alpha   90.00000000
_cell_angle_beta   90.00000000
_cell_angle_gamma   106.66071161
_symmetry_Int_Tables_number   1
_chemical_formula_structural   Zn(Co2O3)2
_chemical_formula_sum   'Zn2 Co8 O12'
_cell_volume   217.10682147
_cell_formula_units_Z   2
loop_
 _symmetry_equiv_pos_site_id
 _symmetry_equiv_pos_as_xyz
  1  'x, y, z'
loop_
 _atom_site_type_symbol
 _atom_site_label
 _atom_site_symmetry_multiplicity
 _atom_site_fract_x
 _atom_site_fract_y
 _atom_site_fract_z
 _atom_site_occupancy
  Zn  Zn0  1  0.655941  0.311883  0.750000  1
  Zn  Zn1  1  0.344059  0.688117  0.250000  1
  Co  Co2  1  0.862499  0.725001  0.044871  1
  Co  Co3  1  0.404040  0.808078  0.637805  1
  Co  Co4  1  0.137499  0.274998  0.955129  1
  Co  Co5  1  0.595960  0.191922  0.362196  1
  Co  Co6  1  0.862499  0.725001  0.455129  1
  Co  Co7  1  0.137499  0.274998  0.544871  1
  Co  Co8  1  0.595960  0.191922  0.137804  1
  Co  Co9  1  0.404040  0.808078  0.862195  1
  O  O10  1  0.499999  -0.000000  0.500000  1
  O  O11  1  0.499999  -0.000000  0.000000  1
  O  O12  1  0.048664  0.097326  0.841429  1
  O  O13  1  0.951336  0.902674  0.158572  1
  O  O14  1  0.951336  0.902674  0.341428  1
  O  O15  1  0.048664  0.097326  0.658572  1
  O  O16  1  0.778314  0.556630  0.925538  1
  O  O17  1  0.221685  0.443371  0.074462  1
  O  O18  1  0.221685  0.443371  0.425538  1
  O  O19  1  0.778314  0.556630  0.574462  1
  O  O20  1  0.303061  0.606123  0.750000  1
  O  O21  1  0.696937  0.393876  0.250000  1
