# generated using pymatgen
data_LaMgCr2O6
_symmetry_space_group_name_H-M   'P 1'
_cell_length_a   5.31745252
_cell_length_b   5.41851022
_cell_length_c   7.74920626
_cell_angle_alpha   90.00000000
_cell_angle_beta   89.72152614
_cell_angle_gamma   90.00000000
_symmetry_Int_Tables_number   1
_chemical_formula_structural   LaMgCr2O6
_chemical_formula_sum   'La2 Mg2 Cr4 O12'
_cell_volume   223.27269195
_cell_formula_units_Z   2
loop_
 _symmetry_equiv_pos_site_id
 _symmetry_equiv_pos_as_xyz
  1  'x, y, z'
loop_
 _atom_site_type_symbol
 _atom_site_label
 _atom_site_symmetry_multiplicity
 _atom_site_fract_x
 _atom_site_fract_y
 _atom_site_fract_z
 _atom_site_occupancy
  La  La0  1  0.004357  0.962696  0.750303  1
  La  La1  1  0.504357  0.537304  0.250303  1
  Mg  Mg2  1  0.482987  0.447275  0.751835  1
  Mg  Mg3  1  0.982987  0.052725  0.251835  1
  Cr  Cr4  1  0.496420  0.003975  0.500420  1
  Cr  Cr5  1  0.996420  0.496025  0.000420  1
  Cr  Cr6  1  0.497641  0.000950  0.000320  1
  Cr  Cr7  1  0.997641  0.499050  0.500320  1
  O  O8  1  0.077421  0.446144  0.248921  1
  O  O9  1  0.214920  0.226547  0.946722  1
  O  O10  1  0.227469  0.218363  0.551110  1
  O  O11  1  0.305858  0.691059  0.941936  1
  O  O12  1  0.318184  0.700099  0.556442  1
  O  O13  1  0.374741  0.976940  0.251989  1
  O  O14  1  0.577421  0.053856  0.748921  1
  O  O15  1  0.714920  0.273453  0.446722  1
  O  O16  1  0.727469  0.281637  0.051110  1
  O  O17  1  0.805858  0.808941  0.441936  1
  O  O18  1  0.818184  0.799901  0.056442  1
  O  O19  1  0.874741  0.523060  0.751989  1
