# generated using pymatgen
data_Mg2Ni9O13
_symmetry_space_group_name_H-M   'P 1'
_cell_length_a   2.92083884
_cell_length_b   5.10160898
_cell_length_c   16.19677082
_cell_angle_alpha   98.59205501
_cell_angle_beta   90.01900581
_cell_angle_gamma   106.62118869
_symmetry_Int_Tables_number   1
_chemical_formula_structural   Mg2Ni9O13
_chemical_formula_sum   'Mg2 Ni9 O13'
_cell_volume   228.43166547
_cell_formula_units_Z   1
loop_
 _symmetry_equiv_pos_site_id
 _symmetry_equiv_pos_as_xyz
  1  'x, y, z'
loop_
 _atom_site_type_symbol
 _atom_site_label
 _atom_site_symmetry_multiplicity
 _atom_site_fract_x
 _atom_site_fract_y
 _atom_site_fract_z
 _atom_site_occupancy
  Mg  Mg0  1  0.216410  0.432155  0.228782  1
  Mg  Mg1  1  0.783590  0.567845  0.771218  1
  Ni  Ni2  1  0.500000  -0.000000  0.500000  1
  Ni  Ni3  1  0.647376  0.294738  0.040957  1
  Ni  Ni4  1  0.352624  0.705262  0.959043  1
  Ni  Ni5  1  0.751279  0.502169  0.418310  1
  Ni  Ni6  1  0.248721  0.497831  0.581690  1
  Ni  Ni7  1  0.938041  0.876218  0.124098  1
  Ni  Ni8  1  0.061959  0.123782  0.875902  1
  Ni  Ni9  1  0.995727  0.991225  0.332913  1
  Ni  Ni10  1  0.004273  0.008775  0.667087  1
  O  O11  1  -0.000000  -0.000000  -0.000000  1
  O  O12  1  0.864136  0.727772  0.228464  1
  O  O13  1  0.135864  0.272228  0.771536  1
  O  O14  1  0.295517  0.590851  0.071569  1
  O  O15  1  0.704483  0.409149  0.928431  1
  O  O16  1  0.585520  0.171452  0.148360  1
  O  O17  1  0.414480  0.828548  0.851640  1
  O  O18  1  0.630561  0.260802  0.309289  1
  O  O19  1  0.369439  0.739198  0.690711  1
  O  O20  1  0.383299  0.766769  0.387501  1
  O  O21  1  0.616701  0.233231  0.612499  1
  O  O22  1  0.128501  0.257002  0.462411  1
  O  O23  1  0.871499  0.742998  0.537589  1
