# generated using pymatgen
data_Mg2W9O13
_symmetry_space_group_name_H-M   'P 1'
_cell_length_a   3.22261854
_cell_length_b   5.52704137
_cell_length_c   19.32385260
_cell_angle_alpha   93.60602063
_cell_angle_beta   97.91663741
_cell_angle_gamma   106.25779669
_symmetry_Int_Tables_number   1
_chemical_formula_structural   Mg2W9O13
_chemical_formula_sum   'Mg2 W9 O13'
_cell_volume   325.40687872
_cell_formula_units_Z   1
loop_
 _symmetry_equiv_pos_site_id
 _symmetry_equiv_pos_as_xyz
  1  'x, y, z'
loop_
 _atom_site_type_symbol
 _atom_site_label
 _atom_site_symmetry_multiplicity
 _atom_site_fract_x
 _atom_site_fract_y
 _atom_site_fract_z
 _atom_site_occupancy
  Mg  Mg0  1  0.421377  0.475694  0.236191  1
  Mg  Mg1  1  0.578623  0.524306  0.763809  1
  W  W2  1  0.500000  0.000000  0.500000  1
  W  W3  1  0.668554  0.280405  0.050165  1
  W  W4  1  0.331446  0.719595  0.949835  1
  W  W5  1  0.037490  0.480854  0.394621  1
  W  W6  1  0.962510  0.519146  0.605379  1
  W  W7  1  0.963025  0.764758  0.116177  1
  W  W8  1  0.036975  0.235242  0.883823  1
  W  W9  1  0.215318  0.971192  0.312603  1
  W  W10  1  0.784682  0.028808  0.687396  1
  O  O11  1  0.000000  0.000000  0.000000  1
  O  O12  1  0.014042  0.698504  0.221595  1
  O  O13  1  0.985958  0.301496  0.778405  1
  O  O14  1  0.314250  0.463715  0.118235  1
  O  O15  1  0.685750  0.536285  0.881765  1
  O  O16  1  0.589505  0.011975  0.123497  1
  O  O17  1  0.410495  0.988025  0.876503  1
  O  O18  1  0.823294  0.235661  0.290084  1
  O  O19  1  0.176706  0.764339  0.709916  1
  O  O20  1  0.605600  0.699822  0.341129  1
  O  O21  1  0.394400  0.300178  0.658871  1
  O  O22  1  0.429655  0.224178  0.411166  1
  O  O23  1  0.570345  0.775822  0.588834  1
