# generated using pymatgen
data_PrTi2O6
_symmetry_space_group_name_H-M   'P 1'
_cell_length_a   5.44742025
_cell_length_b   5.55000985
_cell_length_c   7.72455854
_cell_angle_alpha   89.99160704
_cell_angle_beta   89.99779682
_cell_angle_gamma   90.00699722
_symmetry_Int_Tables_number   1
_chemical_formula_structural   PrTi2O6
_chemical_formula_sum   'Pr2 Ti4 O12'
_cell_volume   233.53839760
_cell_formula_units_Z   2
loop_
 _symmetry_equiv_pos_site_id
 _symmetry_equiv_pos_as_xyz
  1  'x, y, z'
loop_
 _atom_site_type_symbol
 _atom_site_label
 _atom_site_symmetry_multiplicity
 _atom_site_fract_x
 _atom_site_fract_y
 _atom_site_fract_z
 _atom_site_occupancy
  Pr  Pr0  1  0.011119  0.952863  0.750006  1
  Pr  Pr1  1  0.511211  0.547053  0.249996  1
  Ti  Ti2  1  0.007243  0.483568  0.000602  1
  Ti  Ti3  1  0.007221  0.483428  0.499396  1
  Ti  Ti4  1  0.507108  0.016421  0.500681  1
  Ti  Ti5  1  0.507117  0.016371  0.999347  1
  O  O6  1  0.064235  0.493150  0.250006  1
  O  O7  1  0.217217  0.216960  0.964861  1
  O  O8  1  0.217176  0.216957  0.535144  1
  O  O9  1  0.262302  0.735219  0.518809  1
  O  O10  1  0.262331  0.735223  0.981170  1
  O  O11  1  0.461659  0.987298  0.250010  1
  O  O12  1  0.564350  0.006894  0.750001  1
  O  O13  1  0.717251  0.283120  0.035080  1
  O  O14  1  0.717192  0.283115  0.464909  1
  O  O15  1  0.762311  0.764799  0.018832  1
  O  O16  1  0.762307  0.764801  0.481167  1
  O  O17  1  0.961521  0.512763  0.749982  1
