# generated using pymatgen
data_MgCoF4
_symmetry_space_group_name_H-M   'P 1'
_cell_length_a   5.01902595
_cell_length_b   5.02930059
_cell_length_c   6.14769937
_cell_angle_alpha   113.57672345
_cell_angle_beta   114.39446308
_cell_angle_gamma   90.16527706
_symmetry_Int_Tables_number   1
_chemical_formula_structural   MgCoF4
_chemical_formula_sum   'Mg2 Co2 F8'
_cell_volume   126.87677579
_cell_formula_units_Z   2
loop_
 _symmetry_equiv_pos_site_id
 _symmetry_equiv_pos_as_xyz
  1  'x, y, z'
loop_
 _atom_site_type_symbol
 _atom_site_label
 _atom_site_symmetry_multiplicity
 _atom_site_fract_x
 _atom_site_fract_y
 _atom_site_fract_z
 _atom_site_occupancy
  Mg  Mg0  1  0.251876  0.248141  0.498376  1
  Mg  Mg1  1  0.752873  0.746431  0.497267  1
  Co  Co2  1  0.003307  0.499635  0.001103  1
  Co  Co3  1  0.499997  0.996844  0.994983  1
  F  F4  1  0.888440  0.393685  0.263277  1
  F  F5  1  0.628219  0.145224  0.756921  1
  F  F6  1  0.131295  0.615411  0.756520  1
  F  F7  1  0.117926  0.104899  0.734645  1
  F  F8  1  0.380920  0.863089  0.263277  1
  F  F9  1  0.376257  0.351751  0.240972  1
  F  F10  1  0.871148  0.882517  0.241096  1
  F  F11  1  0.619046  0.633544  0.734221  1
