# generated using pymatgen
data_Cr2O5
_symmetry_space_group_name_H-M   'P 1'
_cell_length_a   3.63700623
_cell_length_b   4.79071507
_cell_length_c   11.03706396
_cell_angle_alpha   89.99577358
_cell_angle_beta   89.99995243
_cell_angle_gamma   89.99993711
_symmetry_Int_Tables_number   1
_chemical_formula_structural   Cr2O5
_chemical_formula_sum   'Cr4 O10'
_cell_volume   192.30826295
_cell_formula_units_Z   2
loop_
 _symmetry_equiv_pos_site_id
 _symmetry_equiv_pos_as_xyz
  1  'x, y, z'
loop_
 _atom_site_type_symbol
 _atom_site_label
 _atom_site_symmetry_multiplicity
 _atom_site_fract_x
 _atom_site_fract_y
 _atom_site_fract_z
 _atom_site_occupancy
  Cr  Cr0  1  0.018570  0.883142  0.152546  1
  Cr  Cr1  1  0.518568  0.117008  0.347403  1
  Cr  Cr2  1  0.518569  0.116935  0.652568  1
  Cr  Cr3  1  0.018570  0.882917  0.847433  1
  O  O4  1  0.518577  0.992926  0.181231  1
  O  O5  1  0.018576  0.007030  0.318764  1
  O  O6  1  0.018579  0.007004  0.681250  1
  O  O7  1  0.518579  0.992882  0.818776  1
  O  O8  1  0.018574  0.553078  0.853441  1
  O  O9  1  0.518573  0.446777  0.646610  1
  O  O10  1  0.518569  0.446846  0.353413  1
  O  O11  1  0.518554  0.991993  0.499974  1
  O  O12  1  0.018562  0.008083  0.999969  1
  O  O13  1  0.018571  0.553380  0.146622  1
