# generated using pymatgen
data_YCo(WO4)2
_symmetry_space_group_name_H-M   'P 1'
_cell_length_a   5.09894762
_cell_length_b   6.09706381
_cell_length_c   6.19937062
_cell_angle_alpha   108.78056007
_cell_angle_beta   116.43005286
_cell_angle_gamma   90.49828701
_symmetry_Int_Tables_number   1
_chemical_formula_structural   YCo(WO4)2
_chemical_formula_sum   'Y1 Co1 W2 O8'
_cell_volume   160.74928582
_cell_formula_units_Z   1
loop_
 _symmetry_equiv_pos_site_id
 _symmetry_equiv_pos_as_xyz
  1  'x, y, z'
loop_
 _atom_site_type_symbol
 _atom_site_label
 _atom_site_symmetry_multiplicity
 _atom_site_fract_x
 _atom_site_fract_y
 _atom_site_fract_z
 _atom_site_occupancy
  Y  Y0  1  0.623985  0.722655  0.099226  1
  Co  Co1  1  0.131884  0.227810  0.103812  1
  W  W2  1  0.865275  0.387030  0.579854  1
  W  W3  1  0.383574  0.058515  0.619105  1
  O  O4  1  0.132835  0.652034  0.829277  1
  O  O5  1  0.609800  0.497398  0.334978  1
  O  O6  1  0.163312  0.193910  0.797194  1
  O  O7  1  0.579896  0.052694  0.398851  1
  O  O8  1  0.635962  0.946910  0.862726  1
  O  O9  1  0.114303  0.794316  0.368824  1
  O  O10  1  0.085887  0.252768  0.402101  1
  O  O11  1  0.669286  0.392458  0.800147  1
