# generated using pymatgen
data_Ca2Nb2BiO8
_symmetry_space_group_name_H-M   'P 1'
_cell_length_a   5.58391880
_cell_length_b   6.61595224
_cell_length_c   10.58576232
_cell_angle_alpha   108.01474179
_cell_angle_beta   91.05702335
_cell_angle_gamma   90.12990708
_symmetry_Int_Tables_number   1
_chemical_formula_structural   Ca2Nb2BiO8
_chemical_formula_sum   'Ca4 Nb4 Bi2 O16'
_cell_volume   371.82143306
_cell_formula_units_Z   2
loop_
 _symmetry_equiv_pos_site_id
 _symmetry_equiv_pos_as_xyz
  1  'x, y, z'
loop_
 _atom_site_type_symbol
 _atom_site_label
 _atom_site_symmetry_multiplicity
 _atom_site_fract_x
 _atom_site_fract_y
 _atom_site_fract_z
 _atom_site_occupancy
  Ca  Ca0  1  0.757127  0.442215  0.568982  1
  Ca  Ca1  1  0.748784  0.873487  0.433785  1
  Ca  Ca2  1  0.249125  0.562071  0.431354  1
  Ca  Ca3  1  0.257626  0.131140  0.567438  1
  Nb  Nb4  1  0.744934  0.268565  0.240763  1
  Nb  Nb5  1  0.759918  0.027533  0.760667  1
  Nb  Nb6  1  0.261003  0.734453  0.759831  1
  Nb  Nb7  1  0.246099  0.975458  0.239887  1
  Bi  Bi8  1  0.752699  0.677623  0.000250  1
  Bi  Bi9  1  0.251757  0.324035  0.999378  1
  O  O10  1  0.064223  0.174862  0.145486  1
  O  O11  1  0.441572  0.028011  0.855905  1
  O  O12  1  0.941252  0.827228  0.854612  1
  O  O13  1  0.565059  0.972653  0.145465  1
  O  O14  1  0.609754  0.417957  0.128153  1
  O  O15  1  0.892936  0.291627  0.873056  1
  O  O16  1  0.393424  0.581506  0.871582  1
  O  O17  1  0.110232  0.712532  0.128112  1
  O  O18  1  0.474596  0.262313  0.369713  1
  O  O19  1  0.031481  0.894873  0.631919  1
  O  O20  1  0.354897  0.852683  0.378200  1
  O  O21  1  0.151478  0.473800  0.620859  1
  O  O22  1  0.651256  0.152149  0.622789  1
  O  O23  1  0.854608  0.529860  0.378490  1
  O  O24  1  0.974373  0.108933  0.368360  1
  O  O25  1  0.531438  0.741747  0.630490  1
