# generated using pymatgen
data_CaV2(BiO5)2
_symmetry_space_group_name_H-M   'P 1'
_cell_length_a   5.76042873
_cell_length_b   11.36988019
_cell_length_c   16.10461184
_cell_angle_alpha   90.00000000
_cell_angle_beta   90.00000000
_cell_angle_gamma   90.00000000
_symmetry_Int_Tables_number   1
_chemical_formula_structural   CaV2(BiO5)2
_chemical_formula_sum   'Ca4 V8 Bi8 O40'
_cell_volume   1054.77774473
_cell_formula_units_Z   4
loop_
 _symmetry_equiv_pos_site_id
 _symmetry_equiv_pos_as_xyz
  1  'x, y, z'
loop_
 _atom_site_type_symbol
 _atom_site_label
 _atom_site_symmetry_multiplicity
 _atom_site_fract_x
 _atom_site_fract_y
 _atom_site_fract_z
 _atom_site_occupancy
  Ca  Ca0  1  0.501880  0.364099  0.456523  1
  Ca  Ca1  1  0.998120  0.364099  0.956523  1
  Ca  Ca2  1  0.998120  0.864099  0.543477  1
  Ca  Ca3  1  0.501880  0.864099  0.043477  1
  V  V4  1  0.987447  0.396574  0.606916  1
  V  V5  1  0.512553  0.896574  0.393084  1
  V  V6  1  0.025580  0.594001  0.393820  1
  V  V7  1  0.474420  0.094001  0.606180  1
  V  V8  1  0.025580  0.094001  0.106180  1
  V  V9  1  0.987447  0.896574  0.893084  1
  V  V10  1  0.512553  0.396574  0.106916  1
  V  V11  1  0.474420  0.594001  0.893820  1
  Bi  Bi12  1  0.931412  0.848547  0.227156  1
  Bi  Bi13  1  0.077942  0.175265  0.779220  1
  Bi  Bi14  1  0.568588  0.348547  0.772844  1
  Bi  Bi15  1  0.077942  0.675265  0.720780  1
  Bi  Bi16  1  0.422058  0.175265  0.279220  1
  Bi  Bi17  1  0.422058  0.675265  0.220780  1
  Bi  Bi18  1  0.568588  0.848547  0.727156  1
  Bi  Bi19  1  0.931412  0.348547  0.272844  1
  O  O20  1  0.908646  0.288782  0.687906  1
  O  O21  1  0.271655  0.028054  0.077596  1
  O  O22  1  0.228346  0.528054  0.922404  1
  O  O23  1  0.242669  0.800464  0.155414  1
  O  O24  1  0.257331  0.300464  0.844586  1
  O  O25  1  0.908646  0.788782  0.812094  1
  O  O26  1  0.257331  0.800464  0.655414  1
  O  O27  1  0.591354  0.788782  0.312094  1
  O  O28  1  0.271655  0.528054  0.422404  1
  O  O29  1  0.108763  0.676457  0.296795  1
  O  O30  1  0.591354  0.288782  0.187906  1
  O  O31  1  0.571763  0.185870  0.532803  1
  O  O32  1  0.767202  0.937730  0.433806  1
  O  O33  1  0.775097  0.726675  0.655460  1
  O  O34  1  0.151308  0.014174  0.840295  1
  O  O35  1  0.767202  0.437730  0.066194  1
  O  O36  1  0.108763  0.176457  0.203205  1
  O  O37  1  0.724903  0.226675  0.344540  1
  O  O38  1  0.160432  0.838047  0.964134  1
  O  O39  1  0.228346  0.028054  0.577596  1
  O  O40  1  0.339568  0.838047  0.464134  1
  O  O41  1  0.810222  0.984230  0.135718  1
  O  O42  1  0.775097  0.226675  0.844540  1
  O  O43  1  0.689778  0.984230  0.635718  1
  O  O44  1  0.339568  0.338047  0.035866  1
  O  O45  1  0.160432  0.338047  0.535866  1
  O  O46  1  0.732798  0.437730  0.566194  1
  O  O47  1  0.732798  0.937730  0.933806  1
  O  O48  1  0.689778  0.484230  0.864282  1
  O  O49  1  0.928237  0.685870  0.467197  1
  O  O50  1  0.928237  0.185870  0.032803  1
  O  O51  1  0.571763  0.685870  0.967197  1
  O  O52  1  0.810222  0.484230  0.364282  1
  O  O53  1  0.724903  0.726675  0.155460  1
  O  O54  1  0.242669  0.300464  0.344586  1
  O  O55  1  0.151308  0.514174  0.659705  1
  O  O56  1  0.348692  0.514174  0.159705  1
  O  O57  1  0.391237  0.176457  0.703205  1
  O  O58  1  0.348692  0.014174  0.340295  1
  O  O59  1  0.391237  0.676457  0.796795  1
