# generated using pymatgen
data_Al(NiO2)2
_symmetry_space_group_name_H-M   'P 1'
_cell_length_a   5.78617825
_cell_length_b   5.78626883
_cell_length_c   5.79430375
_cell_angle_alpha   120.00933887
_cell_angle_beta   120.04545133
_cell_angle_gamma   89.87465717
_symmetry_Int_Tables_number   1
_chemical_formula_structural   Al(NiO2)2
_chemical_formula_sum   'Al2 Ni4 O8'
_cell_volume   137.21152483
_cell_formula_units_Z   2
loop_
 _symmetry_equiv_pos_site_id
 _symmetry_equiv_pos_as_xyz
  1  'x, y, z'
loop_
 _atom_site_type_symbol
 _atom_site_label
 _atom_site_symmetry_multiplicity
 _atom_site_fract_x
 _atom_site_fract_y
 _atom_site_fract_z
 _atom_site_occupancy
  Al  Al0  1  0.000011  0.500006  0.000007  1
  Al  Al1  1  0.000004  0.000004  0.500011  1
  Ni  Ni2  1  0.371163  0.621187  0.749992  1
  Ni  Ni3  1  0.628867  0.378817  0.250027  1
  Ni  Ni4  1  0.499995  0.000010  0.499997  1
  Ni  Ni5  1  0.000001  0.999982  -0.000022  1
  O  O6  1  0.767113  0.773968  0.508439  1
  O  O7  1  0.765534  0.258667  0.991543  1
  O  O8  1  0.223194  0.248165  0.973640  1
  O  O9  1  0.232864  0.226037  0.491550  1
  O  O10  1  0.225430  0.750458  0.473601  1
  O  O11  1  0.234452  0.741325  0.008432  1
  O  O12  1  0.774552  0.249531  0.526408  1
  O  O13  1  0.776819  0.751848  0.026376  1
