# generated using pymatgen
data_Mg3Ti2(SiO4)3
_symmetry_space_group_name_H-M   'P 1'
_cell_length_a   10.28627982
_cell_length_b   10.28628008
_cell_length_c   10.28627976
_cell_angle_alpha   109.47122182
_cell_angle_beta   109.47122236
_cell_angle_gamma   109.47121841
_symmetry_Int_Tables_number   1
_chemical_formula_structural   Mg3Ti2(SiO4)3
_chemical_formula_sum   'Mg12 Ti8 Si12 O48'
_cell_volume   837.82461772
_cell_formula_units_Z   4
loop_
 _symmetry_equiv_pos_site_id
 _symmetry_equiv_pos_as_xyz
  1  'x, y, z'
loop_
 _atom_site_type_symbol
 _atom_site_label
 _atom_site_symmetry_multiplicity
 _atom_site_fract_x
 _atom_site_fract_y
 _atom_site_fract_z
 _atom_site_occupancy
  Mg  Mg0  1  0.375000  0.750000  0.125000  1
  Mg  Mg1  1  0.125000  0.250000  0.375000  1
  Mg  Mg2  1  0.375000  0.125000  0.250000  1
  Mg  Mg3  1  0.125000  0.375000  0.750000  1
  Mg  Mg4  1  0.875000  0.750000  0.625000  1
  Mg  Mg5  1  0.750000  0.125000  0.375000  1
  Mg  Mg6  1  0.750000  0.625000  0.875000  1
  Mg  Mg7  1  0.625000  0.250000  0.875000  1
  Mg  Mg8  1  0.250000  0.875000  0.625000  1
  Mg  Mg9  1  0.875000  0.625000  0.250000  1
  Mg  Mg10  1  0.625000  0.875000  0.750000  1
  Mg  Mg11  1  0.250000  0.375000  0.125000  1
  Ti  Ti12  1  0.000000  0.000000  0.000000  1
  Ti  Ti13  1  0.000000  0.500000  0.000000  1
  Ti  Ti14  1  0.000000  0.000000  0.500000  1
  Ti  Ti15  1  0.000000  0.500000  0.500000  1
  Ti  Ti16  1  0.500000  0.000000  0.500000  1
  Ti  Ti17  1  0.500000  0.500000  0.000000  1
  Ti  Ti18  1  0.500000  0.500000  0.500000  1
  Ti  Ti19  1  0.500000  0.000000  0.000000  1
  Si  Si20  1  0.250000  0.125000  0.875000  1
  Si  Si21  1  0.750000  0.875000  0.125000  1
  Si  Si22  1  0.375000  0.250000  0.625000  1
  Si  Si23  1  0.625000  0.375000  0.250000  1
  Si  Si24  1  0.125000  0.750000  0.875000  1
  Si  Si25  1  0.875000  0.125000  0.750000  1
  Si  Si26  1  0.750000  0.375000  0.625000  1
  Si  Si27  1  0.375000  0.625000  0.750000  1
  Si  Si28  1  0.125000  0.875000  0.250000  1
  Si  Si29  1  0.875000  0.250000  0.125000  1
  Si  Si30  1  0.625000  0.750000  0.375000  1
  Si  Si31  1  0.250000  0.625000  0.375000  1
  O  O32  1  0.286319  0.479883  0.375509  1
  O  O33  1  0.020117  0.306436  0.895626  1
  O  O34  1  0.124491  0.604374  0.910810  1
  O  O35  1  0.213681  0.589190  0.193564  1
  O  O36  1  0.213681  0.124491  0.020117  1
  O  O37  1  0.589190  0.193564  0.213681  1
  O  O38  1  0.604374  0.193564  0.479883  1
  O  O39  1  0.193564  0.213681  0.589190  1
  O  O40  1  0.895626  0.375509  0.589190  1
  O  O41  1  0.306436  0.910810  0.286319  1
  O  O42  1  0.910810  0.286319  0.306436  1
  O  O43  1  0.020117  0.213681  0.124491  1
  O  O44  1  0.193564  0.479883  0.604374  1
  O  O45  1  0.589190  0.895626  0.375509  1
  O  O46  1  0.124491  0.020117  0.213681  1
  O  O47  1  0.479883  0.604374  0.193564  1
  O  O48  1  0.375509  0.589190  0.895626  1
  O  O49  1  0.895626  0.020117  0.306436  1
  O  O50  1  0.604374  0.910810  0.124491  1
  O  O51  1  0.104374  0.624491  0.410810  1
  O  O52  1  0.910810  0.124491  0.604374  1
  O  O53  1  0.375509  0.286319  0.479883  1
  O  O54  1  0.306436  0.895626  0.020117  1
  O  O55  1  0.286319  0.306436  0.910810  1
  O  O56  1  0.713681  0.520117  0.624491  1
  O  O57  1  0.979883  0.693564  0.104374  1
  O  O58  1  0.875509  0.395626  0.089190  1
  O  O59  1  0.786319  0.410810  0.806436  1
  O  O60  1  0.786319  0.875509  0.979883  1
  O  O61  1  0.410810  0.806436  0.786319  1
  O  O62  1  0.395626  0.806436  0.520117  1
  O  O63  1  0.806436  0.786319  0.410810  1
  O  O64  1  0.713681  0.693564  0.089190  1
  O  O65  1  0.693564  0.104374  0.979883  1
  O  O66  1  0.624491  0.713681  0.520117  1
  O  O67  1  0.520117  0.624491  0.713681  1
  O  O68  1  0.089190  0.875509  0.395626  1
  O  O69  1  0.395626  0.089190  0.875509  1
  O  O70  1  0.104374  0.979883  0.693564  1
  O  O71  1  0.624491  0.410810  0.104374  1
  O  O72  1  0.520117  0.395626  0.806436  1
  O  O73  1  0.875509  0.979883  0.786319  1
  O  O74  1  0.410810  0.104374  0.624491  1
  O  O75  1  0.806436  0.520117  0.395626  1
  O  O76  1  0.979883  0.786319  0.875509  1
  O  O77  1  0.089190  0.713681  0.693564  1
  O  O78  1  0.693564  0.089190  0.713681  1
  O  O79  1  0.479883  0.375509  0.286319  1
