# generated using pymatgen
data_MnZn2IrO6
_symmetry_space_group_name_H-M   'P 1'
_cell_length_a   5.17020241
_cell_length_b   5.17769012
_cell_length_c   7.98443544
_cell_angle_alpha   90.00000000
_cell_angle_beta   90.32849522
_cell_angle_gamma   90.00000000
_symmetry_Int_Tables_number   1
_chemical_formula_structural   MnZn2IrO6
_chemical_formula_sum   'Mn2 Zn4 Ir2 O12'
_cell_volume   213.73747580
_cell_formula_units_Z   2
loop_
 _symmetry_equiv_pos_site_id
 _symmetry_equiv_pos_as_xyz
  1  'x, y, z'
loop_
 _atom_site_type_symbol
 _atom_site_label
 _atom_site_symmetry_multiplicity
 _atom_site_fract_x
 _atom_site_fract_y
 _atom_site_fract_z
 _atom_site_occupancy
  Mn  Mn0  1  -0.000000  0.500000  0.000000  1
  Mn  Mn1  1  0.500000  -0.000000  0.500000  1
  Zn  Zn2  1  0.994970  0.968327  0.245904  1
  Zn  Zn3  1  0.505030  0.468327  0.254096  1
  Zn  Zn4  1  0.494970  0.531673  0.745904  1
  Zn  Zn5  1  0.005030  0.031673  0.754096  1
  Ir  Ir6  1  -0.000000  0.500000  0.500000  1
  Ir  Ir7  1  0.500000  -0.000000  0.000000  1
  O  O8  1  0.120915  0.409338  0.731769  1
  O  O9  1  0.174126  0.176947  0.061965  1
  O  O10  1  0.172165  0.177838  0.426205  1
  O  O11  1  0.327835  0.677838  0.073795  1
  O  O12  1  0.325874  0.676947  0.438035  1
  O  O13  1  0.379085  0.909338  0.768231  1
  O  O14  1  0.620915  0.090662  0.231769  1
  O  O15  1  0.674126  0.323053  0.561965  1
  O  O16  1  0.672165  0.322162  0.926205  1
  O  O17  1  0.825874  0.823053  0.938035  1
  O  O18  1  0.827835  0.822162  0.573795  1
  O  O19  1  0.879085  0.590662  0.268231  1
