# generated using pymatgen
data_Ca(CuO2)2
_symmetry_space_group_name_H-M   'P 1'
_cell_length_a   5.14361894
_cell_length_b   5.91367512
_cell_length_c   10.97926128
_cell_angle_alpha   89.99043863
_cell_angle_beta   89.99424214
_cell_angle_gamma   89.99790759
_symmetry_Int_Tables_number   1
_chemical_formula_structural   Ca(CuO2)2
_chemical_formula_sum   'Ca4 Cu8 O16'
_cell_volume   333.96377433
_cell_formula_units_Z   4
loop_
 _symmetry_equiv_pos_site_id
 _symmetry_equiv_pos_as_xyz
  1  'x, y, z'
loop_
 _atom_site_type_symbol
 _atom_site_label
 _atom_site_symmetry_multiplicity
 _atom_site_fract_x
 _atom_site_fract_y
 _atom_site_fract_z
 _atom_site_occupancy
  Ca  Ca0  1  0.855537  0.249926  0.750133  1
  Ca  Ca1  1  0.145176  0.749931  0.250139  1
  Ca  Ca2  1  0.534049  0.250024  0.249767  1
  Ca  Ca3  1  0.466371  0.750018  0.750049  1
  Cu  Cu4  1  0.505714  0.750524  0.490042  1
  Cu  Cu5  1  0.505449  0.749992  0.010016  1
  Cu  Cu6  1  0.494374  0.250479  0.510008  1
  Cu  Cu7  1  0.494268  0.249967  0.989795  1
  Cu  Cu8  1  0.000094  0.499641  0.500013  1
  Cu  Cu9  1  0.999841  0.999861  0.000039  1
  Cu  Cu10  1  0.999928  0.999661  0.500039  1
  Cu  Cu11  1  0.999837  0.500117  0.000027  1
  O  O12  1  0.839881  0.749651  0.402275  1
  O  O13  1  0.839389  0.749954  0.098153  1
  O  O14  1  0.160176  0.249528  0.597783  1
  O  O15  1  0.160477  0.250016  0.902058  1
  O  O16  1  0.176094  0.749606  0.589252  1
  O  O17  1  0.175783  0.750036  0.910510  1
  O  O18  1  0.823951  0.249667  0.410731  1
  O  O19  1  0.823460  0.249946  0.089129  1
  O  O20  1  0.665344  0.503713  0.603662  1
  O  O21  1  0.665273  0.996255  0.896512  1
  O  O22  1  0.334823  0.003843  0.396398  1
  O  O23  1  0.334597  0.496760  0.103437  1
  O  O24  1  0.335490  0.497011  0.396534  1
  O  O25  1  0.334558  0.003161  0.103439  1
  O  O26  1  0.664786  0.997012  0.603539  1
  O  O27  1  0.665281  0.503699  0.896521  1
