# generated using pymatgen
data_Ca2AlNiO5
_symmetry_space_group_name_H-M   'P 1'
_cell_length_a   5.24290024
_cell_length_b   5.65244788
_cell_length_c   8.19788371
_cell_angle_alpha   110.21136514
_cell_angle_beta   108.64380748
_cell_angle_gamma   90.02113760
_symmetry_Int_Tables_number   1
_chemical_formula_structural   Ca2AlNiO5
_chemical_formula_sum   'Ca4 Al2 Ni2 O10'
_cell_volume   214.33865140
_cell_formula_units_Z   2
loop_
 _symmetry_equiv_pos_site_id
 _symmetry_equiv_pos_as_xyz
  1  'x, y, z'
loop_
 _atom_site_type_symbol
 _atom_site_label
 _atom_site_symmetry_multiplicity
 _atom_site_fract_x
 _atom_site_fract_y
 _atom_site_fract_z
 _atom_site_occupancy
  Ca  Ca0  1  0.116767  0.642507  0.218330  1
  Ca  Ca1  1  0.397936  0.923731  0.781444  1
  Ca  Ca2  1  0.898723  0.357150  0.781424  1
  Ca  Ca3  1  0.615989  0.075561  0.217666  1
  Al  Al4  1  0.289912  0.327385  0.499362  1
  Al  Al5  1  0.790392  0.671387  0.500061  1
  Ni  Ni6  1  0.494591  0.499725  0.999701  1
  Ni  Ni7  1  0.994383  0.999745  0.999556  1
  O  O8  1  0.626855  0.392423  0.499792  1
  O  O9  1  0.126916  0.606325  0.499777  1
  O  O10  1  0.615728  0.718648  0.293650  1
  O  O11  1  0.321030  0.280430  0.705808  1
  O  O12  1  0.114971  0.074790  0.291550  1
  O  O13  1  0.823597  0.924468  0.707717  1
  O  O14  1  0.232781  0.737782  0.964329  1
  O  O15  1  0.267785  0.262920  0.035733  1
  O  O16  1  0.767523  0.273422  0.035444  1
  O  O17  1  0.731575  0.725763  0.963196  1
