# generated using pymatgen
data_CaCuW2O7
_symmetry_space_group_name_H-M   'P 1'
_cell_length_a   9.15157523
_cell_length_b   10.59922413
_cell_length_c   11.15090098
_cell_angle_alpha   95.29447101
_cell_angle_beta   90.00000000
_cell_angle_gamma   90.00000000
_symmetry_Int_Tables_number   1
_chemical_formula_structural   CaCuW2O7
_chemical_formula_sum   'Ca6 Cu6 W12 O42'
_cell_volume   1077.01823094
_cell_formula_units_Z   6
loop_
 _symmetry_equiv_pos_site_id
 _symmetry_equiv_pos_as_xyz
  1  'x, y, z'
loop_
 _atom_site_type_symbol
 _atom_site_label
 _atom_site_symmetry_multiplicity
 _atom_site_fract_x
 _atom_site_fract_y
 _atom_site_fract_z
 _atom_site_occupancy
  Ca  Ca0  1  0.439340  0.154490  0.572167  1
  Ca  Ca1  1  0.936817  0.500000  0.750000  1
  Ca  Ca2  1  0.439340  0.845510  0.927833  1
  Ca  Ca3  1  0.063183  0.500000  0.250000  1
  Ca  Ca4  1  0.560660  0.845510  0.427833  1
  Ca  Ca5  1  0.560660  0.154490  0.072167  1
  Cu  Cu6  1  0.933488  0.808536  0.410643  1
  Cu  Cu7  1  0.066512  0.191464  0.589357  1
  Cu  Cu8  1  0.444367  0.500000  0.250000  1
  Cu  Cu9  1  0.933488  0.191464  0.089357  1
  Cu  Cu10  1  0.555633  0.500000  0.750000  1
  Cu  Cu11  1  0.066512  0.808536  0.910643  1
  W  W12  1  0.207885  0.173499  0.290860  1
  W  W13  1  0.760841  0.154876  0.373766  1
  W  W14  1  0.239159  0.154876  0.873766  1
  W  W15  1  0.792115  0.173499  0.790860  1
  W  W16  1  0.295064  0.481002  0.963209  1
  W  W17  1  0.760841  0.845124  0.126234  1
  W  W18  1  0.704936  0.481002  0.463209  1
  W  W19  1  0.239159  0.845124  0.626234  1
  W  W20  1  0.295064  0.518998  0.536791  1
  W  W21  1  0.704936  0.518998  0.036791  1
  W  W22  1  0.792115  0.826501  0.709140  1
  W  W23  1  0.207885  0.826501  0.209140  1
  O  O24  1  0.767400  0.201937  0.954998  1
  O  O25  1  0.767959  0.843765  0.292042  1
  O  O26  1  0.847650  0.000000  0.750000  1
  O  O27  1  0.878395  0.507784  0.107474  1
  O  O28  1  0.394144  0.939571  0.564138  1
  O  O29  1  0.926616  0.277109  0.719229  1
  O  O30  1  0.352289  0.311329  0.939024  1
  O  O31  1  0.121605  0.507784  0.607474  1
  O  O32  1  0.725310  0.475330  0.875278  1
  O  O33  1  0.394144  0.060429  0.935862  1
  O  O34  1  0.725310  0.524670  0.624722  1
  O  O35  1  0.427564  0.578064  0.890715  1
  O  O36  1  0.928060  0.864860  0.042349  1
  O  O37  1  0.073384  0.277109  0.219229  1
  O  O38  1  0.647711  0.688671  0.060976  1
  O  O39  1  0.352289  0.688671  0.560976  1
  O  O40  1  0.926616  0.722891  0.780771  1
  O  O41  1  0.605856  0.060429  0.435862  1
  O  O42  1  0.232600  0.201937  0.454998  1
  O  O43  1  0.572436  0.421936  0.109285  1
  O  O44  1  0.380109  0.804408  0.284260  1
  O  O45  1  0.274690  0.524670  0.124722  1
  O  O46  1  0.071940  0.864860  0.542349  1
  O  O47  1  0.274690  0.475330  0.375278  1
  O  O48  1  0.878395  0.492216  0.392526  1
  O  O49  1  0.572436  0.578064  0.390715  1
  O  O50  1  0.121605  0.492216  0.892526  1
  O  O51  1  0.619891  0.804408  0.784260  1
  O  O52  1  0.619891  0.195592  0.715740  1
  O  O53  1  0.071940  0.135140  0.957651  1
  O  O54  1  0.073384  0.722891  0.280771  1
  O  O55  1  0.767400  0.798063  0.545002  1
  O  O56  1  0.152350  0.000000  0.250000  1
  O  O57  1  0.232041  0.843765  0.792042  1
  O  O58  1  0.605856  0.939571  0.064138  1
  O  O59  1  0.928060  0.135140  0.457651  1
  O  O60  1  0.232600  0.798063  0.045002  1
  O  O61  1  0.767959  0.156235  0.207958  1
  O  O62  1  0.427564  0.421936  0.609285  1
  O  O63  1  0.647711  0.311329  0.439024  1
  O  O64  1  0.232041  0.156235  0.707958  1
  O  O65  1  0.380109  0.195592  0.215740  1
