# generated using pymatgen
data_TiZnF5
_symmetry_space_group_name_H-M   'P 1'
_cell_length_a   5.40204312
_cell_length_b   5.40204269
_cell_length_c   7.59500862
_cell_angle_alpha   97.96203257
_cell_angle_beta   111.31715775
_cell_angle_gamma   107.10635220
_symmetry_Int_Tables_number   1
_chemical_formula_structural   TiZnF5
_chemical_formula_sum   'Ti2 Zn2 F10'
_cell_volume   189.69334252
_cell_formula_units_Z   2
loop_
 _symmetry_equiv_pos_site_id
 _symmetry_equiv_pos_as_xyz
  1  'x, y, z'
loop_
 _atom_site_type_symbol
 _atom_site_label
 _atom_site_symmetry_multiplicity
 _atom_site_fract_x
 _atom_site_fract_y
 _atom_site_fract_z
 _atom_site_occupancy
  Ti  Ti0  1  0.000000  0.000000  0.000000  1
  Ti  Ti1  1  0.500000  0.000000  0.500000  1
  Zn  Zn2  1  0.271190  0.521190  0.750000  1
  Zn  Zn3  1  0.728810  0.478810  0.250000  1
  F  F4  1  0.374554  0.124554  0.250000  1
  F  F5  1  0.625446  0.875446  0.750000  1
  F  F6  1  0.592378  0.731686  0.372453  1
  F  F7  1  0.859232  0.219924  0.127547  1
  F  F8  1  0.750340  0.682134  0.045005  1
  F  F9  1  0.137128  0.705335  0.454995  1
  F  F10  1  0.249660  0.317866  0.954995  1
  F  F11  1  0.862872  0.294665  0.545005  1
  F  F12  1  0.140768  0.780076  0.872453  1
  F  F13  1  0.407622  0.268314  0.627547  1
