# generated using pymatgen
data_Ca3V2O7
_symmetry_space_group_name_H-M   'P 1'
_cell_length_a   5.52835001
_cell_length_b   5.46654290
_cell_length_c   9.95003604
_cell_angle_alpha   105.94411081
_cell_angle_beta   90.00000000
_cell_angle_gamma   90.00000000
_symmetry_Int_Tables_number   1
_chemical_formula_structural   Ca3V2O7
_chemical_formula_sum   'Ca6 V4 O14'
_cell_volume   289.13178243
_cell_formula_units_Z   2
loop_
 _symmetry_equiv_pos_site_id
 _symmetry_equiv_pos_as_xyz
  1  'x, y, z'
loop_
 _atom_site_type_symbol
 _atom_site_label
 _atom_site_symmetry_multiplicity
 _atom_site_fract_x
 _atom_site_fract_y
 _atom_site_fract_z
 _atom_site_occupancy
  Ca  Ca0  1  0.710299  0.757828  0.000000  1
  Ca  Ca1  1  0.210299  0.242172  1.000000  1
  Ca  Ca2  1  0.787232  0.574622  0.630562  1
  Ca  Ca3  1  0.287232  0.425378  0.369438  1
  Ca  Ca4  1  0.787232  0.944059  0.369438  1
  Ca  Ca5  1  0.287232  0.055941  0.630562  1
  V  V6  1  0.751919  0.350636  0.199316  1
  V  V7  1  0.251919  0.649364  0.800684  1
  V  V8  1  0.251919  0.848679  0.199316  1
  V  V9  1  0.751919  0.151321  0.800684  1
  O  O10  1  0.733720  0.990340  0.606332  1
  O  O11  1  0.233720  0.009660  0.393668  1
  O  O12  1  0.233720  0.615991  0.606332  1
  O  O13  1  0.733720  0.384009  0.393668  1
  O  O14  1  0.039714  0.349000  0.778102  1
  O  O15  1  0.539714  0.651000  0.221898  1
  O  O16  1  0.539714  0.429102  0.778102  1
  O  O17  1  0.039714  0.570898  0.221898  1
  O  O18  1  0.960337  0.876519  0.830926  1
  O  O19  1  0.460337  0.123481  0.169074  1
  O  O20  1  0.763859  0.320538  1.000000  1
  O  O21  1  0.263859  0.679462  0.000000  1
  O  O22  1  0.960337  0.045593  0.169074  1
  O  O23  1  0.460337  0.954407  0.830926  1
