# generated using pymatgen
data_Zn2FeWO6
_symmetry_space_group_name_H-M   'P 1'
_cell_length_a   5.29987958
_cell_length_b   5.26438463
_cell_length_c   7.99886339
_cell_angle_alpha   90.00000000
_cell_angle_beta   88.12541836
_cell_angle_gamma   90.00000000
_symmetry_Int_Tables_number   1
_chemical_formula_structural   Zn2FeWO6
_chemical_formula_sum   'Zn4 Fe2 W2 O12'
_cell_volume   223.05368813
_cell_formula_units_Z   2
loop_
 _symmetry_equiv_pos_site_id
 _symmetry_equiv_pos_as_xyz
  1  'x, y, z'
loop_
 _atom_site_type_symbol
 _atom_site_label
 _atom_site_symmetry_multiplicity
 _atom_site_fract_x
 _atom_site_fract_y
 _atom_site_fract_z
 _atom_site_occupancy
  Zn  Zn0  1  0.017082  0.022220  0.260856  1
  Zn  Zn1  1  0.482918  0.522221  0.239144  1
  Zn  Zn2  1  0.982919  0.977781  0.739144  1
  Zn  Zn3  1  0.517081  0.477780  0.760856  1
  Fe  Fe4  1  0.500000  0.000000  0.000000  1
  Fe  Fe5  1  0.000001  0.499999  0.500000  1
  W  W6  1  0.500000  0.000000  0.499999  1
  W  W7  1  0.000000  0.499999  0.000000  1
  O  O8  1  0.644755  0.311526  0.412261  1
  O  O9  1  0.855245  0.811527  0.087739  1
  O  O10  1  0.355244  0.688474  0.587739  1
  O  O11  1  0.144756  0.188473  0.912261  1
  O  O12  1  0.177776  0.166965  0.551282  1
  O  O13  1  0.322224  0.666964  0.948718  1
  O  O14  1  0.822225  0.833035  0.448718  1
  O  O15  1  0.677775  0.333036  0.051282  1
  O  O16  1  0.114491  0.396233  0.226682  1
  O  O17  1  0.385510  0.896234  0.273317  1
  O  O18  1  0.614491  0.103766  0.726683  1
  O  O19  1  0.885510  0.603767  0.773318  1
