# generated using pymatgen
data_Ba2Ti3Tl2O10
_symmetry_space_group_name_H-M   'P 1'
_cell_length_a   3.99373019
_cell_length_b   3.99746347
_cell_length_c   16.45946982
_cell_angle_alpha   88.98461595
_cell_angle_beta   89.82216950
_cell_angle_gamma   90.00044283
_symmetry_Int_Tables_number   1
_chemical_formula_structural   Ba2Ti3Tl2O10
_chemical_formula_sum   'Ba2 Ti3 Tl2 O10'
_cell_volume   262.72945989
_cell_formula_units_Z   1
loop_
 _symmetry_equiv_pos_site_id
 _symmetry_equiv_pos_as_xyz
  1  'x, y, z'
loop_
 _atom_site_type_symbol
 _atom_site_label
 _atom_site_symmetry_multiplicity
 _atom_site_fract_x
 _atom_site_fract_y
 _atom_site_fract_z
 _atom_site_occupancy
  Ba  Ba0  1  0.234465  0.222818  0.261053  1
  Ba  Ba1  1  0.708380  0.706601  0.738192  1
  Ti  Ti2  1  0.184324  0.197823  0.859652  1
  Ti  Ti3  1  0.738498  0.753340  0.135605  1
  Ti  Ti4  1  0.281251  0.682481  0.995708  1
  Tl  Tl5  1  0.720854  0.722547  0.438960  1
  Tl  Tl6  1  0.169353  0.214476  0.585964  1
  O  O7  1  0.232214  0.698639  0.869163  1
  O  O8  1  0.233136  0.207051  0.724055  1
  O  O9  1  0.739611  0.200054  0.845231  1
  O  O10  1  0.886051  0.714216  0.584907  1
  O  O11  1  0.725079  0.691976  0.009260  1
  O  O12  1  0.235805  0.702702  0.114174  1
  O  O13  1  0.726588  0.691638  0.248235  1
  O  O14  1  0.739161  0.197200  0.141542  1
  O  O15  1  0.364357  0.221729  0.467366  1
  O  O16  1  0.231339  0.193414  0.973987  1
