# generated using pymatgen
data_BaTl(SbO3)2
_symmetry_space_group_name_H-M   'P 1'
_cell_length_a   3.84943923
_cell_length_b   3.84953953
_cell_length_c   23.29277244
_cell_angle_alpha   94.73888157
_cell_angle_beta   94.73913827
_cell_angle_gamma   89.98558566
_symmetry_Int_Tables_number   1
_chemical_formula_structural   BaTl(SbO3)2
_chemical_formula_sum   'Ba2 Tl2 Sb4 O12'
_cell_volume   342.80207972
_cell_formula_units_Z   2
loop_
 _symmetry_equiv_pos_site_id
 _symmetry_equiv_pos_as_xyz
  1  'x, y, z'
loop_
 _atom_site_type_symbol
 _atom_site_label
 _atom_site_symmetry_multiplicity
 _atom_site_fract_x
 _atom_site_fract_y
 _atom_site_fract_z
 _atom_site_occupancy
  Ba  Ba0  1  0.160247  0.160252  0.320260  1
  Ba  Ba1  1  0.839805  0.839789  0.679808  1
  Tl  Tl2  1  0.724904  0.724915  0.449476  1
  Tl  Tl3  1  0.275128  0.275115  0.550514  1
  Sb  Sb4  1  0.531375  0.531394  0.062431  1
  Sb  Sb5  1  0.399634  0.399624  0.799629  1
  Sb  Sb6  1  0.600391  0.600396  0.200510  1
  Sb  Sb7  1  0.468578  0.468584  0.937530  1
  O  O8  1  0.380809  0.880742  0.761640  1
  O  O9  1  0.541473  0.041450  0.082506  1
  O  O10  1  0.230381  0.230366  0.460891  1
  O  O11  1  0.958511  0.458449  0.917360  1
  O  O12  1  0.769621  0.769615  0.539093  1
  O  O13  1  0.119274  0.619238  0.238432  1
  O  O14  1  0.619219  0.119277  0.238417  1
  O  O15  1  0.318801  0.318788  0.637873  1
  O  O16  1  0.880752  0.380797  0.761641  1
  O  O17  1  0.041496  0.541551  0.082666  1
  O  O18  1  0.458390  0.958445  0.917226  1
  O  O19  1  0.681211  0.681211  0.362097  1
