# generated using pymatgen
data_TaF5
_symmetry_space_group_name_H-M   'P 1'
_cell_length_a   3.72263440
_cell_length_b   5.51045323
_cell_length_c   5.51045332
_cell_angle_alpha   47.40231196
_cell_angle_beta   70.25837551
_cell_angle_gamma   70.25836476
_symmetry_Int_Tables_number   1
_chemical_formula_structural   TaF5
_chemical_formula_sum   'Ta1 F5'
_cell_volume   77.34145842
_cell_formula_units_Z   1
loop_
 _symmetry_equiv_pos_site_id
 _symmetry_equiv_pos_as_xyz
  1  'x, y, z'
loop_
 _atom_site_type_symbol
 _atom_site_label
 _atom_site_symmetry_multiplicity
 _atom_site_fract_x
 _atom_site_fract_y
 _atom_site_fract_z
 _atom_site_occupancy
  Ta  Ta0  1  0.000000  0.000000  0.000000  1
  F  F1  1  0.500000  0.767677  0.232323  1
  F  F2  1  0.500000  0.232323  0.767677  1
  F  F3  1  0.800322  0.199678  0.199678  1
  F  F4  1  0.199678  0.800322  0.800322  1
  F  F5  1  0.000000  0.500000  0.500000  1
