# generated using pymatgen
data_MgV2O4
_symmetry_space_group_name_H-M   'P 1'
_cell_length_a   2.88550868
_cell_length_b   5.10208638
_cell_length_c   10.00452584
_cell_angle_alpha   90.00000000
_cell_angle_beta   90.00000000
_cell_angle_gamma   106.42603434
_symmetry_Int_Tables_number   1
_chemical_formula_structural   MgV2O4
_chemical_formula_sum   'Mg2 V4 O8'
_cell_volume   141.27631064
_cell_formula_units_Z   2
loop_
 _symmetry_equiv_pos_site_id
 _symmetry_equiv_pos_as_xyz
  1  'x, y, z'
loop_
 _atom_site_type_symbol
 _atom_site_label
 _atom_site_symmetry_multiplicity
 _atom_site_fract_x
 _atom_site_fract_y
 _atom_site_fract_z
 _atom_site_occupancy
  Mg  Mg0  1  0.383420  0.766840  0.750000  1
  Mg  Mg1  1  0.616580  0.233160  0.250000  1
  V  V2  1  0.869356  0.738712  0.074225  1
  V  V3  1  0.130644  0.261288  0.925775  1
  V  V4  1  0.869356  0.738712  0.425775  1
  V  V5  1  0.130644  0.261288  0.574225  1
  O  O6  1  0.227258  0.454516  0.384727  1
  O  O7  1  0.772742  0.545484  0.615273  1
  O  O8  1  0.772742  0.545484  0.884727  1
  O  O9  1  0.227258  0.454516  0.115273  1
  O  O10  1  0.964070  0.928140  0.250000  1
  O  O11  1  0.035930  0.071860  0.750000  1
  O  O12  1  0.500000  -0.000000  -0.000000  1
  O  O13  1  0.500000  -0.000000  0.500000  1
