# generated using pymatgen
data_Ca2YCrO5
_symmetry_space_group_name_H-M   'P 1'
_cell_length_a   5.45927659
_cell_length_b   5.68351355
_cell_length_c   8.91849738
_cell_angle_alpha   108.58499506
_cell_angle_beta   107.89722330
_cell_angle_gamma   89.99753195
_symmetry_Int_Tables_number   1
_chemical_formula_structural   Ca2YCrO5
_chemical_formula_sum   'Ca4 Y2 Cr2 O10'
_cell_volume   248.12443369
_cell_formula_units_Z   2
loop_
 _symmetry_equiv_pos_site_id
 _symmetry_equiv_pos_as_xyz
  1  'x, y, z'
loop_
 _atom_site_type_symbol
 _atom_site_label
 _atom_site_symmetry_multiplicity
 _atom_site_fract_x
 _atom_site_fract_y
 _atom_site_fract_z
 _atom_site_occupancy
  Ca  Ca0  1  0.097254  0.623565  0.194524  1
  Ca  Ca1  1  0.405709  0.928359  0.804269  1
  Ca  Ca2  1  0.905787  0.375369  0.804245  1
  Ca  Ca3  1  0.596988  0.070491  0.194501  1
  Y  Y4  1  0.289844  0.294528  0.499637  1
  Y  Y5  1  0.789802  0.704654  0.499614  1
  Cr  Cr6  1  0.483391  0.499651  0.999409  1
  Cr  Cr7  1  0.983290  0.999336  0.999404  1
  O  O8  1  0.696660  0.329106  0.499448  1
  O  O9  1  0.196627  0.669862  0.499444  1
  O  O10  1  0.588014  0.702644  0.252840  1
  O  O11  1  0.331728  0.295969  0.745897  1
  O  O12  1  0.088449  0.049771  0.252827  1
  O  O13  1  0.831707  0.949416  0.745879  1
  O  O14  1  0.220816  0.737950  0.962237  1
  O  O15  1  0.252119  0.266444  0.036511  1
  O  O16  1  0.752267  0.269579  0.036672  1
  O  O17  1  0.720744  0.723759  0.962316  1
