# generated using pymatgen
data_Te3W5O18
_symmetry_space_group_name_H-M   'P 1'
_cell_length_a   9.16931882
_cell_length_b   9.16931925
_cell_length_c   12.00392458
_cell_angle_alpha   88.43279957
_cell_angle_beta   88.43279598
_cell_angle_gamma   62.17941638
_symmetry_Int_Tables_number   1
_chemical_formula_structural   Te3W5O18
_chemical_formula_sum   'Te6 W10 O36'
_cell_volume   892.13613219
_cell_formula_units_Z   2
loop_
 _symmetry_equiv_pos_site_id
 _symmetry_equiv_pos_as_xyz
  1  'x, y, z'
loop_
 _atom_site_type_symbol
 _atom_site_label
 _atom_site_symmetry_multiplicity
 _atom_site_fract_x
 _atom_site_fract_y
 _atom_site_fract_z
 _atom_site_occupancy
  Te  Te0  1  0.371562  0.807138  0.905043  1
  Te  Te1  1  0.824490  0.161244  0.234836  1
  Te  Te2  1  0.838756  0.175510  0.765164  1
  Te  Te3  1  0.396040  0.740426  0.413786  1
  Te  Te4  1  0.259574  0.603960  0.586214  1
  Te  Te5  1  0.192862  0.628438  0.094957  1
  W  W6  1  0.800344  0.548119  0.959217  1
  W  W7  1  0.142311  0.183292  0.455403  1
  W  W8  1  0.344514  0.322511  0.307696  1
  W  W9  1  0.953198  0.740385  0.814583  1
  W  W10  1  0.677489  0.655486  0.692304  1
  W  W11  1  0.910255  0.089745  0.000000  1
  W  W12  1  0.684920  0.315080  0.500000  1
  W  W13  1  0.259615  0.046801  0.185417  1
  W  W14  1  0.816708  0.857689  0.544597  1
  W  W15  1  0.451881  0.199656  0.040783  1
  O  O16  1  0.373787  0.183557  0.913903  1
  O  O17  1  0.778329  0.465393  0.785557  1
  O  O18  1  0.681437  0.542077  0.569177  1
  O  O19  1  0.749656  0.080358  0.497717  1
  O  O20  1  0.534607  0.221671  0.214443  1
  O  O21  1  0.919642  0.250344  0.502283  1
  O  O22  1  0.333331  0.836232  0.245744  1
  O  O23  1  0.039756  0.078560  0.856564  1
  O  O24  1  0.559848  0.357119  0.626414  1
  O  O25  1  0.130338  0.381537  0.384325  1
  O  O26  1  0.561461  0.623177  0.968860  1
  O  O27  1  0.463343  0.991853  0.104511  1
  O  O28  1  0.847241  0.949680  0.726623  1
  O  O29  1  0.725244  0.752376  0.846078  1
  O  O30  1  0.376823  0.438539  0.031140  1
  O  O31  1  0.263080  0.543232  0.250309  1
  O  O32  1  0.047755  0.787790  0.538698  1
  O  O33  1  0.247624  0.274756  0.153922  1
  O  O34  1  0.457923  0.318563  0.430823  1
  O  O35  1  0.212210  0.952245  0.461302  1
  O  O36  1  0.800057  0.773336  0.420647  1
  O  O37  1  0.897415  0.658049  0.663520  1
  O  O38  1  0.921440  0.960244  0.143436  1
  O  O39  1  0.456768  0.736920  0.749691  1
  O  O40  1  0.961693  0.854330  0.937319  1
  O  O41  1  0.671268  0.135445  0.004862  1
  O  O42  1  0.008147  0.536657  0.895489  1
  O  O43  1  0.163768  0.666669  0.754256  1
  O  O44  1  0.050320  0.152759  0.273377  1
  O  O45  1  0.341951  0.102585  0.336480  1
  O  O46  1  0.226664  0.199943  0.579353  1
  O  O47  1  0.864555  0.328732  0.995138  1
  O  O48  1  0.642881  0.440152  0.373586  1
  O  O49  1  0.618463  0.869662  0.615675  1
  O  O50  1  0.145670  0.038307  0.062681  1
  O  O51  1  0.816443  0.626213  0.086097  1
