# generated using pymatgen
data_CaV2(PO4)2
_symmetry_space_group_name_H-M   'P 1'
_cell_length_a   5.01069822
_cell_length_b   8.90887832
_cell_length_c   15.81383960
_cell_angle_alpha   85.23578346
_cell_angle_beta   80.88436540
_cell_angle_gamma   73.66700498
_symmetry_Int_Tables_number   1
_chemical_formula_structural   CaV2(PO4)2
_chemical_formula_sum   'Ca4 V8 P8 O32'
_cell_volume   668.32834262
_cell_formula_units_Z   4
loop_
 _symmetry_equiv_pos_site_id
 _symmetry_equiv_pos_as_xyz
  1  'x, y, z'
loop_
 _atom_site_type_symbol
 _atom_site_label
 _atom_site_symmetry_multiplicity
 _atom_site_fract_x
 _atom_site_fract_y
 _atom_site_fract_z
 _atom_site_occupancy
  Ca  Ca0  1  0.494147  0.837024  0.850118  1
  Ca  Ca1  1  0.181288  0.662976  0.649882  1
  Ca  Ca2  1  0.818712  0.337024  0.350118  1
  Ca  Ca3  1  0.505853  0.162976  0.149882  1
  V  V4  1  0.174818  0.229451  0.961888  1
  V  V5  1  0.366157  0.270549  0.538112  1
  V  V6  1  0.825182  0.770549  0.038112  1
  V  V7  1  0.500000  0.500000  -0.000000  1
  V  V8  1  0.633843  0.729451  0.461888  1
  V  V9  1  0.694821  0.750000  0.250000  1
  V  V10  1  0.305179  0.250000  0.750000  1
  V  V11  1  0.000000  -0.000000  0.500000  1
  P  P12  1  0.054596  0.573796  0.867486  1
  P  P13  1  0.769318  0.411516  0.613452  1
  P  P14  1  0.945404  0.426204  0.132514  1
  P  P15  1  0.205713  0.911516  0.113452  1
  P  P16  1  0.504123  0.073796  0.367486  1
  P  P17  1  0.495877  0.926204  0.632514  1
  P  P18  1  0.230682  0.588484  0.386548  1
  P  P19  1  0.794287  0.088484  0.886548  1
  O  O20  1  0.694973  0.378347  0.107225  1
  O  O21  1  0.786749  0.928495  0.931863  1
  O  O22  1  0.819454  0.878347  0.607225  1
  O  O23  1  0.823014  0.275999  0.549572  1
  O  O24  1  0.189695  0.387238  0.054938  1
  O  O25  1  0.554362  0.399716  0.692351  1
  O  O26  1  0.648586  0.224001  0.950428  1
  O  O27  1  0.889902  0.909607  0.138508  1
  O  O28  1  0.176986  0.724001  0.450428  1
  O  O29  1  0.647107  0.571505  0.568137  1
  O  O30  1  0.866002  0.604835  0.143273  1
  O  O31  1  0.598444  0.166582  0.288101  1
  O  O32  1  0.213250  0.071505  0.068137  1
  O  O33  1  0.061984  0.409607  0.638508  1
  O  O34  1  0.305026  0.621653  0.892775  1
  O  O35  1  0.133998  0.395165  0.856726  1
  O  O36  1  0.946873  0.666582  0.788101  1
  O  O37  1  0.351414  0.775999  0.049572  1
  O  O38  1  0.385889  0.104835  0.643274  1
  O  O39  1  0.401556  0.833418  0.711899  1
  O  O40  1  0.938016  0.590393  0.361492  1
  O  O41  1  0.368128  0.887238  0.554938  1
  O  O42  1  0.110098  0.090393  0.861492  1
  O  O43  1  0.353570  0.899716  0.192351  1
  O  O44  1  0.352893  0.428495  0.431863  1
  O  O45  1  0.180546  0.121653  0.392775  1
  O  O46  1  0.053127  0.333418  0.211899  1
  O  O47  1  0.631872  0.112762  0.445062  1
  O  O48  1  0.810305  0.612762  0.945062  1
  O  O49  1  0.646430  0.100284  0.807649  1
  O  O50  1  0.445638  0.600284  0.307649  1
  O  O51  1  0.614111  0.895165  0.356727  1
