# generated using pymatgen
data_Zn(AgO2)2
_symmetry_space_group_name_H-M   'P 1'
_cell_length_a   3.11115933
_cell_length_b   9.74425299
_cell_length_c   11.01399697
_cell_angle_alpha   90.05729994
_cell_angle_beta   90.00038781
_cell_angle_gamma   89.99957188
_symmetry_Int_Tables_number   1
_chemical_formula_structural   Zn(AgO2)2
_chemical_formula_sum   'Zn4 Ag8 O16'
_cell_volume   333.89932376
_cell_formula_units_Z   4
loop_
 _symmetry_equiv_pos_site_id
 _symmetry_equiv_pos_as_xyz
  1  'x, y, z'
loop_
 _atom_site_type_symbol
 _atom_site_label
 _atom_site_symmetry_multiplicity
 _atom_site_fract_x
 _atom_site_fract_y
 _atom_site_fract_z
 _atom_site_occupancy
  Zn  Zn0  1  0.750002  0.261630  0.341228  1
  Zn  Zn1  1  0.250002  0.737989  0.658976  1
  Zn  Zn2  1  0.749994  0.761634  0.158959  1
  Zn  Zn3  1  0.249992  0.238177  0.841113  1
  Ag  Ag4  1  0.250010  0.415302  0.107301  1
  Ag  Ag5  1  0.749996  0.084659  0.607529  1
  Ag  Ag6  1  0.250002  0.915302  0.392555  1
  Ag  Ag7  1  0.749998  0.584853  0.892698  1
  Ag  Ag8  1  0.749994  0.568835  0.387490  1
  Ag  Ag9  1  0.249992  0.431266  0.612601  1
  Ag  Ag10  1  0.749998  0.068591  0.112702  1
  Ag  Ag11  1  0.249992  0.931203  0.887666  1
  O  O12  1  0.249982  0.871691  0.071926  1
  O  O13  1  0.749988  0.128307  0.928108  1
  O  O14  1  0.249989  0.371936  0.427680  1
  O  O15  1  0.750001  0.628504  0.572027  1
  O  O16  1  0.249998  0.025051  0.722418  1
  O  O17  1  0.750002  0.974386  0.277348  1
  O  O18  1  0.250004  0.525357  0.777661  1
  O  O19  1  0.750002  0.474755  0.222140  1
  O  O20  1  0.250014  0.618242  0.033169  1
  O  O21  1  0.750019  0.382203  0.966808  1
  O  O22  1  0.249997  0.118043  0.466398  1
  O  O23  1  0.749997  0.882313  0.533104  1
  O  O24  1  0.750006  0.772388  0.792203  1
  O  O25  1  0.250013  0.227533  0.207910  1
  O  O26  1  0.250008  0.727451  0.292088  1
  O  O27  1  0.749998  0.272395  0.708194  1
