# generated using pymatgen
data_ZnFeBiO5
_symmetry_space_group_name_H-M   'P 1'
_cell_length_a   5.21618753
_cell_length_b   10.41108711
_cell_length_c   15.60270831
_cell_angle_alpha   90.00000000
_cell_angle_beta   90.00000000
_cell_angle_gamma   90.00000000
_symmetry_Int_Tables_number   1
_chemical_formula_structural   ZnFeBiO5
_chemical_formula_sum   'Zn8 Fe8 Bi8 O40'
_cell_volume   847.32352899
_cell_formula_units_Z   8
loop_
 _symmetry_equiv_pos_site_id
 _symmetry_equiv_pos_as_xyz
  1  'x, y, z'
loop_
 _atom_site_type_symbol
 _atom_site_label
 _atom_site_symmetry_multiplicity
 _atom_site_fract_x
 _atom_site_fract_y
 _atom_site_fract_z
 _atom_site_occupancy
  Zn  Zn0  1  0.488316  0.365890  0.472760  1
  Zn  Zn1  1  0.988316  0.134110  0.472760  1
  Zn  Zn2  1  0.988316  0.634110  0.027240  1
  Zn  Zn3  1  0.011684  0.365890  0.972760  1
  Zn  Zn4  1  0.511684  0.134110  0.972760  1
  Zn  Zn5  1  0.011684  0.865890  0.527240  1
  Zn  Zn6  1  0.511684  0.634110  0.527240  1
  Zn  Zn7  1  0.488316  0.865890  0.027240  1
  Fe  Fe8  1  0.914141  0.347766  0.604664  1
  Fe  Fe9  1  0.585859  0.847766  0.395336  1
  Fe  Fe10  1  0.085859  0.652234  0.395336  1
  Fe  Fe11  1  0.414141  0.152234  0.604664  1
  Fe  Fe12  1  0.085859  0.152234  0.104664  1
  Fe  Fe13  1  0.914141  0.847766  0.895336  1
  Fe  Fe14  1  0.585859  0.347766  0.104664  1
  Fe  Fe15  1  0.414141  0.652234  0.895336  1
  Bi  Bi16  1  0.151362  0.860845  0.221610  1
  Bi  Bi17  1  0.848638  0.139155  0.778390  1
  Bi  Bi18  1  0.348638  0.360845  0.778390  1
  Bi  Bi19  1  0.848638  0.639155  0.721610  1
  Bi  Bi20  1  0.651362  0.139155  0.278390  1
  Bi  Bi21  1  0.651362  0.639155  0.221610  1
  Bi  Bi22  1  0.348638  0.860845  0.721610  1
  Bi  Bi23  1  0.151362  0.360845  0.278390  1
  O  O24  1  0.647854  0.286715  0.693143  1
  O  O25  1  0.288699  0.024553  0.053160  1
  O  O26  1  0.211301  0.524553  0.946840  1
  O  O27  1  0.476283  0.798258  0.146858  1
  O  O28  1  0.023717  0.298258  0.853142  1
  O  O29  1  0.647854  0.786715  0.806857  1
  O  O30  1  0.023717  0.798258  0.646858  1
  O  O31  1  0.852146  0.786715  0.306857  1
  O  O32  1  0.288699  0.524553  0.446840  1
  O  O33  1  0.352146  0.713285  0.306857  1
  O  O34  1  0.852146  0.286715  0.193143  1
  O  O35  1  0.695877  0.220192  0.533540  1
  O  O36  1  0.788699  0.975447  0.446840  1
  O  O37  1  0.523717  0.701742  0.646858  1
  O  O38  1  0.092041  0.972748  0.813157  1
  O  O39  1  0.788699  0.475447  0.053160  1
  O  O40  1  0.352146  0.213285  0.193143  1
  O  O41  1  0.976283  0.201742  0.353142  1
  O  O42  1  0.195877  0.779808  0.966460  1
  O  O43  1  0.211301  0.024553  0.553160  1
  O  O44  1  0.304123  0.779808  0.466460  1
  O  O45  1  0.907959  0.027252  0.186843  1
  O  O46  1  0.523717  0.201742  0.853142  1
  O  O47  1  0.592041  0.027252  0.686843  1
  O  O48  1  0.304123  0.279808  0.033540  1
  O  O49  1  0.195877  0.279808  0.533540  1
  O  O50  1  0.711301  0.475447  0.553160  1
  O  O51  1  0.711301  0.975447  0.946840  1
  O  O52  1  0.592041  0.527252  0.813157  1
  O  O53  1  0.804123  0.720192  0.466460  1
  O  O54  1  0.804123  0.220192  0.033540  1
  O  O55  1  0.695877  0.720192  0.966460  1
  O  O56  1  0.907959  0.527252  0.313157  1
  O  O57  1  0.976283  0.701742  0.146858  1
  O  O58  1  0.476283  0.298258  0.353142  1
  O  O59  1  0.092041  0.472748  0.686843  1
  O  O60  1  0.407959  0.472748  0.186843  1
  O  O61  1  0.147854  0.213285  0.693143  1
  O  O62  1  0.407959  0.972748  0.313157  1
  O  O63  1  0.147854  0.713285  0.806857  1
