# generated using pymatgen
data_Mg(CrS2)4
_symmetry_space_group_name_H-M   'P 1'
_cell_length_a   6.98017559
_cell_length_b   6.95833441
_cell_length_c   6.95833515
_cell_angle_alpha   60.00000095
_cell_angle_beta   60.10345030
_cell_angle_gamma   60.10344474
_symmetry_Int_Tables_number   1
_chemical_formula_structural   Mg(CrS2)4
_chemical_formula_sum   'Mg1 Cr4 S8'
_cell_volume   239.35322983
_cell_formula_units_Z   1
loop_
 _symmetry_equiv_pos_site_id
 _symmetry_equiv_pos_as_xyz
  1  'x, y, z'
loop_
 _atom_site_type_symbol
 _atom_site_label
 _atom_site_symmetry_multiplicity
 _atom_site_fract_x
 _atom_site_fract_y
 _atom_site_fract_z
 _atom_site_occupancy
  Mg  Mg0  1  0.500000  0.000000  0.000000  1
  Cr  Cr1  1  0.000000  0.500000  0.500000  1
  Cr  Cr2  1  0.500000  0.500000  0.000000  1
  Cr  Cr3  1  0.500000  0.500000  0.500000  1
  Cr  Cr4  1  0.500000  0.000000  0.500000  1
  S  S5  1  0.256583  0.257692  0.257692  1
  S  S6  1  0.256583  0.257692  0.728033  1
  S  S7  1  0.256583  0.728033  0.257692  1
  S  S8  1  0.724575  0.258475  0.258475  1
  S  S9  1  0.275425  0.741525  0.741525  1
  S  S10  1  0.743417  0.742308  0.271967  1
  S  S11  1  0.743417  0.271967  0.742308  1
  S  S12  1  0.743417  0.742308  0.742308  1
