# generated using pymatgen
data_MgNiO2
_symmetry_space_group_name_H-M   'P 1'
_cell_length_a   2.98333600
_cell_length_b   8.01455300
_cell_length_c   8.32636707
_cell_angle_alpha   89.13720907
_cell_angle_beta   78.68322163
_cell_angle_gamma   90.18530438
_symmetry_Int_Tables_number   1
_chemical_formula_structural   MgNiO2
_chemical_formula_sum   'Mg4 Ni4 O8'
_cell_volume   195.18753582
_cell_formula_units_Z   4
loop_
 _symmetry_equiv_pos_site_id
 _symmetry_equiv_pos_as_xyz
  1  'x, y, z'
loop_
 _atom_site_type_symbol
 _atom_site_label
 _atom_site_symmetry_multiplicity
 _atom_site_fract_x
 _atom_site_fract_y
 _atom_site_fract_z
 _atom_site_occupancy
  Mg  Mg0  1  0.380707  0.072182  0.278857  1
  Mg  Mg1  1  0.617299  0.907762  0.749495  1
  Mg  Mg2  1  0.145859  0.722410  0.134113  1
  Mg  Mg3  1  0.850053  0.257383  0.894100  1
  Ni  Ni4  1  0.462564  0.243668  0.591529  1
  Ni  Ni5  1  0.082750  0.390723  0.231137  1
  Ni  Ni6  1  0.912410  0.589110  0.797043  1
  Ni  Ni7  1  0.532766  0.736656  0.436621  1
  O  O8  1  0.961466  0.737688  0.593572  1
  O  O9  1  0.408572  0.396127  0.787181  1
  O  O10  1  0.587102  0.583822  0.241106  1
  O  O11  1  0.033702  0.241879  0.434521  1
  O  O12  1  0.115044  0.070859  0.757254  1
  O  O13  1  0.637055  0.254708  0.126612  1
  O  O14  1  0.883038  0.909051  0.271016  1
  O  O15  1  0.357886  0.725310  0.901458  1
