# generated using pymatgen
data_MgMn(GeO3)2
_symmetry_space_group_name_H-M   'P 1'
_cell_length_a   5.50444807
_cell_length_b   9.26841612
_cell_length_c   9.96198821
_cell_angle_alpha   90.00000000
_cell_angle_beta   104.16404406
_cell_angle_gamma   90.00000000
_symmetry_Int_Tables_number   1
_chemical_formula_structural   MgMn(GeO3)2
_chemical_formula_sum   'Mg4 Mn4 Ge8 O24'
_cell_volume   492.78505809
_cell_formula_units_Z   4
loop_
 _symmetry_equiv_pos_site_id
 _symmetry_equiv_pos_as_xyz
  1  'x, y, z'
loop_
 _atom_site_type_symbol
 _atom_site_label
 _atom_site_symmetry_multiplicity
 _atom_site_fract_x
 _atom_site_fract_y
 _atom_site_fract_z
 _atom_site_occupancy
  Mg  Mg0  1  0.444228  0.486750  0.245101  1
  Mg  Mg1  1  0.055772  0.986750  0.754899  1
  Mg  Mg2  1  0.555772  0.513250  0.754899  1
  Mg  Mg3  1  0.944228  0.013250  0.245101  1
  Mn  Mn4  1  0.953753  0.652913  0.243588  1
  Mn  Mn5  1  0.546247  0.152913  0.756412  1
  Mn  Mn6  1  0.046247  0.347087  0.756412  1
  Mn  Mn7  1  0.453753  0.847087  0.243588  1
  Ge  Ge8  1  0.820390  0.337158  0.056751  1
  Ge  Ge9  1  0.679610  0.837158  0.943249  1
  Ge  Ge10  1  0.179610  0.662842  0.943249  1
  Ge  Ge11  1  0.320390  0.162842  0.056751  1
  Ge  Ge12  1  0.245014  0.342762  0.458337  1
  Ge  Ge13  1  0.254986  0.842762  0.541663  1
  Ge  Ge14  1  0.754986  0.657238  0.541663  1
  Ge  Ge15  1  0.745014  0.157238  0.458337  1
  O  O16  1  0.502495  0.284017  0.386829  1
  O  O17  1  0.997505  0.784017  0.613171  1
  O  O18  1  0.497505  0.715983  0.613171  1
  O  O19  1  0.002495  0.215983  0.386829  1
  O  O20  1  0.164261  0.322219  0.107277  1
  O  O21  1  0.335739  0.822219  0.892724  1
  O  O22  1  0.835739  0.677781  0.892724  1
  O  O23  1  0.664261  0.177781  0.107277  1
  O  O24  1  0.701982  0.992393  0.372805  1
  O  O25  1  0.798018  0.492393  0.627195  1
  O  O26  1  0.298018  0.007607  0.627195  1
  O  O27  1  0.201982  0.507607  0.372805  1
  O  O28  1  0.218835  0.022020  0.142524  1
  O  O29  1  0.281165  0.522020  0.857476  1
  O  O30  1  0.781165  0.977980  0.857476  1
  O  O31  1  0.718835  0.477980  0.142524  1
  O  O32  1  0.750827  0.343781  0.874246  1
  O  O33  1  0.749173  0.843781  0.125754  1
  O  O34  1  0.249173  0.656219  0.125754  1
  O  O35  1  0.250827  0.156219  0.874246  1
  O  O36  1  0.329576  0.345112  0.639402  1
  O  O37  1  0.170424  0.845112  0.360598  1
  O  O38  1  0.670424  0.654888  0.360598  1
  O  O39  1  0.829576  0.154888  0.639402  1
