# generated using pymatgen
data_YFe(WO4)2
_symmetry_space_group_name_H-M   'P 1'
_cell_length_a   5.16387848
_cell_length_b   6.02445514
_cell_length_c   6.27256816
_cell_angle_alpha   107.79993189
_cell_angle_beta   118.37298811
_cell_angle_gamma   90.21018141
_symmetry_Int_Tables_number   1
_chemical_formula_structural   YFe(WO4)2
_chemical_formula_sum   'Y1 Fe1 W2 O8'
_cell_volume   160.87225019
_cell_formula_units_Z   1
loop_
 _symmetry_equiv_pos_site_id
 _symmetry_equiv_pos_as_xyz
  1  'x, y, z'
loop_
 _atom_site_type_symbol
 _atom_site_label
 _atom_site_symmetry_multiplicity
 _atom_site_fract_x
 _atom_site_fract_y
 _atom_site_fract_z
 _atom_site_occupancy
  Y  Y0  1  0.620672  0.709565  0.100008  1
  Fe  Fe1  1  0.155152  0.257099  0.116587  1
  W  W2  1  0.877749  0.389130  0.589780  1
  W  W3  1  0.389526  0.057643  0.614499  1
  O  O4  1  0.125415  0.666615  0.833832  1
  O  O5  1  0.570929  0.481897  0.305648  1
  O  O6  1  0.167057  0.187968  0.790947  1
  O  O7  1  0.565223  0.053998  0.393884  1
  O  O8  1  0.647104  0.944865  0.862867  1
  O  O9  1  0.114706  0.789999  0.378215  1
  O  O10  1  0.081129  0.251158  0.391737  1
  O  O11  1  0.681336  0.388557  0.818093  1
