# generated using pymatgen
data_Ca(MoO2)2
_symmetry_space_group_name_H-M   'P 1'
_cell_length_a   6.57352728
_cell_length_b   6.57352873
_cell_length_c   6.58862592
_cell_angle_alpha   119.92423008
_cell_angle_beta   119.92422981
_cell_angle_gamma   89.99999586
_symmetry_Int_Tables_number   1
_chemical_formula_structural   Ca(MoO2)2
_chemical_formula_sum   'Ca2 Mo4 O8'
_cell_volume   201.77559557
_cell_formula_units_Z   2
loop_
 _symmetry_equiv_pos_site_id
 _symmetry_equiv_pos_as_xyz
  1  'x, y, z'
loop_
 _atom_site_type_symbol
 _atom_site_label
 _atom_site_symmetry_multiplicity
 _atom_site_fract_x
 _atom_site_fract_y
 _atom_site_fract_z
 _atom_site_occupancy
  Ca  Ca0  1  0.375000  0.625000  0.750000  1
  Ca  Ca1  1  0.625000  0.375000  0.250000  1
  Mo  Mo2  1  0.000000  0.000000  0.500000  1
  Mo  Mo3  1  0.000000  0.500000  0.000000  1
  Mo  Mo4  1  0.500000  0.000000  0.500000  1
  Mo  Mo5  1  0.000000  0.000000  0.000000  1
  O  O6  1  0.766081  0.796205  0.532163  1
  O  O7  1  0.764043  0.233919  0.967837  1
  O  O8  1  0.203795  0.233919  0.967837  1
  O  O9  1  0.233919  0.203795  0.467837  1
  O  O10  1  0.233919  0.764043  0.467837  1
  O  O11  1  0.235957  0.766081  0.032163  1
  O  O12  1  0.766081  0.235957  0.532163  1
  O  O13  1  0.796205  0.766081  0.032163  1
