# generated using pymatgen
data_Zn(SbO2)2
_symmetry_space_group_name_H-M   'P 1'
_cell_length_a   6.50205821
_cell_length_b   6.79646664
_cell_length_c   6.79646645
_cell_angle_alpha   59.99999624
_cell_angle_beta   58.49052080
_cell_angle_gamma   58.49051844
_symmetry_Int_Tables_number   1
_chemical_formula_structural   Zn(SbO2)2
_chemical_formula_sum   'Zn2 Sb4 O8'
_cell_volume   207.39921255
_cell_formula_units_Z   2
loop_
 _symmetry_equiv_pos_site_id
 _symmetry_equiv_pos_as_xyz
  1  'x, y, z'
loop_
 _atom_site_type_symbol
 _atom_site_label
 _atom_site_symmetry_multiplicity
 _atom_site_fract_x
 _atom_site_fract_y
 _atom_site_fract_z
 _atom_site_occupancy
  Zn  Zn0  1  0.980040  0.006654  0.006654  1
  Zn  Zn1  1  0.123227  0.625590  0.625590  1
  Sb  Sb2  1  0.318334  0.227222  0.227222  1
  Sb  Sb3  1  0.633969  0.124373  0.620829  1
  Sb  Sb4  1  0.633969  0.620829  0.124373  1
  Sb  Sb5  1  0.633969  0.620829  0.620829  1
  O  O6  1  0.340921  0.405500  0.405500  1
  O  O7  1  0.340921  0.405500  0.848078  1
  O  O8  1  0.340921  0.848078  0.405500  1
  O  O9  1  0.935018  0.354994  0.354994  1
  O  O10  1  0.400583  0.866472  0.866472  1
  O  O11  1  0.856043  0.391914  0.876022  1
  O  O12  1  0.856043  0.876022  0.391914  1
  O  O13  1  0.856043  0.876022  0.876022  1
