# generated using pymatgen
data_Mg(NiO2)2
_symmetry_space_group_name_H-M   'P 1'
_cell_length_a   5.81855375
_cell_length_b   5.81855361
_cell_length_c   5.96322002
_cell_angle_alpha   59.17407315
_cell_angle_beta   59.17408385
_cell_angle_gamma   61.31074462
_symmetry_Int_Tables_number   1
_chemical_formula_structural   Mg(NiO2)2
_chemical_formula_sum   'Mg2 Ni4 O8'
_cell_volume   142.25382943
_cell_formula_units_Z   2
loop_
 _symmetry_equiv_pos_site_id
 _symmetry_equiv_pos_as_xyz
  1  'x, y, z'
loop_
 _atom_site_type_symbol
 _atom_site_label
 _atom_site_symmetry_multiplicity
 _atom_site_fract_x
 _atom_site_fract_y
 _atom_site_fract_z
 _atom_site_occupancy
  Mg  Mg0  1  0.125000  0.625000  0.625000  1
  Mg  Mg1  1  0.625000  0.125000  0.625000  1
  Ni  Ni2  1  0.990840  0.990840  0.009160  1
  Ni  Ni3  1  0.259160  0.259160  0.240840  1
  Ni  Ni4  1  0.625000  0.625000  0.125000  1
  Ni  Ni5  1  0.625000  0.625000  0.625000  1
  O  O6  1  0.390378  0.390378  0.371331  1
  O  O7  1  0.391678  0.865745  0.371289  1
  O  O8  1  0.390378  0.390378  0.847913  1
  O  O9  1  0.865745  0.391678  0.371289  1
  O  O10  1  0.384255  0.858322  0.878711  1
  O  O11  1  0.858322  0.384255  0.878711  1
  O  O12  1  0.859622  0.859622  0.402087  1
  O  O13  1  0.859622  0.859622  0.878669  1
