# generated using pymatgen
data_PrZn(WO3)2
_symmetry_space_group_name_H-M   'P 1'
_cell_length_a   5.54287098
_cell_length_b   5.91415624
_cell_length_c   8.12949648
_cell_angle_alpha   90.12827442
_cell_angle_beta   90.01245797
_cell_angle_gamma   89.92874571
_symmetry_Int_Tables_number   1
_chemical_formula_structural   PrZn(WO3)2
_chemical_formula_sum   'Pr2 Zn2 W4 O12'
_cell_volume   266.49543616
_cell_formula_units_Z   2
loop_
 _symmetry_equiv_pos_site_id
 _symmetry_equiv_pos_as_xyz
  1  'x, y, z'
loop_
 _atom_site_type_symbol
 _atom_site_label
 _atom_site_symmetry_multiplicity
 _atom_site_fract_x
 _atom_site_fract_y
 _atom_site_fract_z
 _atom_site_occupancy
  Pr  Pr0  1  0.022201  0.945638  0.750317  1
  Pr  Pr1  1  0.520965  0.553339  0.250445  1
  Zn  Zn2  1  0.519042  0.589045  0.744031  1
  Zn  Zn3  1  0.019643  0.907301  0.247069  1
  W  W4  1  0.999134  0.479031  0.998153  1
  W  W5  1  0.998142  0.491601  0.501395  1
  W  W6  1  0.497424  0.021397  0.498821  1
  W  W7  1  0.500669  0.008061  0.001281  1
  O  O8  1  0.109177  0.488272  0.245249  1
  O  O9  1  0.173799  0.186351  0.951183  1
  O  O10  1  0.188156  0.190065  0.559303  1
  O  O11  1  0.318209  0.705678  0.557491  1
  O  O12  1  0.302999  0.686862  0.931104  1
  O  O13  1  0.369303  0.960080  0.255829  1
  O  O14  1  0.610139  0.013621  0.744736  1
  O  O15  1  0.693023  0.307669  0.061740  1
  O  O16  1  0.667586  0.317864  0.455418  1
  O  O17  1  0.820207  0.793642  0.058226  1
  O  O18  1  0.801132  0.813868  0.432365  1
  O  O19  1  0.869046  0.540613  0.755848  1
