# generated using pymatgen
data_Zn2CuWO6
_symmetry_space_group_name_H-M   'P 1'
_cell_length_a   5.04858228
_cell_length_b   5.12147840
_cell_length_c   8.54158970
_cell_angle_alpha   90.00000000
_cell_angle_beta   89.14627055
_cell_angle_gamma   90.00000000
_symmetry_Int_Tables_number   1
_chemical_formula_structural   Zn2CuWO6
_chemical_formula_sum   'Zn4 Cu2 W2 O12'
_cell_volume   220.82857837
_cell_formula_units_Z   2
loop_
 _symmetry_equiv_pos_site_id
 _symmetry_equiv_pos_as_xyz
  1  'x, y, z'
loop_
 _atom_site_type_symbol
 _atom_site_label
 _atom_site_symmetry_multiplicity
 _atom_site_fract_x
 _atom_site_fract_y
 _atom_site_fract_z
 _atom_site_occupancy
  Zn  Zn0  1  0.995497  0.025163  0.263375  1
  Zn  Zn1  1  0.504503  0.525164  0.236625  1
  Zn  Zn2  1  0.004504  0.974838  0.736625  1
  Zn  Zn3  1  0.495496  0.474837  0.763375  1
  Cu  Cu4  1  0.500000  0.000000  0.000000  1
  Cu  Cu5  1  0.000001  0.499999  0.500000  1
  W  W6  1  0.500000  0.000000  0.499999  1
  W  W7  1  0.000000  0.499999  0.000000  1
  O  O8  1  0.677567  0.304938  0.400012  1
  O  O9  1  0.822433  0.804939  0.099988  1
  O  O10  1  0.322432  0.695062  0.599988  1
  O  O11  1  0.177568  0.195061  0.900012  1
  O  O12  1  0.177814  0.187009  0.547967  1
  O  O13  1  0.322186  0.687008  0.952033  1
  O  O14  1  0.822187  0.812991  0.452033  1
  O  O15  1  0.677813  0.312992  0.047967  1
  O  O16  1  0.134194  0.386379  0.201709  1
  O  O17  1  0.365807  0.886380  0.298290  1
  O  O18  1  0.634194  0.113620  0.701710  1
  O  O19  1  0.865807  0.613621  0.798291  1
