# generated using pymatgen
data_Ca(WO2)2
_symmetry_space_group_name_H-M   'P 1'
_cell_length_a   6.70526760
_cell_length_b   6.64369584
_cell_length_c   6.64369493
_cell_angle_alpha   59.99999471
_cell_angle_beta   60.30329905
_cell_angle_gamma   60.30330073
_symmetry_Int_Tables_number   1
_chemical_formula_structural   Ca(WO2)2
_chemical_formula_sum   'Ca2 W4 O8'
_cell_volume   210.23080499
_cell_formula_units_Z   2
loop_
 _symmetry_equiv_pos_site_id
 _symmetry_equiv_pos_as_xyz
  1  'x, y, z'
loop_
 _atom_site_type_symbol
 _atom_site_label
 _atom_site_symmetry_multiplicity
 _atom_site_fract_x
 _atom_site_fract_y
 _atom_site_fract_z
 _atom_site_occupancy
  Ca  Ca0  1  -0.001332  0.000444  0.000444  1
  Ca  Ca1  1  0.109849  0.630050  0.630050  1
  W  W2  1  0.383803  0.205399  0.205399  1
  W  W3  1  0.624008  0.124718  0.625637  1
  W  W4  1  0.624008  0.625637  0.124718  1
  W  W5  1  0.624008  0.625637  0.625637  1
  O  O6  1  0.392109  0.377872  0.377872  1
  O  O7  1  0.392109  0.377872  0.852146  1
  O  O8  1  0.392109  0.852146  0.377872  1
  O  O9  1  0.801594  0.399468  0.399468  1
  O  O10  1  0.420473  0.859842  0.859842  1
  O  O11  1  0.829088  0.417012  0.876950  1
  O  O12  1  0.829088  0.876950  0.417012  1
  O  O13  1  0.829088  0.876950  0.876950  1
