# generated using pymatgen
data_MgCoP2O7
_symmetry_space_group_name_H-M   'P 1'
_cell_length_a   5.65697689
_cell_length_b   6.36011422
_cell_length_c   7.36579139
_cell_angle_alpha   83.56934772
_cell_angle_beta   87.27849298
_cell_angle_gamma   71.74384557
_symmetry_Int_Tables_number   1
_chemical_formula_structural   MgCoP2O7
_chemical_formula_sum   'Mg2 Co2 P4 O14'
_cell_volume   250.06952498
_cell_formula_units_Z   2
loop_
 _symmetry_equiv_pos_site_id
 _symmetry_equiv_pos_as_xyz
  1  'x, y, z'
loop_
 _atom_site_type_symbol
 _atom_site_label
 _atom_site_symmetry_multiplicity
 _atom_site_fract_x
 _atom_site_fract_y
 _atom_site_fract_z
 _atom_site_occupancy
  Mg  Mg0  1  0.335839  0.661304  0.658245  1
  Mg  Mg1  1  0.663914  0.338745  0.341787  1
  Co  Co2  1  0.244711  0.158317  0.212186  1
  Co  Co3  1  0.754205  0.842329  0.787259  1
  P  P4  1  0.186129  0.677439  0.099404  1
  P  P5  1  0.814097  0.322479  0.900533  1
  P  P6  1  0.227507  0.204841  0.611518  1
  P  P7  1  0.772612  0.795166  0.388446  1
  O  O8  1  0.112864  0.696841  0.899083  1
  O  O9  1  0.887246  0.302967  0.100974  1
  O  O10  1  0.291448  0.855365  0.145589  1
  O  O11  1  0.708569  0.144530  0.854562  1
  O  O12  1  0.353135  0.438679  0.164645  1
  O  O13  1  0.647275  0.561319  0.835443  1
  O  O14  1  0.616366  0.639339  0.436964  1
  O  O15  1  0.383758  0.360649  0.563092  1
  O  O16  1  0.049801  0.215899  0.453996  1
  O  O17  1  0.950404  0.783895  0.546099  1
  O  O18  1  0.071009  0.299270  0.787261  1
  O  O19  1  0.618789  0.035408  0.327996  1
  O  O20  1  0.381198  0.964589  0.672125  1
  O  O21  1  0.929128  0.700628  0.212795  1
