# generated using pymatgen
data_CaP2W2O9
_symmetry_space_group_name_H-M   'P 1'
_cell_length_a   6.77747434
_cell_length_b   7.44016365
_cell_length_c   15.14450294
_cell_angle_alpha   89.99354543
_cell_angle_beta   90.00000926
_cell_angle_gamma   90.00002482
_symmetry_Int_Tables_number   1
_chemical_formula_structural   CaP2W2O9
_chemical_formula_sum   'Ca4 P8 W8 O36'
_cell_volume   763.66940403
_cell_formula_units_Z   4
loop_
 _symmetry_equiv_pos_site_id
 _symmetry_equiv_pos_as_xyz
  1  'x, y, z'
loop_
 _atom_site_type_symbol
 _atom_site_label
 _atom_site_symmetry_multiplicity
 _atom_site_fract_x
 _atom_site_fract_y
 _atom_site_fract_z
 _atom_site_occupancy
  Ca  Ca0  1  0.750001  0.898218  0.777956  1
  Ca  Ca1  1  0.750000  0.601646  0.277988  1
  Ca  Ca2  1  0.250001  0.398355  0.722011  1
  Ca  Ca3  1  0.249999  0.101782  0.222044  1
  P  P4  1  0.250000  0.370184  0.927046  1
  P  P5  1  0.750001  0.629815  0.072954  1
  P  P6  1  0.750001  0.870174  0.572944  1
  P  P7  1  0.250000  0.129825  0.427056  1
  P  P8  1  0.750001  0.397885  0.690436  1
  P  P9  1  0.749999  0.102030  0.190436  1
  P  P10  1  0.250001  0.897970  0.809565  1
  P  P11  1  0.250000  0.602115  0.309564  1
  W  W12  1  0.750000  0.367603  0.876117  1
  W  W13  1  0.250000  0.632398  0.123882  1
  W  W14  1  0.250001  0.867539  0.623890  1
  W  W15  1  0.749999  0.132462  0.376110  1
  W  W16  1  0.500001  -0.000000  -0.000000  1
  W  W17  1  0.500001  0.500001  0.500000  1
  W  W18  1  0.000000  0.500000  0.500000  1
  W  W19  1  0.000000  0.000001  -0.000000  1
  O  O20  1  0.058117  0.600232  0.365589  1
  O  O21  1  0.558118  0.399768  0.634411  1
  O  O22  1  0.941901  0.100131  0.134423  1
  O  O23  1  0.441902  0.899868  0.865576  1
  O  O24  1  0.941884  0.399768  0.634411  1
  O  O25  1  0.441883  0.600233  0.365589  1
  O  O26  1  0.058100  0.899868  0.865577  1
  O  O27  1  0.558098  0.100132  0.134423  1
  O  O28  1  0.250001  0.317466  0.476417  1
  O  O29  1  0.750001  0.682534  0.523583  1
  O  O30  1  0.750000  0.817503  0.023613  1
  O  O31  1  0.250001  0.182497  0.976388  1
  O  O32  1  0.750000  0.117905  0.938129  1
  O  O33  1  0.250000  0.882094  0.061871  1
  O  O34  1  0.250000  0.617741  0.561968  1
  O  O35  1  0.750000  0.382260  0.438032  1
  O  O36  1  0.750000  0.225555  0.749583  1
  O  O37  1  0.250000  0.774445  0.250417  1
  O  O38  1  0.250000  0.725590  0.750461  1
  O  O39  1  0.750000  0.274410  0.249539  1
  O  O40  1  0.429502  0.123760  0.363367  1
  O  O41  1  0.929501  0.876239  0.636633  1
  O  O42  1  0.570497  0.623696  0.136646  1
  O  O43  1  0.070497  0.376303  0.863354  1
  O  O44  1  0.570499  0.876239  0.636633  1
  O  O45  1  0.070498  0.123760  0.363367  1
  O  O46  1  0.429503  0.376303  0.863354  1
  O  O47  1  0.929504  0.623695  0.136646  1
  O  O48  1  0.750000  0.482303  0.005078  1
  O  O49  1  0.250001  0.057429  0.741098  1
  O  O50  1  0.250000  0.442598  0.241149  1
  O  O51  1  0.750001  0.557402  0.758851  1
  O  O52  1  0.750001  0.017786  0.505089  1
  O  O53  1  0.250000  0.982213  0.494910  1
  O  O54  1  0.250000  0.517697  0.994922  1
  O  O55  1  0.750000  0.942569  0.258902  1
