# generated using pymatgen
data_Ca3Mn2(SbO6)2
_symmetry_space_group_name_H-M   'P 1'
_cell_length_a   5.43479391
_cell_length_b   5.40681125
_cell_length_c   7.77199078
_cell_angle_alpha   90.00000000
_cell_angle_beta   90.00000000
_cell_angle_gamma   89.70677947
_symmetry_Int_Tables_number   1
_chemical_formula_structural   Ca3Mn2(SbO6)2
_chemical_formula_sum   'Ca3 Mn2 Sb2 O12'
_cell_volume   228.37621891
_cell_formula_units_Z   1
loop_
 _symmetry_equiv_pos_site_id
 _symmetry_equiv_pos_as_xyz
  1  'x, y, z'
loop_
 _atom_site_type_symbol
 _atom_site_label
 _atom_site_symmetry_multiplicity
 _atom_site_fract_x
 _atom_site_fract_y
 _atom_site_fract_z
 _atom_site_occupancy
  Ca  Ca0  1  0.511784  0.557570  0.750000  1
  Ca  Ca1  1  0.490840  0.447585  0.250000  1
  Ca  Ca2  1  0.008809  0.958542  0.250000  1
  Mn  Mn3  1  0.501778  0.999557  0.506634  1
  Mn  Mn4  1  0.501778  0.999557  0.993366  1
  Sb  Sb5  1  0.999074  0.491891  0.507331  1
  Sb  Sb6  1  0.999074  0.491891  0.992669  1
  O  O7  1  0.292153  0.708363  0.457972  1
  O  O8  1  0.216098  0.210510  0.056054  1
  O  O9  1  0.685740  0.305384  0.968649  1
  O  O10  1  0.787949  0.791362  0.542427  1
  O  O11  1  0.216098  0.210510  0.443946  1
  O  O12  1  0.787949  0.791362  0.957573  1
  O  O13  1  0.919351  0.517658  0.250000  1
  O  O14  1  0.292153  0.708363  0.042028  1
  O  O15  1  0.419177  0.985966  0.750000  1
  O  O16  1  0.685740  0.305384  0.531351  1
  O  O17  1  0.095952  0.469954  0.750000  1
  O  O18  1  0.582050  0.009656  0.250000  1
