# generated using pymatgen
data_Ba3Y5(NiO5)3
_symmetry_space_group_name_H-M   'P 1'
_cell_length_a   11.32310274
_cell_length_b   5.80364912
_cell_length_c   6.62655040
_cell_angle_alpha   115.97052944
_cell_angle_beta   106.69303081
_cell_angle_gamma   90.00000345
_symmetry_Int_Tables_number   1
_chemical_formula_structural   Ba3Y5(NiO5)3
_chemical_formula_sum   'Ba3 Y5 Ni3 O15'
_cell_volume   370.97160424
_cell_formula_units_Z   1
loop_
 _symmetry_equiv_pos_site_id
 _symmetry_equiv_pos_as_xyz
  1  'x, y, z'
loop_
 _atom_site_type_symbol
 _atom_site_label
 _atom_site_symmetry_multiplicity
 _atom_site_fract_x
 _atom_site_fract_y
 _atom_site_fract_z
 _atom_site_occupancy
  Ba  Ba0  1  0.000310  0.997992  0.995984  1
  Ba  Ba1  1  0.337114  0.006490  0.012980  1
  Ba  Ba2  1  0.657914  0.989641  0.979282  1
  Y  Y3  1  0.262446  0.294293  0.588588  1
  Y  Y4  1  0.596724  0.289650  0.579299  1
  Y  Y5  1  0.933931  0.293186  0.586370  1
  Y  Y6  1  0.070049  0.705357  0.410712  1
  Y  Y7  1  0.734157  0.702708  0.405412  1
  Ni  Ni8  1  0.174676  0.514075  0.028152  1
  Ni  Ni9  1  0.833643  0.499102  0.998204  1
  Ni  Ni10  1  0.501227  0.507864  0.015730  1
  O  O11  1  0.456403  0.160745  0.748495  1
  O  O12  1  0.456403  0.587751  0.748494  1
  O  O13  1  0.118074  0.116064  0.706799  1
  O  O14  1  0.783230  0.117513  0.702662  1
  O  O15  1  0.195534  0.891563  0.280811  1
  O  O16  1  0.563119  0.884078  0.276379  1
  O  O17  1  0.883123  0.881630  0.292396  1
  O  O18  1  0.195533  0.389248  0.280811  1
  O  O19  1  0.563119  0.392301  0.276379  1
  O  O20  1  0.883123  0.410767  0.292396  1
  O  O21  1  0.118074  0.590733  0.706798  1
  O  O22  1  0.783231  0.585148  0.702661  1
  O  O23  1  0.000458  0.496706  0.993412  1
  O  O24  1  0.332076  0.495776  0.991552  1
  O  O25  1  0.665201  0.496288  0.992576  1
