# generated using pymatgen
data_VZn(Si2O5)2
_symmetry_space_group_name_H-M   'P 1'
_cell_length_a   7.32107911
_cell_length_b   7.32121873
_cell_length_c   15.02198694
_cell_angle_alpha   90.00000000
_cell_angle_beta   90.00000000
_cell_angle_gamma   90.00000000
_symmetry_Int_Tables_number   1
_chemical_formula_structural   VZn(Si2O5)2
_chemical_formula_sum   'V4 Zn4 Si16 O40'
_cell_volume   805.16680543
_cell_formula_units_Z   4
loop_
 _symmetry_equiv_pos_site_id
 _symmetry_equiv_pos_as_xyz
  1  'x, y, z'
loop_
 _atom_site_type_symbol
 _atom_site_label
 _atom_site_symmetry_multiplicity
 _atom_site_fract_x
 _atom_site_fract_y
 _atom_site_fract_z
 _atom_site_occupancy
  V  V0  1  0.250000  0.250000  0.570014  1
  V  V1  1  0.750000  0.750000  0.929986  1
  V  V2  1  0.750000  0.750000  0.429986  1
  V  V3  1  0.250000  0.250000  0.070014  1
  Zn  Zn4  1  0.250000  0.750000  0.499999  1
  Zn  Zn5  1  0.750000  0.250000  0.500001  1
  Zn  Zn6  1  0.750000  0.250000  0.000001  1
  Zn  Zn7  1  0.250000  0.750000  -0.000001  1
  Si  Si8  1  0.904286  0.487171  0.646102  1
  Si  Si9  1  0.595714  0.012829  0.646102  1
  Si  Si10  1  0.987167  0.404285  0.853900  1
  Si  Si11  1  0.487167  0.595715  0.646100  1
  Si  Si12  1  0.012833  0.904285  0.646100  1
  Si  Si13  1  0.095714  0.987171  0.853898  1
  Si  Si14  1  0.404286  0.512829  0.853898  1
  Si  Si15  1  0.512833  0.095715  0.853900  1
  Si  Si16  1  0.095714  0.512829  0.353898  1
  Si  Si17  1  0.404286  0.987171  0.353898  1
  Si  Si18  1  0.012833  0.595715  0.146100  1
  Si  Si19  1  0.512833  0.404285  0.353900  1
  Si  Si20  1  0.987167  0.095715  0.353900  1
  Si  Si21  1  0.904286  0.012829  0.146102  1
  Si  Si22  1  0.595714  0.487171  0.146102  1
  Si  Si23  1  0.487167  0.904285  0.146100  1
  O  O24  1  0.977183  0.335679  0.575346  1
  O  O25  1  0.522817  0.164321  0.575346  1
  O  O26  1  0.835673  0.477176  0.924658  1
  O  O27  1  0.335673  0.522824  0.575342  1
  O  O28  1  0.164327  0.977176  0.575342  1
  O  O29  1  0.022817  0.835679  0.924654  1
  O  O30  1  0.477183  0.664321  0.924654  1
  O  O31  1  0.664327  0.022824  0.924658  1
  O  O32  1  0.022817  0.664321  0.424654  1
  O  O33  1  0.477183  0.835679  0.424654  1
  O  O34  1  0.164327  0.522824  0.075342  1
  O  O35  1  0.664327  0.477176  0.424658  1
  O  O36  1  0.835673  0.022824  0.424658  1
  O  O37  1  0.977183  0.164321  0.075346  1
  O  O38  1  0.522817  0.335679  0.075346  1
  O  O39  1  0.002673  0.314517  0.372456  1
  O  O40  1  0.335673  0.977176  0.075342  1
  O  O41  1  0.502673  0.814517  0.627544  1
  O  O42  1  0.185482  0.497326  0.872457  1
  O  O43  1  0.685482  0.502674  0.627543  1
  O  O44  1  0.814518  0.997326  0.627543  1
  O  O45  1  0.002673  0.185483  0.872456  1
  O  O46  1  0.497327  0.314517  0.872456  1
  O  O47  1  0.314518  0.002674  0.872457  1
  O  O48  1  0.434811  0.934815  0.249999  1
  O  O49  1  0.565189  0.434815  0.250001  1
  O  O50  1  0.934811  0.065186  0.250001  1
  O  O51  1  0.065190  0.565185  0.249999  1
  O  O52  1  0.565189  0.065186  0.750001  1
  O  O53  1  0.434811  0.565185  0.749999  1
  O  O54  1  0.065190  0.934815  0.749999  1
  O  O55  1  0.934811  0.434815  0.750001  1
  O  O56  1  0.685482  0.997326  0.127543  1
  O  O57  1  0.502673  0.685483  0.127544  1
  O  O58  1  0.997327  0.814517  0.127544  1
  O  O59  1  0.185482  0.002674  0.372457  1
  O  O60  1  0.314518  0.497326  0.372457  1
  O  O61  1  0.814518  0.502674  0.127543  1
  O  O62  1  0.497327  0.185483  0.372456  1
  O  O63  1  0.997327  0.685483  0.627544  1
