# generated using pymatgen
data_LaMgMnCrO6
_symmetry_space_group_name_H-M   'P 1'
_cell_length_a   5.33163649
_cell_length_b   5.46601275
_cell_length_c   7.63585314
_cell_angle_alpha   90.00000000
_cell_angle_beta   90.24945986
_cell_angle_gamma   90.00000000
_symmetry_Int_Tables_number   1
_chemical_formula_structural   LaMgMnCrO6
_chemical_formula_sum   'La2 Mg2 Mn2 Cr2 O12'
_cell_volume   222.52797832
_cell_formula_units_Z   2
loop_
 _symmetry_equiv_pos_site_id
 _symmetry_equiv_pos_as_xyz
  1  'x, y, z'
loop_
 _atom_site_type_symbol
 _atom_site_label
 _atom_site_symmetry_multiplicity
 _atom_site_fract_x
 _atom_site_fract_y
 _atom_site_fract_z
 _atom_site_occupancy
  La  La0  1  0.007644  0.966115  0.749643  1
  La  La1  1  0.507644  0.533885  0.249643  1
  Mg  Mg2  1  0.475158  0.441873  0.748461  1
  Mg  Mg3  1  0.975158  0.058127  0.248461  1
  Mn  Mn4  1  0.499855  0.001689  0.000957  1
  Mn  Mn5  1  0.999855  0.498311  0.500957  1
  Cr  Cr6  1  0.498616  0.998177  0.497897  1
  Cr  Cr7  1  0.998616  0.501823  0.997897  1
  O  O8  1  0.077200  0.452436  0.254909  1
  O  O9  1  0.229642  0.223696  0.948167  1
  O  O10  1  0.221592  0.231067  0.555575  1
  O  O11  1  0.313661  0.701165  0.942647  1
  O  O12  1  0.302173  0.692567  0.556977  1
  O  O13  1  0.374455  0.980691  0.244767  1
  O  O14  1  0.577200  0.047564  0.754909  1
  O  O15  1  0.729642  0.276304  0.448167  1
  O  O16  1  0.721592  0.268933  0.055575  1
  O  O17  1  0.813661  0.798835  0.442647  1
  O  O18  1  0.802173  0.807433  0.056977  1
  O  O19  1  0.874455  0.519309  0.744767  1
