# generated using pymatgen
data_ZnCrO2
_symmetry_space_group_name_H-M   'P 1'
_cell_length_a   3.06629038
_cell_length_b   8.05255822
_cell_length_c   7.91239168
_cell_angle_alpha   76.17040128
_cell_angle_beta   84.89303230
_cell_angle_gamma   77.56641548
_symmetry_Int_Tables_number   1
_chemical_formula_structural   ZnCrO2
_chemical_formula_sum   'Zn4 Cr4 O8'
_cell_volume   185.11051449
_cell_formula_units_Z   4
loop_
 _symmetry_equiv_pos_site_id
 _symmetry_equiv_pos_as_xyz
  1  'x, y, z'
loop_
 _atom_site_type_symbol
 _atom_site_label
 _atom_site_symmetry_multiplicity
 _atom_site_fract_x
 _atom_site_fract_y
 _atom_site_fract_z
 _atom_site_occupancy
  Zn  Zn0  1  0.812962  0.109810  0.160544  1
  Zn  Zn1  1  0.466251  0.834320  0.940193  1
  Zn  Zn2  1  0.050323  0.193051  0.795725  1
  Zn  Zn3  1  0.490390  0.418348  0.601956  1
  Cr  Cr4  1  0.738395  0.099563  0.533979  1
  Cr  Cr5  1  0.123892  0.473546  0.238764  1
  Cr  Cr6  1  0.857785  0.507511  0.878281  1
  Cr  Cr7  1  0.421034  0.775696  0.494540  1
  O  O8  1  0.968824  0.638642  0.633560  1
  O  O9  1  0.376506  0.059782  0.005245  1
  O  O10  1  0.544673  0.569402  0.363050  1
  O  O11  1  0.195164  0.243576  0.411495  1
  O  O12  1  0.294301  0.952692  0.670127  1
  O  O13  1  0.713293  0.371228  0.117898  1
  O  O14  1  0.868958  0.918174  0.369644  1
  O  O15  1  0.045529  0.673998  0.010616  1
