# generated using pymatgen
data_ZnFeO2
_symmetry_space_group_name_H-M   'P 1'
_cell_length_a   3.09294886
_cell_length_b   8.03014099
_cell_length_c   8.71133365
_cell_angle_alpha   89.65271745
_cell_angle_beta   73.78080081
_cell_angle_gamma   89.27708919
_symmetry_Int_Tables_number   1
_chemical_formula_structural   ZnFeO2
_chemical_formula_sum   'Zn4 Fe4 O8'
_cell_volume   207.73335703
_cell_formula_units_Z   4
loop_
 _symmetry_equiv_pos_site_id
 _symmetry_equiv_pos_as_xyz
  1  'x, y, z'
loop_
 _atom_site_type_symbol
 _atom_site_label
 _atom_site_symmetry_multiplicity
 _atom_site_fract_x
 _atom_site_fract_y
 _atom_site_fract_z
 _atom_site_occupancy
  Zn  Zn0  1  0.389293  0.069707  0.280707  1
  Zn  Zn1  1  0.607453  0.910147  0.747511  1
  Zn  Zn2  1  0.131062  0.736752  0.119828  1
  Zn  Zn3  1  0.863168  0.243382  0.908332  1
  Fe  Fe4  1  0.447175  0.246544  0.587155  1
  Fe  Fe5  1  0.062413  0.402626  0.233034  1
  Fe  Fe6  1  0.933604  0.577317  0.795216  1
  Fe  Fe7  1  0.549582  0.732874  0.441065  1
  O  O8  1  0.931489  0.729589  0.591898  1
  O  O9  1  0.466325  0.382967  0.791829  1
  O  O10  1  0.529898  0.597114  0.236149  1
  O  O11  1  0.065036  0.250295  0.436322  1
  O  O12  1  0.094537  0.066257  0.750750  1
  O  O13  1  0.668182  0.255882  0.133616  1
  O  O14  1  0.901775  0.913668  0.277667  1
  O  O15  1  0.327282  0.724214  0.894541  1
