# generated using pymatgen
data_SrMnZn(PO4)2
_symmetry_space_group_name_H-M   'P 1'
_cell_length_a   5.53250213
_cell_length_b   7.04704880
_cell_length_c   9.54676635
_cell_angle_alpha   110.65075612
_cell_angle_beta   101.88396814
_cell_angle_gamma   97.94070639
_symmetry_Int_Tables_number   1
_chemical_formula_structural   SrMnZn(PO4)2
_chemical_formula_sum   'Sr2 Mn2 Zn2 P4 O16'
_cell_volume   331.67532440
_cell_formula_units_Z   2
loop_
 _symmetry_equiv_pos_site_id
 _symmetry_equiv_pos_as_xyz
  1  'x, y, z'
loop_
 _atom_site_type_symbol
 _atom_site_label
 _atom_site_symmetry_multiplicity
 _atom_site_fract_x
 _atom_site_fract_y
 _atom_site_fract_z
 _atom_site_occupancy
  Sr  Sr0  1  0.245336  0.799177  0.047071  1
  Sr  Sr1  1  0.754664  0.200823  0.952929  1
  Mn  Mn2  1  0.627110  0.836895  0.558316  1
  Mn  Mn3  1  0.372890  0.163105  0.441684  1
  Zn  Zn4  1  0.996544  0.375333  0.645525  1
  Zn  Zn5  1  0.003456  0.624667  0.354475  1
  P  P6  1  0.387731  0.419570  0.226193  1
  P  P7  1  0.612269  0.580430  0.773807  1
  P  P8  1  0.838363  0.019516  0.299025  1
  P  P9  1  0.161637  0.980484  0.700975  1
  O  O10  1  0.806023  0.554450  0.902449  1
  O  O11  1  0.663835  0.474905  0.213661  1
  O  O12  1  0.669140  0.801798  0.775550  1
  O  O13  1  0.958893  0.117858  0.697834  1
  O  O14  1  0.336165  0.525095  0.786339  1
  O  O15  1  0.009673  0.755017  0.580606  1
  O  O16  1  0.990327  0.244983  0.419394  1
  O  O17  1  0.260762  0.994904  0.866358  1
  O  O18  1  0.330860  0.198202  0.224450  1
  O  O19  1  0.739238  0.005096  0.133642  1
  O  O20  1  0.193977  0.445550  0.097551  1
  O  O21  1  0.357118  0.576425  0.385513  1
  O  O22  1  0.642882  0.423575  0.614487  1
  O  O23  1  0.615714  0.946357  0.359598  1
  O  O24  1  0.041107  0.882142  0.302166  1
  O  O25  1  0.384286  0.053643  0.640402  1
