# generated using pymatgen
data_Mg2FeN2
_symmetry_space_group_name_H-M   'P 1'
_cell_length_a   4.31232261
_cell_length_b   5.51016001
_cell_length_c   6.22825631
_cell_angle_alpha   64.10298006
_cell_angle_beta   69.74553539
_cell_angle_gamma   66.96418615
_symmetry_Int_Tables_number   1
_chemical_formula_structural   Mg2FeN2
_chemical_formula_sum   'Mg4 Fe2 N4'
_cell_volume   119.73816182
_cell_formula_units_Z   2
loop_
 _symmetry_equiv_pos_site_id
 _symmetry_equiv_pos_as_xyz
  1  'x, y, z'
loop_
 _atom_site_type_symbol
 _atom_site_label
 _atom_site_symmetry_multiplicity
 _atom_site_fract_x
 _atom_site_fract_y
 _atom_site_fract_z
 _atom_site_occupancy
  Mg  Mg0  1  0.677272  0.237468  0.407989  1
  Mg  Mg1  1  0.322728  0.762532  0.592011  1
  Mg  Mg2  1  0.031756  0.689586  0.246901  1
  Mg  Mg3  1  0.968244  0.310414  0.753099  1
  Fe  Fe4  1  0.368700  0.137156  0.125444  1
  Fe  Fe5  1  0.631300  0.862844  0.874556  1
  N  N6  1  0.180211  0.245712  0.393867  1
  N  N7  1  0.819789  0.754288  0.606133  1
  N  N8  1  0.477106  0.257120  0.788668  1
  N  N9  1  0.522894  0.742880  0.211332  1
