# generated using pymatgen
data_ZnCoO2
_symmetry_space_group_name_H-M   'P 1'
_cell_length_a   3.05070791
_cell_length_b   8.01666455
_cell_length_c   8.44608699
_cell_angle_alpha   85.21488255
_cell_angle_beta   75.29145043
_cell_angle_gamma   88.39733133
_symmetry_Int_Tables_number   1
_chemical_formula_structural   ZnCoO2
_chemical_formula_sum   'Zn4 Co4 O8'
_cell_volume   199.09138688
_cell_formula_units_Z   4
loop_
 _symmetry_equiv_pos_site_id
 _symmetry_equiv_pos_as_xyz
  1  'x, y, z'
loop_
 _atom_site_type_symbol
 _atom_site_label
 _atom_site_symmetry_multiplicity
 _atom_site_fract_x
 _atom_site_fract_y
 _atom_site_fract_z
 _atom_site_occupancy
  Zn  Zn0  1  0.383009  0.075874  0.274773  1
  Zn  Zn1  1  0.616308  0.903572  0.753720  1
  Zn  Zn2  1  0.118916  0.735699  0.125311  1
  Zn  Zn3  1  0.880859  0.244561  0.902581  1
  Co  Co4  1  0.433345  0.243217  0.582638  1
  Co  Co5  1  0.071272  0.409072  0.233450  1
  Co  Co6  1  0.920961  0.571187  0.795566  1
  Co  Co7  1  0.562294  0.736044  0.445311  1
  O  O8  1  0.957616  0.738847  0.594250  1
  O  O9  1  0.442832  0.388083  0.769042  1
  O  O10  1  0.549562  0.592124  0.258300  1
  O  O11  1  0.037694  0.240604  0.433471  1
  O  O12  1  0.096875  0.062984  0.760781  1
  O  O13  1  0.656628  0.276086  0.126635  1
  O  O14  1  0.901749  0.917166  0.268451  1
  O  O15  1  0.338356  0.704215  0.901340  1
