# generated using pymatgen
data_CaAgF5
_symmetry_space_group_name_H-M   'P 1'
_cell_length_a   5.81747742
_cell_length_b   5.75146582
_cell_length_c   8.12080860
_cell_angle_alpha   96.32344513
_cell_angle_beta   110.44537382
_cell_angle_gamma   108.87016950
_symmetry_Int_Tables_number   1
_chemical_formula_structural   CaAgF5
_chemical_formula_sum   'Ca2 Ag2 F10'
_cell_volume   233.16162768
_cell_formula_units_Z   2
loop_
 _symmetry_equiv_pos_site_id
 _symmetry_equiv_pos_as_xyz
  1  'x, y, z'
loop_
 _atom_site_type_symbol
 _atom_site_label
 _atom_site_symmetry_multiplicity
 _atom_site_fract_x
 _atom_site_fract_y
 _atom_site_fract_z
 _atom_site_occupancy
  Ca  Ca0  1  0.287768  0.541319  0.745849  1
  Ca  Ca1  1  0.708683  0.457473  0.250027  1
  Ag  Ag2  1  0.997391  0.997859  -0.001733  1
  Ag  Ag3  1  0.499376  -0.001154  0.498569  1
  F  F4  1  0.357577  0.099524  0.255887  1
  F  F5  1  0.640443  0.899615  0.740283  1
  F  F6  1  0.593018  0.739069  0.372408  1
  F  F7  1  0.862615  0.210841  0.120217  1
  F  F8  1  0.718128  0.673869  0.021184  1
  F  F9  1  0.146216  0.695417  0.468974  1
  F  F10  1  0.273596  0.320770  0.972985  1
  F  F11  1  0.848951  0.305070  0.526483  1
  F  F12  1  0.128239  0.781019  0.876496  1
  F  F13  1  0.404284  0.260186  0.625201  1
