# generated using pymatgen
data_Ca(FeO2)2
_symmetry_space_group_name_H-M   'P 1'
_cell_length_a   3.11730203
_cell_length_b   8.01688419
_cell_length_c   7.16230623
_cell_angle_alpha   76.64665861
_cell_angle_beta   77.42997600
_cell_angle_gamma   78.78641443
_symmetry_Int_Tables_number   1
_chemical_formula_structural   Ca(FeO2)2
_chemical_formula_sum   'Ca2 Fe4 O8'
_cell_volume   168.00881283
_cell_formula_units_Z   2
loop_
 _symmetry_equiv_pos_site_id
 _symmetry_equiv_pos_as_xyz
  1  'x, y, z'
loop_
 _atom_site_type_symbol
 _atom_site_label
 _atom_site_symmetry_multiplicity
 _atom_site_fract_x
 _atom_site_fract_y
 _atom_site_fract_z
 _atom_site_occupancy
  Ca  Ca0  1  0.342771  0.158105  0.157001  1
  Ca  Ca1  1  0.653242  0.816711  0.877205  1
  Fe  Fe2  1  0.628432  0.169240  0.574499  1
  Fe  Fe3  1  0.134643  0.517979  0.213038  1
  Fe  Fe4  1  0.861349  0.456864  0.820934  1
  Fe  Fe5  1  0.367720  0.805294  0.459742  1
  O  O6  1  0.863755  0.673662  0.599273  1
  O  O7  1  0.454068  0.294583  0.797845  1
  O  O8  1  0.541719  0.681397  0.235523  1
  O  O9  1  0.132517  0.301174  0.434418  1
  O  O10  1  0.155430  0.995255  0.694332  1
  O  O11  1  0.758918  0.368209  0.114454  1
  O  O12  1  0.838430  0.980811  0.342970  1
  O  O13  1  0.237091  0.606611  0.919628  1
