# generated using pymatgen
data_CaCu(SiO3)2
_symmetry_space_group_name_H-M   'P 1'
_cell_length_a   5.48592056
_cell_length_b   9.68925201
_cell_length_c   19.12615038
_cell_angle_alpha   90.00000000
_cell_angle_beta   90.00000000
_cell_angle_gamma   90.00000000
_symmetry_Int_Tables_number   1
_chemical_formula_structural   CaCu(SiO3)2
_chemical_formula_sum   'Ca8 Cu8 Si16 O48'
_cell_volume   1016.64032563
_cell_formula_units_Z   8
loop_
 _symmetry_equiv_pos_site_id
 _symmetry_equiv_pos_as_xyz
  1  'x, y, z'
loop_
 _atom_site_type_symbol
 _atom_site_label
 _atom_site_symmetry_multiplicity
 _atom_site_fract_x
 _atom_site_fract_y
 _atom_site_fract_z
 _atom_site_occupancy
  Ca  Ca0  1  0.597046  0.145045  0.625937  1
  Ca  Ca1  1  0.402954  0.854955  0.374063  1
  Ca  Ca2  1  0.597046  0.645045  0.874063  1
  Ca  Ca3  1  0.097046  0.854955  0.874063  1
  Ca  Ca4  1  0.902954  0.145045  0.125937  1
  Ca  Ca5  1  0.402954  0.354955  0.125937  1
  Ca  Ca6  1  0.097046  0.354955  0.625937  1
  Ca  Ca7  1  0.902954  0.645045  0.374063  1
  Cu  Cu8  1  0.393772  0.986676  0.123991  1
  Cu  Cu9  1  0.606228  0.013324  0.876009  1
  Cu  Cu10  1  0.893772  0.013324  0.376009  1
  Cu  Cu11  1  0.106228  0.986676  0.623991  1
  Cu  Cu12  1  0.393772  0.486676  0.376009  1
  Cu  Cu13  1  0.606228  0.513324  0.623991  1
  Cu  Cu14  1  0.893772  0.513324  0.123991  1
  Cu  Cu15  1  0.106228  0.486676  0.876009  1
  Si  Si16  1  0.591287  0.670220  0.220891  1
  Si  Si17  1  0.775308  0.835406  0.521620  1
  Si  Si18  1  0.724692  0.835406  0.021620  1
  Si  Si19  1  0.908713  0.170220  0.779109  1
  Si  Si20  1  0.091287  0.329780  0.279109  1
  Si  Si21  1  0.408713  0.829780  0.720891  1
  Si  Si22  1  0.275308  0.664594  0.521620  1
  Si  Si23  1  0.775308  0.335406  0.978380  1
  Si  Si24  1  0.724692  0.335406  0.478380  1
  Si  Si25  1  0.908713  0.670220  0.720891  1
  Si  Si26  1  0.408713  0.329780  0.779109  1
  Si  Si27  1  0.591287  0.170220  0.279109  1
  Si  Si28  1  0.224692  0.164594  0.478380  1
  Si  Si29  1  0.091287  0.829780  0.220891  1
  Si  Si30  1  0.224692  0.664594  0.021620  1
  Si  Si31  1  0.275308  0.164594  0.978380  1
  O  O32  1  0.886795  0.519430  0.683128  1
  O  O33  1  0.317884  0.027899  0.930634  1
  O  O34  1  0.113205  0.480570  0.316872  1
  O  O35  1  0.768675  0.355431  0.063831  1
  O  O36  1  0.268675  0.144569  0.063831  1
  O  O37  1  0.999677  0.226344  0.959954  1
  O  O38  1  0.926343  0.667632  0.805187  1
  O  O39  1  0.073657  0.832368  0.305187  1
  O  O40  1  0.768675  0.855431  0.436169  1
  O  O41  1  0.926343  0.167632  0.694813  1
  O  O42  1  0.386795  0.480570  0.816872  1
  O  O43  1  0.731325  0.355431  0.563831  1
  O  O44  1  0.682116  0.972101  0.069366  1
  O  O45  1  0.426343  0.832368  0.805187  1
  O  O46  1  0.613205  0.019430  0.316872  1
  O  O47  1  0.317884  0.527899  0.569366  1
  O  O48  1  0.386795  0.980570  0.683128  1
  O  O49  1  0.150249  0.757128  0.691093  1
  O  O50  1  0.349751  0.757128  0.191093  1
  O  O51  1  0.500323  0.726344  0.040046  1
  O  O52  1  0.731325  0.855431  0.936169  1
  O  O53  1  0.573657  0.667632  0.305187  1
  O  O54  1  0.817884  0.472101  0.930634  1
  O  O55  1  0.150249  0.257128  0.808907  1
  O  O56  1  0.231325  0.144569  0.563831  1
  O  O57  1  0.573657  0.167632  0.194813  1
  O  O58  1  0.682116  0.472101  0.430634  1
  O  O59  1  0.268675  0.644569  0.436169  1
  O  O60  1  0.182116  0.527899  0.069366  1
  O  O61  1  0.650249  0.742872  0.691093  1
  O  O62  1  0.113205  0.980570  0.183128  1
  O  O63  1  0.849751  0.742872  0.191093  1
  O  O64  1  0.849751  0.242872  0.308907  1
  O  O65  1  0.817884  0.972101  0.569366  1
  O  O66  1  0.231325  0.644569  0.936169  1
  O  O67  1  0.182116  0.027899  0.430634  1
  O  O68  1  0.349751  0.257128  0.308907  1
  O  O69  1  0.000323  0.773656  0.040046  1
  O  O70  1  0.499677  0.773656  0.540046  1
  O  O71  1  0.650249  0.242872  0.808907  1
  O  O72  1  0.499677  0.273656  0.959954  1
  O  O73  1  0.500323  0.226344  0.459954  1
  O  O74  1  0.000323  0.273656  0.459954  1
  O  O75  1  0.426343  0.332368  0.694813  1
  O  O76  1  0.613205  0.519430  0.183128  1
  O  O77  1  0.999677  0.726344  0.540046  1
  O  O78  1  0.073657  0.332368  0.194813  1
  O  O79  1  0.886795  0.019430  0.816872  1
