# generated using pymatgen
data_CaCrO2
_symmetry_space_group_name_H-M   'P 1'
_cell_length_a   3.10891664
_cell_length_b   9.34064998
_cell_length_c   8.98486025
_cell_angle_alpha   85.45530296
_cell_angle_beta   79.67185850
_cell_angle_gamma   80.31038086
_symmetry_Int_Tables_number   1
_chemical_formula_structural   CaCrO2
_chemical_formula_sum   'Ca4 Cr4 O8'
_cell_volume   252.70060453
_cell_formula_units_Z   4
loop_
 _symmetry_equiv_pos_site_id
 _symmetry_equiv_pos_as_xyz
  1  'x, y, z'
loop_
 _atom_site_type_symbol
 _atom_site_label
 _atom_site_symmetry_multiplicity
 _atom_site_fract_x
 _atom_site_fract_y
 _atom_site_fract_z
 _atom_site_occupancy
  Ca  Ca0  1  0.349246  0.059255  0.253274  1
  Ca  Ca1  1  0.646699  0.920669  0.775021  1
  Ca  Ca2  1  0.090431  0.681303  0.141271  1
  Ca  Ca3  1  0.905646  0.298697  0.886911  1
  Cr  Cr4  1  0.618477  0.189670  0.568735  1
  Cr  Cr5  1  0.215017  0.366725  0.208506  1
  Cr  Cr6  1  0.781122  0.613174  0.819613  1
  Cr  Cr7  1  0.377487  0.790229  0.459560  1
  O  O8  1  0.822560  0.755241  0.599574  1
  O  O9  1  0.355578  0.462415  0.823331  1
  O  O10  1  0.640685  0.517507  0.204578  1
  O  O11  1  0.173444  0.224624  0.428700  1
  O  O12  1  0.075892  0.112859  0.724534  1
  O  O13  1  0.830509  0.217029  0.134652  1
  O  O14  1  0.920008  0.867037  0.303788  1
  O  O15  1  0.165475  0.762902  0.893566  1
