# generated using pymatgen
data_CaCr4O6
_symmetry_space_group_name_H-M   'P 1'
_cell_length_a   3.10440088
_cell_length_b   5.40260348
_cell_length_c   15.14440243
_cell_angle_alpha   90.00000000
_cell_angle_beta   90.00000000
_cell_angle_gamma   106.69673921
_symmetry_Int_Tables_number   1
_chemical_formula_structural   CaCr4O6
_chemical_formula_sum   'Ca2 Cr8 O12'
_cell_volume   243.29068450
_cell_formula_units_Z   2
loop_
 _symmetry_equiv_pos_site_id
 _symmetry_equiv_pos_as_xyz
  1  'x, y, z'
loop_
 _atom_site_type_symbol
 _atom_site_label
 _atom_site_symmetry_multiplicity
 _atom_site_fract_x
 _atom_site_fract_y
 _atom_site_fract_z
 _atom_site_occupancy
  Ca  Ca0  1  0.663173  0.326348  0.750000  1
  Ca  Ca1  1  0.336827  0.673652  0.250000  1
  Cr  Cr2  1  0.863138  0.726280  0.043251  1
  Cr  Cr3  1  0.410575  0.821148  0.633068  1
  Cr  Cr4  1  0.136860  0.273719  0.956749  1
  Cr  Cr5  1  0.589425  0.178852  0.366933  1
  Cr  Cr6  1  0.863138  0.726280  0.456749  1
  Cr  Cr7  1  0.136860  0.273719  0.543251  1
  Cr  Cr8  1  0.589425  0.178852  0.133067  1
  Cr  Cr9  1  0.410575  0.821148  0.866932  1
  O  O10  1  0.499999  -0.000000  0.500000  1
  O  O11  1  0.499999  -0.000000  0.000000  1
  O  O12  1  0.037036  0.074071  0.843024  1
  O  O13  1  0.962964  0.925929  0.156977  1
  O  O14  1  0.962964  0.925929  0.343023  1
  O  O15  1  0.037036  0.074071  0.656977  1
  O  O16  1  0.788697  0.577395  0.914403  1
  O  O17  1  0.211302  0.422606  0.085597  1
  O  O18  1  0.211302  0.422606  0.414403  1
  O  O19  1  0.788697  0.577395  0.585597  1
  O  O20  1  0.326050  0.652100  0.750000  1
  O  O21  1  0.673948  0.347899  0.250000  1
