# generated using pymatgen
data_Be3Si3(BiO6)2
_symmetry_space_group_name_H-M   'P 1'
_cell_length_a   8.17963277
_cell_length_b   8.34811416
_cell_length_c   14.51311049
_cell_angle_alpha   90.44114254
_cell_angle_beta   90.00000000
_cell_angle_gamma   90.00000000
_symmetry_Int_Tables_number   1
_chemical_formula_structural   Be3Si3(BiO6)2
_chemical_formula_sum   'Be12 Si12 Bi8 O48'
_cell_volume   990.99123727
_cell_formula_units_Z   4
loop_
 _symmetry_equiv_pos_site_id
 _symmetry_equiv_pos_as_xyz
  1  'x, y, z'
loop_
 _atom_site_type_symbol
 _atom_site_label
 _atom_site_symmetry_multiplicity
 _atom_site_fract_x
 _atom_site_fract_y
 _atom_site_fract_z
 _atom_site_occupancy
  Be  Be0  1  0.837145  0.929431  0.759675  1
  Be  Be1  1  0.669060  0.925173  0.404926  1
  Be  Be2  1  0.169061  0.574827  0.095074  1
  Be  Be3  1  0.330939  0.074826  0.595074  1
  Be  Be4  1  0.830939  0.425173  0.904926  1
  Be  Be5  1  0.166863  0.606175  0.416463  1
  Be  Be6  1  0.666863  0.893825  0.083537  1
  Be  Be7  1  0.833137  0.393824  0.583537  1
  Be  Be8  1  0.333136  0.106175  0.916463  1
  Be  Be9  1  0.662855  0.429431  0.259675  1
  Be  Be10  1  0.162855  0.070568  0.240325  1
  Be  Be11  1  0.337146  0.570569  0.740325  1
  Si  Si12  1  0.222452  0.929145  0.760035  1
  Si  Si13  1  0.722452  0.570855  0.739965  1
  Si  Si14  1  0.777548  0.070854  0.239965  1
  Si  Si15  1  0.277549  0.429145  0.260035  1
  Si  Si16  1  0.707713  0.110838  0.914591  1
  Si  Si17  1  0.207713  0.389163  0.585409  1
  Si  Si18  1  0.292287  0.889162  0.085409  1
  Si  Si19  1  0.792286  0.610838  0.414591  1
  Si  Si20  1  0.210343  0.425234  0.904673  1
  Si  Si21  1  0.710344  0.074765  0.595327  1
  Si  Si22  1  0.789657  0.574766  0.095327  1
  Si  Si23  1  0.289656  0.925234  0.404673  1
  Bi  Bi24  1  0.473337  0.255392  0.093282  1
  Bi  Bi25  1  0.026663  0.755393  0.593282  1
  Bi  Bi26  1  0.526664  0.744608  0.906718  1
  Bi  Bi27  1  0.973337  0.244607  0.406718  1
  Bi  Bi28  1  0.536995  0.260047  0.428256  1
  Bi  Bi29  1  0.036996  0.239952  0.071744  1
  Bi  Bi30  1  0.463005  0.739953  0.571744  1
  Bi  Bi31  1  0.963004  0.760048  0.928256  1
  O  O32  1  0.170715  0.748220  0.043953  1
  O  O33  1  0.031731  0.901077  0.795527  1
  O  O34  1  0.531731  0.598923  0.704473  1
  O  O35  1  0.968269  0.098923  0.204473  1
  O  O36  1  0.468268  0.401076  0.295527  1
  O  O37  1  0.520655  0.169577  0.944720  1
  O  O38  1  0.020655  0.330423  0.555281  1
  O  O39  1  0.479345  0.830423  0.055280  1
  O  O40  1  0.979344  0.669577  0.444719  1
  O  O41  1  0.021727  0.497601  0.895444  1
  O  O42  1  0.521727  0.002399  0.604556  1
  O  O43  1  0.978273  0.502400  0.104556  1
  O  O44  1  0.168627  0.056258  0.353488  1
  O  O45  1  0.668626  0.443743  0.146512  1
  O  O46  1  0.831374  0.943742  0.646512  1
  O  O47  1  0.331374  0.556258  0.853488  1
  O  O48  1  0.670716  0.751780  0.456047  1
  O  O49  1  0.478274  0.997601  0.395444  1
  O  O50  1  0.329285  0.248220  0.543953  1
  O  O51  1  0.829285  0.251779  0.956047  1
  O  O52  1  0.751012  0.069259  0.480124  1
  O  O53  1  0.659306  0.059070  0.146648  1
  O  O54  1  0.840694  0.559069  0.646648  1
  O  O55  1  0.340693  0.940930  0.853352  1
  O  O56  1  0.730510  0.433532  0.814960  1
  O  O57  1  0.230510  0.066467  0.685040  1
  O  O58  1  0.269490  0.566468  0.185040  1
  O  O59  1  0.769489  0.933532  0.314960  1
  O  O60  1  0.731206  0.056643  0.810184  1
  O  O61  1  0.231206  0.443358  0.689816  1
  O  O62  1  0.268793  0.943357  0.189816  1
  O  O63  1  0.768794  0.556643  0.310184  1
  O  O64  1  0.219491  0.239871  0.878063  1
  O  O65  1  0.719490  0.260129  0.621938  1
  O  O66  1  0.780510  0.760128  0.121937  1
  O  O67  1  0.280510  0.739872  0.378062  1
  O  O68  1  0.769437  0.743559  0.796103  1
  O  O69  1  0.269436  0.756441  0.703897  1
  O  O70  1  0.230563  0.256440  0.203897  1
  O  O71  1  0.730564  0.243560  0.296103  1
  O  O72  1  0.738348  0.941508  0.976110  1
  O  O73  1  0.238347  0.558492  0.523890  1
  O  O74  1  0.261652  0.058492  0.023890  1
  O  O75  1  0.761653  0.441507  0.476110  1
  O  O76  1  0.748989  0.569258  0.980124  1
  O  O77  1  0.248989  0.930741  0.519876  1
  O  O78  1  0.251011  0.430742  0.019876  1
  O  O79  1  0.159306  0.440930  0.353352  1
