# generated using pymatgen
data_CaFeMoO6
_symmetry_space_group_name_H-M   'P 1'
_cell_length_a   5.38904317
_cell_length_b   5.60849334
_cell_length_c   7.67783341
_cell_angle_alpha   90.00000000
_cell_angle_beta   89.82885407
_cell_angle_gamma   90.00000000
_symmetry_Int_Tables_number   1
_chemical_formula_structural   CaFeMoO6
_chemical_formula_sum   'Ca2 Fe2 Mo2 O12'
_cell_volume   232.05697043
_cell_formula_units_Z   2
loop_
 _symmetry_equiv_pos_site_id
 _symmetry_equiv_pos_as_xyz
  1  'x, y, z'
loop_
 _atom_site_type_symbol
 _atom_site_label
 _atom_site_symmetry_multiplicity
 _atom_site_fract_x
 _atom_site_fract_y
 _atom_site_fract_z
 _atom_site_occupancy
  Ca  Ca0  1  0.988320  0.936088  0.748902  1
  Ca  Ca1  1  0.488321  0.563913  0.248903  1
  Fe  Fe2  1  0.495173  0.002977  0.500222  1
  Fe  Fe3  1  0.995174  0.497023  0.000222  1
  Mo  Mo4  1  0.496667  0.029720  0.998268  1
  Mo  Mo5  1  0.996668  0.470280  0.498269  1
  O  O6  1  0.726660  0.719824  0.526619  1
  O  O7  1  0.790710  0.200007  0.957112  1
  O  O8  1  0.290709  0.299992  0.457113  1
  O  O9  1  0.226659  0.780175  0.026619  1
  O  O10  1  0.212423  0.775878  0.475230  1
  O  O11  1  0.297355  0.289902  0.044951  1
  O  O12  1  0.797356  0.210097  0.544950  1
  O  O13  1  0.712424  0.724121  0.975230  1
  O  O14  1  0.056648  0.518192  0.745261  1
  O  O15  1  0.420285  0.012127  0.756102  1
  O  O16  1  0.556647  0.981808  0.245261  1
  O  O17  1  0.920284  0.487873  0.256102  1
