# generated using pymatgen
data_Zn3As4W3O16
_symmetry_space_group_name_H-M   'P 1'
_cell_length_a   5.25264737
_cell_length_b   10.13659222
_cell_length_c   15.94731380
_cell_angle_alpha   108.74314303
_cell_angle_beta   90.00000000
_cell_angle_gamma   90.00000000
_symmetry_Int_Tables_number   1
_chemical_formula_structural   Zn3As4W3O16
_chemical_formula_sum   'Zn6 As8 W6 O32'
_cell_volume   804.06903338
_cell_formula_units_Z   2
loop_
 _symmetry_equiv_pos_site_id
 _symmetry_equiv_pos_as_xyz
  1  'x, y, z'
loop_
 _atom_site_type_symbol
 _atom_site_label
 _atom_site_symmetry_multiplicity
 _atom_site_fract_x
 _atom_site_fract_y
 _atom_site_fract_z
 _atom_site_occupancy
  Zn  Zn0  1  0.065704  0.977054  0.716811  1
  Zn  Zn1  1  0.565704  0.522946  0.783189  1
  Zn  Zn2  1  0.934296  0.022946  0.283189  1
  Zn  Zn3  1  0.434296  0.477054  0.216811  1
  Zn  Zn4  1  0.000000  -0.000000  0.000000  1
  Zn  Zn5  1  0.500000  0.500000  0.500000  1
  As  As6  1  0.570095  0.898449  0.829156  1
  As  As7  1  0.166523  0.255287  0.893649  1
  As  As8  1  0.666523  0.244713  0.606351  1
  As  As9  1  0.333477  0.755287  0.393649  1
  As  As10  1  0.429905  0.101551  0.170844  1
  As  As11  1  0.833477  0.744713  0.106351  1
  As  As12  1  0.929905  0.398449  0.329156  1
  As  As13  1  0.070095  0.601551  0.670844  1
  W  W14  1  0.988706  0.323038  0.103394  1
  W  W15  1  0.011294  0.676962  0.896606  1
  W  W16  1  0.488706  0.176962  0.396606  1
  W  W17  1  0.511294  0.823038  0.603394  1
  W  W18  1  0.500000  0.500000  0.000000  1
  W  W19  1  0.000000  -0.000000  0.500000  1
  O  O20  1  0.201684  0.572490  0.789624  1
  O  O21  1  0.668429  0.302190  0.511256  1
  O  O22  1  0.267043  0.105825  0.810696  1
  O  O23  1  0.248119  0.781369  0.681596  1
  O  O24  1  0.732957  0.894175  0.189304  1
  O  O25  1  0.298316  0.072490  0.289624  1
  O  O26  1  0.767043  0.394175  0.689304  1
  O  O27  1  0.778264  0.036709  0.402506  1
  O  O28  1  0.728429  0.510762  0.399567  1
  O  O29  1  0.798316  0.427510  0.210376  1
  O  O30  1  0.251881  0.281369  0.181596  1
  O  O31  1  0.221736  0.963291  0.597494  1
  O  O32  1  0.206893  0.597566  0.966124  1
  O  O33  1  0.271571  0.489238  0.600433  1
  O  O34  1  0.809535  0.163579  0.088380  1
  O  O35  1  0.309536  0.336421  0.411620  1
  O  O36  1  0.706893  0.902434  0.533876  1
  O  O37  1  0.232957  0.605825  0.310696  1
  O  O38  1  0.228429  0.989238  0.100433  1
  O  O39  1  0.278264  0.463291  0.097494  1
  O  O40  1  0.690465  0.663579  0.588380  1
  O  O41  1  0.190465  0.836421  0.911620  1
  O  O42  1  0.331571  0.697810  0.488744  1
  O  O43  1  0.168429  0.197810  0.988744  1
  O  O44  1  0.793107  0.402434  0.033876  1
  O  O45  1  0.701684  0.927510  0.710376  1
  O  O46  1  0.751881  0.218631  0.318404  1
  O  O47  1  0.771571  0.010762  0.899567  1
  O  O48  1  0.831571  0.802190  0.011256  1
  O  O49  1  0.721736  0.536709  0.902506  1
  O  O50  1  0.293107  0.097566  0.466124  1
  O  O51  1  0.748119  0.718631  0.818404  1
