# generated using pymatgen
data_MgAg3P3O13
_symmetry_space_group_name_H-M   'P 1'
_cell_length_a   6.45655000
_cell_length_b   7.96275577
_cell_length_c   10.62444860
_cell_angle_alpha   97.93325052
_cell_angle_beta   90.00000000
_cell_angle_gamma   90.00000000
_symmetry_Int_Tables_number   1
_chemical_formula_structural   MgAg3P3O13
_chemical_formula_sum   'Mg2 Ag6 P6 O26'
_cell_volume   540.99580243
_cell_formula_units_Z   2
loop_
 _symmetry_equiv_pos_site_id
 _symmetry_equiv_pos_as_xyz
  1  'x, y, z'
loop_
 _atom_site_type_symbol
 _atom_site_label
 _atom_site_symmetry_multiplicity
 _atom_site_fract_x
 _atom_site_fract_y
 _atom_site_fract_z
 _atom_site_occupancy
  Mg  Mg0  1  0.750000  0.615048  0.159221  1
  Mg  Mg1  1  0.250000  0.384952  0.840779  1
  Ag  Ag2  1  0.250000  0.335586  0.213572  1
  Ag  Ag3  1  0.750000  0.664414  0.786428  1
  Ag  Ag4  1  0.250000  0.741946  0.431355  1
  Ag  Ag5  1  0.500000  -0.000000  0.000000  1
  Ag  Ag6  1  0.750000  0.258054  0.568645  1
  Ag  Ag7  1  -0.000000  -0.000000  0.000000  1
  P  P8  1  0.250000  0.226592  0.502774  1
  P  P9  1  0.750000  0.773408  0.497226  1
  P  P10  1  0.250000  0.736903  0.756789  1
  P  P11  1  0.750000  0.263097  0.243211  1
  P  P12  1  0.750000  0.329515  0.887341  1
  P  P13  1  0.250000  0.670485  0.112659  1
  O  O14  1  0.750000  0.390865  0.751405  1
  O  O15  1  0.569246  0.745697  0.397487  1
  O  O16  1  0.250000  0.805018  0.630192  1
  O  O17  1  0.541312  0.232789  0.891209  1
  O  O18  1  0.750000  0.623966  0.577451  1
  O  O19  1  0.750000  0.889786  0.905970  1
  O  O20  1  0.250000  0.376034  0.422549  1
  O  O21  1  0.041312  0.767211  0.108791  1
  O  O22  1  0.250000  0.060334  0.414374  1
  O  O23  1  0.750000  0.939666  0.585626  1
  O  O24  1  0.072073  0.611114  0.781235  1
  O  O25  1  0.250000  0.110214  0.094030  1
  O  O26  1  0.572073  0.388886  0.218765  1
  O  O27  1  0.750000  0.494235  0.980981  1
  O  O28  1  0.750000  0.194982  0.369808  1
  O  O29  1  0.458688  0.767211  0.108791  1
  O  O30  1  0.930754  0.745697  0.397487  1
  O  O31  1  0.430754  0.254303  0.602513  1
  O  O32  1  0.427927  0.611114  0.781235  1
  O  O33  1  0.250000  0.609135  0.248595  1
  O  O34  1  0.750000  0.105559  0.140248  1
  O  O35  1  0.250000  0.894441  0.859752  1
  O  O36  1  0.927927  0.388886  0.218765  1
  O  O37  1  0.958688  0.232789  0.891209  1
  O  O38  1  0.069246  0.254303  0.602513  1
  O  O39  1  0.250000  0.505765  0.019019  1
