# generated using pymatgen
data_CaPrV2O6
_symmetry_space_group_name_H-M   'P 1'
_cell_length_a   5.52978948
_cell_length_b   5.63639411
_cell_length_c   7.60079627
_cell_angle_alpha   90.00000000
_cell_angle_beta   90.00000000
_cell_angle_gamma   90.00000000
_symmetry_Int_Tables_number   1
_chemical_formula_structural   CaPrV2O6
_chemical_formula_sum   'Ca2 Pr2 V4 O12'
_cell_volume   236.90217190
_cell_formula_units_Z   2
loop_
 _symmetry_equiv_pos_site_id
 _symmetry_equiv_pos_as_xyz
  1  'x, y, z'
loop_
 _atom_site_type_symbol
 _atom_site_label
 _atom_site_symmetry_multiplicity
 _atom_site_fract_x
 _atom_site_fract_y
 _atom_site_fract_z
 _atom_site_occupancy
  Ca  Ca0  1  0.487160  0.455922  0.750000  1
  Ca  Ca1  1  0.987160  0.044078  0.250000  1
  Pr  Pr2  1  0.012806  0.957019  0.750000  1
  Pr  Pr3  1  0.512806  0.542981  0.250000  1
  V  V4  1  0.000615  0.498393  0.999124  1
  V  V5  1  0.000615  0.498393  0.500876  1
  V  V6  1  0.500615  0.001607  0.499124  1
  V  V7  1  0.500615  0.001607  0.000876  1
  O  O8  1  0.076686  0.482040  0.250000  1
  O  O9  1  0.214234  0.208984  0.957773  1
  O  O10  1  0.214234  0.208984  0.542227  1
  O  O11  1  0.286543  0.707862  0.544635  1
  O  O12  1  0.286543  0.707862  0.955365  1
  O  O13  1  0.420562  0.985220  0.250000  1
  O  O14  1  0.576686  0.017960  0.750000  1
  O  O15  1  0.714234  0.291016  0.042227  1
  O  O16  1  0.714234  0.291016  0.457773  1
  O  O17  1  0.786543  0.792138  0.044635  1
  O  O18  1  0.786543  0.792138  0.455365  1
  O  O19  1  0.920562  0.514780  0.750000  1
