# generated using pymatgen
data_LaMgTiCrO6
_symmetry_space_group_name_H-M   'P 1'
_cell_length_a   5.37002809
_cell_length_b   5.50527626
_cell_length_c   7.71020259
_cell_angle_alpha   90.00000000
_cell_angle_beta   90.07907918
_cell_angle_gamma   90.00000000
_symmetry_Int_Tables_number   1
_chemical_formula_structural   LaMgTiCrO6
_chemical_formula_sum   'La2 Mg2 Ti2 Cr2 O12'
_cell_volume   227.94026575
_cell_formula_units_Z   2
loop_
 _symmetry_equiv_pos_site_id
 _symmetry_equiv_pos_as_xyz
  1  'x, y, z'
loop_
 _atom_site_type_symbol
 _atom_site_label
 _atom_site_symmetry_multiplicity
 _atom_site_fract_x
 _atom_site_fract_y
 _atom_site_fract_z
 _atom_site_occupancy
  La  La0  1  0.007119  0.963476  0.749544  1
  La  La1  1  0.507119  0.536524  0.249544  1
  Mg  Mg2  1  0.482825  0.453259  0.747965  1
  Mg  Mg3  1  0.982825  0.046741  0.247965  1
  Ti  Ti4  1  0.499006  0.006379  0.001186  1
  Ti  Ti5  1  0.999006  0.493621  0.501186  1
  Cr  Cr6  1  0.500046  0.998873  0.499152  1
  Cr  Cr7  1  0.000046  0.501127  0.999152  1
  O  O8  1  0.075544  0.456350  0.252871  1
  O  O9  1  0.221532  0.218685  0.953234  1
  O  O10  1  0.218555  0.223273  0.550933  1
  O  O11  1  0.313732  0.698232  0.941952  1
  O  O12  1  0.305943  0.691313  0.556508  1
  O  O13  1  0.375698  0.978533  0.246657  1
  O  O14  1  0.575544  0.043650  0.752871  1
  O  O15  1  0.721532  0.281315  0.453234  1
  O  O16  1  0.718555  0.276727  0.050933  1
  O  O17  1  0.813732  0.801768  0.441952  1
  O  O18  1  0.805943  0.808687  0.056508  1
  O  O19  1  0.875698  0.521467  0.746657  1
