# generated using pymatgen
data_CaCo(GeO3)2
_symmetry_space_group_name_H-M   'P 1'
_cell_length_a   5.52350568
_cell_length_b   6.86413926
_cell_length_c   6.86413961
_cell_angle_alpha   82.92727263
_cell_angle_beta   78.52581804
_cell_angle_gamma   78.52581048
_symmetry_Int_Tables_number   1
_chemical_formula_structural   CaCo(GeO3)2
_chemical_formula_sum   'Ca2 Co2 Ge4 O12'
_cell_volume   249.00157503
_cell_formula_units_Z   2
loop_
 _symmetry_equiv_pos_site_id
 _symmetry_equiv_pos_as_xyz
  1  'x, y, z'
loop_
 _atom_site_type_symbol
 _atom_site_label
 _atom_site_symmetry_multiplicity
 _atom_site_fract_x
 _atom_site_fract_y
 _atom_site_fract_z
 _atom_site_occupancy
  Ca  Ca0  1  0.750000  0.300281  0.699719  1
  Ca  Ca1  1  0.250000  0.699719  0.300281  1
  Co  Co2  1  0.750000  0.907054  0.092946  1
  Co  Co3  1  0.250000  0.092946  0.907054  1
  Ge  Ge4  1  0.780164  0.382700  0.186759  1
  Ge  Ge5  1  0.719836  0.813241  0.617300  1
  Ge  Ge6  1  0.219836  0.617300  0.813241  1
  Ge  Ge7  1  0.280164  0.186759  0.382700  1
  O  O8  1  0.522504  0.328153  0.388721  1
  O  O9  1  0.977496  0.611279  0.671847  1
  O  O10  1  0.477496  0.671847  0.611279  1
  O  O11  1  0.022504  0.388721  0.328153  1
  O  O12  1  0.159317  0.103998  0.625046  1
  O  O13  1  0.340683  0.374954  0.896002  1
  O  O14  1  0.840683  0.896002  0.374954  1
  O  O15  1  0.659317  0.625046  0.103998  1
  O  O16  1  0.866516  0.200254  0.016770  1
  O  O17  1  0.633484  0.983230  0.799746  1
  O  O18  1  0.133484  0.799746  0.983230  1
  O  O19  1  0.366516  0.016770  0.200254  1
