# generated using pymatgen
data_ZnSi4WO10
_symmetry_space_group_name_H-M   'P 1'
_cell_length_a   7.42830499
_cell_length_b   7.42830499
_cell_length_c   15.13222959
_cell_angle_alpha   90.00000000
_cell_angle_beta   90.00000000
_cell_angle_gamma   90.00000000
_symmetry_Int_Tables_number   1
_chemical_formula_structural   ZnSi4WO10
_chemical_formula_sum   'Zn4 Si16 W4 O40'
_cell_volume   834.99211646
_cell_formula_units_Z   4
loop_
 _symmetry_equiv_pos_site_id
 _symmetry_equiv_pos_as_xyz
  1  'x, y, z'
loop_
 _atom_site_type_symbol
 _atom_site_label
 _atom_site_symmetry_multiplicity
 _atom_site_fract_x
 _atom_site_fract_y
 _atom_site_fract_z
 _atom_site_occupancy
  Zn  Zn0  1  0.250000  0.750000  0.500000  1
  Zn  Zn1  1  0.750000  0.250000  0.500000  1
  Zn  Zn2  1  0.750000  0.250000  -0.000000  1
  Zn  Zn3  1  0.250000  0.750000  -0.000000  1
  Si  Si4  1  0.895359  0.486420  0.648054  1
  Si  Si5  1  0.604641  0.013580  0.648054  1
  Si  Si6  1  0.986420  0.395359  0.851946  1
  Si  Si7  1  0.486420  0.604641  0.648054  1
  Si  Si8  1  0.013580  0.895359  0.648054  1
  Si  Si9  1  0.104641  0.986420  0.851946  1
  Si  Si10  1  0.395359  0.513580  0.851946  1
  Si  Si11  1  0.513580  0.104641  0.851946  1
  Si  Si12  1  0.104641  0.513580  0.351946  1
  Si  Si13  1  0.395359  0.986420  0.351946  1
  Si  Si14  1  0.013580  0.604641  0.148054  1
  Si  Si15  1  0.513580  0.395359  0.351946  1
  Si  Si16  1  0.986420  0.104641  0.351946  1
  Si  Si17  1  0.895359  0.013580  0.148054  1
  Si  Si18  1  0.604641  0.486420  0.148054  1
  Si  Si19  1  0.486420  0.895359  0.148054  1
  W  W20  1  0.250000  0.250000  0.572304  1
  W  W21  1  0.750000  0.750000  0.927696  1
  W  W22  1  0.750000  0.750000  0.427696  1
  W  W23  1  0.250000  0.250000  0.072304  1
  O  O24  1  0.964742  0.339373  0.575721  1
  O  O25  1  0.535258  0.160627  0.575721  1
  O  O26  1  0.839373  0.464742  0.924279  1
  O  O27  1  0.339373  0.535258  0.575721  1
  O  O28  1  0.160627  0.964742  0.575721  1
  O  O29  1  0.035258  0.839373  0.924279  1
  O  O30  1  0.464742  0.660627  0.924279  1
  O  O31  1  0.660627  0.035258  0.924279  1
  O  O32  1  0.035258  0.660627  0.424279  1
  O  O33  1  0.464742  0.839373  0.424279  1
  O  O34  1  0.160627  0.535258  0.075721  1
  O  O35  1  0.660627  0.464742  0.424279  1
  O  O36  1  0.839373  0.035258  0.424279  1
  O  O37  1  0.964742  0.160627  0.075721  1
  O  O38  1  0.535258  0.339373  0.075721  1
  O  O39  1  0.007541  0.320186  0.368292  1
  O  O40  1  0.339373  0.964742  0.075721  1
  O  O41  1  0.507541  0.820186  0.631708  1
  O  O42  1  0.179814  0.492459  0.868292  1
  O  O43  1  0.679814  0.507541  0.631708  1
  O  O44  1  0.820186  0.992459  0.631708  1
  O  O45  1  0.007541  0.179814  0.868292  1
  O  O46  1  0.492459  0.320186  0.868292  1
  O  O47  1  0.320186  0.007541  0.868292  1
  O  O48  1  0.426164  0.926164  0.250000  1
  O  O49  1  0.573836  0.426164  0.250000  1
  O  O50  1  0.926164  0.073837  0.250000  1
  O  O51  1  0.073837  0.573836  0.250000  1
  O  O52  1  0.573836  0.073837  0.750000  1
  O  O53  1  0.426164  0.573836  0.750000  1
  O  O54  1  0.073837  0.926164  0.750000  1
  O  O55  1  0.926164  0.426164  0.750000  1
  O  O56  1  0.679814  0.992459  0.131708  1
  O  O57  1  0.507541  0.679814  0.131708  1
  O  O58  1  0.992459  0.820186  0.131708  1
  O  O59  1  0.179814  0.007541  0.368292  1
  O  O60  1  0.320186  0.492459  0.368292  1
  O  O61  1  0.820186  0.507541  0.131708  1
  O  O62  1  0.492459  0.179814  0.368292  1
  O  O63  1  0.992459  0.679814  0.631708  1
