# generated using pymatgen
data_MgCr2O4
_symmetry_space_group_name_H-M   'P 1'
_cell_length_a   2.92613661
_cell_length_b   9.81785826
_cell_length_c   9.66996396
_cell_angle_alpha   90.00008550
_cell_angle_beta   89.99709639
_cell_angle_gamma   90.00064884
_symmetry_Int_Tables_number   1
_chemical_formula_structural   MgCr2O4
_chemical_formula_sum   'Mg4 Cr8 O16'
_cell_volume   277.80253943
_cell_formula_units_Z   4
loop_
 _symmetry_equiv_pos_site_id
 _symmetry_equiv_pos_as_xyz
  1  'x, y, z'
loop_
 _atom_site_type_symbol
 _atom_site_label
 _atom_site_symmetry_multiplicity
 _atom_site_fract_x
 _atom_site_fract_y
 _atom_site_fract_z
 _atom_site_occupancy
  Mg  Mg0  1  0.288256  0.750008  0.141417  1
  Mg  Mg1  1  0.287998  0.249995  0.358589  1
  Mg  Mg2  1  0.711917  0.750002  0.641412  1
  Mg  Mg3  1  0.711754  0.250015  0.858591  1
  Cr  Cr4  1  0.759727  0.571599  0.383449  1
  Cr  Cr5  1  0.759696  0.071615  0.116567  1
  Cr  Cr6  1  0.240329  0.071601  0.616564  1
  Cr  Cr7  1  0.759621  0.428404  0.116549  1
  Cr  Cr8  1  0.240330  0.428398  0.616556  1
  Cr  Cr9  1  0.759719  0.928401  0.383447  1
  Cr  Cr10  1  0.240336  0.928382  0.883439  1
  Cr  Cr11  1  0.240297  0.571606  0.883437  1
  O  O12  1  0.256865  0.886437  0.520029  1
  O  O13  1  0.743219  0.113563  0.479974  1
  O  O14  1  0.261731  0.000012  0.250008  1
  O  O15  1  0.743195  0.886437  0.020035  1
  O  O16  1  0.743090  0.613560  0.020026  1
  O  O17  1  0.782184  0.250004  0.213293  1
  O  O18  1  0.256886  0.113557  0.979968  1
  O  O19  1  0.217666  0.249999  0.713302  1
  O  O20  1  0.261685  0.499991  0.250005  1
  O  O21  1  0.738333  0.999977  0.749995  1
  O  O22  1  0.256842  0.613561  0.520029  1
  O  O23  1  0.217750  0.749998  0.786701  1
  O  O24  1  0.782353  0.750000  0.286700  1
  O  O25  1  0.738270  0.500004  0.749992  1
  O  O26  1  0.256779  0.386442  0.979965  1
  O  O27  1  0.743174  0.386434  0.479963  1
