# generated using pymatgen
data_Ba2AlFe2F11
_symmetry_space_group_name_H-M   'P 1'
_cell_length_a   7.44323814
_cell_length_b   7.44729814
_cell_length_c   14.66411675
_cell_angle_alpha   90.00652490
_cell_angle_beta   90.02618282
_cell_angle_gamma   120.07327885
_symmetry_Int_Tables_number   1
_chemical_formula_structural   Ba2AlFe2F11
_chemical_formula_sum   'Ba6 Al3 Fe6 F33'
_cell_volume   703.43821291
_cell_formula_units_Z   3
loop_
 _symmetry_equiv_pos_site_id
 _symmetry_equiv_pos_as_xyz
  1  'x, y, z'
loop_
 _atom_site_type_symbol
 _atom_site_label
 _atom_site_symmetry_multiplicity
 _atom_site_fract_x
 _atom_site_fract_y
 _atom_site_fract_z
 _atom_site_occupancy
  Ba  Ba0  1  0.539894  0.188552  0.665138  1
  Ba  Ba1  1  0.178906  0.492168  0.796937  1
  Ba  Ba2  1  0.648644  0.460075  0.998431  1
  Ba  Ba3  1  0.507946  0.686757  0.463557  1
  Ba  Ba4  1  0.313255  0.821225  0.130241  1
  Ba  Ba5  1  0.811498  0.351349  0.331729  1
  Al  Al6  1  0.160871  0.003246  0.873994  1
  Al  Al7  1  0.842367  0.839254  0.207275  1
  Al  Al8  1  0.996813  0.157722  0.540597  1
  Fe  Fe9  1  0.641684  0.991492  0.884495  1
  Fe  Fe10  1  0.805915  0.769340  0.723171  1
  Fe  Fe11  1  0.230694  0.036474  0.390078  1
  Fe  Fe12  1  0.350216  0.358187  0.217789  1
  Fe  Fe13  1  0.963322  0.193869  0.056718  1
  Fe  Fe14  1  0.007923  0.649695  0.551328  1
  F  F15  1  0.653851  0.077851  0.021915  1
  F  F16  1  0.502285  0.695890  0.922808  1
  F  F17  1  0.424128  0.346135  0.355272  1
  F  F18  1  0.090886  0.421005  0.494157  1
  F  F19  1  0.528834  0.239888  0.179572  1
  F  F20  1  0.909373  0.637061  0.194950  1
  F  F21  1  0.578927  0.670004  0.160887  1
  F  F22  1  0.362933  0.272460  0.861606  1
  F  F23  1  0.711223  0.471347  0.512896  1
  F  F24  1  0.273090  0.342193  0.081368  1
  F  F25  1  0.330101  0.909087  0.827603  1
  F  F26  1  0.922085  0.575851  0.688614  1
  F  F27  1  0.248040  0.988401  0.984153  1
  F  F28  1  0.015746  0.481856  0.029863  1
  F  F29  1  0.740053  0.752067  0.317457  1
  F  F30  1  0.304091  0.806395  0.589522  1
  F  F31  1  0.986816  0.106560  0.913766  1
  F  F32  1  0.069097  0.726923  0.414754  1
  F  F33  1  0.981269  0.077088  0.420525  1
  F  F34  1  0.012013  0.260086  0.650783  1
  F  F35  1  0.095882  0.018649  0.753827  1
  F  F36  1  0.518073  0.533951  0.696482  1
  F  F37  1  0.466169  0.984243  0.363055  1
  F  F38  1  0.119710  0.013147  0.247124  1
  F  F39  1  0.657867  0.930835  0.748000  1
  F  F40  1  0.760154  0.288725  0.846195  1
  F  F41  1  0.193616  0.497655  0.256077  1
  F  F42  1  0.930052  0.744683  0.871125  1
  F  F43  1  0.814616  0.069963  0.204426  1
  F  F44  1  0.922702  0.904001  0.087149  1
  F  F45  1  0.727545  0.090558  0.528292  1
  F  F46  1  0.893407  0.880411  0.580424  1
  F  F47  1  0.255423  0.185620  0.537782  1
