# generated using pymatgen
data_MgFeBiO5
_symmetry_space_group_name_H-M   'P 1'
_cell_length_a   5.20688268
_cell_length_b   9.84667551
_cell_length_c   15.21207897
_cell_angle_alpha   90.00000000
_cell_angle_beta   90.00000000
_cell_angle_gamma   90.00000000
_symmetry_Int_Tables_number   1
_chemical_formula_structural   MgFeBiO5
_chemical_formula_sum   'Mg8 Fe8 Bi8 O40'
_cell_volume   779.93065400
_cell_formula_units_Z   8
loop_
 _symmetry_equiv_pos_site_id
 _symmetry_equiv_pos_as_xyz
  1  'x, y, z'
loop_
 _atom_site_type_symbol
 _atom_site_label
 _atom_site_symmetry_multiplicity
 _atom_site_fract_x
 _atom_site_fract_y
 _atom_site_fract_z
 _atom_site_occupancy
  Mg  Mg0  1  0.545073  0.376151  0.434992  1
  Mg  Mg1  1  0.045073  0.123849  0.434992  1
  Mg  Mg2  1  0.045073  0.623849  0.065008  1
  Mg  Mg3  1  0.954927  0.376151  0.934992  1
  Mg  Mg4  1  0.454927  0.123849  0.934992  1
  Mg  Mg5  1  0.954927  0.876151  0.565008  1
  Mg  Mg6  1  0.454927  0.623849  0.565008  1
  Mg  Mg7  1  0.545073  0.876151  0.065008  1
  Fe  Fe8  1  0.027190  0.376436  0.563120  1
  Fe  Fe9  1  0.472810  0.876436  0.436880  1
  Fe  Fe10  1  0.972810  0.623564  0.436880  1
  Fe  Fe11  1  0.527190  0.123564  0.563120  1
  Fe  Fe12  1  0.972810  0.123564  0.063120  1
  Fe  Fe13  1  0.027190  0.876436  0.936880  1
  Fe  Fe14  1  0.472810  0.376436  0.063120  1
  Fe  Fe15  1  0.527190  0.623564  0.936880  1
  Bi  Bi16  1  0.008645  0.861312  0.248353  1
  Bi  Bi17  1  0.991355  0.138688  0.751647  1
  Bi  Bi18  1  0.491355  0.361312  0.751647  1
  Bi  Bi19  1  0.991355  0.638688  0.748353  1
  Bi  Bi20  1  0.508645  0.138688  0.251647  1
  Bi  Bi21  1  0.508645  0.638688  0.248353  1
  Bi  Bi22  1  0.491355  0.861312  0.748353  1
  Bi  Bi23  1  0.008645  0.361312  0.251647  1
  O  O24  1  0.834657  0.313560  0.674599  1
  O  O25  1  0.236099  0.998025  0.023848  1
  O  O26  1  0.263901  0.498025  0.976152  1
  O  O27  1  0.329251  0.799791  0.168696  1
  O  O28  1  0.170749  0.299791  0.831304  1
  O  O29  1  0.834657  0.813560  0.825401  1
  O  O30  1  0.170749  0.799791  0.668696  1
  O  O31  1  0.665343  0.813560  0.325401  1
  O  O32  1  0.236099  0.498025  0.476152  1
  O  O33  1  0.165343  0.686440  0.325401  1
  O  O34  1  0.665343  0.313560  0.174599  1
  O  O35  1  0.794207  0.243541  0.508856  1
  O  O36  1  0.736099  0.001975  0.476152  1
  O  O37  1  0.670749  0.700209  0.668696  1
  O  O38  1  0.236594  0.994312  0.843331  1
  O  O39  1  0.736099  0.501975  0.023848  1
  O  O40  1  0.165343  0.186440  0.174599  1
  O  O41  1  0.829251  0.200209  0.331304  1
  O  O42  1  0.294207  0.756459  0.991144  1
  O  O43  1  0.263901  0.998025  0.523848  1
  O  O44  1  0.205793  0.756459  0.491144  1
  O  O45  1  0.763406  0.005688  0.156669  1
  O  O46  1  0.670749  0.200209  0.831304  1
  O  O47  1  0.736594  0.005688  0.656669  1
  O  O48  1  0.205793  0.256459  0.008856  1
  O  O49  1  0.294207  0.256459  0.508856  1
  O  O50  1  0.763901  0.501975  0.523848  1
  O  O51  1  0.763901  0.001975  0.976152  1
  O  O52  1  0.736594  0.505688  0.843331  1
  O  O53  1  0.705793  0.743541  0.491144  1
  O  O54  1  0.705793  0.243541  0.008856  1
  O  O55  1  0.794207  0.743541  0.991144  1
  O  O56  1  0.763406  0.505688  0.343331  1
  O  O57  1  0.829251  0.700209  0.168696  1
  O  O58  1  0.329251  0.299791  0.331304  1
  O  O59  1  0.236594  0.494312  0.656669  1
  O  O60  1  0.263406  0.494312  0.156669  1
  O  O61  1  0.334657  0.186440  0.674599  1
  O  O62  1  0.263406  0.994312  0.343331  1
  O  O63  1  0.334657  0.686440  0.825401  1
