# generated using pymatgen
data_MgCo2(PO5)2
_symmetry_space_group_name_H-M   'P 1'
_cell_length_a   6.52520823
_cell_length_b   6.52520802
_cell_length_c   8.92262164
_cell_angle_alpha   102.39047115
_cell_angle_beta   102.39047405
_cell_angle_gamma   114.40492407
_symmetry_Int_Tables_number   1
_chemical_formula_structural   MgCo2(PO5)2
_chemical_formula_sum   'Mg2 Co4 P4 O20'
_cell_volume   317.66279223
_cell_formula_units_Z   2
loop_
 _symmetry_equiv_pos_site_id
 _symmetry_equiv_pos_as_xyz
  1  'x, y, z'
loop_
 _atom_site_type_symbol
 _atom_site_label
 _atom_site_symmetry_multiplicity
 _atom_site_fract_x
 _atom_site_fract_y
 _atom_site_fract_z
 _atom_site_occupancy
  Mg  Mg0  1  0.494293  0.994293  0.500000  1
  Mg  Mg1  1  0.244293  0.244293  1.000000  1
  Co  Co2  1  0.871869  0.615425  0.252946  1
  Co  Co3  1  0.362478  0.618921  0.747054  1
  Co  Co4  1  0.868921  0.112478  0.247054  1
  Co  Co5  1  0.865425  0.621869  0.752946  1
  P  P6  1  0.037526  0.037687  0.584876  1
  P  P7  1  0.702650  0.202811  0.915124  1
  P  P8  1  0.452811  0.452650  0.415124  1
  P  P9  1  0.287687  0.787526  0.084876  1
  O  O10  1  0.577617  0.553266  0.297471  1
  O  O11  1  0.662379  0.663082  0.834548  1
  O  O12  1  0.313875  0.586249  0.974774  1
  O  O13  1  0.803266  0.327617  0.797471  1
  O  O14  1  0.212580  0.235467  0.294960  1
  O  O15  1  0.425188  0.653286  0.524415  1
  O  O16  1  0.077832  0.578534  0.665452  1
  O  O17  1  0.828534  0.827832  0.165452  1
  O  O18  1  0.913082  0.412379  0.334548  1
  O  O19  1  0.167619  0.690508  0.205040  1
  O  O20  1  0.255794  0.280147  0.702529  1
  O  O21  1  0.485467  0.962580  0.794960  1
  O  O22  1  0.940508  0.917619  0.705040  1
  O  O23  1  0.150775  0.878873  0.975585  1
  O  O24  1  0.128873  0.900775  0.475585  1
  O  O25  1  0.903286  0.175188  0.024415  1
  O  O26  1  0.836249  0.063875  0.474774  1
  O  O27  1  0.611475  0.339101  0.025226  1
  O  O28  1  0.530147  0.005794  0.202529  1
  O  O29  1  0.589101  0.361475  0.525226  1
