# generated using pymatgen
data_Ba2AlBi3O8
_symmetry_space_group_name_H-M   'P 1'
_cell_length_a   4.32388824
_cell_length_b   4.32380334
_cell_length_c   13.62153192
_cell_angle_alpha   89.99433249
_cell_angle_beta   89.99968492
_cell_angle_gamma   90.04712838
_symmetry_Int_Tables_number   1
_chemical_formula_structural   Ba2AlBi3O8
_chemical_formula_sum   'Ba2 Al1 Bi3 O8'
_cell_volume   254.66320225
_cell_formula_units_Z   1
loop_
 _symmetry_equiv_pos_site_id
 _symmetry_equiv_pos_as_xyz
  1  'x, y, z'
loop_
 _atom_site_type_symbol
 _atom_site_label
 _atom_site_symmetry_multiplicity
 _atom_site_fract_x
 _atom_site_fract_y
 _atom_site_fract_z
 _atom_site_occupancy
  Ba  Ba0  1  0.500076  0.499997  0.148181  1
  Ba  Ba1  1  0.500293  0.500515  0.851800  1
  Al  Al2  1  0.499064  0.498575  0.500015  1
  Bi  Bi3  1  0.000118  0.000011  0.350337  1
  Bi  Bi4  1  0.999842  0.000064  0.999998  1
  Bi  Bi5  1  0.000084  0.000200  0.649667  1
  O  O6  1  0.000081  0.499658  0.406256  1
  O  O7  1  0.500057  0.999110  0.406251  1
  O  O8  1  0.500171  0.000142  0.999995  1
  O  O9  1  0.000154  0.000174  0.176985  1
  O  O10  1  0.999884  0.500286  0.593747  1
  O  O11  1  0.499969  0.000769  0.593761  1
  O  O12  1  0.000127  0.000294  0.823007  1
  O  O13  1  0.000080  0.500209  0.999995  1
