# generated using pymatgen
data_CaCoN2
_symmetry_space_group_name_H-M   'P 1'
_cell_length_a   8.70609579
_cell_length_b   8.33822229
_cell_length_c   11.77061454
_cell_angle_alpha   89.56945802
_cell_angle_beta   90.10486874
_cell_angle_gamma   89.98828547
_symmetry_Int_Tables_number   1
_chemical_formula_structural   CaCoN2
_chemical_formula_sum   'Ca8 Co8 N16'
_cell_volume   854.44290632
_cell_formula_units_Z   8
loop_
 _symmetry_equiv_pos_site_id
 _symmetry_equiv_pos_as_xyz
  1  'x, y, z'
loop_
 _atom_site_type_symbol
 _atom_site_label
 _atom_site_symmetry_multiplicity
 _atom_site_fract_x
 _atom_site_fract_y
 _atom_site_fract_z
 _atom_site_occupancy
  Ca  Ca0  1  0.920806  0.113499  0.071512  1
  Ca  Ca1  1  0.050675  0.618016  0.081115  1
  Ca  Ca2  1  0.551014  0.116050  0.918601  1
  Ca  Ca3  1  0.421341  0.611197  0.928586  1
  Ca  Ca4  1  0.051047  0.884379  0.581632  1
  Ca  Ca5  1  0.551251  0.381916  0.418606  1
  Ca  Ca6  1  0.921684  0.388359  0.570953  1
  Ca  Ca7  1  0.421156  0.886078  0.428912  1
  Co  Co8  1  0.340934  0.651774  0.235729  1
  Co  Co9  1  0.654952  0.355223  0.742489  1
  Co  Co10  1  0.841746  0.348155  0.263947  1
  Co  Co11  1  0.342406  0.848361  0.735545  1
  Co  Co12  1  0.154447  0.854668  0.258371  1
  Co  Co13  1  0.154958  0.644956  0.757620  1
  Co  Co14  1  0.841983  0.151632  0.764076  1
  Co  Co15  1  0.654406  0.145308  0.242290  1
  N  N16  1  0.073653  0.599780  0.638220  1
  N  N17  1  0.441345  0.621565  0.350323  1
  N  N18  1  0.442025  0.877274  0.849688  1
  N  N19  1  0.636888  0.112219  0.108905  1
  N  N20  1  0.137058  0.611778  0.891461  1
  N  N21  1  0.942135  0.377770  0.150090  1
  N  N22  1  0.573148  0.098724  0.361925  1
  N  N23  1  0.573633  0.399989  0.861515  1
  N  N24  1  0.073179  0.901005  0.138356  1
  N  N25  1  0.323215  0.926085  0.610820  1
  N  N26  1  0.136978  0.886950  0.391889  1
  N  N27  1  0.822972  0.075145  0.889242  1
  N  N28  1  0.941457  0.122664  0.650169  1
  N  N29  1  0.822809  0.424714  0.388095  1
  N  N30  1  0.637668  0.387823  0.608197  1
  N  N31  1  0.322524  0.576941  0.111120  1
