# generated using pymatgen
data_AlCr2O4
_symmetry_space_group_name_H-M   'P 1'
_cell_length_a   5.36153369
_cell_length_b   5.34480841
_cell_length_c   6.43738951
_cell_angle_alpha   114.32687138
_cell_angle_beta   114.40920137
_cell_angle_gamma   90.43974010
_symmetry_Int_Tables_number   1
_chemical_formula_structural   AlCr2O4
_chemical_formula_sum   'Al2 Cr4 O8'
_cell_volume   149.50854839
_cell_formula_units_Z   2
loop_
 _symmetry_equiv_pos_site_id
 _symmetry_equiv_pos_as_xyz
  1  'x, y, z'
loop_
 _atom_site_type_symbol
 _atom_site_label
 _atom_site_symmetry_multiplicity
 _atom_site_fract_x
 _atom_site_fract_y
 _atom_site_fract_z
 _atom_site_occupancy
  Al  Al0  1  0.879066  0.129066  0.758133  1
  Al  Al1  1  0.120934  0.870934  0.241867  1
  Cr  Cr2  1  0.500000  0.000000  0.000000  1
  Cr  Cr3  1  0.500000  0.500000  0.000000  1
  Cr  Cr4  1  0.000000  0.500000  0.500000  1
  Cr  Cr5  1  0.500000  0.500000  0.500000  1
  O  O6  1  0.721638  0.449487  0.812046  1
  O  O7  1  0.090408  0.862559  0.812046  1
  O  O8  1  0.278362  0.550513  0.187954  1
  O  O9  1  0.909592  0.137441  0.187954  1
  O  O10  1  0.446166  0.090730  0.309279  1
  O  O11  1  0.863113  0.718549  0.309279  1
  O  O12  1  0.136887  0.281451  0.690721  1
  O  O13  1  0.553834  0.909270  0.690721  1
