# generated using pymatgen
data_MgSnP2O7
_symmetry_space_group_name_H-M   'P 1'
_cell_length_a   7.04770697
_cell_length_b   6.72597040
_cell_length_c   7.12831147
_cell_angle_alpha   63.34739402
_cell_angle_beta   75.45767024
_cell_angle_gamma   80.09217031
_symmetry_Int_Tables_number   1
_chemical_formula_structural   MgSnP2O7
_chemical_formula_sum   'Mg2 Sn2 P4 O14'
_cell_volume   291.63079046
_cell_formula_units_Z   2
loop_
 _symmetry_equiv_pos_site_id
 _symmetry_equiv_pos_as_xyz
  1  'x, y, z'
loop_
 _atom_site_type_symbol
 _atom_site_label
 _atom_site_symmetry_multiplicity
 _atom_site_fract_x
 _atom_site_fract_y
 _atom_site_fract_z
 _atom_site_occupancy
  Mg  Mg0  1  0.828623  0.315611  0.101294  1
  Mg  Mg1  1  0.171377  0.684389  0.898706  1
  Sn  Sn2  1  0.695780  0.125196  0.725616  1
  Sn  Sn3  1  0.304220  0.874804  0.274384  1
  P  P4  1  0.181569  0.213234  0.777439  1
  P  P5  1  0.818431  0.786766  0.222561  1
  P  P6  1  0.636429  0.648926  0.697699  1
  P  P7  1  0.363571  0.351074  0.302301  1
  O  O8  1  0.727043  0.628101  0.468143  1
  O  O9  1  0.272957  0.371899  0.531857  1
  O  O10  1  0.056542  0.044236  0.779809  1
  O  O11  1  0.943458  0.955764  0.220191  1
  O  O12  1  0.577325  0.266461  0.315499  1
  O  O13  1  0.422675  0.733539  0.684501  1
  O  O14  1  0.335304  0.590160  0.132711  1
  O  O15  1  0.664696  0.409840  0.867288  1
  O  O16  1  0.923237  0.615791  0.133886  1
  O  O17  1  0.076763  0.384209  0.866114  1
  O  O18  1  0.645764  0.918879  0.107972  1
  O  O19  1  0.354236  0.081121  0.892028  1
  O  O20  1  0.234137  0.200507  0.287875  1
  O  O21  1  0.765863  0.799493  0.712125  1
