# generated using pymatgen
data_MgBiMoO5
_symmetry_space_group_name_H-M   'P 1'
_cell_length_a   5.42471202
_cell_length_b   7.99644574
_cell_length_c   11.84400014
_cell_angle_alpha   90.00000000
_cell_angle_beta   90.00000000
_cell_angle_gamma   104.84733335
_symmetry_Int_Tables_number   1
_chemical_formula_structural   MgBiMoO5
_chemical_formula_sum   'Mg4 Bi4 Mo4 O20'
_cell_volume   496.62008752
_cell_formula_units_Z   4
loop_
 _symmetry_equiv_pos_site_id
 _symmetry_equiv_pos_as_xyz
  1  'x, y, z'
loop_
 _atom_site_type_symbol
 _atom_site_label
 _atom_site_symmetry_multiplicity
 _atom_site_fract_x
 _atom_site_fract_y
 _atom_site_fract_z
 _atom_site_occupancy
  Mg  Mg0  1  0.611267  0.171315  0.921020  1
  Mg  Mg1  1  0.388733  0.828685  0.078980  1
  Mg  Mg2  1  0.888733  0.328685  0.421020  1
  Mg  Mg3  1  0.111267  0.671315  0.578980  1
  Bi  Bi4  1  0.100047  0.155421  0.103831  1
  Bi  Bi5  1  0.899953  0.844579  0.896169  1
  Bi  Bi6  1  0.600047  0.655421  0.396169  1
  Bi  Bi7  1  0.399953  0.344579  0.603831  1
  Mo  Mo8  1  0.771683  0.974844  0.637463  1
  Mo  Mo9  1  0.228317  0.025156  0.362537  1
  Mo  Mo10  1  0.728317  0.525156  0.137463  1
  Mo  Mo11  1  0.271683  0.474844  0.862537  1
  O  O12  1  0.545952  0.325299  0.066165  1
  O  O13  1  0.994627  0.328640  0.928216  1
  O  O14  1  0.509344  0.659863  0.184307  1
  O  O15  1  0.756084  0.512813  0.527523  1
  O  O16  1  0.782843  0.478482  0.293466  1
  O  O17  1  0.282843  0.978482  0.206534  1
  O  O18  1  0.494627  0.828640  0.571784  1
  O  O19  1  0.505373  0.171360  0.428216  1
  O  O20  1  0.243916  0.487187  0.472477  1
  O  O21  1  0.954048  0.174701  0.566165  1
  O  O22  1  0.217157  0.521518  0.706534  1
  O  O23  1  0.454048  0.674701  0.933835  1
  O  O24  1  0.045952  0.825299  0.433835  1
  O  O25  1  0.717157  0.021518  0.793466  1
  O  O26  1  0.743916  0.987187  0.027523  1
  O  O27  1  0.256084  0.012813  0.972477  1
  O  O28  1  0.490656  0.340137  0.815693  1
  O  O29  1  0.005373  0.671360  0.071784  1
  O  O30  1  0.990656  0.840137  0.684307  1
  O  O31  1  0.009344  0.159863  0.315693  1
