# generated using pymatgen
data_Li(CrS2)2
_symmetry_space_group_name_H-M   'P 1'
_cell_length_a   7.07348226
_cell_length_b   7.07290773
_cell_length_c   7.08206138
_cell_angle_alpha   119.99815713
_cell_angle_beta   119.82632186
_cell_angle_gamma   90.08523468
_symmetry_Int_Tables_number   1
_chemical_formula_structural   Li(CrS2)2
_chemical_formula_sum   'Li2 Cr4 S8'
_cell_volume   251.01650422
_cell_formula_units_Z   2
loop_
 _symmetry_equiv_pos_site_id
 _symmetry_equiv_pos_as_xyz
  1  'x, y, z'
loop_
 _atom_site_type_symbol
 _atom_site_label
 _atom_site_symmetry_multiplicity
 _atom_site_fract_x
 _atom_site_fract_y
 _atom_site_fract_z
 _atom_site_occupancy
  Li  Li0  1  -0.000006  0.499987  -0.000003  1
  Li  Li1  1  -0.000002  -0.000006  0.500005  1
  Cr  Cr2  1  0.376669  0.626630  0.749921  1
  Cr  Cr3  1  0.623371  0.373432  0.250100  1
  Cr  Cr4  1  0.500011  -0.000021  0.499988  1
  Cr  Cr5  1  -0.000013  0.000004  -0.000012  1
  S  S6  1  0.749594  0.765491  0.517734  1
  S  S7  1  0.747984  0.231979  0.982433  1
  S  S8  1  0.246144  0.240554  0.005518  1
  S  S9  1  0.250384  0.234497  0.482262  1
  S  S10  1  0.265018  0.759400  0.505539  1
  S  S11  1  0.252009  0.768013  0.017574  1
  S  S12  1  0.735004  0.240601  0.494480  1
  S  S13  1  0.753834  0.759443  0.994462  1
