# generated using pymatgen
data_BaAlCr4O7
_symmetry_space_group_name_H-M   'P 1'
_cell_length_a   6.10728139
_cell_length_b   6.10728064
_cell_length_c   10.47239723
_cell_angle_alpha   90.00000000
_cell_angle_beta   90.00000000
_cell_angle_gamma   119.99999941
_symmetry_Int_Tables_number   1
_chemical_formula_structural   BaAlCr4O7
_chemical_formula_sum   'Ba2 Al2 Cr8 O14'
_cell_volume   338.27706115
_cell_formula_units_Z   2
loop_
 _symmetry_equiv_pos_site_id
 _symmetry_equiv_pos_as_xyz
  1  'x, y, z'
loop_
 _atom_site_type_symbol
 _atom_site_label
 _atom_site_symmetry_multiplicity
 _atom_site_fract_x
 _atom_site_fract_y
 _atom_site_fract_z
 _atom_site_occupancy
  Ba  Ba0  1  0.666667  0.333333  0.489404  1
  Ba  Ba1  1  0.333333  0.666667  0.989404  1
  Al  Al2  1  0.666667  0.333333  0.870376  1
  Al  Al3  1  0.333333  0.666667  0.370376  1
  Cr  Cr4  1  0.838122  0.161879  0.186827  1
  Cr  Cr5  1  0.676241  0.838121  0.686828  1
  Cr  Cr6  1  0.161879  0.323759  0.686828  1
  Cr  Cr7  1  0.838122  0.676241  0.186827  1
  Cr  Cr8  1  0.323758  0.161879  0.186827  1
  Cr  Cr9  1  0.161879  0.838121  0.686828  1
  Cr  Cr10  1  -0.000000  -0.000000  0.461518  1
  Cr  Cr11  1  -0.000000  -0.000000  0.961518  1
  O  O12  1  0.814701  0.185300  0.992212  1
  O  O13  1  0.629402  0.814700  0.492211  1
  O  O14  1  0.185299  0.370597  0.492211  1
  O  O15  1  0.814702  0.629403  0.992212  1
  O  O16  1  0.370597  0.185300  0.992212  1
  O  O17  1  0.185299  0.814700  0.492211  1
  O  O18  1  -0.000000  -0.000000  0.779854  1
  O  O19  1  -0.000000  -0.000000  0.279855  1
  O  O20  1  0.487532  0.512470  0.265243  1
  O  O21  1  0.975062  0.487532  0.765243  1
  O  O22  1  0.512469  0.024938  0.765243  1
  O  O23  1  0.487532  0.975062  0.265243  1
  O  O24  1  0.512470  0.487532  0.765243  1
  O  O25  1  0.024938  0.512470  0.265243  1
