# generated using pymatgen
data_Mg3Ge3(BiO6)2
_symmetry_space_group_name_H-M   'P 1'
_cell_length_a   11.08123049
_cell_length_b   11.08122987
_cell_length_c   11.08123002
_cell_angle_alpha   109.47122091
_cell_angle_beta   109.47121978
_cell_angle_gamma   109.47121986
_symmetry_Int_Tables_number   1
_chemical_formula_structural   Mg3Ge3(BiO6)2
_chemical_formula_sum   'Mg12 Ge12 Bi8 O48'
_cell_volume   1047.47107372
_cell_formula_units_Z   4
loop_
 _symmetry_equiv_pos_site_id
 _symmetry_equiv_pos_as_xyz
  1  'x, y, z'
loop_
 _atom_site_type_symbol
 _atom_site_label
 _atom_site_symmetry_multiplicity
 _atom_site_fract_x
 _atom_site_fract_y
 _atom_site_fract_z
 _atom_site_occupancy
  Mg  Mg0  1  0.625000  0.250000  0.875000  1
  Mg  Mg1  1  0.875000  0.750000  0.625000  1
  Mg  Mg2  1  0.750000  0.625000  0.875000  1
  Mg  Mg3  1  0.250000  0.875000  0.625000  1
  Mg  Mg4  1  0.875000  0.625000  0.250000  1
  Mg  Mg5  1  0.625000  0.875000  0.750000  1
  Mg  Mg6  1  0.375000  0.750000  0.125000  1
  Mg  Mg7  1  0.125000  0.250000  0.375000  1
  Mg  Mg8  1  0.250000  0.375000  0.125000  1
  Mg  Mg9  1  0.750000  0.125000  0.375000  1
  Mg  Mg10  1  0.125000  0.375000  0.750000  1
  Mg  Mg11  1  0.375000  0.125000  0.250000  1
  Ge  Ge12  1  0.875000  0.125000  0.750000  1
  Ge  Ge13  1  0.125000  0.875000  0.250000  1
  Ge  Ge14  1  0.250000  0.625000  0.375000  1
  Ge  Ge15  1  0.125000  0.750000  0.875000  1
  Ge  Ge16  1  0.750000  0.875000  0.125000  1
  Ge  Ge17  1  0.375000  0.250000  0.625000  1
  Ge  Ge18  1  0.625000  0.750000  0.375000  1
  Ge  Ge19  1  0.875000  0.250000  0.125000  1
  Ge  Ge20  1  0.250000  0.125000  0.875000  1
  Ge  Ge21  1  0.750000  0.375000  0.625000  1
  Ge  Ge22  1  0.375000  0.625000  0.750000  1
  Ge  Ge23  1  0.625000  0.375000  0.250000  1
  Bi  Bi24  1  0.500000  0.500000  0.500000  1
  Bi  Bi25  1  0.500000  0.500000  0.000000  1
  Bi  Bi26  1  0.500000  0.000000  0.500000  1
  Bi  Bi27  1  0.000000  0.500000  0.500000  1
  Bi  Bi28  1  0.500000  0.000000  0.000000  1
  Bi  Bi29  1  0.000000  0.000000  0.500000  1
  Bi  Bi30  1  0.000000  0.500000  0.000000  1
  Bi  Bi31  1  0.000000  0.000000  0.000000  1
  O  O32  1  0.769349  0.404858  0.801303  1
  O  O33  1  0.095142  0.864491  0.396444  1
  O  O34  1  0.698697  0.103556  0.968045  1
  O  O35  1  0.730651  0.531955  0.635509  1
  O  O36  1  0.730651  0.698697  0.095142  1
  O  O37  1  0.531955  0.635509  0.730651  1
  O  O38  1  0.103556  0.635509  0.404858  1
  O  O39  1  0.635509  0.730651  0.531955  1
  O  O40  1  0.396444  0.801303  0.531955  1
  O  O41  1  0.864491  0.968045  0.769349  1
  O  O42  1  0.968045  0.769349  0.864491  1
  O  O43  1  0.095142  0.730651  0.698697  1
  O  O44  1  0.635509  0.404858  0.103556  1
  O  O45  1  0.531955  0.396444  0.801303  1
  O  O46  1  0.698697  0.095142  0.730651  1
  O  O47  1  0.404858  0.103556  0.635509  1
  O  O48  1  0.801303  0.531955  0.396444  1
  O  O49  1  0.396444  0.095142  0.864491  1
  O  O50  1  0.103556  0.968045  0.698697  1
  O  O51  1  0.603556  0.198697  0.468045  1
  O  O52  1  0.968045  0.698697  0.103556  1
  O  O53  1  0.801303  0.769349  0.404858  1
  O  O54  1  0.864491  0.396444  0.095142  1
  O  O55  1  0.769349  0.864491  0.968045  1
  O  O56  1  0.230651  0.595142  0.198697  1
  O  O57  1  0.904858  0.135509  0.603556  1
  O  O58  1  0.301303  0.896444  0.031955  1
  O  O59  1  0.269349  0.468045  0.364491  1
  O  O60  1  0.269349  0.301303  0.904858  1
  O  O61  1  0.468045  0.364491  0.269349  1
  O  O62  1  0.896444  0.364491  0.595142  1
  O  O63  1  0.364491  0.269349  0.468045  1
  O  O64  1  0.230651  0.135509  0.031955  1
  O  O65  1  0.135509  0.603556  0.904858  1
  O  O66  1  0.198697  0.230651  0.595142  1
  O  O67  1  0.595142  0.198697  0.230651  1
  O  O68  1  0.031955  0.301303  0.896444  1
  O  O69  1  0.896444  0.031955  0.301303  1
  O  O70  1  0.603556  0.904858  0.135509  1
  O  O71  1  0.198697  0.468045  0.603556  1
  O  O72  1  0.595142  0.896444  0.364491  1
  O  O73  1  0.301303  0.904858  0.269349  1
  O  O74  1  0.468045  0.603556  0.198697  1
  O  O75  1  0.364491  0.595142  0.896444  1
  O  O76  1  0.904858  0.269349  0.301303  1
  O  O77  1  0.031955  0.230651  0.135509  1
  O  O78  1  0.135509  0.031955  0.230651  1
  O  O79  1  0.404858  0.801303  0.769349  1
