# generated using pymatgen
data_Mg4Fe5(TeO6)3
_symmetry_space_group_name_H-M   'P 1'
_cell_length_a   8.73256017
_cell_length_b   8.73255966
_cell_length_c   10.67856107
_cell_angle_alpha   84.82941355
_cell_angle_beta   84.82941116
_cell_angle_gamma   63.24252731
_symmetry_Int_Tables_number   1
_chemical_formula_structural   Mg4Fe5(TeO6)3
_chemical_formula_sum   'Mg8 Fe10 Te6 O36'
_cell_volume   723.04042398
_cell_formula_units_Z   2
loop_
 _symmetry_equiv_pos_site_id
 _symmetry_equiv_pos_as_xyz
  1  'x, y, z'
loop_
 _atom_site_type_symbol
 _atom_site_label
 _atom_site_symmetry_multiplicity
 _atom_site_fract_x
 _atom_site_fract_y
 _atom_site_fract_z
 _atom_site_occupancy
  Mg  Mg0  1  0.872074  0.547955  0.326037  1
  Mg  Mg1  1  0.478530  0.560587  0.224343  1
  Mg  Mg2  1  0.452045  0.127926  0.673963  1
  Mg  Mg3  1  0.439413  0.521470  0.775657  1
  Mg  Mg4  1  0.175479  0.879016  0.715234  1
  Mg  Mg5  1  0.149733  0.249536  0.832433  1
  Mg  Mg6  1  0.750464  0.850267  0.167567  1
  Mg  Mg7  1  0.120984  0.824521  0.284766  1
  Fe  Fe8  1  0.789570  0.492328  0.979092  1
  Fe  Fe9  1  0.095769  0.187645  0.475959  1
  Fe  Fe10  1  0.330868  0.331433  0.300366  1
  Fe  Fe11  1  0.947424  0.725678  0.806269  1
  Fe  Fe12  1  0.668567  0.669132  0.699634  1
  Fe  Fe13  1  0.979806  0.020194  0.000000  1
  Fe  Fe14  1  0.621867  0.378133  0.500000  1
  Fe  Fe15  1  0.274322  0.052577  0.193731  1
  Fe  Fe16  1  0.812355  0.904231  0.524041  1
  Fe  Fe17  1  0.507672  0.210430  0.020908  1
  Te  Te18  1  0.463909  0.862634  0.951150  1
  Te  Te19  1  0.807163  0.195401  0.255989  1
  Te  Te20  1  0.804599  0.192837  0.744011  1
  Te  Te21  1  0.466427  0.851588  0.439399  1
  Te  Te22  1  0.148412  0.533573  0.560601  1
  Te  Te23  1  0.137366  0.536091  0.048849  1
  O  O24  1  0.400390  0.088251  0.861531  1
  O  O25  1  0.705289  0.464284  0.823988  1
  O  O26  1  0.558191  0.589268  0.592623  1
  O  O27  1  0.721797  0.128997  0.434532  1
  O  O28  1  0.535717  0.294711  0.176012  1
  O  O29  1  0.871003  0.278203  0.565468  1
  O  O30  1  0.360859  0.803747  0.290074  1
  O  O31  1  0.054688  0.080965  0.828202  1
  O  O32  1  0.553839  0.290099  0.675312  1
  O  O33  1  0.094734  0.403670  0.398411  1
  O  O34  1  0.560626  0.644775  0.056330  1
  O  O35  1  0.527652  0.971183  0.083205  1
  O  O36  1  0.893509  0.952022  0.682675  1
  O  O37  1  0.699579  0.762873  0.870624  1
  O  O38  1  0.355225  0.439374  0.943670  1
  O  O39  1  0.226198  0.594413  0.189404  1
  O  O40  1  0.025073  0.766575  0.442840  1
  O  O41  1  0.237127  0.300421  0.129376  1
  O  O42  1  0.410732  0.441809  0.407377  1
  O  O43  1  0.233425  0.974927  0.557160  1
  O  O44  1  0.705847  0.793498  0.347286  1
  O  O45  1  0.906379  0.628598  0.637838  1
  O  O46  1  0.919035  0.945312  0.171798  1
  O  O47  1  0.405587  0.773802  0.810596  1
  O  O48  1  0.055456  0.759904  0.959045  1
  O  O49  1  0.735299  0.108308  0.936627  1
  O  O50  1  0.028817  0.472348  0.916795  1
  O  O51  1  0.196253  0.639141  0.709926  1
  O  O52  1  0.047978  0.106491  0.317325  1
  O  O53  1  0.371402  0.093621  0.362162  1
  O  O54  1  0.206502  0.294153  0.652714  1
  O  O55  1  0.891692  0.264701  0.063373  1
  O  O56  1  0.709901  0.446161  0.324688  1
  O  O57  1  0.596330  0.905266  0.601589  1
  O  O58  1  0.240096  0.944544  0.040955  1
  O  O59  1  0.911749  0.599610  0.138469  1
