# generated using pymatgen
data_Ca2AlMoO5
_symmetry_space_group_name_H-M   'P 1'
_cell_length_a   5.65661070
_cell_length_b   5.92357263
_cell_length_c   8.25495655
_cell_angle_alpha   111.03057859
_cell_angle_beta   108.75510975
_cell_angle_gamma   89.99755347
_symmetry_Int_Tables_number   1
_chemical_formula_structural   Ca2AlMoO5
_chemical_formula_sum   'Ca4 Al2 Mo2 O10'
_cell_volume   242.37746281
_cell_formula_units_Z   2
loop_
 _symmetry_equiv_pos_site_id
 _symmetry_equiv_pos_as_xyz
  1  'x, y, z'
loop_
 _atom_site_type_symbol
 _atom_site_label
 _atom_site_symmetry_multiplicity
 _atom_site_fract_x
 _atom_site_fract_y
 _atom_site_fract_z
 _atom_site_occupancy
  Ca  Ca0  1  0.075781  0.655311  0.228709  1
  Ca  Ca1  1  0.419199  0.918715  0.766948  1
  Ca  Ca2  1  0.919257  0.350034  0.766948  1
  Ca  Ca3  1  0.575689  0.075167  0.228674  1
  Al  Al4  1  0.293204  0.333200  0.503157  1
  Al  Al5  1  0.793202  0.671831  0.503180  1
  Mo  Mo6  1  0.495947  0.499383  0.999510  1
  Mo  Mo7  1  0.995927  0.001903  0.999521  1
  O  O8  1  0.606526  0.424332  0.506358  1
  O  O9  1  0.106516  0.583878  0.506350  1
  O  O10  1  0.673587  0.727675  0.297398  1
  O  O11  1  0.313189  0.269452  0.700433  1
  O  O12  1  0.173682  0.071526  0.297404  1
  O  O13  1  0.813154  0.932811  0.700459  1
  O  O14  1  0.293241  0.791646  0.959432  1
  O  O15  1  0.197847  0.333297  0.040471  1
  O  O16  1  0.697812  0.208919  0.040484  1
  O  O17  1  0.793306  0.669560  0.959519  1
