# generated using pymatgen
data_CaVO2
_symmetry_space_group_name_H-M   'P 1'
_cell_length_a   3.10545164
_cell_length_b   8.38603531
_cell_length_c   8.40973610
_cell_angle_alpha   90.67124523
_cell_angle_beta   79.35904498
_cell_angle_gamma   100.66491982
_symmetry_Int_Tables_number   1
_chemical_formula_structural   CaVO2
_chemical_formula_sum   'Ca4 V4 O8'
_cell_volume   211.46850944
_cell_formula_units_Z   4
loop_
 _symmetry_equiv_pos_site_id
 _symmetry_equiv_pos_as_xyz
  1  'x, y, z'
loop_
 _atom_site_type_symbol
 _atom_site_label
 _atom_site_symmetry_multiplicity
 _atom_site_fract_x
 _atom_site_fract_y
 _atom_site_fract_z
 _atom_site_occupancy
  Ca  Ca0  1  0.372428  0.029233  0.303518  1
  Ca  Ca1  1  0.622751  0.950804  0.724869  1
  Ca  Ca2  1  0.332338  0.703340  0.057676  1
  Ca  Ca3  1  0.662176  0.276812  0.970615  1
  V  V4  1  0.353100  0.308237  0.623547  1
  V  V5  1  0.033489  0.376320  0.330428  1
  V  V6  1  0.963653  0.603598  0.697682  1
  V  V7  1  0.643997  0.671518  0.404563  1
  O  O8  1  0.142599  0.792617  0.528907  1
  O  O9  1  0.340485  0.471485  0.811911  1
  O  O10  1  0.656746  0.508440  0.216012  1
  O  O11  1  0.854718  0.187063  0.499274  1
  O  O12  1  0.177881  0.139476  0.803046  1
  O  O13  1  0.028534  0.202429  0.163595  1
  O  O14  1  0.817360  0.840504  0.225365  1
  O  O15  1  0.966021  0.777457  0.864615  1
