# generated using pymatgen
data_Ca2Mo3O8
_symmetry_space_group_name_H-M   'P 1'
_cell_length_a   6.45273233
_cell_length_b   6.45273250
_cell_length_c   10.36704330
_cell_angle_alpha   90.00000000
_cell_angle_beta   90.00000000
_cell_angle_gamma   120.00000322
_symmetry_Int_Tables_number   1
_chemical_formula_structural   Ca2Mo3O8
_chemical_formula_sum   'Ca4 Mo6 O16'
_cell_volume   373.82887360
_cell_formula_units_Z   2
loop_
 _symmetry_equiv_pos_site_id
 _symmetry_equiv_pos_as_xyz
  1  'x, y, z'
loop_
 _atom_site_type_symbol
 _atom_site_label
 _atom_site_symmetry_multiplicity
 _atom_site_fract_x
 _atom_site_fract_y
 _atom_site_fract_z
 _atom_site_occupancy
  Ca  Ca0  1  0.666667  0.333334  0.027308  1
  Ca  Ca1  1  0.333333  0.666666  0.527309  1
  Ca  Ca2  1  0.666667  0.333334  0.413699  1
  Ca  Ca3  1  0.333333  0.666666  0.913700  1
  Mo  Mo4  1  0.671913  0.835957  0.244487  1
  Mo  Mo5  1  0.835958  0.164044  0.744487  1
  Mo  Mo6  1  0.164044  0.328088  0.244487  1
  Mo  Mo7  1  0.835956  0.671913  0.744487  1
  Mo  Mo8  1  0.328088  0.164044  0.744487  1
  Mo  Mo9  1  0.164044  0.835957  0.244487  1
  O  O10  1  0.838395  0.161606  0.157504  1
  O  O11  1  0.676789  0.838395  0.657503  1
  O  O12  1  0.161606  0.323212  0.657503  1
  O  O13  1  0.838394  0.676789  0.157504  1
  O  O14  1  0.323211  0.161606  0.157504  1
  O  O15  1  0.161606  0.838395  0.657503  1
  O  O16  1  0.525844  0.474155  0.854513  1
  O  O17  1  0.051689  0.525844  0.354512  1
  O  O18  1  0.474156  0.948312  0.354512  1
  O  O19  1  0.525844  0.051689  0.854513  1
  O  O20  1  -0.000000  -0.000000  0.347466  1
  O  O21  1  -0.000000  -0.000000  0.847466  1
  O  O22  1  0.333333  0.666666  0.135518  1
  O  O23  1  0.948310  0.474155  0.854513  1
  O  O24  1  0.474155  0.525844  0.354512  1
  O  O25  1  0.666667  0.333334  0.635518  1
