# generated using pymatgen
data_MgTiSb(PO4)3
_symmetry_space_group_name_H-M   'P 1'
_cell_length_a   8.38995876
_cell_length_b   8.38995898
_cell_length_c   8.38995879
_cell_angle_alpha   64.04510649
_cell_angle_beta   64.04510791
_cell_angle_gamma   64.04511130
_symmetry_Int_Tables_number   1
_chemical_formula_structural   MgTiSb(PO4)3
_chemical_formula_sum   'Mg2 Ti2 Sb2 P6 O24'
_cell_volume   454.79357822
_cell_formula_units_Z   2
loop_
 _symmetry_equiv_pos_site_id
 _symmetry_equiv_pos_as_xyz
  1  'x, y, z'
loop_
 _atom_site_type_symbol
 _atom_site_label
 _atom_site_symmetry_multiplicity
 _atom_site_fract_x
 _atom_site_fract_y
 _atom_site_fract_z
 _atom_site_occupancy
  Mg  Mg0  1  0.995780  0.995780  0.995780  1
  Mg  Mg1  1  0.495780  0.495780  0.495780  1
  Ti  Ti2  1  0.150484  0.150484  0.150484  1
  Ti  Ti3  1  0.650484  0.650484  0.650484  1
  Sb  Sb4  1  0.336512  0.336512  0.336512  1
  Sb  Sb5  1  0.836512  0.836512  0.836512  1
  P  P6  1  0.066599  0.431708  0.754877  1
  P  P7  1  0.431708  0.754877  0.066599  1
  P  P8  1  0.754877  0.066599  0.431708  1
  P  P9  1  0.254877  0.931708  0.566599  1
  P  P10  1  0.566599  0.254877  0.931708  1
  P  P11  1  0.931708  0.566599  0.254877  1
  O  O12  1  0.066581  0.567712  0.328599  1
  O  O13  1  0.328599  0.066581  0.567712  1
  O  O14  1  0.070273  0.238949  0.906537  1
  O  O15  1  0.567712  0.328599  0.066581  1
  O  O16  1  0.067712  0.566581  0.828599  1
  O  O17  1  0.246400  0.416892  0.584856  1
  O  O18  1  0.238949  0.906537  0.070273  1
  O  O19  1  0.416892  0.584856  0.246400  1
  O  O20  1  0.201875  0.003634  0.381728  1
  O  O21  1  0.584856  0.246400  0.416892  1
  O  O22  1  0.084856  0.916892  0.746400  1
  O  O23  1  0.381728  0.201875  0.003634  1
  O  O24  1  0.566581  0.828599  0.067712  1
  O  O25  1  0.906537  0.070273  0.238949  1
  O  O26  1  0.406537  0.738949  0.570273  1
  O  O27  1  0.828599  0.067712  0.566581  1
  O  O28  1  0.570273  0.406537  0.738949  1
  O  O29  1  0.746400  0.084856  0.916892  1
  O  O30  1  0.738949  0.570273  0.406537  1
  O  O31  1  0.003634  0.381728  0.201875  1
  O  O32  1  0.503634  0.701875  0.881728  1
  O  O33  1  0.916892  0.746400  0.084856  1
  O  O34  1  0.701875  0.881728  0.503634  1
  O  O35  1  0.881728  0.503634  0.701875  1
