# generated using pymatgen
data_CaLaCrBiO6
_symmetry_space_group_name_H-M   'P 1'
_cell_length_a   5.68434549
_cell_length_b   5.88113842
_cell_length_c   8.19477279
_cell_angle_alpha   90.00000000
_cell_angle_beta   89.11653381
_cell_angle_gamma   90.00000000
_symmetry_Int_Tables_number   1
_chemical_formula_structural   CaLaCrBiO6
_chemical_formula_sum   'Ca2 La2 Cr2 Bi2 O12'
_cell_volume   273.92215105
_cell_formula_units_Z   2
loop_
 _symmetry_equiv_pos_site_id
 _symmetry_equiv_pos_as_xyz
  1  'x, y, z'
loop_
 _atom_site_type_symbol
 _atom_site_label
 _atom_site_symmetry_multiplicity
 _atom_site_fract_x
 _atom_site_fract_y
 _atom_site_fract_z
 _atom_site_occupancy
  Ca  Ca0  1  0.481420  0.443402  0.747402  1
  Ca  Ca1  1  0.981420  0.056598  0.247402  1
  La  La2  1  0.017110  0.944050  0.750905  1
  La  La3  1  0.517110  0.555950  0.250905  1
  Cr  Cr4  1  0.500958  0.000942  0.499560  1
  Cr  Cr5  1  0.000958  0.499058  0.999560  1
  Bi  Bi6  1  0.499892  0.003241  0.001190  1
  Bi  Bi7  1  0.999892  0.496759  0.501190  1
  O  O8  1  0.114593  0.450806  0.233241  1
  O  O9  1  0.180666  0.213597  0.936163  1
  O  O10  1  0.215553  0.188142  0.561580  1
  O  O11  1  0.286846  0.686708  0.938890  1
  O  O12  1  0.320408  0.713859  0.564029  1
  O  O13  1  0.382551  0.955710  0.267040  1
  O  O14  1  0.614593  0.049194  0.733241  1
  O  O15  1  0.680666  0.286403  0.436163  1
  O  O16  1  0.715553  0.311858  0.061580  1
  O  O17  1  0.786846  0.813292  0.438890  1
  O  O18  1  0.820408  0.786141  0.064029  1
  O  O19  1  0.882551  0.544290  0.767040  1
