# generated using pymatgen
data_Cr13Si2(SbO14)2
_symmetry_space_group_name_H-M   'P 1'
_cell_length_a   5.73752778
_cell_length_b   8.63656713
_cell_length_c   11.68834511
_cell_angle_alpha   86.87604830
_cell_angle_beta   75.70806284
_cell_angle_gamma   77.36326791
_symmetry_Int_Tables_number   1
_chemical_formula_structural   Cr13Si2(SbO14)2
_chemical_formula_sum   'Cr13 Si2 Sb2 O28'
_cell_volume   547.66598965
_cell_formula_units_Z   1
loop_
 _symmetry_equiv_pos_site_id
 _symmetry_equiv_pos_as_xyz
  1  'x, y, z'
loop_
 _atom_site_type_symbol
 _atom_site_label
 _atom_site_symmetry_multiplicity
 _atom_site_fract_x
 _atom_site_fract_y
 _atom_site_fract_z
 _atom_site_occupancy
  Cr  Cr0  1  0.935523  0.625758  0.691588  1
  Cr  Cr1  1  0.655719  0.349263  0.133925  1
  Cr  Cr2  1  0.372755  0.374553  0.691799  1
  Cr  Cr3  1  0.062703  0.372608  0.309085  1
  Cr  Cr4  1  0.347229  0.648831  0.865545  1
  Cr  Cr5  1  0.284205  0.998780  0.432234  1
  Cr  Cr6  1  0.209371  0.648744  0.133861  1
  Cr  Cr7  1  0.001466  0.999063  0.000247  1
  Cr  Cr8  1  0.426917  0.999157  0.147897  1
  Cr  Cr9  1  0.792363  0.349484  0.867349  1
  Cr  Cr10  1  0.625646  0.623686  0.307879  1
  Cr  Cr11  1  0.574653  0.999389  0.852489  1
  Cr  Cr12  1  0.716689  0.999361  0.568196  1
  Si  Si13  1  0.249485  0.319728  0.999366  1
  Si  Si14  1  0.753997  0.678859  0.001085  1
  Sb  Sb15  1  0.850704  0.998462  0.298439  1
  Sb  Sb16  1  0.150597  0.999539  0.702011  1
  O  O17  1  0.739633  0.392592  0.280609  1
  O  O18  1  0.150367  0.368211  0.429602  1
  O  O19  1  0.959165  0.347595  0.998659  1
  O  O20  1  0.346705  0.127383  0.000155  1
  O  O21  1  0.849581  0.630735  0.570522  1
  O  O22  1  0.258255  0.605499  0.720228  1
  O  O23  1  0.006092  0.104005  0.567176  1
  O  O24  1  0.994861  0.894139  0.433363  1
  O  O25  1  0.655975  0.871118  0.000270  1
  O  O26  1  0.161093  0.882218  0.136002  1
  O  O27  1  0.287063  0.397197  0.118732  1
  O  O28  1  0.979474  0.606881  0.277803  1
  O  O29  1  0.428539  0.894214  0.567295  1
  O  O30  1  0.705354  0.114514  0.136457  1
  O  O31  1  0.593755  0.602224  0.120633  1
  O  O32  1  0.044342  0.650959  0.001938  1
  O  O33  1  0.297030  0.883766  0.863817  1
  O  O34  1  0.841233  0.115960  0.864535  1
  O  O35  1  0.572599  0.103865  0.433003  1
  O  O36  1  0.168966  0.126419  0.281937  1
  O  O37  1  0.830517  0.872064  0.718451  1
  O  O38  1  0.409178  0.396130  0.879605  1
  O  O39  1  0.453129  0.126290  0.718359  1
  O  O40  1  0.578636  0.365792  0.569766  1
  O  O41  1  0.715717  0.601134  0.882010  1
  O  O42  1  0.546547  0.872375  0.281954  1
  O  O43  1  0.018728  0.391317  0.722012  1
  O  O44  1  0.418471  0.634067  0.429618  1
