# generated using pymatgen
data_ZnCrF5
_symmetry_space_group_name_H-M   'P 1'
_cell_length_a   5.33485197
_cell_length_b   5.33485157
_cell_length_c   7.51344297
_cell_angle_alpha   98.22080504
_cell_angle_beta   111.13546025
_cell_angle_gamma   106.90573189
_symmetry_Int_Tables_number   1
_chemical_formula_structural   ZnCrF5
_chemical_formula_sum   'Zn2 Cr2 F10'
_cell_volume   183.32631976
_cell_formula_units_Z   2
loop_
 _symmetry_equiv_pos_site_id
 _symmetry_equiv_pos_as_xyz
  1  'x, y, z'
loop_
 _atom_site_type_symbol
 _atom_site_label
 _atom_site_symmetry_multiplicity
 _atom_site_fract_x
 _atom_site_fract_y
 _atom_site_fract_z
 _atom_site_occupancy
  Zn  Zn0  1  0.267529  0.517529  0.750000  1
  Zn  Zn1  1  0.732471  0.482471  0.250000  1
  Cr  Cr2  1  0.000000  0.000000  0.000000  1
  Cr  Cr3  1  0.500000  0.000000  0.500000  1
  F  F4  1  0.345590  0.095590  0.250000  1
  F  F5  1  0.654410  0.904410  0.750000  1
  F  F6  1  0.589555  0.720245  0.369246  1
  F  F7  1  0.850998  0.220309  0.130754  1
  F  F8  1  0.750226  0.685668  0.037402  1
  F  F9  1  0.148266  0.712824  0.462598  1
  F  F10  1  0.249774  0.314332  0.962598  1
  F  F11  1  0.851734  0.287176  0.537402  1
  F  F12  1  0.149002  0.779691  0.869246  1
  F  F13  1  0.410445  0.279755  0.630754  1
