# generated using pymatgen
data_AlCoO3
_symmetry_space_group_name_H-M   'P 1'
_cell_length_a   4.76980892
_cell_length_b   4.92083219
_cell_length_c   7.30050229
_cell_angle_alpha   89.99992629
_cell_angle_beta   90.00144356
_cell_angle_gamma   89.99940827
_symmetry_Int_Tables_number   1
_chemical_formula_structural   AlCoO3
_chemical_formula_sum   'Al4 Co4 O12'
_cell_volume   171.35322313
_cell_formula_units_Z   4
loop_
 _symmetry_equiv_pos_site_id
 _symmetry_equiv_pos_as_xyz
  1  'x, y, z'
loop_
 _atom_site_type_symbol
 _atom_site_label
 _atom_site_symmetry_multiplicity
 _atom_site_fract_x
 _atom_site_fract_y
 _atom_site_fract_z
 _atom_site_occupancy
  Al  Al0  1  0.023029  0.933291  0.750012  1
  Al  Al1  1  0.523036  0.566711  0.249990  1
  Al  Al2  1  0.476964  0.433289  0.750010  1
  Al  Al3  1  0.976971  0.066709  0.249989  1
  Co  Co4  1  0.000000  0.500000  0.500000  1
  Co  Co5  1  0.500000  0.000000  0.500000  1
  Co  Co6  1  0.500000  0.000000  0.000000  1
  Co  Co7  1  0.000000  0.500000  0.000000  1
  O  O8  1  0.678775  0.318701  0.416853  1
  O  O9  1  0.178760  0.181307  0.583145  1
  O  O10  1  0.821232  0.818705  0.083133  1
  O  O11  1  0.321233  0.681310  0.916868  1
  O  O12  1  0.321225  0.681299  0.583147  1
  O  O13  1  0.821239  0.818693  0.416855  1
  O  O14  1  0.178768  0.181295  0.916868  1
  O  O15  1  0.678767  0.318691  0.083132  1
  O  O16  1  0.151346  0.414971  0.249993  1
  O  O17  1  0.651335  0.085028  0.750007  1
  O  O18  1  0.348666  0.914972  0.249994  1
  O  O19  1  0.848654  0.585028  0.750007  1
