# generated using pymatgen
data_ZnFeF5
_symmetry_space_group_name_H-M   'P 1'
_cell_length_a   5.34355032
_cell_length_b   5.35532306
_cell_length_c   7.58157552
_cell_angle_alpha   98.50524187
_cell_angle_beta   110.01498372
_cell_angle_gamma   108.08839072
_symmetry_Int_Tables_number   1
_chemical_formula_structural   ZnFeF5
_chemical_formula_sum   'Zn2 Fe2 F10'
_cell_volume   185.76765891
_cell_formula_units_Z   2
loop_
 _symmetry_equiv_pos_site_id
 _symmetry_equiv_pos_as_xyz
  1  'x, y, z'
loop_
 _atom_site_type_symbol
 _atom_site_label
 _atom_site_symmetry_multiplicity
 _atom_site_fract_x
 _atom_site_fract_y
 _atom_site_fract_z
 _atom_site_occupancy
  Zn  Zn0  1  0.278785  0.526600  0.749772  1
  Zn  Zn1  1  0.727244  0.477339  0.247987  1
  Fe  Fe2  1  0.001172  0.000875  0.997651  1
  Fe  Fe3  1  0.500497  0.001491  0.497389  1
  F  F4  1  0.363769  0.115577  0.248907  1
  F  F5  1  0.639838  0.890976  0.747961  1
  F  F6  1  0.585146  0.723953  0.364400  1
  F  F7  1  0.857490  0.222965  0.127863  1
  F  F8  1  0.761732  0.687218  0.044699  1
  F  F9  1  0.138183  0.717583  0.452585  1
  F  F10  1  0.241334  0.310505  0.949049  1
  F  F11  1  0.863564  0.285803  0.546758  1
  F  F12  1  0.145290  0.775526  0.870903  1
  F  F13  1  0.410595  0.274360  0.630164  1
