# generated using pymatgen
data_BaCaMoF7
_symmetry_space_group_name_H-M   'P 1'
_cell_length_a   5.93274943
_cell_length_b   10.25929013
_cell_length_c   10.67442828
_cell_angle_alpha   90.00000000
_cell_angle_beta   90.00000000
_cell_angle_gamma   91.35025753
_symmetry_Int_Tables_number   1
_chemical_formula_structural   BaCaMoF7
_chemical_formula_sum   'Ba4 Ca4 Mo4 F28'
_cell_volume   649.52718403
_cell_formula_units_Z   4
loop_
 _symmetry_equiv_pos_site_id
 _symmetry_equiv_pos_as_xyz
  1  'x, y, z'
loop_
 _atom_site_type_symbol
 _atom_site_label
 _atom_site_symmetry_multiplicity
 _atom_site_fract_x
 _atom_site_fract_y
 _atom_site_fract_z
 _atom_site_occupancy
  Ba  Ba0  1  0.268454  0.501018  0.336246  1
  Ba  Ba1  1  0.731546  0.998982  0.836246  1
  Ba  Ba2  1  0.731546  0.498982  0.663754  1
  Ba  Ba3  1  0.268454  0.001018  0.163754  1
  Ca  Ca4  1  0.697460  0.820064  0.406802  1
  Ca  Ca5  1  0.302540  0.679936  0.906802  1
  Ca  Ca6  1  0.697460  0.320064  0.093198  1
  Ca  Ca7  1  0.302540  0.179937  0.593198  1
  Mo  Mo8  1  0.188322  0.809100  0.620807  1
  Mo  Mo9  1  0.811678  0.190900  0.379193  1
  Mo  Mo10  1  0.188322  0.309100  0.879193  1
  Mo  Mo11  1  0.811678  0.690900  0.120807  1
  F  F12  1  0.118493  0.106106  0.423026  1
  F  F13  1  0.347446  0.375329  0.043608  1
  F  F14  1  0.480182  0.732733  0.708190  1
  F  F15  1  0.519818  0.267267  0.291810  1
  F  F16  1  0.928449  0.364063  0.463629  1
  F  F17  1  0.289013  0.487692  0.793699  1
  F  F18  1  0.011012  0.745917  0.781952  1
  F  F19  1  0.071551  0.135937  0.963629  1
  F  F20  1  0.347446  0.875329  0.456392  1
  F  F21  1  0.519818  0.767267  0.208190  1
  F  F22  1  0.118493  0.606106  0.076974  1
  F  F23  1  0.881507  0.893894  0.576974  1
  F  F24  1  0.988988  0.754083  0.281952  1
  F  F25  1  0.412937  0.877978  0.960548  1
  F  F26  1  0.071551  0.635937  0.536371  1
  F  F27  1  0.928449  0.864063  0.036371  1
  F  F28  1  0.988988  0.254083  0.218048  1
  F  F29  1  0.881507  0.393894  0.923026  1
  F  F30  1  0.587063  0.622022  0.460548  1
  F  F31  1  0.652554  0.624671  0.956392  1
  F  F32  1  0.587063  0.122022  0.039452  1
  F  F33  1  0.011012  0.245917  0.718048  1
  F  F34  1  0.412937  0.377978  0.539452  1
  F  F35  1  0.710987  0.012308  0.293699  1
  F  F36  1  0.710987  0.512308  0.206301  1
  F  F37  1  0.289013  0.987692  0.706301  1
  F  F38  1  0.652554  0.124671  0.543608  1
  F  F39  1  0.480182  0.232733  0.791810  1
