# generated using pymatgen
data_MgBi3O7
_symmetry_space_group_name_H-M   'P 1'
_cell_length_a   5.60390229
_cell_length_b   10.82931100
_cell_length_c   10.80785975
_cell_angle_alpha   90.00000000
_cell_angle_beta   90.00000000
_cell_angle_gamma   90.00000000
_symmetry_Int_Tables_number   1
_chemical_formula_structural   MgBi3O7
_chemical_formula_sum   'Mg4 Bi12 O28'
_cell_volume   655.89010763
_cell_formula_units_Z   4
loop_
 _symmetry_equiv_pos_site_id
 _symmetry_equiv_pos_as_xyz
  1  'x, y, z'
loop_
 _atom_site_type_symbol
 _atom_site_label
 _atom_site_symmetry_multiplicity
 _atom_site_fract_x
 _atom_site_fract_y
 _atom_site_fract_z
 _atom_site_occupancy
  Mg  Mg0  1  0.690444  0.750000  0.861897  1
  Mg  Mg1  1  0.190444  0.250000  0.638103  1
  Mg  Mg2  1  0.309556  0.250000  0.138103  1
  Mg  Mg3  1  0.809556  0.750000  0.361897  1
  Bi  Bi4  1  0.316335  0.983471  0.372068  1
  Bi  Bi5  1  0.816335  0.016529  0.127932  1
  Bi  Bi6  1  0.683665  0.483471  0.627932  1
  Bi  Bi7  1  0.183665  0.516529  0.872068  1
  Bi  Bi8  1  0.268076  0.750000  0.140411  1
  Bi  Bi9  1  0.768076  0.250000  0.359589  1
  Bi  Bi10  1  0.731924  0.250000  0.859589  1
  Bi  Bi11  1  0.231924  0.750000  0.640411  1
  Bi  Bi12  1  0.816335  0.483471  0.127932  1
  Bi  Bi13  1  0.316335  0.516529  0.372068  1
  Bi  Bi14  1  0.183665  0.983471  0.872068  1
  Bi  Bi15  1  0.683665  0.016529  0.627932  1
  O  O16  1  0.985979  0.128982  0.770088  1
  O  O17  1  0.485979  0.871018  0.729912  1
  O  O18  1  0.014021  0.628982  0.229912  1
  O  O19  1  0.514021  0.371018  0.270088  1
  O  O20  1  0.014021  0.871018  0.229912  1
  O  O21  1  0.514021  0.128982  0.270088  1
  O  O22  1  0.985979  0.371018  0.770088  1
  O  O23  1  0.485979  0.628982  0.729912  1
  O  O24  1  0.490004  0.118947  0.790888  1
  O  O25  1  0.990004  0.881053  0.709112  1
  O  O26  1  0.509996  0.618947  0.209112  1
  O  O27  1  0.009996  0.381053  0.290888  1
  O  O28  1  0.509996  0.881053  0.209112  1
  O  O29  1  0.009996  0.118947  0.290888  1
  O  O30  1  0.490004  0.381053  0.790888  1
  O  O31  1  0.990004  0.618947  0.709112  1
  O  O32  1  0.157347  0.750000  0.452456  1
  O  O33  1  0.657347  0.250000  0.047544  1
  O  O34  1  0.842653  0.250000  0.547544  1
  O  O35  1  0.342653  0.750000  0.952456  1
  O  O36  1  0.145959  0.399989  0.043903  1
  O  O37  1  0.645959  0.600011  0.456097  1
  O  O38  1  0.854041  0.899989  0.956097  1
  O  O39  1  0.354041  0.100011  0.543903  1
  O  O40  1  0.854041  0.600011  0.956097  1
  O  O41  1  0.354041  0.399989  0.543903  1
  O  O42  1  0.145959  0.100011  0.043903  1
  O  O43  1  0.645959  0.899989  0.456097  1
