# generated using pymatgen
data_Zn(SnO2)2
_symmetry_space_group_name_H-M   'P 1'
_cell_length_a   3.28839312
_cell_length_b   10.01130542
_cell_length_c   11.72779084
_cell_angle_alpha   90.01137685
_cell_angle_beta   90.00011972
_cell_angle_gamma   89.99985388
_symmetry_Int_Tables_number   1
_chemical_formula_structural   Zn(SnO2)2
_chemical_formula_sum   'Zn4 Sn8 O16'
_cell_volume   386.09185956
_cell_formula_units_Z   4
loop_
 _symmetry_equiv_pos_site_id
 _symmetry_equiv_pos_as_xyz
  1  'x, y, z'
loop_
 _atom_site_type_symbol
 _atom_site_label
 _atom_site_symmetry_multiplicity
 _atom_site_fract_x
 _atom_site_fract_y
 _atom_site_fract_z
 _atom_site_occupancy
  Zn  Zn0  1  0.750003  0.240903  0.346061  1
  Zn  Zn1  1  0.250000  0.759059  0.653956  1
  Zn  Zn2  1  0.750007  0.740872  0.153993  1
  Zn  Zn3  1  0.250000  0.259124  0.846031  1
  Sn  Sn4  1  0.250002  0.416173  0.105786  1
  Sn  Sn5  1  0.749993  0.083781  0.605820  1
  Sn  Sn6  1  0.249999  0.916201  0.394183  1
  Sn  Sn7  1  0.750001  0.583812  0.894216  1
  Sn  Sn8  1  0.750002  0.565625  0.385554  1
  Sn  Sn9  1  0.250000  0.434382  0.614435  1
  Sn  Sn10  1  0.750000  0.065640  0.114452  1
  Sn  Sn11  1  0.249999  0.934382  0.885569  1
  O  O12  1  0.249999  0.933559  0.073170  1
  O  O13  1  0.749998  0.066498  0.926825  1
  O  O14  1  0.250002  0.433499  0.426765  1
  O  O15  1  0.750001  0.566543  0.573230  1
  O  O16  1  0.249991  0.031298  0.716771  1
  O  O17  1  0.749999  0.968676  0.283231  1
  O  O18  1  0.250002  0.531398  0.783262  1
  O  O19  1  0.750001  0.468643  0.216712  1
  O  O20  1  0.250001  0.609526  0.009784  1
  O  O21  1  0.750001  0.390440  0.990191  1
  O  O22  1  0.249990  0.109485  0.490231  1
  O  O23  1  0.749998  0.890473  0.509786  1
  O  O24  1  0.750001  0.797843  0.867506  1
  O  O25  1  0.249999  0.202163  0.132448  1
  O  O26  1  0.250001  0.702144  0.367552  1
  O  O27  1  0.749999  0.297855  0.632480  1
