# generated using pymatgen
data_CaFeP2O7
_symmetry_space_group_name_H-M   'P 1'
_cell_length_a   6.24420680
_cell_length_b   6.61088104
_cell_length_c   7.30618751
_cell_angle_alpha   82.76889134
_cell_angle_beta   88.00115758
_cell_angle_gamma   68.76578791
_symmetry_Int_Tables_number   1
_chemical_formula_structural   CaFeP2O7
_chemical_formula_sum   'Ca2 Fe2 P4 O14'
_cell_volume   278.86655758
_cell_formula_units_Z   2
loop_
 _symmetry_equiv_pos_site_id
 _symmetry_equiv_pos_as_xyz
  1  'x, y, z'
loop_
 _atom_site_type_symbol
 _atom_site_label
 _atom_site_symmetry_multiplicity
 _atom_site_fract_x
 _atom_site_fract_y
 _atom_site_fract_z
 _atom_site_occupancy
  Ca  Ca0  1  0.300536  0.709731  0.639989  1
  Ca  Ca1  1  0.700212  0.290398  0.360646  1
  Fe  Fe2  1  0.255661  0.128831  0.191033  1
  Fe  Fe3  1  0.745461  0.870793  0.805526  1
  P  P4  1  0.166213  0.658502  0.118242  1
  P  P5  1  0.833864  0.341260  0.882175  1
  P  P6  1  0.237927  0.217085  0.618757  1
  P  P7  1  0.761534  0.783117  0.380954  1
  O  O8  1  0.080617  0.730854  0.917128  1
  O  O9  1  0.919597  0.268980  0.083359  1
  O  O10  1  0.252556  0.817478  0.196700  1
  O  O11  1  0.746772  0.182656  0.804069  1
  O  O12  1  0.332807  0.419209  0.146704  1
  O  O13  1  0.667375  0.580553  0.854050  1
  O  O14  1  0.636560  0.629990  0.450409  1
  O  O15  1  0.362993  0.370225  0.549320  1
  O  O16  1  0.106093  0.166750  0.466277  1
  O  O17  1  0.892655  0.833102  0.534247  1
  O  O18  1  0.058544  0.348249  0.763695  1
  O  O19  1  0.605891  0.000428  0.275256  1
  O  O20  1  0.394390  0.000054  0.724520  1
  O  O21  1  0.941745  0.651753  0.236942  1
