# generated using pymatgen
data_CaNiAs2O7
_symmetry_space_group_name_H-M   'P 1'
_cell_length_a   7.42544597
_cell_length_b   9.06763006
_cell_length_c   9.43070905
_cell_angle_alpha   90.00000000
_cell_angle_beta   110.35342300
_cell_angle_gamma   90.00000000
_symmetry_Int_Tables_number   1
_chemical_formula_structural   CaNiAs2O7
_chemical_formula_sum   'Ca4 Ni4 As8 O28'
_cell_volume   595.33592236
_cell_formula_units_Z   4
loop_
 _symmetry_equiv_pos_site_id
 _symmetry_equiv_pos_as_xyz
  1  'x, y, z'
loop_
 _atom_site_type_symbol
 _atom_site_label
 _atom_site_symmetry_multiplicity
 _atom_site_fract_x
 _atom_site_fract_y
 _atom_site_fract_z
 _atom_site_occupancy
  Ca  Ca0  1  0.254780  0.934543  0.937440  1
  Ca  Ca1  1  0.745220  0.434543  0.562560  1
  Ca  Ca2  1  0.745220  0.065457  0.062560  1
  Ca  Ca3  1  0.254780  0.565457  0.437440  1
  Ni  Ni4  1  0.802370  0.057833  0.695252  1
  Ni  Ni5  1  0.197630  0.557833  0.804748  1
  Ni  Ni6  1  0.197630  0.942167  0.304748  1
  Ni  Ni7  1  0.802370  0.442167  0.195252  1
  As  As8  1  0.420001  0.239050  0.733852  1
  As  As9  1  0.579999  0.739050  0.766148  1
  As  As10  1  0.579999  0.760950  0.266148  1
  As  As11  1  0.420001  0.260950  0.233851  1
  As  As12  1  0.017897  0.298592  0.952864  1
  As  As13  1  0.982103  0.798592  0.547136  1
  As  As14  1  0.982103  0.701408  0.047136  1
  As  As15  1  0.017897  0.201408  0.452864  1
  O  O16  1  0.852275  0.312770  0.039921  1
  O  O17  1  0.147725  0.812770  0.460079  1
  O  O18  1  0.147725  0.687230  0.960079  1
  O  O19  1  0.852275  0.187230  0.539921  1
  O  O20  1  0.344196  0.417660  0.717497  1
  O  O21  1  0.655804  0.917660  0.782503  1
  O  O22  1  0.655804  0.582340  0.282503  1
  O  O23  1  0.344196  0.082340  0.217497  1
  O  O24  1  0.429911  0.139278  0.889522  1
  O  O25  1  0.570089  0.639278  0.610478  1
  O  O26  1  0.570089  0.860722  0.110478  1
  O  O27  1  0.429911  0.360722  0.389522  1
  O  O28  1  0.248093  0.142520  0.575993  1
  O  O29  1  0.751907  0.642520  0.924007  1
  O  O30  1  0.751907  0.857480  0.424007  1
  O  O31  1  0.248093  0.357480  0.075993  1
  O  O32  1  0.991838  0.087441  0.303856  1
  O  O33  1  0.008162  0.587441  0.196144  1
  O  O34  1  0.008162  0.912559  0.696144  1
  O  O35  1  0.991838  0.412559  0.803856  1
  O  O36  1  0.630667  0.267592  0.199634  1
  O  O37  1  0.369333  0.767592  0.300366  1
  O  O38  1  0.369333  0.732408  0.800366  1
  O  O39  1  0.630667  0.232408  0.699634  1
  O  O40  1  0.004615  0.383591  0.402132  1
  O  O41  1  0.995385  0.883591  0.097868  1
  O  O42  1  0.995385  0.616409  0.597868  1
  O  O43  1  0.004615  0.116409  0.902132  1
