# generated using pymatgen
data_MgCr2F12
_symmetry_space_group_name_H-M   'P 1'
_cell_length_a   5.35133430
_cell_length_b   10.65935255
_cell_length_c   5.34727020
_cell_angle_alpha   58.16881240
_cell_angle_beta   58.24835409
_cell_angle_gamma   58.11500977
_symmetry_Int_Tables_number   1
_chemical_formula_structural   MgCr2F12
_chemical_formula_sum   'Mg1 Cr2 F12'
_cell_volume   206.67089170
_cell_formula_units_Z   1
loop_
 _symmetry_equiv_pos_site_id
 _symmetry_equiv_pos_as_xyz
  1  'x, y, z'
loop_
 _atom_site_type_symbol
 _atom_site_label
 _atom_site_symmetry_multiplicity
 _atom_site_fract_x
 _atom_site_fract_y
 _atom_site_fract_z
 _atom_site_occupancy
  Mg  Mg0  1  0.500000  0.750000  0.500000  1
  Cr  Cr1  1  0.997140  0.010063  0.989511  1
  Cr  Cr2  1  0.002860  0.489937  0.010489  1
  F  F3  1  0.318763  0.072448  0.769906  1
  F  F4  1  0.322208  0.575734  0.764157  1
  F  F5  1  0.147118  0.385637  0.317290  1
  F  F6  1  0.151834  0.881956  0.321601  1
  F  F7  1  0.233090  0.341584  0.849211  1
  F  F8  1  0.235615  0.838395  0.849074  1
  F  F9  1  0.852882  0.114363  0.682710  1
  F  F10  1  0.848166  0.618044  0.678399  1
  F  F11  1  0.681237  0.427552  0.230094  1
  F  F12  1  0.677792  0.924266  0.235843  1
  F  F13  1  0.766910  0.158416  0.150789  1
  F  F14  1  0.764385  0.661605  0.150926  1
