# generated using pymatgen
data_As2WO7
_symmetry_space_group_name_H-M   'P 1'
_cell_length_a   7.40835846
_cell_length_b   9.53655256
_cell_length_c   10.10886474
_cell_angle_alpha   90.00000000
_cell_angle_beta   94.39399914
_cell_angle_gamma   90.00000000
_symmetry_Int_Tables_number   1
_chemical_formula_structural   As2WO7
_chemical_formula_sum   'As8 W4 O28'
_cell_volume   712.09414369
_cell_formula_units_Z   4
loop_
 _symmetry_equiv_pos_site_id
 _symmetry_equiv_pos_as_xyz
  1  'x, y, z'
loop_
 _atom_site_type_symbol
 _atom_site_label
 _atom_site_symmetry_multiplicity
 _atom_site_fract_x
 _atom_site_fract_y
 _atom_site_fract_z
 _atom_site_occupancy
  As  As0  1  0.402620  0.227539  0.767245  1
  As  As1  1  0.597380  0.727539  0.732755  1
  As  As2  1  0.597380  0.772461  0.232755  1
  As  As3  1  0.402620  0.272461  0.267245  1
  As  As4  1  0.125512  0.240976  0.005880  1
  As  As5  1  0.874488  0.740976  0.494120  1
  As  As6  1  0.874488  0.759024  0.994120  1
  As  As7  1  0.125512  0.259024  0.505880  1
  W  W8  1  0.804406  0.043257  0.695544  1
  W  W9  1  0.195594  0.543257  0.804456  1
  W  W10  1  0.195594  0.956743  0.304456  1
  W  W11  1  0.804406  0.456743  0.195544  1
  O  O12  1  0.881998  0.340804  0.070752  1
  O  O13  1  0.118002  0.840804  0.429248  1
  O  O14  1  0.118002  0.659196  0.929248  1
  O  O15  1  0.881998  0.159196  0.570752  1
  O  O16  1  0.398760  0.408450  0.752435  1
  O  O17  1  0.601240  0.908450  0.747565  1
  O  O18  1  0.601240  0.591550  0.247565  1
  O  O19  1  0.398760  0.091550  0.252435  1
  O  O20  1  0.353763  0.171955  0.920609  1
  O  O21  1  0.646237  0.671955  0.579391  1
  O  O22  1  0.646237  0.828045  0.079391  1
  O  O23  1  0.353763  0.328045  0.420609  1
  O  O24  1  0.267358  0.152339  0.636860  1
  O  O25  1  0.732642  0.652339  0.863140  1
  O  O26  1  0.732642  0.847661  0.363140  1
  O  O27  1  0.267358  0.347661  0.136860  1
  O  O28  1  0.104875  0.123542  0.383838  1
  O  O29  1  0.895125  0.623542  0.116162  1
  O  O30  1  0.895125  0.876458  0.616162  1
  O  O31  1  0.104875  0.376458  0.883838  1
  O  O32  1  0.621572  0.318062  0.241320  1
  O  O33  1  0.378428  0.818062  0.258680  1
  O  O34  1  0.378428  0.681938  0.758680  1
  O  O35  1  0.621572  0.181938  0.741320  1
  O  O36  1  0.962345  0.443296  0.331898  1
  O  O37  1  0.037655  0.943296  0.168102  1
  O  O38  1  0.037655  0.556704  0.668102  1
  O  O39  1  0.962345  0.056704  0.831898  1
