# generated using pymatgen
data_Ti2Zn(PO4)2
_symmetry_space_group_name_H-M   'P 1'
_cell_length_a   5.14451364
_cell_length_b   8.89024508
_cell_length_c   15.20086295
_cell_angle_alpha   83.88296350
_cell_angle_beta   80.25765754
_cell_angle_gamma   73.18186585
_symmetry_Int_Tables_number   1
_chemical_formula_structural   Ti2Zn(PO4)2
_chemical_formula_sum   'Ti8 Zn4 P8 O32'
_cell_volume   654.66941476
_cell_formula_units_Z   4
loop_
 _symmetry_equiv_pos_site_id
 _symmetry_equiv_pos_as_xyz
  1  'x, y, z'
loop_
 _atom_site_type_symbol
 _atom_site_label
 _atom_site_symmetry_multiplicity
 _atom_site_fract_x
 _atom_site_fract_y
 _atom_site_fract_z
 _atom_site_occupancy
  Ti  Ti0  1  0.212100  0.218351  0.956881  1
  Ti  Ti1  1  0.387331  0.281649  0.543119  1
  Ti  Ti2  1  0.787900  0.781649  0.043119  1
  Ti  Ti3  1  0.500000  0.500000  0.000000  1
  Ti  Ti4  1  0.612669  0.718351  0.456881  1
  Ti  Ti5  1  0.684581  0.750000  0.250000  1
  Ti  Ti6  1  0.315419  0.250000  0.750000  1
  Ti  Ti7  1  0.000000  0.000000  0.500000  1
  Zn  Zn8  1  0.488669  0.816932  0.835713  1
  Zn  Zn9  1  0.141315  0.683068  0.664287  1
  Zn  Zn10  1  0.858685  0.316932  0.335713  1
  Zn  Zn11  1  0.511331  0.183068  0.164287  1
  P  P12  1  0.042842  0.578512  0.868879  1
  P  P13  1  0.768459  0.406672  0.616935  1
  P  P14  1  0.957158  0.421488  0.131121  1
  P  P15  1  0.207934  0.906672  0.116935  1
  P  P16  1  0.509769  0.078512  0.368879  1
  P  P17  1  0.490231  0.921488  0.631121  1
  P  P18  1  0.231541  0.593328  0.383065  1
  P  P19  1  0.792066  0.093328  0.883065  1
  O  O20  1  0.703015  0.381452  0.107235  1
  O  O21  1  0.827163  0.935212  0.939230  1
  O  O22  1  0.808299  0.881452  0.607235  1
  O  O23  1  0.790786  0.267328  0.556701  1
  O  O24  1  0.189862  0.390105  0.048288  1
  O  O25  1  0.547518  0.405470  0.699043  1
  O  O26  1  0.614816  0.232672  0.943299  1
  O  O27  1  0.915118  0.881240  0.145811  1
  O  O28  1  0.209214  0.732672  0.443299  1
  O  O29  1  0.701605  0.564788  0.560770  1
  O  O30  1  0.881211  0.600691  0.146105  1
  O  O31  1  0.614449  0.178160  0.288986  1
  O  O32  1  0.172837  0.064788  0.060770  1
  O  O33  1  0.057833  0.381240  0.645811  1
  O  O34  1  0.296984  0.618548  0.892765  1
  O  O35  1  0.118789  0.399309  0.853895  1
  O  O36  1  0.918406  0.678160  0.788986  1
  O  O37  1  0.385184  0.767328  0.056701  1
  O  O38  1  0.371994  0.100691  0.646105  1
  O  O39  1  0.385551  0.821840  0.711014  1
  O  O40  1  0.942167  0.618760  0.354189  1
  O  O41  1  0.371745  0.890105  0.548288  1
  O  O42  1  0.084882  0.118760  0.854189  1
  O  O43  1  0.347969  0.905470  0.199043  1
  O  O44  1  0.298395  0.435212  0.439230  1
  O  O45  1  0.191701  0.118548  0.392765  1
  O  O46  1  0.081594  0.321840  0.211014  1
  O  O47  1  0.628255  0.109895  0.451712  1
  O  O48  1  0.810138  0.609895  0.951712  1
  O  O49  1  0.652031  0.094530  0.800957  1
  O  O50  1  0.452482  0.594530  0.300957  1
  O  O51  1  0.628006  0.899309  0.353895  1
