# generated using pymatgen
data_MgSnF5
_symmetry_space_group_name_H-M   'P 1'
_cell_length_a   5.36378467
_cell_length_b   8.06170942
_cell_length_c   10.30862825
_cell_angle_alpha   90.00000000
_cell_angle_beta   90.00000000
_cell_angle_gamma   106.95576319
_symmetry_Int_Tables_number   1
_chemical_formula_structural   MgSnF5
_chemical_formula_sum   'Mg4 Sn4 F20'
_cell_volume   426.38119445
_cell_formula_units_Z   4
loop_
 _symmetry_equiv_pos_site_id
 _symmetry_equiv_pos_as_xyz
  1  'x, y, z'
loop_
 _atom_site_type_symbol
 _atom_site_label
 _atom_site_symmetry_multiplicity
 _atom_site_fract_x
 _atom_site_fract_y
 _atom_site_fract_z
 _atom_site_occupancy
  Mg  Mg0  1  0.487905  0.788983  0.007187  1
  Mg  Mg1  1  0.512095  0.711017  0.507187  1
  Mg  Mg2  1  0.512095  0.211017  0.992813  1
  Mg  Mg3  1  0.487905  0.288983  0.492813  1
  Sn  Sn4  1  0.904561  0.611972  0.762365  1
  Sn  Sn5  1  0.095439  0.888028  0.262365  1
  Sn  Sn6  1  0.095439  0.388028  0.237635  1
  Sn  Sn7  1  0.904561  0.111972  0.737635  1
  F  F8  1  0.614412  0.626502  0.899329  1
  F  F9  1  0.385588  0.873498  0.399329  1
  F  F10  1  0.385588  0.373498  0.100671  1
  F  F11  1  0.614412  0.126502  0.600671  1
  F  F12  1  0.643592  0.506787  0.595528  1
  F  F13  1  0.356408  0.993213  0.095528  1
  F  F14  1  0.356408  0.493213  0.404472  1
  F  F15  1  0.643592  0.006787  0.904472  1
  F  F16  1  0.841794  0.783020  0.413992  1
  F  F17  1  0.158206  0.716980  0.913992  1
  F  F18  1  0.158206  0.216980  0.586008  1
  F  F19  1  0.841794  0.283020  0.086008  1
  F  F20  1  0.755360  0.825061  0.140744  1
  F  F21  1  0.244640  0.674939  0.640744  1
  F  F22  1  0.244640  0.174939  0.859256  1
  F  F23  1  0.755360  0.325061  0.359256  1
  F  F24  1  0.817637  0.838647  0.678731  1
  F  F25  1  0.182363  0.661353  0.178731  1
  F  F26  1  0.182363  0.161353  0.321269  1
  F  F27  1  0.817637  0.338647  0.821269  1
