# generated using pymatgen
data_CrP2O7
_symmetry_space_group_name_H-M   'P 1'
_cell_length_a   6.90572314
_cell_length_b   8.55854392
_cell_length_c   9.38675647
_cell_angle_alpha   90.00000000
_cell_angle_beta   72.00501659
_cell_angle_gamma   90.00000000
_symmetry_Int_Tables_number   1
_chemical_formula_structural   CrP2O7
_chemical_formula_sum   'Cr4 P8 O28'
_cell_volume   527.64676061
_cell_formula_units_Z   4
loop_
 _symmetry_equiv_pos_site_id
 _symmetry_equiv_pos_as_xyz
  1  'x, y, z'
loop_
 _atom_site_type_symbol
 _atom_site_label
 _atom_site_symmetry_multiplicity
 _atom_site_fract_x
 _atom_site_fract_y
 _atom_site_fract_z
 _atom_site_occupancy
  Cr  Cr0  1  0.704126  0.078556  0.191163  1
  Cr  Cr1  1  0.704126  0.421444  0.691163  1
  Cr  Cr2  1  0.295874  0.578556  0.308837  1
  Cr  Cr3  1  0.295874  0.921444  0.808837  1
  P  P4  1  0.520317  0.714421  0.539161  1
  P  P5  1  0.094335  0.248644  0.243339  1
  P  P6  1  0.905665  0.748644  0.256661  1
  P  P7  1  0.094335  0.251356  0.743339  1
  P  P8  1  0.520317  0.785579  0.039161  1
  P  P9  1  0.905665  0.751356  0.756661  1
  P  P10  1  0.479683  0.214421  0.960839  1
  P  P11  1  0.479683  0.285579  0.460839  1
  O  O12  1  0.520164  0.124443  0.379783  1
  O  O13  1  0.263913  0.222744  0.080791  1
  O  O14  1  0.892023  0.261847  0.708547  1
  O  O15  1  0.117535  0.075652  0.782946  1
  O  O16  1  0.479836  0.875557  0.620217  1
  O  O17  1  0.736087  0.777256  0.919209  1
  O  O18  1  0.643906  0.197385  0.041132  1
  O  O19  1  0.520797  0.916671  0.147625  1
  O  O20  1  0.882465  0.575652  0.717054  1
  O  O21  1  0.356094  0.697385  0.458868  1
  O  O22  1  0.520164  0.375557  0.879783  1
  O  O23  1  0.874706  0.863847  0.644672  1
  O  O24  1  0.479836  0.624443  0.120217  1
  O  O25  1  0.107977  0.738153  0.291453  1
  O  O26  1  0.479203  0.416671  0.352375  1
  O  O27  1  0.356094  0.802615  0.958868  1
  O  O28  1  0.882465  0.924348  0.217054  1
  O  O29  1  0.892023  0.238153  0.208547  1
  O  O30  1  0.125294  0.136153  0.355328  1
  O  O31  1  0.520797  0.583329  0.647625  1
  O  O32  1  0.263913  0.277256  0.580791  1
  O  O33  1  0.643906  0.302615  0.541132  1
  O  O34  1  0.479203  0.083329  0.852375  1
  O  O35  1  0.117535  0.424348  0.282946  1
  O  O36  1  0.736087  0.722744  0.419209  1
  O  O37  1  0.874706  0.636153  0.144672  1
  O  O38  1  0.107977  0.761847  0.791453  1
  O  O39  1  0.125294  0.363847  0.855328  1
