# generated using pymatgen
data_Mg(SbO2)4
_symmetry_space_group_name_H-M   'P 1'
_cell_length_a   3.17648379
_cell_length_b   8.95130642
_cell_length_c   9.95980772
_cell_angle_alpha   62.06653424
_cell_angle_beta   80.55749121
_cell_angle_gamma   79.53927129
_symmetry_Int_Tables_number   1
_chemical_formula_structural   Mg(SbO2)4
_chemical_formula_sum   'Mg1 Sb4 O8'
_cell_volume   245.02182602
_cell_formula_units_Z   1
loop_
 _symmetry_equiv_pos_site_id
 _symmetry_equiv_pos_as_xyz
  1  'x, y, z'
loop_
 _atom_site_type_symbol
 _atom_site_label
 _atom_site_symmetry_multiplicity
 _atom_site_fract_x
 _atom_site_fract_y
 _atom_site_fract_z
 _atom_site_occupancy
  Mg  Mg0  1  0.303924  0.195065  0.208528  1
  Sb  Sb1  1  0.664150  0.149326  0.527495  1
  Sb  Sb2  1  0.109603  0.580545  0.213252  1
  Sb  Sb3  1  0.850372  0.445746  0.867462  1
  Sb  Sb4  1  0.350161  0.804730  0.510059  1
  O  O5  1  0.846696  0.672499  0.648627  1
  O  O6  1  0.434525  0.362656  0.786599  1
  O  O7  1  0.534354  0.615296  0.325337  1
  O  O8  1  0.172173  0.326151  0.339901  1
  O  O9  1  0.214277  0.964457  0.615277  1
  O  O10  1  0.839648  0.259644  0.074437  1
  O  O11  1  0.793143  0.054181  0.373063  1
  O  O12  1  0.265138  0.560342  0.918753  1
