# generated using pymatgen
data_Mg(BiO2)4
_symmetry_space_group_name_H-M   'P 1'
_cell_length_a   6.38156891
_cell_length_b   6.38156905
_cell_length_c   6.38156995
_cell_angle_alpha   67.82217049
_cell_angle_beta   67.82215784
_cell_angle_gamma   67.82218059
_symmetry_Int_Tables_number   1
_chemical_formula_structural   Mg(BiO2)4
_chemical_formula_sum   'Mg1 Bi4 O8'
_cell_volume   214.32274393
_cell_formula_units_Z   1
loop_
 _symmetry_equiv_pos_site_id
 _symmetry_equiv_pos_as_xyz
  1  'x, y, z'
loop_
 _atom_site_type_symbol
 _atom_site_label
 _atom_site_symmetry_multiplicity
 _atom_site_fract_x
 _atom_site_fract_y
 _atom_site_fract_z
 _atom_site_occupancy
  Mg  Mg0  1  0.500000  0.500001  0.499999  1
  Bi  Bi1  1  0.500001  0.999999  0.500001  1
  Bi  Bi2  1  0.999999  0.500000  0.500001  1
  Bi  Bi3  1  0.500000  0.500000  -0.000000  1
  Bi  Bi4  1  -0.000000  0.000000  -0.000000  1
  O  O5  1  0.737725  0.279258  0.737725  1
  O  O6  1  0.262274  0.262275  0.720742  1
  O  O7  1  0.262274  0.720743  0.262274  1
  O  O8  1  0.720742  0.262275  0.262275  1
  O  O9  1  0.262205  0.262206  0.262205  1
  O  O10  1  0.737795  0.737795  0.737795  1
  O  O11  1  0.279259  0.737726  0.737725  1
  O  O12  1  0.737726  0.737726  0.279257  1
