# generated using pymatgen
data_YTi(WO4)2
_symmetry_space_group_name_H-M   'P 1'
_cell_length_a   5.34938367
_cell_length_b   5.82098322
_cell_length_c   9.72529730
_cell_angle_alpha   88.92068588
_cell_angle_beta   92.68265110
_cell_angle_gamma   90.54636766
_symmetry_Int_Tables_number   1
_chemical_formula_structural   YTi(WO4)2
_chemical_formula_sum   'Y2 Ti2 W4 O16'
_cell_volume   302.43594683
_cell_formula_units_Z   2
loop_
 _symmetry_equiv_pos_site_id
 _symmetry_equiv_pos_as_xyz
  1  'x, y, z'
loop_
 _atom_site_type_symbol
 _atom_site_label
 _atom_site_symmetry_multiplicity
 _atom_site_fract_x
 _atom_site_fract_y
 _atom_site_fract_z
 _atom_site_occupancy
  Y  Y0  1  0.255981  0.658842  0.256883  1
  Y  Y1  1  0.744018  0.341157  0.743117  1
  Ti  Ti2  1  0.770347  0.324761  0.230490  1
  Ti  Ti3  1  0.229653  0.675238  0.769510  1
  W  W4  1  0.253377  0.153126  0.497507  1
  W  W5  1  0.259724  0.158426  0.003385  1
  W  W6  1  0.746623  0.846874  0.502493  1
  W  W7  1  0.740276  0.841574  0.996615  1
  O  O8  1  0.438512  0.359532  0.145655  1
  O  O9  1  0.060420  0.349774  0.356174  1
  O  O10  1  0.561488  0.640467  0.854345  1
  O  O11  1  0.939579  0.650226  0.643826  1
  O  O12  1  0.435085  0.890920  0.614728  1
  O  O13  1  0.083786  0.896329  0.881213  1
  O  O14  1  0.564915  0.109080  0.385272  1
  O  O15  1  0.916214  0.103671  0.118787  1
  O  O16  1  0.884570  0.590766  0.132826  1
  O  O17  1  0.627582  0.621345  0.381029  1
  O  O18  1  0.115430  0.409235  0.867174  1
  O  O19  1  0.372418  0.378656  0.618971  1
  O  O20  1  0.413533  0.880884  0.101889  1
  O  O21  1  0.586467  0.119117  0.898111  1
  O  O22  1  0.077828  0.885258  0.402358  1
  O  O23  1  0.922172  0.114743  0.597642  1
