# generated using pymatgen
data_Mg2SnWO6
_symmetry_space_group_name_H-M   'P 1'
_cell_length_a   6.09524331
_cell_length_b   6.81306394
_cell_length_c   8.06038639
_cell_angle_alpha   89.70543757
_cell_angle_beta   134.97488503
_cell_angle_gamma   124.54186946
_symmetry_Int_Tables_number   1
_chemical_formula_structural   Mg2SnWO6
_chemical_formula_sum   'Mg2 Sn1 W1 O6'
_cell_volume   143.20408647
_cell_formula_units_Z   1
loop_
 _symmetry_equiv_pos_site_id
 _symmetry_equiv_pos_as_xyz
  1  'x, y, z'
loop_
 _atom_site_type_symbol
 _atom_site_label
 _atom_site_symmetry_multiplicity
 _atom_site_fract_x
 _atom_site_fract_y
 _atom_site_fract_z
 _atom_site_occupancy
  Mg  Mg0  1  0.077642  0.676543  0.344827  1
  Mg  Mg1  1  0.903076  0.610599  0.643983  1
  Sn  Sn2  1  0.004333  0.049436  0.485292  1
  W  W3  1  0.997847  0.941322  0.998070  1
  O  O4  1  0.376010  0.119529  0.417574  1
  O  O5  1  0.590095  0.711681  0.575319  1
  O  O6  1  0.484614  0.378279  0.196264  1
  O  O7  1  0.486953  0.861665  0.790731  1
  O  O8  1  0.424544  0.954398  0.102775  1
  O  O9  1  0.645354  0.532174  0.915970  1
