# generated using pymatgen
data_Mg(FeO2)2
_symmetry_space_group_name_H-M   'P 1'
_cell_length_a   6.03363358
_cell_length_b   6.03363357
_cell_length_c   6.05327455
_cell_angle_alpha   60.10726759
_cell_angle_beta   90.00000000
_cell_angle_gamma   120.00000004
_symmetry_Int_Tables_number   1
_chemical_formula_structural   Mg(FeO2)2
_chemical_formula_sum   'Mg2 Fe4 O8'
_cell_volume   156.07576833
_cell_formula_units_Z   2
loop_
 _symmetry_equiv_pos_site_id
 _symmetry_equiv_pos_as_xyz
  1  'x, y, z'
loop_
 _atom_site_type_symbol
 _atom_site_label
 _atom_site_symmetry_multiplicity
 _atom_site_fract_x
 _atom_site_fract_y
 _atom_site_fract_z
 _atom_site_occupancy
  Mg  Mg0  1  0.626210  0.252421  0.121369  1
  Mg  Mg1  1  0.002888  0.005777  0.991335  1
  Fe  Fe2  1  0.627136  0.254273  0.629183  1
  Fe  Fe3  1  0.246168  0.492335  0.261498  1
  Fe  Fe4  1  0.627136  0.743681  0.629183  1
  Fe  Fe5  1  0.116545  0.743681  0.629183  1
  O  O6  1  0.852772  0.232401  0.387970  1
  O  O7  1  0.379629  0.232401  0.387970  1
  O  O8  1  0.869681  0.274995  0.855325  1
  O  O9  1  0.867660  0.735320  0.397020  1
  O  O10  1  0.405315  0.274995  0.855325  1
  O  O11  1  0.869681  0.739360  0.855325  1
  O  O12  1  0.379629  0.759258  0.387970  1
  O  O13  1  0.379552  0.759103  0.861346  1
