# generated using pymatgen
data_Ca2MnN2
_symmetry_space_group_name_H-M   'P 1'
_cell_length_a   4.99844669
_cell_length_b   6.00764900
_cell_length_c   6.57508341
_cell_angle_alpha   63.59502238
_cell_angle_beta   67.65980432
_cell_angle_gamma   65.41726262
_symmetry_Int_Tables_number   1
_chemical_formula_structural   Ca2MnN2
_chemical_formula_sum   'Ca4 Mn2 N4'
_cell_volume   156.13334391
_cell_formula_units_Z   2
loop_
 _symmetry_equiv_pos_site_id
 _symmetry_equiv_pos_as_xyz
  1  'x, y, z'
loop_
 _atom_site_type_symbol
 _atom_site_label
 _atom_site_symmetry_multiplicity
 _atom_site_fract_x
 _atom_site_fract_y
 _atom_site_fract_z
 _atom_site_occupancy
  Ca  Ca0  1  0.681040  0.250017  0.387903  1
  Ca  Ca1  1  0.318960  0.749983  0.612097  1
  Ca  Ca2  1  0.033636  0.705306  0.227420  1
  Ca  Ca3  1  0.966364  0.294694  0.772580  1
  Mn  Mn4  1  0.371171  0.127872  0.129787  1
  Mn  Mn5  1  0.628829  0.872128  0.870213  1
  N  N6  1  0.190839  0.245698  0.372624  1
  N  N7  1  0.809161  0.754302  0.627376  1
  N  N8  1  0.485847  0.224804  0.803502  1
  N  N9  1  0.514153  0.775196  0.196498  1
