# generated using pymatgen
data_YTiO3
_symmetry_space_group_name_H-M   'P 1'
_cell_length_a   6.09302946
_cell_length_b   6.09302914
_cell_length_c   12.01893955
_cell_angle_alpha   90.00000000
_cell_angle_beta   90.00000000
_cell_angle_gamma   120.00000173
_symmetry_Int_Tables_number   1
_chemical_formula_structural   YTiO3
_chemical_formula_sum   'Y6 Ti6 O18'
_cell_volume   386.42330281
_cell_formula_units_Z   6
loop_
 _symmetry_equiv_pos_site_id
 _symmetry_equiv_pos_as_xyz
  1  'x, y, z'
loop_
 _atom_site_type_symbol
 _atom_site_label
 _atom_site_symmetry_multiplicity
 _atom_site_fract_x
 _atom_site_fract_y
 _atom_site_fract_z
 _atom_site_occupancy
  Y  Y0  1  0.666667  0.333333  0.231652  1
  Y  Y1  1  0.333333  0.666667  0.731652  1
  Y  Y2  1  0.666667  0.333333  0.731652  1
  Y  Y3  1  0.333333  0.666667  0.231652  1
  Y  Y4  1  0.000000  0.000000  0.779440  1
  Y  Y5  1  0.000000  0.000000  0.279440  1
  Ti  Ti6  1  0.665652  0.000000  0.501384  1
  Ti  Ti7  1  0.665652  0.665652  0.001384  1
  Ti  Ti8  1  1.000000  0.334348  0.001384  1
  Ti  Ti9  1  0.000000  0.665652  0.501384  1
  Ti  Ti10  1  0.334348  0.334348  0.501384  1
  Ti  Ti11  1  0.334348  0.000000  0.001384  1
  O  O12  1  0.666667  0.333333  0.020568  1
  O  O13  1  0.333333  0.666667  0.520568  1
  O  O14  1  0.666667  0.333333  0.520568  1
  O  O15  1  0.333333  0.666667  0.020568  1
  O  O16  1  0.000000  0.000000  0.976488  1
  O  O17  1  0.000000  0.000000  0.476488  1
  O  O18  1  0.360582  0.000000  0.837921  1
  O  O19  1  0.360582  0.360582  0.337921  1
  O  O20  1  0.000000  0.639418  0.337921  1
  O  O21  1  1.000000  0.360582  0.837921  1
  O  O22  1  0.639418  0.639418  0.837921  1
  O  O23  1  0.639418  0.000000  0.337921  1
  O  O24  1  0.305116  0.000000  0.165573  1
  O  O25  1  0.305116  0.305116  0.665573  1
  O  O26  1  1.000000  0.694884  0.665573  1
  O  O27  1  0.000000  0.305116  0.165573  1
  O  O28  1  0.694884  0.694884  0.165573  1
  O  O29  1  0.694884  0.000000  0.665573  1
