# generated using pymatgen
data_Ba2YCr2F11
_symmetry_space_group_name_H-M   'P 1'
_cell_length_a   7.90986257
_cell_length_b   7.90986164
_cell_length_c   14.14020854
_cell_angle_alpha   90.00000000
_cell_angle_beta   90.00000000
_cell_angle_gamma   119.99999934
_symmetry_Int_Tables_number   1
_chemical_formula_structural   Ba2YCr2F11
_chemical_formula_sum   'Ba6 Y3 Cr6 F33'
_cell_volume   766.16846735
_cell_formula_units_Z   3
loop_
 _symmetry_equiv_pos_site_id
 _symmetry_equiv_pos_as_xyz
  1  'x, y, z'
loop_
 _atom_site_type_symbol
 _atom_site_label
 _atom_site_symmetry_multiplicity
 _atom_site_fract_x
 _atom_site_fract_y
 _atom_site_fract_z
 _atom_site_occupancy
  Ba  Ba0  1  0.557005  0.199133  0.667223  1
  Ba  Ba1  1  0.182115  0.514474  0.811014  1
  Ba  Ba2  1  0.642129  0.442995  0.000556  1
  Ba  Ba3  1  0.485526  0.667640  0.477680  1
  Ba  Ba4  1  0.332360  0.817885  0.144347  1
  Ba  Ba5  1  0.800867  0.357871  0.333889  1
  Y  Y6  1  0.150354  0.002944  0.883484  1
  Y  Y7  1  0.852590  0.849646  0.216817  1
  Y  Y8  1  0.997056  0.147410  0.550150  1
  Cr  Cr9  1  0.639039  0.994431  0.889659  1
  Cr  Cr10  1  0.770365  0.749174  0.724075  1
  Cr  Cr11  1  0.250826  0.021193  0.390741  1
  Cr  Cr12  1  0.355391  0.360961  0.222992  1
  Cr  Cr13  1  0.978807  0.229635  0.057408  1
  Cr  Cr14  1  0.005569  0.644609  0.556325  1
  F  F15  1  0.690085  0.101656  0.025441  1
  F  F16  1  0.507148  0.712209  0.926967  1
  F  F17  1  0.411572  0.309915  0.358774  1
  F  F18  1  0.095505  0.423616  0.475202  1
  F  F19  1  0.541722  0.273555  0.179852  1
  F  F20  1  0.923187  0.620819  0.184510  1
  F  F21  1  0.576384  0.671889  0.141869  1
  F  F22  1  0.379181  0.302367  0.851177  1
  F  F23  1  0.731832  0.458278  0.513185  1
  F  F24  1  0.262281  0.340533  0.086144  1
  F  F25  1  0.328111  0.904495  0.808536  1
  F  F26  1  0.898344  0.588428  0.692108  1
  F  F27  1  0.331392  0.028113  0.001050  1
  F  F28  1  0.035307  0.497051  0.020131  1
  F  F29  1  0.696721  0.668608  0.334383  1
  F  F30  1  0.287791  0.794939  0.593633  1
  F  F31  1  0.996212  0.164762  0.899626  1
  F  F32  1  0.078253  0.737719  0.419477  1
  F  F33  1  0.008319  0.054668  0.398872  1
  F  F34  1  0.971887  0.303279  0.667716  1
  F  F35  1  0.046350  0.991681  0.732206  1
  F  F36  1  0.502949  0.538257  0.686798  1
  F  F37  1  0.461743  0.964693  0.353464  1
  F  F38  1  0.168549  0.003788  0.232959  1
  F  F39  1  0.659467  0.921747  0.752811  1
  F  F40  1  0.726445  0.268168  0.846519  1
  F  F41  1  0.205061  0.492852  0.260300  1
  F  F42  1  0.916620  0.703066  0.884725  1
  F  F43  1  0.786446  0.083380  0.218058  1
  F  F44  1  0.945332  0.953650  0.065539  1
  F  F45  1  0.697633  0.076813  0.517843  1
  F  F46  1  0.835238  0.831451  0.566292  1
  F  F47  1  0.296934  0.213554  0.551391  1
