# generated using pymatgen
data_VZn2WO6
_symmetry_space_group_name_H-M   'P 1'
_cell_length_a   5.28215393
_cell_length_b   5.27159396
_cell_length_c   7.79682563
_cell_angle_alpha   90.00000000
_cell_angle_beta   90.02977244
_cell_angle_gamma   90.00000000
_symmetry_Int_Tables_number   1
_chemical_formula_structural   VZn2WO6
_chemical_formula_sum   'V2 Zn4 W2 O12'
_cell_volume   217.10547125
_cell_formula_units_Z   2
loop_
 _symmetry_equiv_pos_site_id
 _symmetry_equiv_pos_as_xyz
  1  'x, y, z'
loop_
 _atom_site_type_symbol
 _atom_site_label
 _atom_site_symmetry_multiplicity
 _atom_site_fract_x
 _atom_site_fract_y
 _atom_site_fract_z
 _atom_site_occupancy
  V  V0  1  0.500000  0.000000  0.000000  1
  V  V1  1  0.000001  0.499999  0.500000  1
  Zn  Zn2  1  0.011087  0.027083  0.251014  1
  Zn  Zn3  1  0.488913  0.527084  0.248986  1
  Zn  Zn4  1  0.988914  0.972918  0.748986  1
  Zn  Zn5  1  0.511086  0.472917  0.751014  1
  W  W6  1  0.500000  0.000000  0.499999  1
  W  W7  1  0.000000  0.499999  0.000000  1
  O  O8  1  0.665322  0.317571  0.435973  1
  O  O9  1  0.834678  0.817572  0.064027  1
  O  O10  1  0.334677  0.682429  0.564027  1
  O  O11  1  0.165323  0.182428  0.935973  1
  O  O12  1  0.171933  0.176759  0.567071  1
  O  O13  1  0.328067  0.676758  0.932929  1
  O  O14  1  0.828068  0.823241  0.432929  1
  O  O15  1  0.671932  0.323242  0.067071  1
  O  O16  1  0.116397  0.413928  0.246794  1
  O  O17  1  0.383604  0.913929  0.253205  1
  O  O18  1  0.616397  0.086071  0.746795  1
  O  O19  1  0.883604  0.586072  0.753206  1
