# generated using pymatgen
data_CaBiF5
_symmetry_space_group_name_H-M   'P 1'
_cell_length_a   6.02488015
_cell_length_b   8.35788006
_cell_length_c   11.07812339
_cell_angle_alpha   90.00000000
_cell_angle_beta   90.00000000
_cell_angle_gamma   109.83657946
_symmetry_Int_Tables_number   1
_chemical_formula_structural   CaBiF5
_chemical_formula_sum   'Ca4 Bi4 F20'
_cell_volume   524.74150157
_cell_formula_units_Z   4
loop_
 _symmetry_equiv_pos_site_id
 _symmetry_equiv_pos_as_xyz
  1  'x, y, z'
loop_
 _atom_site_type_symbol
 _atom_site_label
 _atom_site_symmetry_multiplicity
 _atom_site_fract_x
 _atom_site_fract_y
 _atom_site_fract_z
 _atom_site_occupancy
  Ca  Ca0  1  0.477085  0.748538  0.011675  1
  Ca  Ca1  1  0.522915  0.751462  0.511675  1
  Ca  Ca2  1  0.522915  0.251462  0.988325  1
  Ca  Ca3  1  0.477085  0.248538  0.488325  1
  Bi  Bi4  1  0.897936  0.602287  0.753370  1
  Bi  Bi5  1  0.102064  0.897713  0.253370  1
  Bi  Bi6  1  0.102064  0.397713  0.246630  1
  Bi  Bi7  1  0.897936  0.102287  0.746630  1
  F  F8  1  0.600437  0.566944  0.892523  1
  F  F9  1  0.399563  0.933056  0.392523  1
  F  F10  1  0.399563  0.433056  0.107477  1
  F  F11  1  0.600437  0.066944  0.607477  1
  F  F12  1  0.627004  0.489497  0.603371  1
  F  F13  1  0.372996  0.010503  0.103371  1
  F  F14  1  0.372996  0.510503  0.396629  1
  F  F15  1  0.627004  0.989497  0.896629  1
  F  F16  1  0.860218  0.802911  0.410751  1
  F  F17  1  0.139782  0.697089  0.910751  1
  F  F18  1  0.139782  0.197089  0.589249  1
  F  F19  1  0.860218  0.302911  0.089249  1
  F  F20  1  0.793117  0.852328  0.128585  1
  F  F21  1  0.206883  0.647672  0.628585  1
  F  F22  1  0.206883  0.147672  0.871415  1
  F  F23  1  0.793117  0.352328  0.371415  1
  F  F24  1  0.800220  0.827591  0.678581  1
  F  F25  1  0.199780  0.672409  0.178581  1
  F  F26  1  0.199780  0.172409  0.321420  1
  F  F27  1  0.800220  0.327591  0.821419  1
