# generated using pymatgen
data_ZnSn2P2O9
_symmetry_space_group_name_H-M   'P 1'
_cell_length_a   6.44205687
_cell_length_b   8.16937107
_cell_length_c   16.27933653
_cell_angle_alpha   89.99080393
_cell_angle_beta   89.99999537
_cell_angle_gamma   89.99999592
_symmetry_Int_Tables_number   1
_chemical_formula_structural   ZnSn2P2O9
_chemical_formula_sum   'Zn4 Sn8 P8 O36'
_cell_volume   856.74163569
_cell_formula_units_Z   4
loop_
 _symmetry_equiv_pos_site_id
 _symmetry_equiv_pos_as_xyz
  1  'x, y, z'
loop_
 _atom_site_type_symbol
 _atom_site_label
 _atom_site_symmetry_multiplicity
 _atom_site_fract_x
 _atom_site_fract_y
 _atom_site_fract_z
 _atom_site_occupancy
  Zn  Zn0  1  0.750003  0.013286  0.812131  1
  Zn  Zn1  1  0.750000  0.486671  0.312184  1
  Zn  Zn2  1  0.250000  0.513234  0.687891  1
  Zn  Zn3  1  0.250003  0.986651  0.187832  1
  Sn  Sn4  1  0.750000  0.379123  0.885457  1
  Sn  Sn5  1  0.250000  0.620844  0.114501  1
  Sn  Sn6  1  0.250002  0.879041  0.614553  1
  Sn  Sn7  1  0.750000  0.120877  0.385492  1
  Sn  Sn8  1  0.499992  0.000039  0.999978  1
  Sn  Sn9  1  0.499972  0.499946  0.500024  1
  Sn  Sn10  1  0.000028  0.499948  0.500025  1
  Sn  Sn11  1  0.000009  0.000010  0.999994  1
  P  P12  1  0.250000  0.387670  0.936388  1
  P  P13  1  0.750000  0.612473  0.063537  1
  P  P14  1  0.750002  0.887575  0.563578  1
  P  P15  1  0.250001  0.112426  0.436482  1
  P  P16  1  0.750000  0.400636  0.710316  1
  P  P17  1  0.750000  0.099426  0.210345  1
  P  P18  1  0.249999  0.900553  0.789674  1
  P  P19  1  0.250000  0.599344  0.289666  1
  O  O20  1  0.048914  0.575467  0.342065  1
  O  O21  1  0.548907  0.424489  0.657922  1
  O  O22  1  0.951101  0.075561  0.157926  1
  O  O23  1  0.451112  0.924390  0.842089  1
  O  O24  1  0.951091  0.424491  0.657922  1
  O  O25  1  0.451084  0.575466  0.342065  1
  O  O26  1  0.048885  0.924388  0.842087  1
  O  O27  1  0.548897  0.075564  0.157927  1
  O  O28  1  0.250004  0.277132  0.483530  1
  O  O29  1  0.750004  0.722858  0.516531  1
  O  O30  1  0.750004  0.777182  0.016519  1
  O  O31  1  0.250002  0.222969  0.983414  1
  O  O32  1  0.749995  0.142261  0.919476  1
  O  O33  1  0.249995  0.857711  0.080487  1
  O  O34  1  0.249998  0.642179  0.580529  1
  O  O35  1  0.749997  0.357712  0.419530  1
  O  O36  1  0.750001  0.231796  0.756036  1
  O  O37  1  0.250001  0.768195  0.243958  1
  O  O38  1  0.250002  0.731726  0.743980  1
  O  O39  1  0.750004  0.268252  0.256027  1
  O  O40  1  0.436070  0.096761  0.377038  1
  O  O41  1  0.936075  0.903258  0.623021  1
  O  O42  1  0.563924  0.596683  0.122968  1
  O  O43  1  0.063913  0.403448  0.876954  1
  O  O44  1  0.563929  0.903253  0.623021  1
  O  O45  1  0.063930  0.096763  0.377039  1
  O  O46  1  0.436087  0.403449  0.876953  1
  O  O47  1  0.936076  0.596679  0.122968  1
  O  O48  1  0.749998  0.466924  0.002479  1
  O  O49  1  0.250001  0.027822  0.716756  1
  O  O50  1  0.250001  0.472090  0.216726  1
  O  O51  1  0.750000  0.527912  0.783241  1
  O  O52  1  0.749998  0.033133  0.502550  1
  O  O53  1  0.250002  0.966871  0.497512  1
  O  O54  1  0.250000  0.533233  0.997436  1
  O  O55  1  0.750002  0.972159  0.283270  1
