# generated using pymatgen
data_Zn(NiS2)4
_symmetry_space_group_name_H-M   'P 1'
_cell_length_a   6.97043979
_cell_length_b   6.97043956
_cell_length_c   6.97044064
_cell_angle_alpha   57.66440409
_cell_angle_beta   57.66439877
_cell_angle_gamma   57.66440509
_symmetry_Int_Tables_number   1
_chemical_formula_structural   Zn(NiS2)4
_chemical_formula_sum   'Zn1 Ni4 S8'
_cell_volume   226.62481929
_cell_formula_units_Z   1
loop_
 _symmetry_equiv_pos_site_id
 _symmetry_equiv_pos_as_xyz
  1  'x, y, z'
loop_
 _atom_site_type_symbol
 _atom_site_label
 _atom_site_symmetry_multiplicity
 _atom_site_fract_x
 _atom_site_fract_y
 _atom_site_fract_z
 _atom_site_occupancy
  Zn  Zn0  1  0.500000  0.500001  0.499999  1
  Ni  Ni1  1  0.500001  0.999999  0.500001  1
  Ni  Ni2  1  0.999999  0.500000  0.500001  1
  Ni  Ni3  1  0.500000  0.500000  0.000000  1
  Ni  Ni4  1  0.000000  0.000000  0.000000  1
  S  S5  1  0.759253  0.272078  0.759253  1
  S  S6  1  0.240746  0.240747  0.727922  1
  S  S7  1  0.240746  0.727923  0.240746  1
  S  S8  1  0.727921  0.240747  0.240747  1
  S  S9  1  0.265252  0.265253  0.265252  1
  S  S10  1  0.734748  0.734748  0.734748  1
  S  S11  1  0.272079  0.759254  0.759253  1
  S  S12  1  0.759254  0.759254  0.272078  1
