# generated using pymatgen
data_CaLaTaCrO6
_symmetry_space_group_name_H-M   'P 1'
_cell_length_a   5.48775312
_cell_length_b   5.65142204
_cell_length_c   8.54495655
_cell_angle_alpha   90.00000000
_cell_angle_beta   89.26912315
_cell_angle_gamma   90.00000000
_symmetry_Int_Tables_number   1
_chemical_formula_structural   CaLaTaCrO6
_chemical_formula_sum   'Ca2 La2 Ta2 Cr2 O12'
_cell_volume   264.98837985
_cell_formula_units_Z   2
loop_
 _symmetry_equiv_pos_site_id
 _symmetry_equiv_pos_as_xyz
  1  'x, y, z'
loop_
 _atom_site_type_symbol
 _atom_site_label
 _atom_site_symmetry_multiplicity
 _atom_site_fract_x
 _atom_site_fract_y
 _atom_site_fract_z
 _atom_site_occupancy
  Ca  Ca0  1  0.478766  0.449922  0.744958  1
  Ca  Ca1  1  0.978766  0.050078  0.244958  1
  La  La2  1  0.019150  0.953386  0.755792  1
  La  La3  1  0.519150  0.546614  0.255792  1
  Ta  Ta4  1  0.500203  0.003197  0.001917  1
  Ta  Ta5  1  0.000203  0.496803  0.501917  1
  Cr  Cr6  1  0.501915  0.998407  0.500612  1
  Cr  Cr7  1  0.001915  0.501593  0.000612  1
  O  O8  1  0.106976  0.452649  0.278896  1
  O  O9  1  0.212952  0.207363  0.950946  1
  O  O10  1  0.202206  0.214115  0.564643  1
  O  O11  1  0.301054  0.717891  0.934054  1
  O  O12  1  0.289607  0.701029  0.547914  1
  O  O13  1  0.387172  0.956938  0.220266  1
  O  O14  1  0.606976  0.047351  0.778896  1
  O  O15  1  0.712952  0.292637  0.450946  1
  O  O16  1  0.702206  0.285885  0.064643  1
  O  O17  1  0.801054  0.782109  0.434054  1
  O  O18  1  0.789607  0.798971  0.047914  1
  O  O19  1  0.887172  0.543062  0.720266  1
