# generated using pymatgen
data_TiZnF4
_symmetry_space_group_name_H-M   'P 1'
_cell_length_a   5.14795812
_cell_length_b   5.14899884
_cell_length_c   6.32182586
_cell_angle_alpha   113.69347941
_cell_angle_beta   114.07487641
_cell_angle_gamma   90.00063306
_symmetry_Int_Tables_number   1
_chemical_formula_structural   TiZnF4
_chemical_formula_sum   'Ti2 Zn2 F8'
_cell_volume   137.37916319
_cell_formula_units_Z   2
loop_
 _symmetry_equiv_pos_site_id
 _symmetry_equiv_pos_as_xyz
  1  'x, y, z'
loop_
 _atom_site_type_symbol
 _atom_site_label
 _atom_site_symmetry_multiplicity
 _atom_site_fract_x
 _atom_site_fract_y
 _atom_site_fract_z
 _atom_site_occupancy
  Ti  Ti0  1  0.004737  0.499222  0.001924  1
  Ti  Ti1  1  0.503934  0.000410  0.002412  1
  Zn  Zn2  1  0.253614  0.252939  0.502998  1
  Zn  Zn3  1  0.752855  0.752758  0.501494  1
  F  F4  1  0.883493  0.370755  0.250342  1
  F  F5  1  0.630858  0.124934  0.759110  1
  F  F6  1  0.133107  0.636213  0.759141  1
  F  F7  1  0.127157  0.133226  0.752664  1
  F  F8  1  0.374450  0.873879  0.250526  1
  F  F9  1  0.379330  0.370508  0.242907  1
  F  F10  1  0.871577  0.867891  0.244567  1
  F  F11  1  0.630053  0.621437  0.752502  1
