# generated using pymatgen
data_MgNiF5
_symmetry_space_group_name_H-M   'P 1'
_cell_length_a   5.18590409
_cell_length_b   5.20130728
_cell_length_c   7.39538039
_cell_angle_alpha   97.91742926
_cell_angle_beta   109.87069981
_cell_angle_gamma   109.20718331
_symmetry_Int_Tables_number   1
_chemical_formula_structural   MgNiF5
_chemical_formula_sum   'Mg2 Ni2 F10'
_cell_volume   170.02106705
_cell_formula_units_Z   2
loop_
 _symmetry_equiv_pos_site_id
 _symmetry_equiv_pos_as_xyz
  1  'x, y, z'
loop_
 _atom_site_type_symbol
 _atom_site_label
 _atom_site_symmetry_multiplicity
 _atom_site_fract_x
 _atom_site_fract_y
 _atom_site_fract_z
 _atom_site_occupancy
  Mg  Mg0  1  0.289497  0.537221  0.751061  1
  Mg  Mg1  1  0.713674  0.467372  0.250272  1
  Ni  Ni2  1  0.002442  0.002571  0.000850  1
  Ni  Ni3  1  0.501349  0.001998  0.500928  1
  F  F4  1  0.369959  0.125481  0.247363  1
  F  F5  1  0.634213  0.878494  0.754308  1
  F  F6  1  0.590425  0.740255  0.375723  1
  F  F7  1  0.860715  0.223092  0.128462  1
  F  F8  1  0.758866  0.683750  0.049521  1
  F  F9  1  0.144088  0.715617  0.458415  1
  F  F10  1  0.247210  0.322247  0.953058  1
  F  F11  1  0.858330  0.287933  0.544275  1
  F  F12  1  0.144339  0.782361  0.872970  1
  F  F13  1  0.410665  0.262524  0.625164  1
