# generated using pymatgen
data_CaSb3P3O13
_symmetry_space_group_name_H-M   'P 1'
_cell_length_a   6.97776520
_cell_length_b   8.20479615
_cell_length_c   11.16964240
_cell_angle_alpha   102.12181824
_cell_angle_beta   90.00000000
_cell_angle_gamma   90.00000000
_symmetry_Int_Tables_number   1
_chemical_formula_structural   CaSb3P3O13
_chemical_formula_sum   'Ca2 Sb6 P6 O26'
_cell_volume   625.21662279
_cell_formula_units_Z   2
loop_
 _symmetry_equiv_pos_site_id
 _symmetry_equiv_pos_as_xyz
  1  'x, y, z'
loop_
 _atom_site_type_symbol
 _atom_site_label
 _atom_site_symmetry_multiplicity
 _atom_site_fract_x
 _atom_site_fract_y
 _atom_site_fract_z
 _atom_site_occupancy
  Ca  Ca0  1  0.750000  0.625726  0.177710  1
  Ca  Ca1  1  0.250000  0.374274  0.822290  1
  Sb  Sb2  1  0.250000  0.351267  0.230642  1
  Sb  Sb3  1  0.750000  0.648733  0.769358  1
  Sb  Sb4  1  0.250000  0.760734  0.439206  1
  Sb  Sb5  1  0.500000  0.000000  -0.000000  1
  Sb  Sb6  1  0.750000  0.239266  0.560794  1
  Sb  Sb7  1  0.000000  0.000000  -0.000000  1
  P  P8  1  0.250000  0.191838  0.513476  1
  P  P9  1  0.750000  0.808162  0.486524  1
  P  P10  1  0.250000  0.738687  0.763132  1
  P  P11  1  0.750000  0.261313  0.236868  1
  P  P12  1  0.750000  0.314892  0.893754  1
  P  P13  1  0.250000  0.685108  0.106246  1
  O  O14  1  0.750000  0.322959  0.755357  1
  O  O15  1  0.574296  0.771108  0.399271  1
  O  O16  1  0.250000  0.805814  0.646596  1
  O  O17  1  0.558793  0.225170  0.914329  1
  O  O18  1  0.750000  0.697820  0.583697  1
  O  O19  1  0.750000  0.870244  0.887661  1
  O  O20  1  0.250000  0.302180  0.416303  1
  O  O21  1  0.058793  0.774830  0.085671  1
  O  O22  1  0.250000  0.006688  0.438701  1
  O  O23  1  0.750000  0.993312  0.561299  1
  O  O24  1  0.076951  0.625254  0.779886  1
  O  O25  1  0.250000  0.129756  0.112339  1
  O  O26  1  0.576951  0.374746  0.220114  1
  O  O27  1  0.750000  0.495397  0.969022  1
  O  O28  1  0.750000  0.194186  0.353404  1
  O  O29  1  0.441207  0.774830  0.085671  1
  O  O30  1  0.925704  0.771108  0.399271  1
  O  O31  1  0.425704  0.228892  0.600729  1
  O  O32  1  0.423049  0.625254  0.779886  1
  O  O33  1  0.250000  0.677041  0.244643  1
  O  O34  1  0.750000  0.100427  0.129784  1
  O  O35  1  0.250000  0.899573  0.870216  1
  O  O36  1  0.923049  0.374746  0.220114  1
  O  O37  1  0.941207  0.225170  0.914329  1
  O  O38  1  0.074296  0.228892  0.600729  1
  O  O39  1  0.250000  0.504603  0.030978  1
