# generated using pymatgen
data_VZnBiO5
_symmetry_space_group_name_H-M   'P 1'
_cell_length_a   5.38535486
_cell_length_b   7.77035152
_cell_length_c   11.80406608
_cell_angle_alpha   90.00000000
_cell_angle_beta   90.00000000
_cell_angle_gamma   107.20423655
_symmetry_Int_Tables_number   1
_chemical_formula_structural   VZnBiO5
_chemical_formula_sum   'V4 Zn4 Bi4 O20'
_cell_volume   471.85289360
_cell_formula_units_Z   4
loop_
 _symmetry_equiv_pos_site_id
 _symmetry_equiv_pos_as_xyz
  1  'x, y, z'
loop_
 _atom_site_type_symbol
 _atom_site_label
 _atom_site_symmetry_multiplicity
 _atom_site_fract_x
 _atom_site_fract_y
 _atom_site_fract_z
 _atom_site_occupancy
  V  V0  1  0.787208  0.967740  0.647892  1
  V  V1  1  0.212792  0.032260  0.352108  1
  V  V2  1  0.712792  0.532260  0.147892  1
  V  V3  1  0.287208  0.467740  0.852108  1
  Zn  Zn4  1  0.624533  0.173072  0.919105  1
  Zn  Zn5  1  0.375467  0.826928  0.080895  1
  Zn  Zn6  1  0.875467  0.326928  0.419105  1
  Zn  Zn7  1  0.124533  0.673072  0.580895  1
  Bi  Bi8  1  0.118823  0.176967  0.095652  1
  Bi  Bi9  1  0.881177  0.823033  0.904348  1
  Bi  Bi10  1  0.618823  0.676967  0.404348  1
  Bi  Bi11  1  0.381177  0.323033  0.595652  1
  O  O12  1  0.569942  0.332043  0.074241  1
  O  O13  1  0.032287  0.326293  0.933176  1
  O  O14  1  0.484026  0.642407  0.174771  1
  O  O15  1  0.755720  0.514217  0.525404  1
  O  O16  1  0.805963  0.488924  0.284878  1
  O  O17  1  0.305963  0.988924  0.215122  1
  O  O18  1  0.532287  0.826293  0.566824  1
  O  O19  1  0.467713  0.173707  0.433176  1
  O  O20  1  0.244280  0.485783  0.474596  1
  O  O21  1  0.930058  0.167957  0.574241  1
  O  O22  1  0.194037  0.511076  0.715122  1
  O  O23  1  0.430058  0.667957  0.925759  1
  O  O24  1  0.069942  0.832043  0.425759  1
  O  O25  1  0.694037  0.011076  0.784878  1
  O  O26  1  0.744280  0.985783  0.025404  1
  O  O27  1  0.255720  0.014217  0.974596  1
  O  O28  1  0.515974  0.357593  0.825229  1
  O  O29  1  0.967713  0.673707  0.066824  1
  O  O30  1  0.015974  0.857593  0.674771  1
  O  O31  1  0.984026  0.142407  0.325229  1
