# generated using pymatgen
data_Ca2Sn9O13
_symmetry_space_group_name_H-M   'P 1'
_cell_length_a   3.27100081
_cell_length_b   5.84077620
_cell_length_c   22.41696389
_cell_angle_alpha   98.24832389
_cell_angle_beta   90.01977363
_cell_angle_gamma   106.28328113
_symmetry_Int_Tables_number   1
_chemical_formula_structural   Ca2Sn9O13
_chemical_formula_sum   'Ca2 Sn9 O13'
_cell_volume   406.47687407
_cell_formula_units_Z   1
loop_
 _symmetry_equiv_pos_site_id
 _symmetry_equiv_pos_as_xyz
  1  'x, y, z'
loop_
 _atom_site_type_symbol
 _atom_site_label
 _atom_site_symmetry_multiplicity
 _atom_site_fract_x
 _atom_site_fract_y
 _atom_site_fract_z
 _atom_site_occupancy
  Ca  Ca0  1  0.245117  0.491205  0.212252  1
  Ca  Ca1  1  0.754883  0.508795  0.787748  1
  Sn  Sn2  1  0.500000  -0.000000  0.500000  1
  Sn  Sn3  1  0.644690  0.287993  0.042264  1
  Sn  Sn4  1  0.355310  0.712007  0.957736  1
  Sn  Sn5  1  0.774496  0.549964  0.416513  1
  Sn  Sn6  1  0.225504  0.450036  0.583487  1
  Sn  Sn7  1  0.946719  0.894352  0.137213  1
  Sn  Sn8  1  0.053281  0.105648  0.862787  1
  Sn  Sn9  1  0.042326  0.084605  0.304770  1
  Sn  Sn10  1  0.957674  0.915395  0.695230  1
  O  O11  1  -0.000000  -0.000000  0.000000  1
  O  O12  1  0.903343  0.807186  0.226878  1
  O  O13  1  0.096657  0.192814  0.773122  1
  O  O14  1  0.326522  0.654136  0.119044  1
  O  O15  1  0.673478  0.345864  0.880956  1
  O  O16  1  0.581164  0.161696  0.135008  1
  O  O17  1  0.418836  0.838304  0.864992  1
  O  O18  1  0.645844  0.291607  0.268759  1
  O  O19  1  0.354156  0.708393  0.731241  1
  O  O20  1  0.401574  0.803325  0.412730  1
  O  O21  1  0.598426  0.196675  0.587270  1
  O  O22  1  0.119540  0.238939  0.489691  1
  O  O23  1  0.880460  0.761061  0.510309  1
