# generated using pymatgen
data_YCr(WO4)2
_symmetry_space_group_name_H-M   'P 1'
_cell_length_a   5.30612645
_cell_length_b   5.71311142
_cell_length_c   9.79804992
_cell_angle_alpha   89.99980249
_cell_angle_beta   92.71703747
_cell_angle_gamma   90.00022689
_symmetry_Int_Tables_number   1
_chemical_formula_structural   YCr(WO4)2
_chemical_formula_sum   'Y2 Cr2 W4 O16'
_cell_volume   296.68899593
_cell_formula_units_Z   2
loop_
 _symmetry_equiv_pos_site_id
 _symmetry_equiv_pos_as_xyz
  1  'x, y, z'
loop_
 _atom_site_type_symbol
 _atom_site_label
 _atom_site_symmetry_multiplicity
 _atom_site_fract_x
 _atom_site_fract_y
 _atom_site_fract_z
 _atom_site_occupancy
  Y  Y0  1  0.250001  0.665804  0.250000  1
  Y  Y1  1  0.749998  0.334195  0.750000  1
  Cr  Cr2  1  0.750009  0.332674  0.250002  1
  Cr  Cr3  1  0.249991  0.667325  0.749998  1
  W  W4  1  0.250890  0.162038  0.496595  1
  W  W5  1  0.249106  0.162033  0.003404  1
  W  W6  1  0.749110  0.837962  0.503405  1
  W  W7  1  0.750894  0.837967  0.996596  1
  O  O8  1  0.421556  0.358268  0.142217  1
  O  O9  1  0.078438  0.358270  0.357778  1
  O  O10  1  0.578444  0.641731  0.857783  1
  O  O11  1  0.921561  0.641729  0.642222  1
  O  O12  1  0.437779  0.895651  0.614696  1
  O  O13  1  0.062224  0.895662  0.885298  1
  O  O14  1  0.562221  0.104349  0.385304  1
  O  O15  1  0.937776  0.104338  0.114702  1
  O  O16  1  0.872343  0.609095  0.125704  1
  O  O17  1  0.627673  0.609104  0.374290  1
  O  O18  1  0.127657  0.390906  0.874296  1
  O  O19  1  0.372327  0.390897  0.625710  1
  O  O20  1  0.421814  0.883891  0.095458  1
  O  O21  1  0.578186  0.116110  0.904542  1
  O  O22  1  0.078184  0.883903  0.404537  1
  O  O23  1  0.921816  0.116098  0.595463  1
