# generated using pymatgen
data_Ba2Mn3O7
_symmetry_space_group_name_H-M   'P 1'
_cell_length_a   3.79356299
_cell_length_b   3.82279973
_cell_length_c   13.43203502
_cell_angle_alpha   90.13523509
_cell_angle_beta   90.13902400
_cell_angle_gamma   89.98584209
_symmetry_Int_Tables_number   1
_chemical_formula_structural   Ba2Mn3O7
_chemical_formula_sum   'Ba2 Mn3 O7'
_cell_volume   194.79067440
_cell_formula_units_Z   1
loop_
 _symmetry_equiv_pos_site_id
 _symmetry_equiv_pos_as_xyz
  1  'x, y, z'
loop_
 _atom_site_type_symbol
 _atom_site_label
 _atom_site_symmetry_multiplicity
 _atom_site_fract_x
 _atom_site_fract_y
 _atom_site_fract_z
 _atom_site_occupancy
  Ba  Ba0  1  0.498351  0.501168  0.807312  1
  Ba  Ba1  1  0.493896  0.503573  0.192530  1
  Mn  Mn2  1  0.998770  0.999537  0.635474  1
  Mn  Mn3  1  0.998013  0.005171  0.364706  1
  Mn  Mn4  1  0.001436  0.001995  -0.000304  1
  O  O5  1  0.034081  0.502341  0.000142  1
  O  O6  1  0.499036  0.000322  0.655533  1
  O  O7  1  0.497844  0.004463  0.344521  1
  O  O8  1  0.999613  0.499852  0.653415  1
  O  O9  1  0.998312  0.504858  0.346808  1
  O  O10  1  0.994822  0.001348  0.859198  1
  O  O11  1  0.988249  0.003237  0.141130  1
