# generated using pymatgen
data_Co(WO4)2
_symmetry_space_group_name_H-M   'P 1'
_cell_length_a   5.01178556
_cell_length_b   5.87033744
_cell_length_c   9.23941281
_cell_angle_alpha   90.00000000
_cell_angle_beta   93.15378294
_cell_angle_gamma   90.00000000
_symmetry_Int_Tables_number   1
_chemical_formula_structural   Co(WO4)2
_chemical_formula_sum   'Co2 W4 O16'
_cell_volume   271.41988745
_cell_formula_units_Z   2
loop_
 _symmetry_equiv_pos_site_id
 _symmetry_equiv_pos_as_xyz
  1  'x, y, z'
loop_
 _atom_site_type_symbol
 _atom_site_label
 _atom_site_symmetry_multiplicity
 _atom_site_fract_x
 _atom_site_fract_y
 _atom_site_fract_z
 _atom_site_occupancy
  Co  Co0  1  0.750000  0.343430  0.250000  1
  Co  Co1  1  0.250000  0.656569  0.750000  1
  W  W2  1  0.241665  0.169637  0.509169  1
  W  W3  1  0.258334  0.169637  0.990832  1
  W  W4  1  0.758335  0.830363  0.490831  1
  W  W5  1  0.741666  0.830363  0.009168  1
  O  O6  1  0.438583  0.339506  0.144381  1
  O  O7  1  0.061416  0.339506  0.355618  1
  O  O8  1  0.561417  0.660493  0.855619  1
  O  O9  1  0.938583  0.660493  0.644382  1
  O  O10  1  0.428448  0.895351  0.606618  1
  O  O11  1  0.071552  0.895351  0.893382  1
  O  O12  1  0.571552  0.104649  0.393382  1
  O  O13  1  0.928448  0.104649  0.106618  1
  O  O14  1  0.870579  0.595378  0.117939  1
  O  O15  1  0.629421  0.595378  0.382061  1
  O  O16  1  0.129421  0.404623  0.882061  1
  O  O17  1  0.370579  0.404623  0.617939  1
  O  O18  1  0.444610  0.891808  0.112581  1
  O  O19  1  0.555390  0.108193  0.887419  1
  O  O20  1  0.055391  0.891808  0.387420  1
  O  O21  1  0.944609  0.108193  0.612580  1
