# generated using pymatgen
data_Ge2MoO6
_symmetry_space_group_name_H-M   'P 1'
_cell_length_a   5.67306651
_cell_length_b   6.81747993
_cell_length_c   6.81748051
_cell_angle_alpha   83.82360815
_cell_angle_beta   77.44223578
_cell_angle_gamma   77.44222730
_symmetry_Int_Tables_number   1
_chemical_formula_structural   Ge2MoO6
_chemical_formula_sum   'Ge4 Mo2 O12'
_cell_volume   250.70440685
_cell_formula_units_Z   2
loop_
 _symmetry_equiv_pos_site_id
 _symmetry_equiv_pos_as_xyz
  1  'x, y, z'
loop_
 _atom_site_type_symbol
 _atom_site_label
 _atom_site_symmetry_multiplicity
 _atom_site_fract_x
 _atom_site_fract_y
 _atom_site_fract_z
 _atom_site_occupancy
  Ge  Ge0  1  0.761198  0.384670  0.209748  1
  Ge  Ge1  1  0.738802  0.790252  0.615330  1
  Ge  Ge2  1  0.238802  0.615330  0.790252  1
  Ge  Ge3  1  0.261198  0.209748  0.384670  1
  Mo  Mo4  1  0.750000  0.903598  0.096402  1
  Mo  Mo5  1  0.250000  0.096402  0.903598  1
  O  O6  1  0.501459  0.335145  0.385576  1
  O  O7  1  0.998541  0.614424  0.664855  1
  O  O8  1  0.498541  0.664855  0.614424  1
  O  O9  1  0.001459  0.385576  0.335145  1
  O  O10  1  0.190426  0.099374  0.627956  1
  O  O11  1  0.309574  0.372045  0.900626  1
  O  O12  1  0.809574  0.900626  0.372045  1
  O  O13  1  0.690426  0.627956  0.099374  1
  O  O14  1  0.864579  0.184564  0.039063  1
  O  O15  1  0.635421  0.960937  0.815436  1
  O  O16  1  0.135421  0.815436  0.960937  1
  O  O17  1  0.364579  0.039063  0.184564  1
