# generated using pymatgen
data_Sr2GaSn2O7
_symmetry_space_group_name_H-M   'P 1'
_cell_length_a   5.69975772
_cell_length_b   5.85775352
_cell_length_c   12.16902921
_cell_angle_alpha   103.36923231
_cell_angle_beta   103.58994970
_cell_angle_gamma   90.01915712
_symmetry_Int_Tables_number   1
_chemical_formula_structural   Sr2GaSn2O7
_chemical_formula_sum   'Sr4 Ga2 Sn4 O14'
_cell_volume   383.57662008
_cell_formula_units_Z   2
loop_
 _symmetry_equiv_pos_site_id
 _symmetry_equiv_pos_as_xyz
  1  'x, y, z'
loop_
 _atom_site_type_symbol
 _atom_site_label
 _atom_site_symmetry_multiplicity
 _atom_site_fract_x
 _atom_site_fract_y
 _atom_site_fract_z
 _atom_site_occupancy
  Sr  Sr0  1  0.146193  0.171377  0.307422  1
  Sr  Sr1  1  0.842595  0.826754  0.693296  1
  Sr  Sr2  1  0.655691  0.623929  0.309113  1
  Sr  Sr3  1  0.346231  0.373493  0.691069  1
  Ga  Ga4  1  0.210611  0.832453  0.503205  1
  Ga  Ga5  1  0.707689  0.164709  0.497440  1
  Sn  Sn6  1  0.440375  0.936854  0.874094  1
  Sn  Sn7  1  0.088766  0.590613  0.172334  1
  Sn  Sn8  1  0.917825  0.407344  0.828155  1
  Sn  Sn9  1  0.563603  0.060304  0.125177  1
  O  O10  1  0.831547  0.336837  0.159618  1
  O  O11  1  0.879012  0.887606  0.500713  1
  O  O12  1  0.328048  0.331773  0.161885  1
  O  O13  1  0.838802  0.369239  0.644555  1
  O  O14  1  0.660717  0.155217  0.816975  1
  O  O15  1  0.163994  0.154979  0.816664  1
  O  O16  1  0.378507  0.109528  0.499763  1
  O  O17  1  0.166120  0.667854  0.838748  1
  O  O18  1  0.671973  0.659210  0.840448  1
  O  O19  1  0.346389  0.761954  0.642216  1
  O  O20  1  0.192848  0.627485  0.356124  1
  O  O21  1  0.706635  0.237470  0.359425  1
  O  O22  1  0.841322  0.841197  0.182728  1
  O  O23  1  0.345449  0.845038  0.184536  1
