# generated using pymatgen
data_Ba2YCu2F11
_symmetry_space_group_name_H-M   'P 1'
_cell_length_a   7.83658904
_cell_length_b   7.83658809
_cell_length_c   14.04772340
_cell_angle_alpha   90.00000000
_cell_angle_beta   90.00000000
_cell_angle_gamma   120.00000857
_symmetry_Int_Tables_number   1
_chemical_formula_structural   Ba2YCu2F11
_chemical_formula_sum   'Ba6 Y3 Cu6 F33'
_cell_volume   747.12046706
_cell_formula_units_Z   3
loop_
 _symmetry_equiv_pos_site_id
 _symmetry_equiv_pos_as_xyz
  1  'x, y, z'
loop_
 _atom_site_type_symbol
 _atom_site_label
 _atom_site_symmetry_multiplicity
 _atom_site_fract_x
 _atom_site_fract_y
 _atom_site_fract_z
 _atom_site_occupancy
  Ba  Ba0  1  0.560322  0.201605  0.668832  1
  Ba  Ba1  1  0.186157  0.519117  0.810503  1
  Ba  Ba2  1  0.641285  0.439678  0.002165  1
  Ba  Ba3  1  0.480883  0.667040  0.477169  1
  Ba  Ba4  1  0.332961  0.813843  0.143836  1
  Ba  Ba5  1  0.798395  0.358715  0.335498  1
  Y  Y6  1  0.146106  0.999742  0.883518  1
  Y  Y7  1  0.853637  0.853894  0.216851  1
  Y  Y8  1  0.000258  0.146363  0.550184  1
  Cu  Cu9  1  0.643092  0.995050  0.890309  1
  Cu  Cu10  1  0.775589  0.753372  0.718986  1
  Cu  Cu11  1  0.246628  0.022217  0.385652  1
  Cu  Cu12  1  0.351957  0.356908  0.223642  1
  Cu  Cu13  1  0.977783  0.224411  0.052319  1
  Cu  Cu14  1  0.004950  0.648043  0.556975  1
  F  F15  1  0.696349  0.101547  0.022144  1
  F  F16  1  0.511640  0.726611  0.930693  1
  F  F17  1  0.405198  0.303651  0.355477  1
  F  F18  1  0.092302  0.423060  0.473952  1
  F  F19  1  0.533963  0.279481  0.180403  1
  F  F20  1  0.924561  0.620260  0.183189  1
  F  F21  1  0.576940  0.669242  0.140619  1
  F  F22  1  0.379740  0.304300  0.849856  1
  F  F23  1  0.745517  0.466037  0.513736  1
  F  F24  1  0.244767  0.332480  0.094193  1
  F  F25  1  0.330758  0.907698  0.807286  1
  F  F26  1  0.898453  0.594802  0.688811  1
  F  F27  1  0.330779  0.030438  0.002358  1
  F  F28  1  0.031200  0.482373  0.020544  1
  F  F29  1  0.699659  0.669221  0.335691  1
  F  F30  1  0.273389  0.785027  0.597359  1
  F  F31  1  0.998391  0.168631  0.897622  1
  F  F32  1  0.087713  0.755233  0.427526  1
  F  F33  1  0.012427  0.055739  0.395423  1
  F  F34  1  0.969562  0.300341  0.669024  1
  F  F35  1  0.043312  0.987573  0.728757  1
  F  F36  1  0.517627  0.548828  0.687211  1
  F  F37  1  0.451172  0.968800  0.353877  1
  F  F38  1  0.170241  0.001609  0.230955  1
  F  F39  1  0.667520  0.912287  0.760860  1
  F  F40  1  0.720519  0.254483  0.847070  1
  F  F41  1  0.214973  0.488360  0.264026  1
  F  F42  1  0.918839  0.692764  0.885300  1
  F  F43  1  0.773925  0.081161  0.218633  1
  F  F44  1  0.944261  0.956688  0.062090  1
  F  F45  1  0.695700  0.075439  0.516522  1
  F  F46  1  0.831369  0.829759  0.564288  1
  F  F47  1  0.307236  0.226075  0.551966  1
