# generated using pymatgen
data_Li(MnS2)2
_symmetry_space_group_name_H-M   'P 1'
_cell_length_a   7.10820927
_cell_length_b   7.10820956
_cell_length_c   7.11573337
_cell_angle_alpha   121.75156903
_cell_angle_beta   120.42862397
_cell_angle_gamma   88.06333013
_symmetry_Int_Tables_number   1
_chemical_formula_structural   Li(MnS2)2
_chemical_formula_sum   'Li2 Mn4 S8'
_cell_volume   249.98351082
_cell_formula_units_Z   2
loop_
 _symmetry_equiv_pos_site_id
 _symmetry_equiv_pos_as_xyz
  1  'x, y, z'
loop_
 _atom_site_type_symbol
 _atom_site_label
 _atom_site_symmetry_multiplicity
 _atom_site_fract_x
 _atom_site_fract_y
 _atom_site_fract_z
 _atom_site_occupancy
  Li  Li0  1  0.000000  0.500001  0.000001  1
  Li  Li1  1  0.000001  0.000000  0.500000  1
  Mn  Mn2  1  0.385551  0.635551  0.750000  1
  Mn  Mn3  1  0.614449  0.364450  0.250000  1
  Mn  Mn4  1  0.500001  0.000000  0.500000  1
  Mn  Mn5  1  0.000000  0.000000  0.000000  1
  S  S6  1  0.754377  0.768642  0.515604  1
  S  S7  1  0.753039  0.238775  0.984398  1
  S  S8  1  0.232354  0.231489  -0.000346  1
  S  S9  1  0.245623  0.231358  0.484397  1
  S  S10  1  0.268164  0.767300  0.499653  1
  S  S11  1  0.246961  0.761226  0.015604  1
  S  S12  1  0.731835  0.232699  0.500346  1
  S  S13  1  0.767646  0.768512  0.000346  1
