# generated using pymatgen
data_CaCr(GeO3)2
_symmetry_space_group_name_H-M   'P 1'
_cell_length_a   5.50731073
_cell_length_b   7.03464721
_cell_length_c   7.03464710
_cell_angle_alpha   83.89195452
_cell_angle_beta   77.85170441
_cell_angle_gamma   77.85170336
_symmetry_Int_Tables_number   1
_chemical_formula_structural   CaCr(GeO3)2
_chemical_formula_sum   'Ca2 Cr2 Ge4 O12'
_cell_volume   259.91589108
_cell_formula_units_Z   2
loop_
 _symmetry_equiv_pos_site_id
 _symmetry_equiv_pos_as_xyz
  1  'x, y, z'
loop_
 _atom_site_type_symbol
 _atom_site_label
 _atom_site_symmetry_multiplicity
 _atom_site_fract_x
 _atom_site_fract_y
 _atom_site_fract_z
 _atom_site_occupancy
  Ca  Ca0  1  0.750000  0.301817  0.698183  1
  Ca  Ca1  1  0.250000  0.698183  0.301817  1
  Cr  Cr2  1  0.750000  0.905283  0.094717  1
  Cr  Cr3  1  0.250000  0.094717  0.905283  1
  Ge  Ge4  1  0.780281  0.381916  0.187939  1
  Ge  Ge5  1  0.719719  0.812061  0.618084  1
  Ge  Ge6  1  0.219719  0.618084  0.812061  1
  Ge  Ge7  1  0.280281  0.187939  0.381916  1
  O  O8  1  0.523686  0.325115  0.386650  1
  O  O9  1  0.976314  0.613350  0.674885  1
  O  O10  1  0.476314  0.674885  0.613350  1
  O  O11  1  0.023686  0.386650  0.325115  1
  O  O12  1  0.154641  0.112822  0.617635  1
  O  O13  1  0.345359  0.382365  0.887178  1
  O  O14  1  0.845359  0.887178  0.382365  1
  O  O15  1  0.654641  0.617635  0.112822  1
  O  O16  1  0.872126  0.205349  0.014134  1
  O  O17  1  0.627874  0.985866  0.794651  1
  O  O18  1  0.127874  0.794651  0.985866  1
  O  O19  1  0.372126  0.014134  0.205349  1
