# generated using pymatgen
data_SrVZn(PO4)2
_symmetry_space_group_name_H-M   'P 1'
_cell_length_a   5.53321919
_cell_length_b   7.04323912
_cell_length_c   9.52228338
_cell_angle_alpha   110.93407685
_cell_angle_beta   101.57921352
_cell_angle_gamma   98.14936543
_symmetry_Int_Tables_number   1
_chemical_formula_structural   SrVZn(PO4)2
_chemical_formula_sum   'Sr2 V2 Zn2 P4 O16'
_cell_volume   330.18034421
_cell_formula_units_Z   2
loop_
 _symmetry_equiv_pos_site_id
 _symmetry_equiv_pos_as_xyz
  1  'x, y, z'
loop_
 _atom_site_type_symbol
 _atom_site_label
 _atom_site_symmetry_multiplicity
 _atom_site_fract_x
 _atom_site_fract_y
 _atom_site_fract_z
 _atom_site_occupancy
  Sr  Sr0  1  0.245487  0.798057  0.046578  1
  Sr  Sr1  1  0.754513  0.201943  0.953422  1
  V  V2  1  0.639640  0.850707  0.561479  1
  V  V3  1  0.360360  0.149293  0.438521  1
  Zn  Zn4  1  0.993976  0.378479  0.646785  1
  Zn  Zn5  1  0.006024  0.621521  0.353215  1
  P  P6  1  0.390153  0.422502  0.231605  1
  P  P7  1  0.609847  0.577498  0.768395  1
  P  P8  1  0.839475  0.021767  0.300617  1
  P  P9  1  0.160525  0.978233  0.699383  1
  O  O10  1  0.807473  0.554831  0.897553  1
  O  O11  1  0.663750  0.475648  0.213757  1
  O  O12  1  0.666430  0.799147  0.770282  1
  O  O13  1  0.959444  0.118248  0.700271  1
  O  O14  1  0.336250  0.524352  0.786243  1
  O  O15  1  0.002333  0.753855  0.578001  1
  O  O16  1  0.997667  0.246145  0.421999  1
  O  O17  1  0.263098  0.993366  0.864344  1
  O  O18  1  0.333570  0.200853  0.229718  1
  O  O19  1  0.736902  0.006634  0.135656  1
  O  O20  1  0.192527  0.445169  0.102447  1
  O  O21  1  0.362030  0.582943  0.390466  1
  O  O22  1  0.637970  0.417057  0.609534  1
  O  O23  1  0.621215  0.950705  0.365335  1
  O  O24  1  0.040556  0.881752  0.299729  1
  O  O25  1  0.378785  0.049295  0.634665  1
