# generated using pymatgen
data_MnAl(WO4)2
_symmetry_space_group_name_H-M   'P 1'
_cell_length_a   5.10278670
_cell_length_b   5.67296496
_cell_length_c   9.27102680
_cell_angle_alpha   90.00000000
_cell_angle_beta   91.56162209
_cell_angle_gamma   90.00000000
_symmetry_Int_Tables_number   1
_chemical_formula_structural   MnAl(WO4)2
_chemical_formula_sum   'Mn2 Al2 W4 O16'
_cell_volume   268.27735947
_cell_formula_units_Z   2
loop_
 _symmetry_equiv_pos_site_id
 _symmetry_equiv_pos_as_xyz
  1  'x, y, z'
loop_
 _atom_site_type_symbol
 _atom_site_label
 _atom_site_symmetry_multiplicity
 _atom_site_fract_x
 _atom_site_fract_y
 _atom_site_fract_z
 _atom_site_occupancy
  Mn  Mn0  1  0.750000  0.348968  0.250000  1
  Mn  Mn1  1  0.250000  0.651031  0.750000  1
  Al  Al2  1  0.250000  0.658259  0.250000  1
  Al  Al3  1  0.749999  0.341740  0.750000  1
  W  W4  1  0.251168  0.166471  0.501858  1
  W  W5  1  0.248831  0.166471  0.998143  1
  W  W6  1  0.748832  0.833529  0.498142  1
  W  W7  1  0.751169  0.833529  0.001857  1
  O  O8  1  0.375840  0.396603  0.128121  1
  O  O9  1  0.124159  0.396603  0.371878  1
  O  O10  1  0.624160  0.603396  0.871879  1
  O  O11  1  0.875840  0.603396  0.628122  1
  O  O12  1  0.425894  0.888597  0.610075  1
  O  O13  1  0.074106  0.888597  0.889925  1
  O  O14  1  0.574106  0.111403  0.389925  1
  O  O15  1  0.925894  0.111403  0.110075  1
  O  O16  1  0.931111  0.635849  0.141210  1
  O  O17  1  0.568889  0.635849  0.358790  1
  O  O18  1  0.068889  0.364152  0.858790  1
  O  O19  1  0.431111  0.364152  0.641210  1
  O  O20  1  0.423894  0.882323  0.116137  1
  O  O21  1  0.576106  0.117678  0.883863  1
  O  O22  1  0.076107  0.882323  0.383864  1
  O  O23  1  0.923893  0.117678  0.616136  1
