# generated using pymatgen
data_Nb2Zn2TeO8
_symmetry_space_group_name_H-M   'P 1'
_cell_length_a   5.26814369
_cell_length_b   6.14409029
_cell_length_c   11.91369598
_cell_angle_alpha   109.32614982
_cell_angle_beta   96.73512179
_cell_angle_gamma   90.19055085
_symmetry_Int_Tables_number   1
_chemical_formula_structural   Nb2Zn2TeO8
_chemical_formula_sum   'Nb4 Zn4 Te2 O16'
_cell_volume   361.01536844
_cell_formula_units_Z   2
loop_
 _symmetry_equiv_pos_site_id
 _symmetry_equiv_pos_as_xyz
  1  'x, y, z'
loop_
 _atom_site_type_symbol
 _atom_site_label
 _atom_site_symmetry_multiplicity
 _atom_site_fract_x
 _atom_site_fract_y
 _atom_site_fract_z
 _atom_site_occupancy
  Nb  Nb0  1  0.721101  0.271521  0.281114  1
  Nb  Nb1  1  0.802635  0.058761  0.745090  1
  Nb  Nb2  1  0.279133  0.729655  0.720045  1
  Nb  Nb3  1  0.197527  0.942063  0.256318  1
  Zn  Zn4  1  0.747255  0.424572  0.554391  1
  Zn  Zn5  1  0.734285  0.879481  0.451867  1
  Zn  Zn6  1  0.253315  0.576413  0.446947  1
  Zn  Zn7  1  0.266255  0.121709  0.549561  1
  Te  Te8  1  0.666029  0.644256  0.979379  1
  Te  Te9  1  0.331711  0.357023  0.022328  1
  O  O10  1  0.011085  0.170294  0.193054  1
  O  O11  1  0.501102  0.031634  0.816719  1
  O  O12  1  0.989059  0.830393  0.808138  1
  O  O13  1  0.499032  0.969281  0.184651  1
  O  O14  1  0.543128  0.425093  0.177785  1
  O  O15  1  0.966952  0.323888  0.853125  1
  O  O16  1  0.457104  0.576398  0.823602  1
  O  O17  1  0.033695  0.676431  0.148368  1
  O  O18  1  0.447125  0.294398  0.394435  1
  O  O19  1  0.084858  0.928526  0.624385  1
  O  O20  1  0.351401  0.844502  0.396384  1
  O  O21  1  0.126733  0.437751  0.599914  1
  O  O22  1  0.649069  0.156567  0.605010  1
  O  O23  1  0.873784  0.563176  0.401232  1
  O  O24  1  0.915495  0.072390  0.376822  1
  O  O25  1  0.553413  0.706589  0.606810  1
