# generated using pymatgen
data_ZnSiNiO5
_symmetry_space_group_name_H-M   'P 1'
_cell_length_a   5.26815646
_cell_length_b   7.04585949
_cell_length_c   8.20629739
_cell_angle_alpha   89.91967458
_cell_angle_beta   38.75397026
_cell_angle_gamma   73.61137443
_symmetry_Int_Tables_number   1
_chemical_formula_structural   ZnSiNiO5
_chemical_formula_sum   'Zn2 Si2 Ni2 O10'
_cell_volume   170.37681593
_cell_formula_units_Z   2
loop_
 _symmetry_equiv_pos_site_id
 _symmetry_equiv_pos_as_xyz
  1  'x, y, z'
loop_
 _atom_site_type_symbol
 _atom_site_label
 _atom_site_symmetry_multiplicity
 _atom_site_fract_x
 _atom_site_fract_y
 _atom_site_fract_z
 _atom_site_occupancy
  Zn  Zn0  1  0.502767  0.232717  0.664955  1
  Zn  Zn1  1  0.503347  0.732553  0.322616  1
  Si  Si2  1  0.499240  0.236048  0.318221  1
  Si  Si3  1  0.497290  0.735628  0.674233  1
  Ni  Ni4  1  0.498955  0.485781  0.995941  1
  Ni  Ni5  1  0.499377  0.985694  0.995474  1
  O  O6  1  0.300249  0.101666  0.308848  1
  O  O7  1  0.703733  0.369127  0.107418  1
  O  O8  1  0.696522  0.870661  0.682736  1
  O  O9  1  0.292069  0.603622  0.886165  1
  O  O10  1  0.871400  0.579196  0.352584  1
  O  O11  1  0.129455  0.888746  0.720567  1
  O  O12  1  0.126364  0.391654  0.639826  1
  O  O13  1  0.868765  0.082279  0.270413  1
  O  O14  1  0.497615  0.735918  0.087714  1
  O  O15  1  0.499586  0.235840  0.904305  1
