# generated using pymatgen
data_ZnCo(GeO3)2
_symmetry_space_group_name_H-M   'P 1'
_cell_length_a   5.48633387
_cell_length_b   9.21989156
_cell_length_c   9.77907130
_cell_angle_alpha   90.00000000
_cell_angle_beta   102.01205512
_cell_angle_gamma   90.00000000
_symmetry_Int_Tables_number   1
_chemical_formula_structural   ZnCo(GeO3)2
_chemical_formula_sum   'Zn4 Co4 Ge8 O24'
_cell_volume   483.82757889
_cell_formula_units_Z   4
loop_
 _symmetry_equiv_pos_site_id
 _symmetry_equiv_pos_as_xyz
  1  'x, y, z'
loop_
 _atom_site_type_symbol
 _atom_site_label
 _atom_site_symmetry_multiplicity
 _atom_site_fract_x
 _atom_site_fract_y
 _atom_site_fract_z
 _atom_site_occupancy
  Zn  Zn0  1  0.455032  0.500681  0.246851  1
  Zn  Zn1  1  0.044968  0.000681  0.753149  1
  Zn  Zn2  1  0.544968  0.499319  0.753149  1
  Zn  Zn3  1  0.955032  0.999319  0.246851  1
  Co  Co4  1  0.960139  0.652993  0.245709  1
  Co  Co5  1  0.539861  0.152993  0.754291  1
  Co  Co6  1  0.039861  0.347007  0.754291  1
  Co  Co7  1  0.460139  0.847007  0.245709  1
  Ge  Ge8  1  0.810151  0.336996  0.055446  1
  Ge  Ge9  1  0.689849  0.836996  0.944554  1
  Ge  Ge10  1  0.189849  0.663004  0.944554  1
  Ge  Ge11  1  0.310151  0.163004  0.055446  1
  Ge  Ge12  1  0.242120  0.341376  0.453765  1
  Ge  Ge13  1  0.257880  0.841376  0.546235  1
  Ge  Ge14  1  0.757880  0.658624  0.546235  1
  Ge  Ge15  1  0.742120  0.158624  0.453765  1
  O  O16  1  0.501673  0.283434  0.382643  1
  O  O17  1  0.998327  0.783434  0.617357  1
  O  O18  1  0.498327  0.716566  0.617357  1
  O  O19  1  0.001673  0.216566  0.382643  1
  O  O20  1  0.143320  0.314414  0.108606  1
  O  O21  1  0.356680  0.814414  0.891395  1
  O  O22  1  0.856680  0.685586  0.891395  1
  O  O23  1  0.643320  0.185586  0.108606  1
  O  O24  1  0.702947  0.989907  0.372426  1
  O  O25  1  0.797053  0.489907  0.627574  1
  O  O26  1  0.297053  0.010093  0.627574  1
  O  O27  1  0.202947  0.510093  0.372426  1
  O  O28  1  0.225978  0.010111  0.139189  1
  O  O29  1  0.274022  0.510111  0.860811  1
  O  O30  1  0.774022  0.989889  0.860811  1
  O  O31  1  0.725978  0.489889  0.139189  1
  O  O32  1  0.752579  0.334626  0.869402  1
  O  O33  1  0.747421  0.834626  0.130598  1
  O  O34  1  0.247421  0.665374  0.130598  1
  O  O35  1  0.252579  0.165374  0.869402  1
  O  O36  1  0.314840  0.335571  0.638187  1
  O  O37  1  0.185160  0.835571  0.361813  1
  O  O38  1  0.685160  0.664429  0.361813  1
  O  O39  1  0.814840  0.164429  0.638187  1
