# generated using pymatgen
data_CaHo(NiO3)2
_symmetry_space_group_name_H-M   'P 1'
_cell_length_a   5.27592087
_cell_length_b   5.48135199
_cell_length_c   7.43643650
_cell_angle_alpha   90.00564701
_cell_angle_beta   90.00010133
_cell_angle_gamma   90.00125865
_symmetry_Int_Tables_number   1
_chemical_formula_structural   CaHo(NiO3)2
_chemical_formula_sum   'Ca2 Ho2 Ni4 O12'
_cell_volume   215.05563971
_cell_formula_units_Z   2
loop_
 _symmetry_equiv_pos_site_id
 _symmetry_equiv_pos_as_xyz
  1  'x, y, z'
loop_
 _atom_site_type_symbol
 _atom_site_label
 _atom_site_symmetry_multiplicity
 _atom_site_fract_x
 _atom_site_fract_y
 _atom_site_fract_z
 _atom_site_occupancy
  Ca  Ca0  1  0.487277  0.441422  0.749743  1
  Ca  Ca1  1  0.987499  0.058620  0.250212  1
  Ho  Ho2  1  0.018693  0.932956  0.749841  1
  Ho  Ho3  1  0.518624  0.567101  0.250113  1
  Ni  Ni4  1  0.000832  0.495183  0.000324  1
  Ni  Ni5  1  0.000842  0.495084  0.499702  1
  Ni  Ni6  1  0.500912  0.004807  0.500334  1
  Ni  Ni7  1  0.500896  0.004846  0.999642  1
  O  O8  1  0.102463  0.476682  0.249988  1
  O  O9  1  0.195330  0.198264  0.951048  1
  O  O10  1  0.195335  0.198223  0.548925  1
  O  O11  1  0.292105  0.712066  0.953376  1
  O  O12  1  0.292025  0.711992  0.546483  1
  O  O13  1  0.414907  0.968017  0.249956  1
  O  O14  1  0.602578  0.023331  0.750034  1
  O  O15  1  0.695364  0.301637  0.451122  1
  O  O16  1  0.695348  0.301682  0.048944  1
  O  O17  1  0.792060  0.788004  0.046742  1
  O  O18  1  0.792079  0.787970  0.453425  1
  O  O19  1  0.914829  0.532111  0.750048  1
