# generated using pymatgen
data_Mg(FeO2)2
_symmetry_space_group_name_H-M   'P 1'
_cell_length_a   5.12987382
_cell_length_b   5.89594909
_cell_length_c   10.32905866
_cell_angle_alpha   90.06237338
_cell_angle_beta   90.05905888
_cell_angle_gamma   89.95125185
_symmetry_Int_Tables_number   1
_chemical_formula_structural   Mg(FeO2)2
_chemical_formula_sum   'Mg4 Fe8 O16'
_cell_volume   312.40682064
_cell_formula_units_Z   4
loop_
 _symmetry_equiv_pos_site_id
 _symmetry_equiv_pos_as_xyz
  1  'x, y, z'
loop_
 _atom_site_type_symbol
 _atom_site_label
 _atom_site_symmetry_multiplicity
 _atom_site_fract_x
 _atom_site_fract_y
 _atom_site_fract_z
 _atom_site_occupancy
  Mg  Mg0  1  0.853464  0.250328  0.749919  1
  Mg  Mg1  1  0.146640  0.749667  0.250082  1
  Mg  Mg2  1  0.516009  0.250544  0.249931  1
  Mg  Mg3  1  0.483938  0.749460  0.750076  1
  Fe  Fe4  1  0.509513  0.749718  0.480184  1
  Fe  Fe5  1  0.509227  0.750090  0.020224  1
  Fe  Fe6  1  0.490490  0.250287  0.519850  1
  Fe  Fe7  1  0.490786  0.249916  0.979747  1
  Fe  Fe8  1  -0.000040  0.500057  0.499992  1
  Fe  Fe9  1  -0.000054  -0.000056  0.000004  1
  Fe  Fe10  1  -0.000040  -0.000060  0.499988  1
  Fe  Fe11  1  -0.000044  0.500049  0.000003  1
  O  O12  1  0.855271  0.749491  0.391298  1
  O  O13  1  0.855819  0.750783  0.108318  1
  O  O14  1  0.144736  0.250496  0.608688  1
  O  O15  1  0.144224  0.249228  0.891694  1
  O  O16  1  0.197739  0.749491  0.598888  1
  O  O17  1  0.197814  0.749464  0.900443  1
  O  O18  1  0.802250  0.250506  0.401121  1
  O  O19  1  0.802199  0.250540  0.099549  1
  O  O20  1  0.667885  0.504195  0.615405  1
  O  O21  1  0.666742  0.995721  0.884654  1
  O  O22  1  0.332487  0.003079  0.384813  1
  O  O23  1  0.333178  0.497341  0.115316  1
  O  O24  1  0.332120  0.495816  0.384608  1
  O  O25  1  0.333285  0.004273  0.115335  1
  O  O26  1  0.667517  0.996894  0.615191  1
  O  O27  1  0.666848  0.502683  0.884678  1
