# generated using pymatgen
data_Zn4Ni5(TeO6)3
_symmetry_space_group_name_H-M   'P 1'
_cell_length_a   8.64851739
_cell_length_b   8.64851732
_cell_length_c   10.40095973
_cell_angle_alpha   85.89018875
_cell_angle_beta   85.89018859
_cell_angle_gamma   61.87809170
_symmetry_Int_Tables_number   1
_chemical_formula_structural   Zn4Ni5(TeO6)3
_chemical_formula_sum   'Zn8 Ni10 Te6 O36'
_cell_volume   683.71904856
_cell_formula_units_Z   2
loop_
 _symmetry_equiv_pos_site_id
 _symmetry_equiv_pos_as_xyz
  1  'x, y, z'
loop_
 _atom_site_type_symbol
 _atom_site_label
 _atom_site_symmetry_multiplicity
 _atom_site_fract_x
 _atom_site_fract_y
 _atom_site_fract_z
 _atom_site_occupancy
  Zn  Zn0  1  0.862142  0.540095  0.326157  1
  Zn  Zn1  1  0.480398  0.559576  0.206457  1
  Zn  Zn2  1  0.459905  0.137858  0.673843  1
  Zn  Zn3  1  0.440424  0.519602  0.793543  1
  Zn  Zn4  1  0.167866  0.872266  0.706224  1
  Zn  Zn5  1  0.148438  0.253877  0.826319  1
  Zn  Zn6  1  0.746123  0.851562  0.173681  1
  Zn  Zn7  1  0.127734  0.832134  0.293776  1
  Ni  Ni8  1  0.796106  0.501399  0.981987  1
  Ni  Ni9  1  0.109454  0.187862  0.481657  1
  Ni  Ni10  1  0.329364  0.338927  0.300012  1
  Ni  Ni11  1  0.947274  0.721063  0.800055  1
  Ni  Ni12  1  0.661073  0.670636  0.699988  1
  Ni  Ni13  1  0.981387  0.018613  0.000000  1
  Ni  Ni14  1  0.627502  0.372498  0.500000  1
  Ni  Ni15  1  0.278937  0.052727  0.199945  1
  Ni  Ni16  1  0.812138  0.890546  0.518343  1
  Ni  Ni17  1  0.498601  0.203894  0.018013  1
  Te  Te18  1  0.462732  0.861079  0.951644  1
  Te  Te19  1  0.804040  0.195774  0.249885  1
  Te  Te20  1  0.804226  0.195960  0.750115  1
  Te  Te21  1  0.469473  0.854198  0.451500  1
  Te  Te22  1  0.145802  0.530527  0.548500  1
  Te  Te23  1  0.138921  0.537269  0.048356  1
  O  O24  1  0.401267  0.093085  0.862047  1
  O  O25  1  0.717128  0.436414  0.811748  1
  O  O26  1  0.562654  0.628907  0.543715  1
  O  O27  1  0.729122  0.127948  0.414098  1
  O  O28  1  0.563586  0.282872  0.188252  1
  O  O29  1  0.872052  0.270878  0.585902  1
  O  O30  1  0.382654  0.791473  0.303725  1
  O  O31  1  0.041371  0.099975  0.817886  1
  O  O32  1  0.567183  0.291564  0.682168  1
  O  O33  1  0.080831  0.425154  0.409948  1
  O  O34  1  0.551440  0.639189  0.047027  1
  O  O35  1  0.527360  0.966604  0.090010  1
  O  O36  1  0.891228  0.955353  0.688408  1
  O  O37  1  0.700844  0.753215  0.869251  1
  O  O38  1  0.360811  0.448560  0.952973  1
  O  O39  1  0.225410  0.600421  0.196318  1
  O  O40  1  0.056646  0.752580  0.453058  1
  O  O41  1  0.246785  0.299156  0.130749  1
  O  O42  1  0.371093  0.437346  0.456285  1
  O  O43  1  0.247420  0.943354  0.546942  1
  O  O44  1  0.701157  0.792838  0.361886  1
  O  O45  1  0.907366  0.638569  0.630794  1
  O  O46  1  0.900025  0.958629  0.182114  1
  O  O47  1  0.399578  0.774590  0.803682  1
  O  O48  1  0.045465  0.762861  0.956278  1
  O  O49  1  0.736454  0.120699  0.914305  1
  O  O50  1  0.033396  0.472640  0.909990  1
  O  O51  1  0.208527  0.617346  0.696275  1
  O  O52  1  0.044647  0.108772  0.311592  1
  O  O53  1  0.361431  0.092634  0.369206  1
  O  O54  1  0.207162  0.298843  0.638114  1
  O  O55  1  0.879301  0.263546  0.085695  1
  O  O56  1  0.708436  0.432817  0.317832  1
  O  O57  1  0.574846  0.919169  0.590052  1
  O  O58  1  0.237139  0.954535  0.043722  1
  O  O59  1  0.906915  0.598733  0.137953  1
