# generated using pymatgen
data_Zn(CuO2)2
_symmetry_space_group_name_H-M   'P 1'
_cell_length_a   5.92715830
_cell_length_b   5.94467982
_cell_length_c   17.75820606
_cell_angle_alpha   59.89546121
_cell_angle_beta   60.15145042
_cell_angle_gamma   59.86210371
_symmetry_Int_Tables_number   1
_chemical_formula_structural   Zn(CuO2)2
_chemical_formula_sum   'Zn6 Cu12 O24'
_cell_volume   442.13373406
_cell_formula_units_Z   6
loop_
 _symmetry_equiv_pos_site_id
 _symmetry_equiv_pos_as_xyz
  1  'x, y, z'
loop_
 _atom_site_type_symbol
 _atom_site_label
 _atom_site_symmetry_multiplicity
 _atom_site_fract_x
 _atom_site_fract_y
 _atom_site_fract_z
 _atom_site_occupancy
  Zn  Zn0  1  0.138099  0.118867  0.041243  1
  Zn  Zn1  1  0.500940  0.500332  0.332844  1
  Zn  Zn2  1  0.000006  0.498308  0.167736  1
  Zn  Zn3  1  0.499690  0.499567  0.667017  1
  Zn  Zn4  1  0.999756  0.500149  0.499980  1
  Zn  Zn5  1  0.000151  0.501583  0.832263  1
  Cu  Cu6  1  0.499809  0.000194  0.166972  1
  Cu  Cu7  1  0.129443  0.118438  0.377811  1
  Cu  Cu8  1  0.500286  0.499958  -0.000048  1
  Cu  Cu9  1  0.500084  0.498983  0.166943  1
  Cu  Cu10  1  0.499937  0.000111  0.499933  1
  Cu  Cu11  1  0.131641  0.121575  0.708265  1
  Cu  Cu12  1  0.500079  0.500119  0.499926  1
  Cu  Cu13  1  0.500823  -0.000573  0.832883  1
  Cu  Cu14  1  0.868889  0.879036  0.291164  1
  Cu  Cu15  1  0.500744  0.501194  0.832990  1
  Cu  Cu16  1  0.869899  0.880774  0.622894  1
  Cu  Cu17  1  0.872451  0.876295  0.958011  1
  O  O18  1  0.279461  0.254055  0.085435  1
  O  O19  1  0.269432  0.247081  0.245379  1
  O  O20  1  0.279860  0.709331  0.085427  1
  O  O21  1  0.726380  0.255892  0.086965  1
  O  O22  1  0.268828  0.242417  0.422965  1
  O  O23  1  0.263556  0.755038  0.242284  1
  O  O24  1  0.269421  0.249375  0.577095  1
  O  O25  1  0.731652  0.278443  0.243137  1
  O  O26  1  0.269498  0.719352  0.423064  1
  O  O27  1  0.724575  0.750793  0.091598  1
  O  O28  1  0.732912  0.249246  0.423070  1
  O  O29  1  0.731884  0.760745  0.243051  1
  O  O30  1  0.267207  0.240140  0.755624  1
  O  O31  1  0.266863  0.750476  0.577170  1
  O  O32  1  0.730354  0.280257  0.576985  1
  O  O33  1  0.267963  0.725169  0.755723  1
  O  O34  1  0.279272  0.254404  0.903811  1
  O  O35  1  0.731209  0.750613  0.422614  1
  O  O36  1  0.741546  0.247379  0.754473  1
  O  O37  1  0.731053  0.757863  0.577052  1
  O  O38  1  0.263199  0.743770  0.916795  1
  O  O39  1  0.718446  0.283811  0.916745  1
  O  O40  1  0.723625  0.751512  0.758023  1
  O  O41  1  0.719075  0.747928  0.916688  1
