# generated using pymatgen
data_MgWO3
_symmetry_space_group_name_H-M   'P 1'
_cell_length_a   5.31004621
_cell_length_b   5.43569551
_cell_length_c   7.89147977
_cell_angle_alpha   90.01003014
_cell_angle_beta   90.00615886
_cell_angle_gamma   90.01231887
_symmetry_Int_Tables_number   1
_chemical_formula_structural   MgWO3
_chemical_formula_sum   'Mg4 W4 O12'
_cell_volume   227.77803930
_cell_formula_units_Z   4
loop_
 _symmetry_equiv_pos_site_id
 _symmetry_equiv_pos_as_xyz
  1  'x, y, z'
loop_
 _atom_site_type_symbol
 _atom_site_label
 _atom_site_symmetry_multiplicity
 _atom_site_fract_x
 _atom_site_fract_y
 _atom_site_fract_z
 _atom_site_occupancy
  Mg  Mg0  1  0.009852  0.033944  0.250565  1
  Mg  Mg1  1  0.509606  0.466004  0.749386  1
  Mg  Mg2  1  0.490393  0.533997  0.250608  1
  Mg  Mg3  1  0.990151  0.966057  0.749434  1
  W  W4  1  0.500000  -0.000002  0.000003  1
  W  W5  1  1.000000  0.500001  0.000004  1
  W  W6  1  -0.000002  0.499998  0.499996  1
  W  W7  1  0.500001  0.000001  0.499996  1
  O  O8  1  0.872435  0.594982  0.750060  1
  O  O9  1  0.372646  0.905024  0.249927  1
  O  O10  1  0.627356  0.094977  0.750073  1
  O  O11  1  0.127563  0.405018  0.249941  1
  O  O12  1  0.667178  0.321754  0.430057  1
  O  O13  1  0.167173  0.178229  0.570026  1
  O  O14  1  0.831816  0.820846  0.071480  1
  O  O15  1  0.331866  0.679314  0.928474  1
  O  O16  1  0.668137  0.320684  0.071525  1
  O  O17  1  0.168181  0.179151  0.928520  1
  O  O18  1  0.332819  0.678249  0.569947  1
  O  O19  1  0.832828  0.821773  0.429976  1
