# generated using pymatgen
data_ZnSi2WO6
_symmetry_space_group_name_H-M   'P 1'
_cell_length_a   5.45444088
_cell_length_b   6.89287830
_cell_length_c   6.89287854
_cell_angle_alpha   86.01835639
_cell_angle_beta   77.72318885
_cell_angle_gamma   77.72319327
_symmetry_Int_Tables_number   1
_chemical_formula_structural   ZnSi2WO6
_chemical_formula_sum   'Zn2 Si4 W2 O12'
_cell_volume   247.35340162
_cell_formula_units_Z   2
loop_
 _symmetry_equiv_pos_site_id
 _symmetry_equiv_pos_as_xyz
  1  'x, y, z'
loop_
 _atom_site_type_symbol
 _atom_site_label
 _atom_site_symmetry_multiplicity
 _atom_site_fract_x
 _atom_site_fract_y
 _atom_site_fract_z
 _atom_site_occupancy
  Zn  Zn0  1  0.750000  0.286064  0.713936  1
  Zn  Zn1  1  0.250001  0.713936  0.286065  1
  Si  Si2  1  0.256281  0.208299  0.377309  1
  Si  Si3  1  0.243718  0.622691  0.791701  1
  Si  Si4  1  0.756281  0.377309  0.208299  1
  Si  Si5  1  0.743719  0.791701  0.622691  1
  W  W6  1  0.249999  0.102469  0.897532  1
  W  W7  1  0.749999  0.897533  0.102468  1
  O  O8  1  0.494597  0.327038  0.358759  1
  O  O9  1  0.005403  0.641240  0.672963  1
  O  O10  1  0.505404  0.672963  0.641241  1
  O  O11  1  0.994596  0.358760  0.327037  1
  O  O12  1  0.180388  0.123362  0.602048  1
  O  O13  1  0.319612  0.397951  0.876637  1
  O  O14  1  0.819612  0.876638  0.397952  1
  O  O15  1  0.680387  0.602048  0.123363  1
  O  O16  1  0.846145  0.198453  0.041301  1
  O  O17  1  0.653855  0.958699  0.801546  1
  O  O18  1  0.346144  0.041301  0.198454  1
  O  O19  1  0.153856  0.801547  0.958699  1
