# generated using pymatgen
data_Zn(NiO2)2
_symmetry_space_group_name_H-M   'P 1'
_cell_length_a   2.96836051
_cell_length_b   7.14483703
_cell_length_c   7.26629280
_cell_angle_alpha   79.65672472
_cell_angle_beta   78.18730739
_cell_angle_gamma   77.92755817
_symmetry_Int_Tables_number   1
_chemical_formula_structural   Zn(NiO2)2
_chemical_formula_sum   'Zn2 Ni4 O8'
_cell_volume   145.99437490
_cell_formula_units_Z   2
loop_
 _symmetry_equiv_pos_site_id
 _symmetry_equiv_pos_as_xyz
  1  'x, y, z'
loop_
 _atom_site_type_symbol
 _atom_site_label
 _atom_site_symmetry_multiplicity
 _atom_site_fract_x
 _atom_site_fract_y
 _atom_site_fract_z
 _atom_site_occupancy
  Zn  Zn0  1  0.329954  0.145957  0.193957  1
  Zn  Zn1  1  0.665744  0.830296  0.838382  1
  Ni  Ni2  1  0.636512  0.173628  0.553252  1
  Ni  Ni3  1  0.139493  0.516104  0.206230  1
  Ni  Ni4  1  0.859196  0.457011  0.823656  1
  Ni  Ni5  1  0.359499  0.804268  0.477178  1
  O  O6  1  0.862218  0.666962  0.608563  1
  O  O7  1  0.467091  0.301579  0.763693  1
  O  O8  1  0.530626  0.670465  0.269850  1
  O  O9  1  0.131552  0.315073  0.422005  1
  O  O10  1  0.172025  0.982173  0.673135  1
  O  O11  1  0.790400  0.329694  0.087963  1
  O  O12  1  0.826343  0.993712  0.354744  1
  O  O13  1  0.197623  0.652414  0.953010  1
