# generated using pymatgen
data_CaCr2O5
_symmetry_space_group_name_H-M   'P 1'
_cell_length_a   3.96694159
_cell_length_b   5.84524017
_cell_length_c   10.81638807
_cell_angle_alpha   90.00000000
_cell_angle_beta   90.00000000
_cell_angle_gamma   109.83611346
_symmetry_Int_Tables_number   1
_chemical_formula_structural   CaCr2O5
_chemical_formula_sum   'Ca2 Cr4 O10'
_cell_volume   235.92630736
_cell_formula_units_Z   2
loop_
 _symmetry_equiv_pos_site_id
 _symmetry_equiv_pos_as_xyz
  1  'x, y, z'
loop_
 _atom_site_type_symbol
 _atom_site_label
 _atom_site_symmetry_multiplicity
 _atom_site_fract_x
 _atom_site_fract_y
 _atom_site_fract_z
 _atom_site_occupancy
  Ca  Ca0  1  0.905448  0.810894  0.750000  1
  Ca  Ca1  1  0.094553  0.189107  0.250000  1
  Cr  Cr2  1  0.210360  0.420719  0.594242  1
  Cr  Cr3  1  0.789641  0.579282  0.405757  1
  Cr  Cr4  1  0.789641  0.579282  0.094243  1
  Cr  Cr5  1  0.210360  0.420719  0.905758  1
  O  O6  1  0.702571  0.405140  0.250000  1
  O  O7  1  0.297430  0.594861  0.750000  1
  O  O8  1  0.251719  0.503436  0.075156  1
  O  O9  1  0.748283  0.496565  0.924844  1
  O  O10  1  0.748283  0.496565  0.575156  1
  O  O11  1  0.251719  0.503436  0.424843  1
  O  O12  1  0.059285  0.118567  0.614249  1
  O  O13  1  0.940715  0.881432  0.385751  1
  O  O14  1  0.059285  0.118567  0.885751  1
  O  O15  1  0.940715  0.881432  0.114250  1
