# generated using pymatgen
data_ZnFe5O7
_symmetry_space_group_name_H-M   'P 1'
_cell_length_a   2.98794187
_cell_length_b   5.32449005
_cell_length_c   18.27177259
_cell_angle_alpha   90.00000000
_cell_angle_beta   90.00000000
_cell_angle_gamma   106.29510998
_symmetry_Int_Tables_number   1
_chemical_formula_structural   ZnFe5O7
_chemical_formula_sum   'Zn2 Fe10 O14'
_cell_volume   279.01324642
_cell_formula_units_Z   2
loop_
 _symmetry_equiv_pos_site_id
 _symmetry_equiv_pos_as_xyz
  1  'x, y, z'
loop_
 _atom_site_type_symbol
 _atom_site_label
 _atom_site_symmetry_multiplicity
 _atom_site_fract_x
 _atom_site_fract_y
 _atom_site_fract_z
 _atom_site_occupancy
  Zn  Zn0  1  0.786616  0.573230  0.750000  1
  Zn  Zn1  1  0.213385  0.426769  0.250000  1
  Fe  Fe2  1  0.270724  0.541446  0.577582  1
  Fe  Fe3  1  0.466302  0.932605  0.160130  1
  Fe  Fe4  1  -0.000000  -0.000000  0.500000  1
  Fe  Fe5  1  -0.000000  -0.000000  -0.000000  1
  Fe  Fe6  1  0.533698  0.067394  0.839871  1
  Fe  Fe7  1  0.729276  0.458553  0.422418  1
  Fe  Fe8  1  0.729276  0.458553  0.077582  1
  Fe  Fe9  1  0.270724  0.541446  0.922418  1
  Fe  Fe10  1  0.533698  0.067394  0.660129  1
  Fe  Fe11  1  0.466302  0.932605  0.339871  1
  O  O12  1  0.650817  0.301632  0.965021  1
  O  O13  1  0.349184  0.698369  0.034979  1
  O  O14  1  0.349184  0.698369  0.465021  1
  O  O15  1  0.650817  0.301632  0.534979  1
  O  O16  1  0.182737  0.365476  0.828771  1
  O  O17  1  0.817263  0.634524  0.171229  1
  O  O18  1  0.817263  0.634524  0.328772  1
  O  O19  1  0.182737  0.365476  0.671229  1
  O  O20  1  0.904352  0.808702  0.901726  1
  O  O21  1  0.095648  0.191298  0.098274  1
  O  O22  1  0.095648  0.191298  0.401726  1
  O  O23  1  0.904352  0.808702  0.598274  1
  O  O24  1  0.424204  0.848410  0.750000  1
  O  O25  1  0.575797  0.151592  0.250000  1
