# generated using pymatgen
data_Ta(WO4)2
_symmetry_space_group_name_H-M   'P 1'
_cell_length_a   5.12305759
_cell_length_b   7.21802747
_cell_length_c   6.35388867
_cell_angle_alpha   107.16606430
_cell_angle_beta   126.36353456
_cell_angle_gamma   87.08403300
_symmetry_Int_Tables_number   1
_chemical_formula_structural   Ta(WO4)2
_chemical_formula_sum   'Ta1 W2 O8'
_cell_volume   178.40748948
_cell_formula_units_Z   1
loop_
 _symmetry_equiv_pos_site_id
 _symmetry_equiv_pos_as_xyz
  1  'x, y, z'
loop_
 _atom_site_type_symbol
 _atom_site_label
 _atom_site_symmetry_multiplicity
 _atom_site_fract_x
 _atom_site_fract_y
 _atom_site_fract_z
 _atom_site_occupancy
  Ta  Ta0  1  0.128470  0.236419  0.107629  1
  W  W1  1  0.949812  0.412044  0.652258  1
  W  W2  1  0.338311  0.043973  0.565943  1
  O  O3  1  0.184825  0.641637  0.820067  1
  O  O4  1  0.496812  0.437058  0.351730  1
  O  O5  1  0.215738  0.193573  0.812794  1
  O  O6  1  0.408906  0.050397  0.305055  1
  O  O7  1  0.741475  0.997499  0.836983  1
  O  O8  1  0.084773  0.821295  0.403805  1
  O  O9  1  0.031171  0.253108  0.374908  1
  O  O10  1  0.791366  0.368628  0.865441  1
