# generated using pymatgen
data_MgV2CuO7
_symmetry_space_group_name_H-M   'P 1'
_cell_length_a   8.37894060
_cell_length_b   10.19836505
_cell_length_c   10.23669842
_cell_angle_alpha   92.88770240
_cell_angle_beta   90.00000000
_cell_angle_gamma   90.00000000
_symmetry_Int_Tables_number   1
_chemical_formula_structural   MgV2CuO7
_chemical_formula_sum   'Mg6 V12 Cu6 O42'
_cell_volume   873.63043108
_cell_formula_units_Z   6
loop_
 _symmetry_equiv_pos_site_id
 _symmetry_equiv_pos_as_xyz
  1  'x, y, z'
loop_
 _atom_site_type_symbol
 _atom_site_label
 _atom_site_symmetry_multiplicity
 _atom_site_fract_x
 _atom_site_fract_y
 _atom_site_fract_z
 _atom_site_occupancy
  Mg  Mg0  1  0.433581  0.153396  0.577145  1
  Mg  Mg1  1  0.933438  0.500000  0.750000  1
  Mg  Mg2  1  0.433581  0.846604  0.922855  1
  Mg  Mg3  1  0.066562  0.500000  0.250000  1
  Mg  Mg4  1  0.566419  0.846604  0.422855  1
  Mg  Mg5  1  0.566419  0.153396  0.077145  1
  V  V6  1  0.214285  0.166713  0.285575  1
  V  V7  1  0.738450  0.163137  0.381690  1
  V  V8  1  0.261550  0.163137  0.881690  1
  V  V9  1  0.785715  0.166713  0.785575  1
  V  V10  1  0.285238  0.476615  0.957464  1
  V  V11  1  0.738450  0.836863  0.118310  1
  V  V12  1  0.714762  0.476615  0.457464  1
  V  V13  1  0.261550  0.836863  0.618310  1
  V  V14  1  0.285238  0.523385  0.542536  1
  V  V15  1  0.714762  0.523385  0.042536  1
  V  V16  1  0.785715  0.833287  0.714425  1
  V  V17  1  0.214285  0.833287  0.214425  1
  Cu  Cu18  1  0.927487  0.801666  0.410922  1
  Cu  Cu19  1  0.072513  0.198334  0.589078  1
  Cu  Cu20  1  0.434294  0.500000  0.250000  1
  Cu  Cu21  1  0.927487  0.198334  0.089078  1
  Cu  Cu22  1  0.565706  0.500000  0.750000  1
  Cu  Cu23  1  0.072513  0.801666  0.910922  1
  O  O24  1  0.755310  0.192324  0.956350  1
  O  O25  1  0.757639  0.829954  0.289436  1
  O  O26  1  0.852215  0.000000  0.750000  1
  O  O27  1  0.894403  0.512833  0.112670  1
  O  O28  1  0.395616  0.952859  0.574227  1
  O  O29  1  0.925749  0.274244  0.721277  1
  O  O30  1  0.361487  0.309875  0.940646  1
  O  O31  1  0.105597  0.512833  0.612670  1
  O  O32  1  0.739404  0.483639  0.873978  1
  O  O33  1  0.395616  0.047141  0.925773  1
  O  O34  1  0.739404  0.516361  0.626022  1
  O  O35  1  0.419935  0.576064  0.880427  1
  O  O36  1  0.915669  0.850302  0.038545  1
  O  O37  1  0.074251  0.274244  0.221277  1
  O  O38  1  0.638513  0.690125  0.059354  1
  O  O39  1  0.361487  0.690125  0.559354  1
  O  O40  1  0.925749  0.725756  0.778723  1
  O  O41  1  0.604384  0.047141  0.425773  1
  O  O42  1  0.244690  0.192324  0.456350  1
  O  O43  1  0.580065  0.423936  0.119573  1
  O  O44  1  0.391014  0.815151  0.289386  1
  O  O45  1  0.260596  0.516361  0.126022  1
  O  O46  1  0.084331  0.850302  0.538545  1
  O  O47  1  0.260596  0.483639  0.373978  1
  O  O48  1  0.894403  0.487167  0.387330  1
  O  O49  1  0.580065  0.576064  0.380427  1
  O  O50  1  0.105597  0.487167  0.887330  1
  O  O51  1  0.608986  0.815151  0.789386  1
  O  O52  1  0.608986  0.184849  0.710614  1
  O  O53  1  0.084331  0.149698  0.961455  1
  O  O54  1  0.074251  0.725756  0.278723  1
  O  O55  1  0.755310  0.807676  0.543650  1
  O  O56  1  0.147785  0.000000  0.250000  1
  O  O57  1  0.242361  0.829954  0.789436  1
  O  O58  1  0.604384  0.952859  0.074227  1
  O  O59  1  0.915669  0.149698  0.461455  1
  O  O60  1  0.244690  0.807676  0.043650  1
  O  O61  1  0.757639  0.170046  0.210564  1
  O  O62  1  0.419935  0.423936  0.619573  1
  O  O63  1  0.638513  0.309875  0.440646  1
  O  O64  1  0.242361  0.170046  0.710564  1
  O  O65  1  0.391014  0.184849  0.210614  1
