# generated using pymatgen
data_CaPr(BiO3)2
_symmetry_space_group_name_H-M   'P 1'
_cell_length_a   5.89812443
_cell_length_b   6.18867354
_cell_length_c   8.65345456
_cell_angle_alpha   89.94432970
_cell_angle_beta   89.99995826
_cell_angle_gamma   90.00017189
_symmetry_Int_Tables_number   1
_chemical_formula_structural   CaPr(BiO3)2
_chemical_formula_sum   'Ca2 Pr2 Bi4 O12'
_cell_volume   315.86449886
_cell_formula_units_Z   2
loop_
 _symmetry_equiv_pos_site_id
 _symmetry_equiv_pos_as_xyz
  1  'x, y, z'
loop_
 _atom_site_type_symbol
 _atom_site_label
 _atom_site_symmetry_multiplicity
 _atom_site_fract_x
 _atom_site_fract_y
 _atom_site_fract_z
 _atom_site_occupancy
  Ca  Ca0  1  0.486809  0.450591  0.749790  1
  Ca  Ca1  1  0.986809  0.049411  0.250210  1
  Pr  Pr2  1  0.024744  0.934855  0.749676  1
  Pr  Pr3  1  0.524747  0.565147  0.250327  1
  Bi  Bi4  1  0.002168  0.495108  0.999237  1
  Bi  Bi5  1  0.002152  0.495110  0.500765  1
  Bi  Bi6  1  0.502153  0.004889  0.499235  1
  Bi  Bi7  1  0.502169  0.004892  0.000763  1
  O  O8  1  0.145435  0.430967  0.249702  1
  O  O9  1  0.183834  0.186657  0.926727  1
  O  O10  1  0.183527  0.186472  0.573523  1
  O  O11  1  0.305160  0.698344  0.576614  1
  O  O12  1  0.304950  0.698376  0.923618  1
  O  O13  1  0.361219  0.931238  0.249724  1
  O  O14  1  0.645435  0.069030  0.750298  1
  O  O15  1  0.683833  0.313343  0.073273  1
  O  O16  1  0.683525  0.313527  0.426477  1
  O  O17  1  0.804950  0.801624  0.076381  1
  O  O18  1  0.805158  0.801656  0.423385  1
  O  O19  1  0.861219  0.568762  0.750276  1
