# generated using pymatgen
data_CaBiAsO6
_symmetry_space_group_name_H-M   'P 1'
_cell_length_a   5.17835218
_cell_length_b   7.14398416
_cell_length_c   7.55027408
_cell_angle_alpha   103.46588258
_cell_angle_beta   90.00000000
_cell_angle_gamma   90.00000000
_symmetry_Int_Tables_number   1
_chemical_formula_structural   CaBiAsO6
_chemical_formula_sum   'Ca2 Bi2 As2 O12'
_cell_volume   271.63661139
_cell_formula_units_Z   2
loop_
 _symmetry_equiv_pos_site_id
 _symmetry_equiv_pos_as_xyz
  1  'x, y, z'
loop_
 _atom_site_type_symbol
 _atom_site_label
 _atom_site_symmetry_multiplicity
 _atom_site_fract_x
 _atom_site_fract_y
 _atom_site_fract_z
 _atom_site_occupancy
  Ca  Ca0  1  0.767591  0.754165  0.926104  1
  Ca  Ca1  1  0.267591  0.245835  0.073896  1
  Bi  Bi2  1  0.220192  0.410917  0.590687  1
  Bi  Bi3  1  0.720192  0.589083  0.409313  1
  As  As4  1  0.805873  0.219602  0.784397  1
  As  As5  1  0.305873  0.780398  0.215603  1
  O  O6  1  0.528396  0.597925  0.678479  1
  O  O7  1  0.983268  0.430455  0.877280  1
  O  O8  1  0.457773  0.835325  0.429199  1
  O  O9  1  0.492330  0.323927  0.371178  1
  O  O10  1  0.973999  0.766673  0.225502  1
  O  O11  1  0.028396  0.402075  0.321521  1
  O  O12  1  0.473999  0.233327  0.774498  1
  O  O13  1  0.992330  0.676073  0.628822  1
  O  O14  1  0.382552  0.927716  0.076028  1
  O  O15  1  0.483268  0.569545  0.122720  1
  O  O16  1  0.882552  0.072284  0.923972  1
  O  O17  1  0.957773  0.164675  0.570801  1
