# generated using pymatgen
data_AlWO3
_symmetry_space_group_name_H-M   'P 1'
_cell_length_a   4.87076115
_cell_length_b   5.93601284
_cell_length_c   8.69031586
_cell_angle_alpha   89.99986860
_cell_angle_beta   90.00013354
_cell_angle_gamma   89.99989658
_symmetry_Int_Tables_number   1
_chemical_formula_structural   AlWO3
_chemical_formula_sum   'Al4 W4 O12'
_cell_volume   251.26223944
_cell_formula_units_Z   4
loop_
 _symmetry_equiv_pos_site_id
 _symmetry_equiv_pos_as_xyz
  1  'x, y, z'
loop_
 _atom_site_type_symbol
 _atom_site_label
 _atom_site_symmetry_multiplicity
 _atom_site_fract_x
 _atom_site_fract_y
 _atom_site_fract_z
 _atom_site_occupancy
  Al  Al0  1  0.958721  0.157724  0.750001  1
  Al  Al1  1  0.458726  0.342276  0.250000  1
  Al  Al2  1  0.541274  0.657725  0.750000  1
  Al  Al3  1  0.041278  0.842277  0.249999  1
  W  W4  1  0.999999  0.500000  0.500000  1
  W  W5  1  0.499999  0.000000  0.500000  1
  W  W6  1  0.500000  0.000000  0.000000  1
  W  W7  1  0.000001  0.499999  0.000000  1
  O  O8  1  0.651598  0.318094  0.416724  1
  O  O9  1  0.151599  0.181906  0.583279  1
  O  O10  1  0.848405  0.818098  0.083276  1
  O  O11  1  0.348400  0.681905  0.916722  1
  O  O12  1  0.348399  0.681905  0.583278  1
  O  O13  1  0.848399  0.818094  0.416719  1
  O  O14  1  0.151597  0.181902  0.916723  1
  O  O15  1  0.651604  0.318093  0.083280  1
  O  O16  1  0.178904  0.542983  0.249998  1
  O  O17  1  0.678896  0.957018  0.750001  1
  O  O18  1  0.321103  0.042983  0.249999  1
  O  O19  1  0.821098  0.457018  0.750002  1
