# generated using pymatgen
data_MgCu(PO3)4
_symmetry_space_group_name_H-M   'P 1'
_cell_length_a   7.28721522
_cell_length_b   7.29011372
_cell_length_c   9.82875225
_cell_angle_alpha   98.63407475
_cell_angle_beta   109.88345160
_cell_angle_gamma   109.83943470
_symmetry_Int_Tables_number   1
_chemical_formula_structural   MgCu(PO3)4
_chemical_formula_sum   'Mg2 Cu2 P8 O24'
_cell_volume   440.57427066
_cell_formula_units_Z   2
loop_
 _symmetry_equiv_pos_site_id
 _symmetry_equiv_pos_as_xyz
  1  'x, y, z'
loop_
 _atom_site_type_symbol
 _atom_site_label
 _atom_site_symmetry_multiplicity
 _atom_site_fract_x
 _atom_site_fract_y
 _atom_site_fract_z
 _atom_site_occupancy
  Mg  Mg0  1  0.700607  0.951454  0.749651  1
  Mg  Mg1  1  0.299285  0.049343  0.250026  1
  Cu  Cu2  1  0.499604  0.500226  0.499476  1
  Cu  Cu3  1  0.499254  0.000414  0.999250  1
  P  P4  1  0.509691  0.316605  0.803606  1
  P  P5  1  0.010194  0.704857  0.695221  1
  P  P6  1  0.490118  0.685594  0.196053  1
  P  P7  1  0.988648  0.294175  0.303370  1
  P  P8  1  0.769358  0.732375  0.022893  1
  P  P9  1  0.208417  0.746545  0.477458  1
  P  P10  1  0.230587  0.269827  0.976775  1
  P  P11  1  0.790743  0.253007  0.521491  1
  O  O12  1  0.318416  0.316522  0.849716  1
  O  O13  1  0.965204  0.467729  0.648698  1
  O  O14  1  0.682001  0.686456  0.150316  1
  O  O15  1  0.035356  0.531521  0.350426  1
  O  O16  1  0.721144  0.506042  0.933023  1
  O  O17  1  0.070383  0.787831  0.566221  1
  O  O18  1  0.278893  0.496123  0.066781  1
  O  O19  1  0.926902  0.210192  0.431669  1
  O  O20  1  0.460152  0.346375  0.651060  1
  O  O21  1  0.193035  0.808551  0.847925  1
  O  O22  1  0.538970  0.655782  0.348614  1
  O  O23  1  0.805676  0.192340  0.150548  1
  O  O24  1  0.544456  0.125822  0.822356  1
  O  O25  1  0.800683  0.720202  0.676338  1
  O  O26  1  0.455103  0.876234  0.177038  1
  O  O27  1  0.197893  0.278030  0.322597  1
  O  O28  1  0.631669  0.813765  0.916527  1
  O  O29  1  0.396169  0.716416  0.583970  1
  O  O30  1  0.368071  0.188038  0.082917  1
  O  O31  1  0.603504  0.284467  0.415657  1
  O  O32  1  0.004540  0.849815  0.097372  1
  O  O33  1  0.250209  0.907251  0.402275  1
  O  O34  1  0.995321  0.152544  0.901884  1
  O  O35  1  0.748131  0.092371  0.596635  1
