# generated using pymatgen
data_TiZnAs2O7
_symmetry_space_group_name_H-M   'P 1'
_cell_length_a   8.41666516
_cell_length_b   8.59299548
_cell_length_c   11.00231049
_cell_angle_alpha   90.00000000
_cell_angle_beta   124.90642148
_cell_angle_gamma   90.00000000
_symmetry_Int_Tables_number   1
_chemical_formula_structural   TiZnAs2O7
_chemical_formula_sum   'Ti4 Zn4 As8 O28'
_cell_volume   652.57262776
_cell_formula_units_Z   4
loop_
 _symmetry_equiv_pos_site_id
 _symmetry_equiv_pos_as_xyz
  1  'x, y, z'
loop_
 _atom_site_type_symbol
 _atom_site_label
 _atom_site_symmetry_multiplicity
 _atom_site_fract_x
 _atom_site_fract_y
 _atom_site_fract_z
 _atom_site_occupancy
  Ti  Ti0  1  0.852935  0.026048  0.715484  1
  Ti  Ti1  1  0.147065  0.526048  0.784516  1
  Ti  Ti2  1  0.147065  0.973952  0.284516  1
  Ti  Ti3  1  0.852935  0.473952  0.215484  1
  Zn  Zn4  1  0.341262  0.876434  0.878206  1
  Zn  Zn5  1  0.658738  0.376434  0.621794  1
  Zn  Zn6  1  0.658738  0.123566  0.121794  1
  Zn  Zn7  1  0.341262  0.623566  0.378206  1
  As  As8  1  0.429922  0.226338  0.764266  1
  As  As9  1  0.570078  0.726338  0.735734  1
  As  As10  1  0.570078  0.773662  0.235734  1
  As  As11  1  0.429922  0.273662  0.264265  1
  As  As12  1  0.003729  0.304418  0.964844  1
  As  As13  1  0.996271  0.804418  0.535156  1
  As  As14  1  0.996271  0.695582  0.035156  1
  As  As15  1  0.003729  0.195582  0.464844  1
  O  O16  1  0.743833  0.324985  0.088638  1
  O  O17  1  0.256167  0.824985  0.411362  1
  O  O18  1  0.256167  0.675015  0.911362  1
  O  O19  1  0.743833  0.175015  0.588638  1
  O  O20  1  0.317638  0.386669  0.776987  1
  O  O21  1  0.682362  0.886669  0.723013  1
  O  O22  1  0.682362  0.613331  0.223013  1
  O  O23  1  0.317638  0.113331  0.276987  1
  O  O24  1  0.462467  0.089468  0.891699  1
  O  O25  1  0.537533  0.589468  0.608301  1
  O  O26  1  0.537533  0.910532  0.108301  1
  O  O27  1  0.462467  0.410532  0.391699  1
  O  O28  1  0.274832  0.152655  0.583658  1
  O  O29  1  0.725168  0.652655  0.916342  1
  O  O30  1  0.725168  0.847345  0.416342  1
  O  O31  1  0.274832  0.347345  0.083658  1
  O  O32  1  0.966250  0.077181  0.311015  1
  O  O33  1  0.033750  0.577181  0.188985  1
  O  O34  1  0.033750  0.922819  0.688985  1
  O  O35  1  0.966250  0.422819  0.811015  1
  O  O36  1  0.636045  0.231536  0.276662  1
  O  O37  1  0.363955  0.731536  0.223338  1
  O  O38  1  0.363955  0.768464  0.723338  1
  O  O39  1  0.636045  0.268464  0.776662  1
  O  O40  1  0.019275  0.381481  0.397175  1
  O  O41  1  0.980725  0.881481  0.102825  1
  O  O42  1  0.980725  0.618519  0.602825  1
  O  O43  1  0.019275  0.118519  0.897175  1
