# generated using pymatgen
data_ZnCu2(BiO4)2
_symmetry_space_group_name_H-M   'P 1'
_cell_length_a   6.43188543
_cell_length_b   8.60732728
_cell_length_c   13.79293615
_cell_angle_alpha   90.00000000
_cell_angle_beta   93.34374117
_cell_angle_gamma   90.00000000
_symmetry_Int_Tables_number   1
_chemical_formula_structural   ZnCu2(BiO4)2
_chemical_formula_sum   'Zn4 Cu8 Bi8 O32'
_cell_volume   762.29550786
_cell_formula_units_Z   4
loop_
 _symmetry_equiv_pos_site_id
 _symmetry_equiv_pos_as_xyz
  1  'x, y, z'
loop_
 _atom_site_type_symbol
 _atom_site_label
 _atom_site_symmetry_multiplicity
 _atom_site_fract_x
 _atom_site_fract_y
 _atom_site_fract_z
 _atom_site_occupancy
  Zn  Zn0  1  0.105161  0.147675  0.048149  1
  Zn  Zn1  1  0.894839  0.852325  0.951851  1
  Zn  Zn2  1  0.894839  0.647675  0.451851  1
  Zn  Zn3  1  0.105161  0.352325  0.548149  1
  Cu  Cu4  1  0.749516  0.194673  0.889862  1
  Cu  Cu5  1  0.355533  0.063220  0.613262  1
  Cu  Cu6  1  0.644467  0.936779  0.386738  1
  Cu  Cu7  1  0.250484  0.805327  0.110138  1
  Cu  Cu8  1  0.749516  0.305327  0.389862  1
  Cu  Cu9  1  0.355533  0.436779  0.113262  1
  Cu  Cu10  1  0.250484  0.694673  0.610138  1
  Cu  Cu11  1  0.644467  0.563221  0.886738  1
  Bi  Bi12  1  0.102864  0.440664  0.833597  1
  Bi  Bi13  1  0.102864  0.059336  0.333597  1
  Bi  Bi14  1  0.629978  0.098659  0.137789  1
  Bi  Bi15  1  0.897136  0.940664  0.666403  1
  Bi  Bi16  1  0.370022  0.901341  0.862211  1
  Bi  Bi17  1  0.370022  0.598659  0.362211  1
  Bi  Bi18  1  0.629978  0.401341  0.637789  1
  Bi  Bi19  1  0.897136  0.559336  0.166403  1
  O  O20  1  0.033116  0.263929  0.407709  1
  O  O21  1  0.635930  0.039646  0.594257  1
  O  O22  1  0.197363  0.569657  0.496138  1
  O  O23  1  0.802637  0.069657  0.003862  1
  O  O24  1  0.033116  0.236071  0.907709  1
  O  O25  1  0.966884  0.736071  0.592291  1
  O  O26  1  0.077716  0.119155  0.609360  1
  O  O27  1  0.514233  0.871427  0.143256  1
  O  O28  1  0.514233  0.628573  0.643256  1
  O  O29  1  0.285268  0.881663  0.681210  1
  O  O30  1  0.714732  0.381663  0.818790  1
  O  O31  1  0.485767  0.128573  0.856744  1
  O  O32  1  0.922284  0.880845  0.390640  1
  O  O33  1  0.882699  0.541763  0.313819  1
  O  O34  1  0.389173  0.261889  0.564688  1
  O  O35  1  0.389173  0.238111  0.064688  1
  O  O36  1  0.117301  0.041763  0.186181  1
  O  O37  1  0.485767  0.371427  0.356744  1
  O  O38  1  0.117301  0.458237  0.686181  1
  O  O39  1  0.802637  0.430343  0.503862  1
  O  O40  1  0.635930  0.460354  0.094257  1
  O  O41  1  0.714732  0.118337  0.318790  1
  O  O42  1  0.966884  0.763929  0.092291  1
  O  O43  1  0.077716  0.380845  0.109360  1
  O  O44  1  0.197363  0.930343  0.996138  1
  O  O45  1  0.610827  0.761889  0.935312  1
  O  O46  1  0.364070  0.960354  0.405743  1
  O  O47  1  0.364070  0.539646  0.905743  1
  O  O48  1  0.922284  0.619155  0.890640  1
  O  O49  1  0.610827  0.738111  0.435312  1
  O  O50  1  0.285268  0.618337  0.181210  1
  O  O51  1  0.882699  0.958237  0.813819  1
