# generated using pymatgen
data_CaSnP2O7
_symmetry_space_group_name_H-M   'P 1'
_cell_length_a   6.94663716
_cell_length_b   6.87417039
_cell_length_c   7.03304764
_cell_angle_alpha   65.11895097
_cell_angle_beta   85.81096981
_cell_angle_gamma   84.58094661
_symmetry_Int_Tables_number   1
_chemical_formula_structural   CaSnP2O7
_chemical_formula_sum   'Ca2 Sn2 P4 O14'
_cell_volume   303.10454165
_cell_formula_units_Z   2
loop_
 _symmetry_equiv_pos_site_id
 _symmetry_equiv_pos_as_xyz
  1  'x, y, z'
loop_
 _atom_site_type_symbol
 _atom_site_label
 _atom_site_symmetry_multiplicity
 _atom_site_fract_x
 _atom_site_fract_y
 _atom_site_fract_z
 _atom_site_occupancy
  Ca  Ca0  1  0.862169  0.269705  0.163405  1
  Ca  Ca1  1  0.137831  0.730295  0.836595  1
  Sn  Sn2  1  0.663942  0.111546  0.746409  1
  Sn  Sn3  1  0.336058  0.888454  0.253591  1
  P  P4  1  0.153498  0.235766  0.740640  1
  P  P5  1  0.846502  0.764234  0.259360  1
  P  P6  1  0.650688  0.646408  0.694010  1
  P  P7  1  0.349312  0.353592  0.305990  1
  O  O8  1  0.729360  0.623676  0.474322  1
  O  O9  1  0.270640  0.376324  0.525678  1
  O  O10  1  0.993876  0.125839  0.688188  1
  O  O11  1  0.006124  0.874161  0.311812  1
  O  O12  1  0.556866  0.254218  0.343953  1
  O  O13  1  0.443134  0.745782  0.656047  1
  O  O14  1  0.331640  0.584562  0.137924  1
  O  O15  1  0.668360  0.415438  0.862075  1
  O  O16  1  0.914943  0.608392  0.162816  1
  O  O17  1  0.085057  0.391608  0.837184  1
  O  O18  1  0.708117  0.953960  0.117151  1
  O  O19  1  0.291883  0.046040  0.882849  1
  O  O20  1  0.209734  0.209624  0.273529  1
  O  O21  1  0.790266  0.790376  0.726471  1
