# generated using pymatgen
data_ZnSnP2O7
_symmetry_space_group_name_H-M   'P 1'
_cell_length_a   6.69678299
_cell_length_b   6.85652683
_cell_length_c   7.03488463
_cell_angle_alpha   85.47887712
_cell_angle_beta   79.93251955
_cell_angle_gamma   66.71017101
_symmetry_Int_Tables_number   1
_chemical_formula_structural   ZnSnP2O7
_chemical_formula_sum   'Zn2 Sn2 P4 O14'
_cell_volume   292.11261209
_cell_formula_units_Z   2
loop_
 _symmetry_equiv_pos_site_id
 _symmetry_equiv_pos_as_xyz
  1  'x, y, z'
loop_
 _atom_site_type_symbol
 _atom_site_label
 _atom_site_symmetry_multiplicity
 _atom_site_fract_x
 _atom_site_fract_y
 _atom_site_fract_z
 _atom_site_occupancy
  Zn  Zn0  1  0.404593  0.652720  0.687443  1
  Zn  Zn1  1  0.595407  0.347281  0.312557  1
  Sn  Sn2  1  0.260931  0.115445  0.154432  1
  Sn  Sn3  1  0.739069  0.884555  0.845568  1
  P  P4  1  0.174814  0.666191  0.125816  1
  P  P5  1  0.825186  0.333809  0.874185  1
  P  P6  1  0.253358  0.224779  0.615497  1
  P  P7  1  0.746642  0.775221  0.384503  1
  O  O8  1  0.154315  0.724197  0.910099  1
  O  O9  1  0.845686  0.275803  0.089901  1
  O  O10  1  0.196109  0.831635  0.243046  1
  O  O11  1  0.803890  0.168365  0.756954  1
  O  O12  1  0.352630  0.445047  0.150577  1
  O  O13  1  0.647370  0.554953  0.849424  1
  O  O14  1  0.610313  0.632062  0.426537  1
  O  O15  1  0.389687  0.367938  0.573463  1
  O  O16  1  0.139743  0.217523  0.447501  1
  O  O17  1  0.860258  0.782475  0.552499  1
  O  O18  1  0.057868  0.354100  0.786432  1
  O  O19  1  0.618636  0.995773  0.301916  1
  O  O20  1  0.381365  0.004227  0.698084  1
  O  O21  1  0.942132  0.645899  0.213567  1
