# generated using pymatgen
data_Zn2CoN2
_symmetry_space_group_name_H-M   'P 1'
_cell_length_a   3.70577611
_cell_length_b   6.39918778
_cell_length_c   5.92603843
_cell_angle_alpha   72.86411351
_cell_angle_beta   71.69273687
_cell_angle_gamma   73.04988720
_symmetry_Int_Tables_number   1
_chemical_formula_structural   Zn2CoN2
_chemical_formula_sum   'Zn4 Co2 N4'
_cell_volume   124.38991991
_cell_formula_units_Z   2
loop_
 _symmetry_equiv_pos_site_id
 _symmetry_equiv_pos_as_xyz
  1  'x, y, z'
loop_
 _atom_site_type_symbol
 _atom_site_label
 _atom_site_symmetry_multiplicity
 _atom_site_fract_x
 _atom_site_fract_y
 _atom_site_fract_z
 _atom_site_occupancy
  Zn  Zn0  1  0.684182  0.216272  0.409003  1
  Zn  Zn1  1  0.313549  0.781725  0.588968  1
  Zn  Zn2  1  0.048639  0.659814  0.242338  1
  Zn  Zn3  1  0.941333  0.342088  0.761987  1
  Co  Co4  1  0.370296  0.116709  0.136039  1
  Co  Co5  1  0.622714  0.888796  0.862187  1
  N  N6  1  0.166835  0.325657  0.332847  1
  N  N7  1  0.827630  0.676391  0.669607  1
  N  N8  1  0.496485  0.197639  0.802889  1
  N  N9  1  0.498367  0.807162  0.196666  1
