# generated using pymatgen
data_CaBi3O7
_symmetry_space_group_name_H-M   'P 1'
_cell_length_a   5.74695520
_cell_length_b   11.19135952
_cell_length_c   11.22876835
_cell_angle_alpha   90.00000000
_cell_angle_beta   90.00000000
_cell_angle_gamma   90.00000000
_symmetry_Int_Tables_number   1
_chemical_formula_structural   CaBi3O7
_chemical_formula_sum   'Ca4 Bi12 O28'
_cell_volume   722.19218019
_cell_formula_units_Z   4
loop_
 _symmetry_equiv_pos_site_id
 _symmetry_equiv_pos_as_xyz
  1  'x, y, z'
loop_
 _atom_site_type_symbol
 _atom_site_label
 _atom_site_symmetry_multiplicity
 _atom_site_fract_x
 _atom_site_fract_y
 _atom_site_fract_z
 _atom_site_occupancy
  Ca  Ca0  1  0.682637  0.750000  0.855915  1
  Ca  Ca1  1  0.182637  0.250000  0.644085  1
  Ca  Ca2  1  0.317363  0.250000  0.144085  1
  Ca  Ca3  1  0.817363  0.750000  0.355915  1
  Bi  Bi4  1  0.357703  0.991271  0.366568  1
  Bi  Bi5  1  0.857703  0.008729  0.133432  1
  Bi  Bi6  1  0.642297  0.491271  0.633432  1
  Bi  Bi7  1  0.142297  0.508729  0.866568  1
  Bi  Bi8  1  0.321284  0.750000  0.147729  1
  Bi  Bi9  1  0.821284  0.250000  0.352271  1
  Bi  Bi10  1  0.678716  0.250000  0.852271  1
  Bi  Bi11  1  0.178716  0.750000  0.647729  1
  Bi  Bi12  1  0.857703  0.491271  0.133432  1
  Bi  Bi13  1  0.357703  0.508729  0.366568  1
  Bi  Bi14  1  0.142297  0.991271  0.866568  1
  Bi  Bi15  1  0.642297  0.008729  0.633432  1
  O  O16  1  0.927717  0.127240  0.776455  1
  O  O17  1  0.427717  0.872760  0.723545  1
  O  O18  1  0.072283  0.627240  0.223545  1
  O  O19  1  0.572283  0.372760  0.276455  1
  O  O20  1  0.072283  0.872760  0.223545  1
  O  O21  1  0.572283  0.127240  0.276455  1
  O  O22  1  0.927717  0.372760  0.776455  1
  O  O23  1  0.427717  0.627240  0.723545  1
  O  O24  1  0.435599  0.125082  0.782907  1
  O  O25  1  0.935599  0.874918  0.717093  1
  O  O26  1  0.564401  0.625082  0.217093  1
  O  O27  1  0.064401  0.374918  0.282907  1
  O  O28  1  0.564401  0.874918  0.217093  1
  O  O29  1  0.064401  0.125082  0.282907  1
  O  O30  1  0.435599  0.374918  0.782907  1
  O  O31  1  0.935599  0.625082  0.717093  1
  O  O32  1  0.172622  0.750000  0.466008  1
  O  O33  1  0.672622  0.250000  0.033992  1
  O  O34  1  0.827378  0.250000  0.533992  1
  O  O35  1  0.327378  0.750000  0.966008  1
  O  O36  1  0.160185  0.414952  0.038046  1
  O  O37  1  0.660185  0.585048  0.461954  1
  O  O38  1  0.839815  0.914952  0.961954  1
  O  O39  1  0.339815  0.085048  0.538046  1
  O  O40  1  0.839815  0.585048  0.961954  1
  O  O41  1  0.339815  0.414952  0.538046  1
  O  O42  1  0.160185  0.085048  0.038046  1
  O  O43  1  0.660185  0.914952  0.461954  1
