# generated using pymatgen
data_Sb2S5
_symmetry_space_group_name_H-M   'P 1'
_cell_length_a   7.82243449
_cell_length_b   8.96168047
_cell_length_c   14.62369328
_cell_angle_alpha   113.83565625
_cell_angle_beta   90.00000000
_cell_angle_gamma   90.00000000
_symmetry_Int_Tables_number   1
_chemical_formula_structural   Sb2S5
_chemical_formula_sum   'Sb8 S20'
_cell_volume   937.71552480
_cell_formula_units_Z   4
loop_
 _symmetry_equiv_pos_site_id
 _symmetry_equiv_pos_as_xyz
  1  'x, y, z'
loop_
 _atom_site_type_symbol
 _atom_site_label
 _atom_site_symmetry_multiplicity
 _atom_site_fract_x
 _atom_site_fract_y
 _atom_site_fract_z
 _atom_site_occupancy
  Sb  Sb0  1  0.097878  0.920295  0.381513  1
  Sb  Sb1  1  0.597878  0.579705  0.618487  1
  Sb  Sb2  1  0.902122  0.079705  0.618487  1
  Sb  Sb3  1  0.402122  0.420295  0.381513  1
  Sb  Sb4  1  0.177757  0.528916  0.118890  1
  Sb  Sb5  1  0.677757  0.971084  0.881110  1
  Sb  Sb6  1  0.822243  0.471084  0.881110  1
  Sb  Sb7  1  0.322243  0.028916  0.118890  1
  S  S8  1  0.282793  0.643025  0.288755  1
  S  S9  1  0.782793  0.856975  0.711245  1
  S  S10  1  0.717207  0.356975  0.711245  1
  S  S11  1  0.217207  0.143025  0.288755  1
  S  S12  1  0.364738  0.903125  0.832641  1
  S  S13  1  0.864738  0.596875  0.167359  1
  S  S14  1  0.635262  0.096875  0.167359  1
  S  S15  1  0.135262  0.403125  0.832641  1
  S  S16  1  0.361206  0.661820  0.750452  1
  S  S17  1  0.861206  0.838180  0.249548  1
  S  S18  1  0.638794  0.338180  0.249548  1
  S  S19  1  0.138794  0.161820  0.750452  1
  S  S20  1  0.052678  0.816193  0.511149  1
  S  S21  1  0.552678  0.683807  0.488851  1
  S  S22  1  0.947322  0.183807  0.488851  1
  S  S23  1  0.447322  0.316193  0.511149  1
  S  S24  1  0.780811  0.778313  0.951571  1
  S  S25  1  0.280811  0.721687  0.048429  1
  S  S26  1  0.219189  0.221687  0.048429  1
  S  S27  1  0.719189  0.278313  0.951571  1
