# generated using pymatgen
data_ZnBiMoO5
_symmetry_space_group_name_H-M   'P 1'
_cell_length_a   5.31068523
_cell_length_b   10.48286586
_cell_length_c   16.05838235
_cell_angle_alpha   90.00000000
_cell_angle_beta   90.00000000
_cell_angle_gamma   90.00000000
_symmetry_Int_Tables_number   1
_chemical_formula_structural   ZnBiMoO5
_chemical_formula_sum   'Zn8 Bi8 Mo8 O40'
_cell_volume   893.98942979
_cell_formula_units_Z   8
loop_
 _symmetry_equiv_pos_site_id
 _symmetry_equiv_pos_as_xyz
  1  'x, y, z'
loop_
 _atom_site_type_symbol
 _atom_site_label
 _atom_site_symmetry_multiplicity
 _atom_site_fract_x
 _atom_site_fract_y
 _atom_site_fract_z
 _atom_site_occupancy
  Zn  Zn0  1  0.539295  0.376142  0.437630  1
  Zn  Zn1  1  0.039295  0.123858  0.437630  1
  Zn  Zn2  1  0.039295  0.623858  0.062370  1
  Zn  Zn3  1  0.960705  0.376142  0.937630  1
  Zn  Zn4  1  0.460705  0.123858  0.937630  1
  Zn  Zn5  1  0.960705  0.876142  0.562370  1
  Zn  Zn6  1  0.460705  0.623858  0.562370  1
  Zn  Zn7  1  0.539295  0.876142  0.062370  1
  Bi  Bi8  1  0.998929  0.858718  0.223629  1
  Bi  Bi9  1  0.001070  0.141282  0.776371  1
  Bi  Bi10  1  0.501071  0.358718  0.776371  1
  Bi  Bi11  1  0.001070  0.641282  0.723629  1
  Bi  Bi12  1  0.498930  0.141282  0.276371  1
  Bi  Bi13  1  0.498930  0.641282  0.223629  1
  Bi  Bi14  1  0.501071  0.858718  0.723629  1
  Bi  Bi15  1  0.998929  0.358718  0.276371  1
  Mo  Mo16  1  0.982667  0.375848  0.584012  1
  Mo  Mo17  1  0.517333  0.875848  0.415988  1
  Mo  Mo18  1  0.017333  0.624152  0.415988  1
  Mo  Mo19  1  0.482667  0.124152  0.584012  1
  Mo  Mo20  1  0.017333  0.124152  0.084012  1
  Mo  Mo21  1  0.982667  0.875848  0.915988  1
  Mo  Mo22  1  0.517333  0.375848  0.084012  1
  Mo  Mo23  1  0.482667  0.624152  0.915988  1
  O  O24  1  0.886296  0.326985  0.694555  1
  O  O25  1  0.278474  0.026489  0.043017  1
  O  O26  1  0.221526  0.526489  0.956983  1
  O  O27  1  0.323147  0.787032  0.148274  1
  O  O28  1  0.176853  0.287032  0.851726  1
  O  O29  1  0.886296  0.826985  0.805445  1
  O  O30  1  0.176853  0.787032  0.648274  1
  O  O31  1  0.613704  0.826985  0.305445  1
  O  O32  1  0.278474  0.526489  0.456983  1
  O  O33  1  0.113704  0.673015  0.305445  1
  O  O34  1  0.613704  0.326985  0.194555  1
  O  O35  1  0.726396  0.224727  0.530956  1
  O  O36  1  0.778474  0.973511  0.456983  1
  O  O37  1  0.676853  0.712968  0.648274  1
  O  O38  1  0.195592  0.014991  0.873170  1
  O  O39  1  0.778474  0.473511  0.043017  1
  O  O40  1  0.113704  0.173015  0.194555  1
  O  O41  1  0.823147  0.212968  0.351726  1
  O  O42  1  0.226396  0.775273  0.969044  1
  O  O43  1  0.221526  0.026489  0.543017  1
  O  O44  1  0.273604  0.775273  0.469044  1
  O  O45  1  0.804408  0.985009  0.126830  1
  O  O46  1  0.676853  0.212968  0.851726  1
  O  O47  1  0.695592  0.985009  0.626830  1
  O  O48  1  0.273604  0.275273  0.030956  1
  O  O49  1  0.226396  0.275273  0.530956  1
  O  O50  1  0.721526  0.473511  0.543017  1
  O  O51  1  0.721526  0.973511  0.956983  1
  O  O52  1  0.695592  0.485009  0.873170  1
  O  O53  1  0.773604  0.724727  0.469044  1
  O  O54  1  0.773604  0.224727  0.030956  1
  O  O55  1  0.726396  0.724727  0.969044  1
  O  O56  1  0.804408  0.485009  0.373170  1
  O  O57  1  0.823147  0.712968  0.148274  1
  O  O58  1  0.323147  0.287032  0.351726  1
  O  O59  1  0.195592  0.514991  0.626830  1
  O  O60  1  0.304408  0.514991  0.126830  1
  O  O61  1  0.386296  0.173015  0.694555  1
  O  O62  1  0.304408  0.014991  0.373170  1
  O  O63  1  0.386296  0.673015  0.805445  1
