# generated using pymatgen
data_Sr2YTlNi2O7
_symmetry_space_group_name_H-M   'P 1'
_cell_length_a   3.86564475
_cell_length_b   3.86560909
_cell_length_c   12.03435421
_cell_angle_alpha   90.00005413
_cell_angle_beta   90.00001047
_cell_angle_gamma   90.00351248
_symmetry_Int_Tables_number   1
_chemical_formula_structural   Sr2YTlNi2O7
_chemical_formula_sum   'Sr2 Y1 Tl1 Ni2 O7'
_cell_volume   179.83021506
_cell_formula_units_Z   1
loop_
 _symmetry_equiv_pos_site_id
 _symmetry_equiv_pos_as_xyz
  1  'x, y, z'
loop_
 _atom_site_type_symbol
 _atom_site_label
 _atom_site_symmetry_multiplicity
 _atom_site_fract_x
 _atom_site_fract_y
 _atom_site_fract_z
 _atom_site_occupancy
  Sr  Sr0  1  0.500000  0.500000  0.789238  1
  Sr  Sr1  1  0.500000  0.500001  0.210772  1
  Y  Y2  1  0.499999  0.499999  0.499998  1
  Tl  Tl3  1  0.000000  0.000003  0.000003  1
  Ni  Ni4  1  0.999999  0.999998  0.649913  1
  Ni  Ni5  1  0.999999  1.000000  0.350090  1
  O  O6  1  0.499999  0.999999  0.620075  1
  O  O7  1  0.999999  0.500000  0.620071  1
  O  O8  1  0.500001  0.999999  0.379915  1
  O  O9  1  0.999999  0.500000  0.379920  1
  O  O10  1  0.000005  0.999999  0.819679  1
  O  O11  1  0.000000  0.000004  0.180323  1
  O  O12  1  0.500000  0.500001  0.000004  1
