# generated using pymatgen
data_Sr2YCu2NiO7
_symmetry_space_group_name_H-M   'P 1'
_cell_length_a   5.42577735
_cell_length_b   5.51791931
_cell_length_c   12.18443179
_cell_angle_alpha   103.10949647
_cell_angle_beta   102.89800865
_cell_angle_gamma   90.00836888
_symmetry_Int_Tables_number   1
_chemical_formula_structural   Sr2YCu2NiO7
_chemical_formula_sum   'Sr4 Y2 Cu4 Ni2 O14'
_cell_volume   345.82290509
_cell_formula_units_Z   2
loop_
 _symmetry_equiv_pos_site_id
 _symmetry_equiv_pos_as_xyz
  1  'x, y, z'
loop_
 _atom_site_type_symbol
 _atom_site_label
 _atom_site_symmetry_multiplicity
 _atom_site_fract_x
 _atom_site_fract_y
 _atom_site_fract_z
 _atom_site_occupancy
  Sr  Sr0  1  0.335405  0.333628  0.694169  1
  Sr  Sr1  1  0.641483  0.665516  0.304928  1
  Sr  Sr2  1  0.835749  0.861701  0.694247  1
  Sr  Sr3  1  0.142055  0.136970  0.304896  1
  Y  Y4  1  0.989899  0.997065  0.999114  1
  Y  Y5  1  0.490150  0.497133  0.999239  1
  Cu  Cu6  1  0.915884  0.426448  0.854455  1
  Cu  Cu7  1  0.061296  0.569828  0.144950  1
  Cu  Cu8  1  0.415167  0.924701  0.853073  1
  Cu  Cu9  1  0.560369  0.069717  0.143481  1
  Ni  Ni10  1  0.277890  0.677086  0.499638  1
  Ni  Ni11  1  0.777014  0.321679  0.499856  1
  O  O12  1  0.130247  0.362754  0.499243  1
  O  O13  1  0.631341  0.635830  0.499625  1
  O  O14  1  0.181488  0.191862  0.876099  1
  O  O15  1  0.304194  0.803230  0.121587  1
  O  O16  1  0.682364  0.181460  0.876144  1
  O  O17  1  0.804846  0.814173  0.122788  1
  O  O18  1  0.670490  0.679483  0.871154  1
  O  O19  1  0.798747  0.314701  0.127828  1
  O  O20  1  0.169839  0.687329  0.870109  1
  O  O21  1  0.299250  0.307602  0.127851  1
  O  O22  1  0.291001  0.863419  0.648259  1
  O  O23  1  0.638675  0.132673  0.352413  1
  O  O24  1  0.790556  0.284529  0.648467  1
  O  O25  1  0.141706  0.714092  0.350673  1
