# generated using pymatgen
data_CaNiF5
_symmetry_space_group_name_H-M   'P 1'
_cell_length_a   5.50263477
_cell_length_b   7.69841591
_cell_length_c   10.06572244
_cell_angle_alpha   90.00000000
_cell_angle_beta   90.00000000
_cell_angle_gamma   110.24605105
_symmetry_Int_Tables_number   1
_chemical_formula_structural   CaNiF5
_chemical_formula_sum   'Ca4 Ni4 F20'
_cell_volume   400.05478474
_cell_formula_units_Z   4
loop_
 _symmetry_equiv_pos_site_id
 _symmetry_equiv_pos_as_xyz
  1  'x, y, z'
loop_
 _atom_site_type_symbol
 _atom_site_label
 _atom_site_symmetry_multiplicity
 _atom_site_fract_x
 _atom_site_fract_y
 _atom_site_fract_z
 _atom_site_occupancy
  Ca  Ca0  1  0.467129  0.743392  0.021593  1
  Ca  Ca1  1  0.532871  0.756608  0.521593  1
  Ca  Ca2  1  0.532871  0.256608  0.978407  1
  Ca  Ca3  1  0.467129  0.243392  0.478407  1
  Ni  Ni4  1  0.890295  0.598809  0.753007  1
  Ni  Ni5  1  0.109705  0.901191  0.253007  1
  Ni  Ni6  1  0.109705  0.401191  0.246993  1
  Ni  Ni7  1  0.890295  0.098809  0.746993  1
  F  F8  1  0.613229  0.556356  0.879930  1
  F  F9  1  0.386771  0.943644  0.379930  1
  F  F10  1  0.386771  0.443644  0.120070  1
  F  F11  1  0.613229  0.056356  0.620070  1
  F  F12  1  0.644572  0.505810  0.614110  1
  F  F13  1  0.355428  0.994190  0.114110  1
  F  F14  1  0.355428  0.494190  0.385890  1
  F  F15  1  0.644572  0.005810  0.885890  1
  F  F16  1  0.883229  0.811410  0.393495  1
  F  F17  1  0.116771  0.688590  0.893495  1
  F  F18  1  0.116771  0.188590  0.606505  1
  F  F19  1  0.883229  0.311410  0.106505  1
  F  F20  1  0.835376  0.861381  0.137282  1
  F  F21  1  0.164624  0.638619  0.637282  1
  F  F22  1  0.164624  0.138619  0.862718  1
  F  F23  1  0.835376  0.361381  0.362718  1
  F  F24  1  0.850014  0.837919  0.701275  1
  F  F25  1  0.149986  0.662081  0.201275  1
  F  F26  1  0.149986  0.162081  0.298725  1
  F  F27  1  0.850014  0.337919  0.798725  1
