# generated using pymatgen
data_Zn2BiWO6
_symmetry_space_group_name_H-M   'P 1'
_cell_length_a   5.67021581
_cell_length_b   7.36074404
_cell_length_c   7.83581600
_cell_angle_alpha   84.67280845
_cell_angle_beta   135.09179027
_cell_angle_gamma   126.31279637
_symmetry_Int_Tables_number   1
_chemical_formula_structural   Zn2BiWO6
_chemical_formula_sum   'Zn2 Bi1 W1 O6'
_cell_volume   152.33517196
_cell_formula_units_Z   1
loop_
 _symmetry_equiv_pos_site_id
 _symmetry_equiv_pos_as_xyz
  1  'x, y, z'
loop_
 _atom_site_type_symbol
 _atom_site_label
 _atom_site_symmetry_multiplicity
 _atom_site_fract_x
 _atom_site_fract_y
 _atom_site_fract_z
 _atom_site_occupancy
  Zn  Zn0  1  0.990840  0.621869  0.247633  1
  Zn  Zn1  1  0.059118  0.686505  0.834569  1
  Bi  Bi2  1  0.070291  0.024394  0.535935  1
  W  W3  1  0.034872  0.021685  0.006653  1
  O  O4  1  0.131492  0.956871  0.293539  1
  O  O5  1  0.663920  0.788734  0.623512  1
  O  O6  1  0.372267  0.369552  0.100248  1
  O  O7  1  0.343110  0.816411  0.745026  1
  O  O8  1  0.548944  0.048034  0.190273  1
  O  O9  1  0.745839  0.456860  0.896320  1
