# generated using pymatgen
data_AlCo3F15
_symmetry_space_group_name_H-M   'P 1'
_cell_length_a   9.15854857
_cell_length_b   5.87068028
_cell_length_c   10.68657704
_cell_angle_alpha   90.00000000
_cell_angle_beta   90.00000000
_cell_angle_gamma   105.43093777
_symmetry_Int_Tables_number   1
_chemical_formula_structural   AlCo3F15
_chemical_formula_sum   'Al2 Co6 F30'
_cell_volume   553.87154502
_cell_formula_units_Z   2
loop_
 _symmetry_equiv_pos_site_id
 _symmetry_equiv_pos_as_xyz
  1  'x, y, z'
loop_
 _atom_site_type_symbol
 _atom_site_label
 _atom_site_symmetry_multiplicity
 _atom_site_fract_x
 _atom_site_fract_y
 _atom_site_fract_z
 _atom_site_occupancy
  Al  Al0  1  0.910498  0.440653  0.250000  1
  Al  Al1  1  0.422835  0.559347  0.750000  1
  Co  Co2  1  0.166667  0.000000  0.500000  1
  Co  Co3  1  0.505103  0.016631  0.499566  1
  Co  Co4  1  0.828230  0.983369  0.500434  1
  Co  Co5  1  0.166667  0.000000  0.000000  1
  Co  Co6  1  0.505103  0.016631  0.000434  1
  Co  Co7  1  0.828230  0.983369  0.999566  1
  F  F8  1  0.096355  0.578617  0.250000  1
  F  F9  1  0.441531  0.646239  0.250000  1
  F  F10  1  0.786730  0.606509  0.250000  1
  F  F11  1  0.236978  0.421383  0.750000  1
  F  F12  1  0.546604  0.393491  0.750000  1
  F  F13  1  0.891802  0.353761  0.750000  1
  F  F14  1  0.027291  0.127467  0.589569  1
  F  F15  1  0.341107  0.120134  0.600759  1
  F  F16  1  0.694994  0.129309  0.594342  1
  F  F17  1  0.306043  0.872533  0.410431  1
  F  F18  1  0.638339  0.870691  0.405658  1
  F  F19  1  0.992226  0.879866  0.399241  1
  F  F20  1  0.117365  0.743864  0.908938  1
  F  F21  1  0.456561  0.743404  0.881575  1
  F  F22  1  0.794557  0.726805  0.910351  1
  F  F23  1  0.215969  0.256136  0.091062  1
  F  F24  1  0.538776  0.273195  0.089649  1
  F  F25  1  0.876772  0.256596  0.118425  1
  F  F26  1  0.215969  0.256136  0.408938  1
  F  F27  1  0.538776  0.273195  0.410351  1
  F  F28  1  0.876772  0.256596  0.381575  1
  F  F29  1  0.117365  0.743864  0.591062  1
  F  F30  1  0.456561  0.743404  0.618425  1
  F  F31  1  0.794557  0.726805  0.589649  1
  F  F32  1  0.027291  0.127467  0.910431  1
  F  F33  1  0.341107  0.120134  0.899241  1
  F  F34  1  0.694994  0.129309  0.905658  1
  F  F35  1  0.306043  0.872533  0.089569  1
  F  F36  1  0.638339  0.870691  0.094342  1
  F  F37  1  0.992226  0.879866  0.100759  1
