# generated using pymatgen
data_Ca3As4W3O16
_symmetry_space_group_name_H-M   'P 1'
_cell_length_a   5.21454090
_cell_length_b   10.50540180
_cell_length_c   15.19855833
_cell_angle_alpha   95.65148628
_cell_angle_beta   90.00000000
_cell_angle_gamma   90.00000000
_symmetry_Int_Tables_number   1
_chemical_formula_structural   Ca3As4W3O16
_chemical_formula_sum   'Ca6 As8 W6 O32'
_cell_volume   828.54294171
_cell_formula_units_Z   2
loop_
 _symmetry_equiv_pos_site_id
 _symmetry_equiv_pos_as_xyz
  1  'x, y, z'
loop_
 _atom_site_type_symbol
 _atom_site_label
 _atom_site_symmetry_multiplicity
 _atom_site_fract_x
 _atom_site_fract_y
 _atom_site_fract_z
 _atom_site_occupancy
  Ca  Ca0  1  0.972093  0.002895  0.732145  1
  Ca  Ca1  1  0.472093  0.497105  0.767855  1
  Ca  Ca2  1  0.027907  0.997105  0.267855  1
  Ca  Ca3  1  0.527907  0.502895  0.232145  1
  Ca  Ca4  1  -0.000000  -0.000000  0.000000  1
  Ca  Ca5  1  0.500000  0.500000  0.500000  1
  As  As6  1  0.489338  0.881330  0.835428  1
  As  As7  1  0.112912  0.284690  0.883098  1
  As  As8  1  0.612912  0.215310  0.616902  1
  As  As9  1  0.387088  0.784690  0.383098  1
  As  As10  1  0.510662  0.118670  0.164572  1
  As  As11  1  0.887088  0.715310  0.116902  1
  As  As12  1  0.010662  0.381330  0.335428  1
  As  As13  1  0.989338  0.618670  0.664572  1
  W  W14  1  0.043157  0.314927  0.102771  1
  W  W15  1  0.956843  0.685073  0.897229  1
  W  W16  1  0.543157  0.185073  0.397229  1
  W  W17  1  0.456843  0.814927  0.602771  1
  W  W18  1  0.500000  0.500000  0.000000  1
  W  W19  1  -0.000000  -0.000000  0.500000  1
  O  O20  1  0.012503  0.572721  0.773010  1
  O  O21  1  0.647444  0.287984  0.509059  1
  O  O22  1  0.178259  0.147682  0.815001  1
  O  O23  1  0.119632  0.772241  0.671540  1
  O  O24  1  0.821741  0.852318  0.184999  1
  O  O25  1  0.487497  0.072721  0.273010  1
  O  O26  1  0.678259  0.352318  0.684999  1
  O  O27  1  0.074998  0.873545  0.389162  1
  O  O28  1  0.826458  0.490727  0.394041  1
  O  O29  1  0.987497  0.427279  0.226990  1
  O  O30  1  0.380368  0.272241  0.171540  1
  O  O31  1  0.925002  0.126455  0.610838  1
  O  O32  1  0.271680  0.620772  0.943257  1
  O  O33  1  0.173542  0.509273  0.605959  1
  O  O34  1  0.830375  0.132073  0.134153  1
  O  O35  1  0.330375  0.367927  0.365847  1
  O  O36  1  0.771680  0.879228  0.556743  1
  O  O37  1  0.321741  0.647682  0.315001  1
  O  O38  1  0.326458  0.009273  0.105959  1
  O  O39  1  0.574998  0.626455  0.110838  1
  O  O40  1  0.669625  0.632073  0.634153  1
  O  O41  1  0.169625  0.867927  0.865847  1
  O  O42  1  0.352556  0.712016  0.490941  1
  O  O43  1  0.147444  0.212016  0.990941  1
  O  O44  1  0.728320  0.379228  0.056743  1
  O  O45  1  0.512503  0.927279  0.726990  1
  O  O46  1  0.880368  0.227759  0.328460  1
  O  O47  1  0.673542  0.990727  0.894041  1
  O  O48  1  0.852556  0.787984  0.009059  1
  O  O49  1  0.425002  0.373545  0.889162  1
  O  O50  1  0.228320  0.120772  0.443257  1
  O  O51  1  0.619632  0.727759  0.828460  1
