# generated using pymatgen
data_CaMn2O4
_symmetry_space_group_name_H-M   'P 1'
_cell_length_a   6.47932820
_cell_length_b   6.05420465
_cell_length_c   19.29937109
_cell_angle_alpha   61.73150831
_cell_angle_beta   57.36856018
_cell_angle_gamma   62.07632717
_symmetry_Int_Tables_number   1
_chemical_formula_structural   CaMn2O4
_chemical_formula_sum   'Ca6 Mn12 O24'
_cell_volume   537.89409081
_cell_formula_units_Z   6
loop_
 _symmetry_equiv_pos_site_id
 _symmetry_equiv_pos_as_xyz
  1  'x, y, z'
loop_
 _atom_site_type_symbol
 _atom_site_label
 _atom_site_symmetry_multiplicity
 _atom_site_fract_x
 _atom_site_fract_y
 _atom_site_fract_z
 _atom_site_occupancy
  Ca  Ca0  1  0.120934  0.118504  0.049653  1
  Ca  Ca1  1  0.103181  0.128821  0.384269  1
  Ca  Ca2  1  0.495013  0.499442  0.335272  1
  Ca  Ca3  1  0.097051  0.117883  0.724824  1
  Ca  Ca4  1  0.523274  0.498338  0.994376  1
  Ca  Ca5  1  0.872802  0.880131  0.619561  1
  Mn  Mn6  1  0.498030  0.502265  0.165939  1
  Mn  Mn7  1  0.502285  0.000479  0.166197  1
  Mn  Mn8  1  0.479313  0.508172  0.502280  1
  Mn  Mn9  1  0.010768  0.490076  0.168212  1
  Mn  Mn10  1  0.483970  0.000356  0.503720  1
  Mn  Mn11  1  0.494312  0.503807  0.664888  1
  Mn  Mn12  1  0.883599  0.879429  0.280604  1
  Mn  Mn13  1  0.507490  0.499177  0.830638  1
  Mn  Mn14  1  0.987803  0.490663  0.510284  1
  Mn  Mn15  1  0.506864  0.001864  0.830769  1
  Mn  Mn16  1  0.025489  0.497858  0.827316  1
  Mn  Mn17  1  0.893896  0.876843  0.952284  1
  O  O18  1  0.271694  0.222666  0.107459  1
  O  O19  1  0.294195  0.238709  0.240415  1
  O  O20  1  0.243491  0.697015  0.100002  1
  O  O21  1  0.695758  0.257724  0.096059  1
  O  O22  1  0.227108  0.237265  0.448182  1
  O  O23  1  0.291725  0.741908  0.240585  1
  O  O24  1  0.252737  0.286235  0.579933  1
  O  O25  1  0.773049  0.279518  0.236374  1
  O  O26  1  0.709504  0.764465  0.089693  1
  O  O27  1  0.236232  0.696636  0.446667  1
  O  O28  1  0.675069  0.256616  0.436818  1
  O  O29  1  0.745023  0.772102  0.226755  1
  O  O30  1  0.279391  0.277370  0.749866  1
  O  O31  1  0.301127  0.739571  0.572934  1
  O  O32  1  0.707874  0.320955  0.572159  1
  O  O33  1  0.302425  0.246560  0.901476  1
  O  O34  1  0.707637  0.734753  0.417963  1
  O  O35  1  0.279935  0.698599  0.747286  1
  O  O36  1  0.690954  0.278132  0.751297  1
  O  O37  1  0.713788  0.747588  0.572215  1
  O  O38  1  0.297206  0.741688  0.905145  1
  O  O39  1  0.800347  0.272395  0.893297  1
  O  O40  1  0.716016  0.749407  0.762517  1
  O  O41  1  0.801643  0.748009  0.893817  1
