# generated using pymatgen
data_Ba2CaCuNi2F14
_symmetry_space_group_name_H-M   'P 1'
_cell_length_a   5.40124535
_cell_length_b   7.37713059
_cell_length_c   14.88012530
_cell_angle_alpha   91.94929887
_cell_angle_beta   90.38627615
_cell_angle_gamma   111.11701036
_symmetry_Int_Tables_number   1
_chemical_formula_structural   Ba2CaCuNi2F14
_chemical_formula_sum   'Ba4 Ca2 Cu2 Ni4 F28'
_cell_volume   552.65822961
_cell_formula_units_Z   2
loop_
 _symmetry_equiv_pos_site_id
 _symmetry_equiv_pos_as_xyz
  1  'x, y, z'
loop_
 _atom_site_type_symbol
 _atom_site_label
 _atom_site_symmetry_multiplicity
 _atom_site_fract_x
 _atom_site_fract_y
 _atom_site_fract_z
 _atom_site_occupancy
  Ba  Ba0  1  0.133172  0.383413  0.625207  1
  Ba  Ba1  1  0.246245  0.383454  0.121773  1
  Ba  Ba2  1  0.868268  0.612096  0.378618  1
  Ba  Ba3  1  0.749630  0.611600  0.876103  1
  Ca  Ca4  1  0.420617  0.006047  0.752352  1
  Ca  Ca5  1  0.582358  0.004506  0.251766  1
  Cu  Cu6  1  0.498831  0.004975  0.999888  1
  Cu  Cu7  1  0.501176  0.000775  0.500587  1
  Ni  Ni8  1  0.101046  0.237047  0.875839  1
  Ni  Ni9  1  0.898897  0.761835  0.124448  1
  Ni  Ni10  1  0.141044  0.240911  0.375915  1
  Ni  Ni11  1  0.858355  0.759616  0.625019  1
  F  F12  1  0.931896  0.988732  0.345722  1
  F  F13  1  0.874305  0.265746  0.454799  1
  F  F14  1  0.126473  0.735356  0.546078  1
  F  F15  1  0.670651  0.499638  0.591357  1
  F  F16  1  0.612906  0.110530  0.615913  1
  F  F17  1  0.498594  0.886232  0.885152  1
  F  F18  1  0.391504  0.239181  0.956889  1
  F  F19  1  0.944683  0.017121  0.157339  1
  F  F20  1  0.372385  0.319319  0.775482  1
  F  F21  1  0.329636  0.496052  0.406116  1
  F  F22  1  0.831394  0.246857  0.792154  1
  F  F23  1  0.180249  0.501241  0.911286  1
  F  F24  1  0.412786  0.245101  0.293133  1
  F  F25  1  0.167151  0.752107  0.205432  1
  F  F26  1  0.498621  0.112076  0.117587  1
  F  F27  1  0.639819  0.684435  0.222224  1
  F  F28  1  0.132199  0.831707  0.020083  1
  F  F29  1  0.073094  0.015618  0.655195  1
  F  F30  1  0.863746  0.166401  0.985020  1
  F  F31  1  0.696648  0.830571  0.517135  1
  F  F32  1  0.605824  0.748084  0.045863  1
  F  F33  1  0.584734  0.753720  0.705408  1
  F  F34  1  0.952287  0.320122  0.275743  1
  F  F35  1  0.305525  0.168017  0.483447  1
  F  F36  1  0.388086  0.886216  0.384982  1
  F  F37  1  0.054392  0.975790  0.842498  1
  F  F38  1  0.043859  0.681278  0.722003  1
  F  F39  1  0.820323  0.500942  0.090099  1
