# generated using pymatgen
data_TaAl(WO4)2
_symmetry_space_group_name_H-M   'P 1'
_cell_length_a   5.19758057
_cell_length_b   5.62500147
_cell_length_c   9.33638403
_cell_angle_alpha   90.00000000
_cell_angle_beta   90.13878733
_cell_angle_gamma   90.00000000
_symmetry_Int_Tables_number   1
_chemical_formula_structural   TaAl(WO4)2
_chemical_formula_sum   'Ta2 Al2 W4 O16'
_cell_volume   272.96144152
_cell_formula_units_Z   2
loop_
 _symmetry_equiv_pos_site_id
 _symmetry_equiv_pos_as_xyz
  1  'x, y, z'
loop_
 _atom_site_type_symbol
 _atom_site_label
 _atom_site_symmetry_multiplicity
 _atom_site_fract_x
 _atom_site_fract_y
 _atom_site_fract_z
 _atom_site_occupancy
  Ta  Ta0  1  0.750000  0.357251  0.250000  1
  Ta  Ta1  1  0.250000  0.642748  0.750000  1
  Al  Al2  1  0.250000  0.669430  0.250000  1
  Al  Al3  1  0.749999  0.330569  0.750000  1
  W  W4  1  0.245001  0.161383  0.497930  1
  W  W5  1  0.254998  0.161383  0.002071  1
  W  W6  1  0.754999  0.838617  0.502070  1
  W  W7  1  0.745002  0.838617  0.997929  1
  O  O8  1  0.419955  0.402898  0.140151  1
  O  O9  1  0.080044  0.402898  0.359848  1
  O  O10  1  0.580045  0.597101  0.859849  1
  O  O11  1  0.919955  0.597101  0.640152  1
  O  O12  1  0.398526  0.873453  0.616007  1
  O  O13  1  0.101474  0.873453  0.883993  1
  O  O14  1  0.601474  0.126547  0.383993  1
  O  O15  1  0.898526  0.126547  0.116007  1
  O  O16  1  0.931790  0.625683  0.143077  1
  O  O17  1  0.568210  0.625683  0.356923  1
  O  O18  1  0.068210  0.374318  0.856923  1
  O  O19  1  0.431790  0.374318  0.643077  1
  O  O20  1  0.402134  0.885579  0.118922  1
  O  O21  1  0.597866  0.114422  0.881078  1
  O  O22  1  0.097867  0.885579  0.381079  1
  O  O23  1  0.902133  0.114422  0.618921  1
