# generated using pymatgen
data_V2(PO4)3
_symmetry_space_group_name_H-M   'P 1'
_cell_length_a   6.23680313
_cell_length_b   8.13602103
_cell_length_c   9.42659278
_cell_angle_alpha   109.38277039
_cell_angle_beta   104.59494744
_cell_angle_gamma   102.52909342
_symmetry_Int_Tables_number   1
_chemical_formula_structural   V2(PO4)3
_chemical_formula_sum   'V4 P6 O24'
_cell_volume   412.31407589
_cell_formula_units_Z   2
loop_
 _symmetry_equiv_pos_site_id
 _symmetry_equiv_pos_as_xyz
  1  'x, y, z'
loop_
 _atom_site_type_symbol
 _atom_site_label
 _atom_site_symmetry_multiplicity
 _atom_site_fract_x
 _atom_site_fract_y
 _atom_site_fract_z
 _atom_site_occupancy
  V  V0  1  0.361478  0.456884  0.115686  1
  V  V1  1  0.945178  0.286351  0.480582  1
  V  V2  1  0.638435  0.543080  0.884334  1
  V  V3  1  0.054894  0.713671  0.519388  1
  P  P4  1  0.780553  0.831883  0.245391  1
  P  P5  1  0.219454  0.168135  0.754557  1
  P  P6  1  0.614080  0.776943  0.648215  1
  P  P7  1  0.385944  0.222965  0.351847  1
  P  P8  1  0.867338  0.371789  0.154762  1
  P  P9  1  0.132528  0.628170  0.845243  1
  O  O10  1  0.707143  0.974246  0.754020  1
  O  O11  1  0.292878  0.025751  0.246178  1
  O  O12  1  0.170883  0.826466  0.914254  1
  O  O13  1  0.829005  0.173446  0.085694  1
  O  O14  1  0.197150  0.966632  0.686486  1
  O  O15  1  0.802942  0.033444  0.313449  1
  O  O16  1  0.354542  0.708248  0.526760  1
  O  O17  1  0.645571  0.291821  0.473251  1
  O  O18  1  0.081338  0.548990  0.656297  1
  O  O19  1  0.918727  0.451031  0.343707  1
  O  O20  1  0.759901  0.698909  0.545936  1
  O  O21  1  0.240218  0.301228  0.454152  1
  O  O22  1  0.980401  0.792930  0.349235  1
  O  O23  1  0.672190  0.444231  0.076496  1
  O  O24  1  0.327760  0.555768  0.923524  1
  O  O25  1  0.540042  0.707879  0.237511  1
  O  O26  1  0.459830  0.292064  0.762478  1
  O  O27  1  0.097399  0.491924  0.140191  1
  O  O28  1  0.019546  0.207098  0.650754  1
  O  O29  1  0.413189  0.355688  0.255046  1
  O  O30  1  0.586752  0.644292  0.744762  1
  O  O31  1  0.223331  0.234225  0.932286  1
  O  O32  1  0.776617  0.765759  0.067783  1
  O  O33  1  0.902767  0.508058  0.859748  1
