# generated using pymatgen
data_CaTi2O4
_symmetry_space_group_name_H-M   'P 1'
_cell_length_a   6.36574242
_cell_length_b   6.17664943
_cell_length_c   18.59359227
_cell_angle_alpha   60.14057200
_cell_angle_beta   60.65537068
_cell_angle_gamma   61.02083565
_symmetry_Int_Tables_number   1
_chemical_formula_structural   CaTi2O4
_chemical_formula_sum   'Ca6 Ti12 O24'
_cell_volume   523.96117559
_cell_formula_units_Z   6
loop_
 _symmetry_equiv_pos_site_id
 _symmetry_equiv_pos_as_xyz
  1  'x, y, z'
loop_
 _atom_site_type_symbol
 _atom_site_label
 _atom_site_symmetry_multiplicity
 _atom_site_fract_x
 _atom_site_fract_y
 _atom_site_fract_z
 _atom_site_occupancy
  Ca  Ca0  1  0.124163  0.130325  0.038324  1
  Ca  Ca1  1  0.501797  0.500644  0.332162  1
  Ca  Ca2  1  0.004707  0.498703  0.166039  1
  Ca  Ca3  1  0.505348  0.488989  0.672269  1
  Ca  Ca4  1  0.999941  0.499431  0.500391  1
  Ca  Ca5  1  0.003178  0.498247  0.833406  1
  Ti  Ti6  1  0.497697  0.008313  0.162795  1
  Ti  Ti7  1  0.130120  0.118265  0.377632  1
  Ti  Ti8  1  0.492494  0.513581  0.993372  1
  Ti  Ti9  1  0.497593  0.505579  0.162893  1
  Ti  Ti10  1  0.499160  0.994025  0.501174  1
  Ti  Ti11  1  0.133747  0.116193  0.711133  1
  Ti  Ti12  1  0.499144  0.503475  0.501119  1
  Ti  Ti13  1  0.499649  0.961562  0.841391  1
  Ti  Ti14  1  0.865918  0.884844  0.288199  1
  Ti  Ti15  1  0.499393  0.514563  0.841630  1
  Ti  Ti16  1  0.869920  0.882033  0.622140  1
  Ti  Ti17  1  0.853112  0.883010  0.960406  1
  O  O18  1  0.298663  0.253787  0.081749  1
  O  O19  1  0.269182  0.238682  0.251211  1
  O  O20  1  0.298675  0.702468  0.081728  1
  O  O21  1  0.695259  0.271569  0.087142  1
  O  O22  1  0.262024  0.221352  0.420919  1
  O  O23  1  0.242133  0.769246  0.239823  1
  O  O24  1  0.270898  0.238574  0.583995  1
  O  O25  1  0.734606  0.250404  0.241585  1
  O  O26  1  0.261933  0.754138  0.420845  1
  O  O27  1  0.727978  0.759802  0.084259  1
  O  O28  1  0.759613  0.238345  0.421137  1
  O  O29  1  0.734377  0.790098  0.241592  1
  O  O30  1  0.261344  0.212540  0.756897  1
  O  O31  1  0.243022  0.759239  0.579547  1
  O  O32  1  0.735613  0.246965  0.579486  1
  O  O33  1  0.261195  0.755681  0.756867  1
  O  O34  1  0.314356  0.252029  0.893946  1
  O  O35  1  0.727959  0.761546  0.416389  1
  O  O36  1  0.775729  0.229247  0.755153  1
  O  O37  1  0.735487  0.778823  0.579477  1
  O  O38  1  0.223692  0.749874  0.925467  1
  O  O39  1  0.729793  0.253949  0.921937  1
  O  O40  1  0.729790  0.759367  0.750483  1
  O  O41  1  0.729601  0.750489  0.921888  1
