# generated using pymatgen
data_V(WO4)2
_symmetry_space_group_name_H-M   'P 1'
_cell_length_a   4.94866116
_cell_length_b   6.99739860
_cell_length_c   6.23085111
_cell_angle_alpha   107.12191498
_cell_angle_beta   125.32920411
_cell_angle_gamma   88.80745706
_symmetry_Int_Tables_number   1
_chemical_formula_structural   V(WO4)2
_chemical_formula_sum   'V1 W2 O8'
_cell_volume   165.10649465
_cell_formula_units_Z   1
loop_
 _symmetry_equiv_pos_site_id
 _symmetry_equiv_pos_as_xyz
  1  'x, y, z'
loop_
 _atom_site_type_symbol
 _atom_site_label
 _atom_site_symmetry_multiplicity
 _atom_site_fract_x
 _atom_site_fract_y
 _atom_site_fract_z
 _atom_site_occupancy
  V  V0  1  0.124660  0.223259  0.099671  1
  W  W1  1  0.900916  0.397325  0.623543  1
  W  W2  1  0.348916  0.049519  0.576207  1
  O  O3  1  0.165383  0.631627  0.807533  1
  O  O4  1  0.490901  0.448835  0.344416  1
  O  O5  1  0.204903  0.194664  0.811730  1
  O  O6  1  0.456168  0.074208  0.333218  1
  O  O7  1  0.758459  0.997651  0.854937  1
  O  O8  1  0.083736  0.814502  0.391596  1
  O  O9  1  0.044417  0.251763  0.387604  1
  O  O10  1  0.793202  0.372277  0.866160  1
