# generated using pymatgen
data_CaMn(GeO3)2
_symmetry_space_group_name_H-M   'P 1'
_cell_length_a   5.38408027
_cell_length_b   9.33619737
_cell_length_c   10.43083452
_cell_angle_alpha   90.00000000
_cell_angle_beta   104.70771269
_cell_angle_gamma   90.00000000
_symmetry_Int_Tables_number   1
_chemical_formula_structural   CaMn(GeO3)2
_chemical_formula_sum   'Ca4 Mn4 Ge8 O24'
_cell_volume   507.14479618
_cell_formula_units_Z   4
loop_
 _symmetry_equiv_pos_site_id
 _symmetry_equiv_pos_as_xyz
  1  'x, y, z'
loop_
 _atom_site_type_symbol
 _atom_site_label
 _atom_site_symmetry_multiplicity
 _atom_site_fract_x
 _atom_site_fract_y
 _atom_site_fract_z
 _atom_site_occupancy
  Ca  Ca0  1  0.473651  0.449188  0.272241  1
  Ca  Ca1  1  0.026350  0.949188  0.727759  1
  Ca  Ca2  1  0.526349  0.550812  0.727759  1
  Ca  Ca3  1  0.973651  0.050812  0.272241  1
  Mn  Mn4  1  0.966729  0.659122  0.236548  1
  Mn  Mn5  1  0.533271  0.159122  0.763452  1
  Mn  Mn6  1  0.033271  0.340878  0.763452  1
  Mn  Mn7  1  0.466729  0.840878  0.236548  1
  Ge  Ge8  1  0.821367  0.345599  0.043081  1
  Ge  Ge9  1  0.678633  0.845599  0.956919  1
  Ge  Ge10  1  0.178633  0.654401  0.956919  1
  Ge  Ge11  1  0.321367  0.154401  0.043081  1
  Ge  Ge12  1  0.112480  0.350680  0.480546  1
  Ge  Ge13  1  0.387520  0.850680  0.519454  1
  Ge  Ge14  1  0.887520  0.649320  0.519454  1
  Ge  Ge15  1  0.612480  0.149320  0.480546  1
  O  O16  1  0.321620  0.241328  0.394301  1
  O  O17  1  0.178380  0.741328  0.605699  1
  O  O18  1  0.678380  0.758672  0.605699  1
  O  O19  1  0.821620  0.258672  0.394301  1
  O  O20  1  0.164204  0.307857  0.099335  1
  O  O21  1  0.335796  0.807857  0.900666  1
  O  O22  1  0.835796  0.692143  0.900666  1
  O  O23  1  0.664204  0.192143  0.099335  1
  O  O24  1  0.656728  0.980679  0.412722  1
  O  O25  1  0.843272  0.480679  0.587278  1
  O  O26  1  0.343272  0.019321  0.587278  1
  O  O27  1  0.156728  0.519321  0.412722  1
  O  O28  1  0.252907  0.014642  0.135697  1
  O  O29  1  0.247093  0.514642  0.864303  1
  O  O30  1  0.747093  0.985358  0.864303  1
  O  O31  1  0.752907  0.485358  0.135697  1
  O  O32  1  0.739907  0.351120  0.869101  1
  O  O33  1  0.760093  0.851120  0.130899  1
  O  O34  1  0.260093  0.648880  0.130899  1
  O  O35  1  0.239907  0.148880  0.869101  1
  O  O36  1  0.303262  0.333319  0.644544  1
  O  O37  1  0.196738  0.833319  0.355456  1
  O  O38  1  0.696738  0.666681  0.355456  1
  O  O39  1  0.803262  0.166681  0.644544  1
