# generated using pymatgen
data_Zn(CoO2)2
_symmetry_space_group_name_H-M   'P 1'
_cell_length_a   2.82130498
_cell_length_b   8.76963293
_cell_length_c   10.05333206
_cell_angle_alpha   89.99128919
_cell_angle_beta   89.99996254
_cell_angle_gamma   90.00001019
_symmetry_Int_Tables_number   1
_chemical_formula_structural   Zn(CoO2)2
_chemical_formula_sum   'Zn4 Co8 O16'
_cell_volume   248.73761926
_cell_formula_units_Z   4
loop_
 _symmetry_equiv_pos_site_id
 _symmetry_equiv_pos_as_xyz
  1  'x, y, z'
loop_
 _atom_site_type_symbol
 _atom_site_label
 _atom_site_symmetry_multiplicity
 _atom_site_fract_x
 _atom_site_fract_y
 _atom_site_fract_z
 _atom_site_occupancy
  Zn  Zn0  1  0.749998  0.236546  0.335085  1
  Zn  Zn1  1  0.250001  0.763388  0.664885  1
  Zn  Zn2  1  0.749999  0.736601  0.164870  1
  Zn  Zn3  1  0.250000  0.263454  0.835166  1
  Co  Co4  1  0.249999  0.404359  0.095945  1
  Co  Co5  1  0.750000  0.095718  0.595955  1
  Co  Co6  1  0.250000  0.904366  0.404143  1
  Co  Co7  1  0.750000  0.595579  0.904021  1
  Co  Co8  1  0.749999  0.548048  0.383464  1
  Co  Co9  1  0.249999  0.451971  0.616456  1
  Co  Co10  1  0.749999  0.047993  0.116532  1
  Co  Co11  1  0.250000  0.951959  0.883483  1
  O  O12  1  0.249999  0.909366  0.067896  1
  O  O13  1  0.749999  0.090515  0.932156  1
  O  O14  1  0.249999  0.409441  0.432101  1
  O  O15  1  0.749998  0.590598  0.567817  1
  O  O16  1  0.250000  0.062832  0.716179  1
  O  O17  1  0.750000  0.937329  0.283933  1
  O  O18  1  0.250001  0.562582  0.783829  1
  O  O19  1  0.749999  0.437311  0.216148  1
  O  O20  1  0.250000  0.612967  0.041071  1
  O  O21  1  0.750000  0.386975  0.958907  1
  O  O22  1  0.250000  0.113010  0.458851  1
  O  O23  1  0.750000  0.887075  0.541249  1
  O  O24  1  0.750000  0.809064  0.835378  1
  O  O25  1  0.249998  0.190889  0.164542  1
  O  O26  1  0.249999  0.690944  0.335426  1
  O  O27  1  0.749999  0.309122  0.664510  1
