# generated using pymatgen
data_LaCrTeO6
_symmetry_space_group_name_H-M   'P 1'
_cell_length_a   5.54433686
_cell_length_b   5.52194665
_cell_length_c   5.49465013
_cell_angle_alpha   60.15054145
_cell_angle_beta   120.16039502
_cell_angle_gamma   89.79757189
_symmetry_Int_Tables_number   1
_chemical_formula_structural   LaCrTeO6
_chemical_formula_sum   'La1 Cr1 Te1 O6'
_cell_volume   118.72017630
_cell_formula_units_Z   1
loop_
 _symmetry_equiv_pos_site_id
 _symmetry_equiv_pos_as_xyz
  1  'x, y, z'
loop_
 _atom_site_type_symbol
 _atom_site_label
 _atom_site_symmetry_multiplicity
 _atom_site_fract_x
 _atom_site_fract_y
 _atom_site_fract_z
 _atom_site_occupancy
  La  La0  1  0.761591  0.257279  0.502659  1
  Cr  Cr1  1  0.001832  0.510530  0.997724  1
  Te  Te2  1  0.502649  0.009295  0.001526  1
  O  O3  1  0.334956  0.249710  0.511923  1
  O  O4  1  0.215913  0.298495  0.916032  1
  O  O5  1  0.773058  0.710754  0.081411  1
  O  O6  1  0.207240  0.814387  0.925124  1
  O  O7  1  0.783956  0.217770  0.073334  1
  O  O8  1  0.679043  0.773189  0.490679  1
