# generated using pymatgen
data_Ti9Zn2O13
_symmetry_space_group_name_H-M   'P 1'
_cell_length_a   2.95950281
_cell_length_b   5.15467800
_cell_length_c   16.70984569
_cell_angle_alpha   98.96246735
_cell_angle_beta   90.00084057
_cell_angle_gamma   106.78281880
_symmetry_Int_Tables_number   1
_chemical_formula_structural   Ti9Zn2O13
_chemical_formula_sum   'Ti9 Zn2 O13'
_cell_volume   240.80287977
_cell_formula_units_Z   1
loop_
 _symmetry_equiv_pos_site_id
 _symmetry_equiv_pos_as_xyz
  1  'x, y, z'
loop_
 _atom_site_type_symbol
 _atom_site_label
 _atom_site_symmetry_multiplicity
 _atom_site_fract_x
 _atom_site_fract_y
 _atom_site_fract_z
 _atom_site_occupancy
  Ti  Ti0  1  0.500000  -0.000000  0.500000  1
  Ti  Ti1  1  0.655723  0.310083  0.036219  1
  Ti  Ti2  1  0.344277  0.689917  0.963781  1
  Ti  Ti3  1  0.765100  0.530399  0.425192  1
  Ti  Ti4  1  0.234900  0.469601  0.574808  1
  Ti  Ti5  1  0.933738  0.864834  0.117140  1
  Ti  Ti6  1  0.066262  0.135166  0.882860  1
  Ti  Ti7  1  0.991957  0.982002  0.336704  1
  Ti  Ti8  1  0.008043  0.017998  0.663296  1
  Zn  Zn9  1  0.214213  0.431215  0.228599  1
  Zn  Zn10  1  0.785787  0.568785  0.771401  1
  O  O11  1  0.000000  0.000000  0.000000  1
  O  O12  1  0.869935  0.739820  0.229445  1
  O  O13  1  0.130065  0.260180  0.770555  1
  O  O14  1  0.288642  0.574995  0.086139  1
  O  O15  1  0.711358  0.425005  0.913861  1
  O  O16  1  0.583405  0.162144  0.146583  1
  O  O17  1  0.416595  0.837856  0.853417  1
  O  O18  1  0.629691  0.256525  0.313536  1
  O  O19  1  0.370309  0.743475  0.686464  1
  O  O20  1  0.375322  0.749176  0.377906  1
  O  O21  1  0.624678  0.250824  0.622094  1
  O  O22  1  0.124216  0.248463  0.451395  1
  O  O23  1  0.875784  0.751537  0.548605  1
