# generated using pymatgen
data_Ca2AgWO6
_symmetry_space_group_name_H-M   'P 1'
_cell_length_a   5.62703317
_cell_length_b   5.92318537
_cell_length_c   7.91027236
_cell_angle_alpha   90.00000000
_cell_angle_beta   90.51154344
_cell_angle_gamma   90.00000000
_symmetry_Int_Tables_number   1
_chemical_formula_structural   Ca2AgWO6
_chemical_formula_sum   'Ca4 Ag2 W2 O12'
_cell_volume   263.63855767
_cell_formula_units_Z   2
loop_
 _symmetry_equiv_pos_site_id
 _symmetry_equiv_pos_as_xyz
  1  'x, y, z'
loop_
 _atom_site_type_symbol
 _atom_site_label
 _atom_site_symmetry_multiplicity
 _atom_site_fract_x
 _atom_site_fract_y
 _atom_site_fract_z
 _atom_site_occupancy
  Ca  Ca0  1  0.981459  0.063918  0.254484  1
  Ca  Ca1  1  0.518541  0.563919  0.245516  1
  Ca  Ca2  1  0.018542  0.936083  0.745516  1
  Ca  Ca3  1  0.481458  0.436082  0.754484  1
  Ag  Ag4  1  0.500000  0.000000  0.000000  1
  Ag  Ag5  1  0.000001  0.499999  0.500000  1
  W  W6  1  0.500000  0.000000  0.499999  1
  W  W7  1  0.000000  0.499999  0.000000  1
  O  O8  1  0.658987  0.273044  0.426669  1
  O  O9  1  0.841013  0.773045  0.073331  1
  O  O10  1  0.341012  0.726956  0.573331  1
  O  O11  1  0.158988  0.226955  0.926669  1
  O  O12  1  0.215273  0.171640  0.553484  1
  O  O13  1  0.284727  0.671639  0.946516  1
  O  O14  1  0.784728  0.828360  0.446516  1
  O  O15  1  0.715272  0.328361  0.053484  1
  O  O16  1  0.121809  0.443327  0.231824  1
  O  O17  1  0.378192  0.943328  0.268175  1
  O  O18  1  0.621809  0.056672  0.731825  1
  O  O19  1  0.878192  0.556673  0.768176  1
