# generated using pymatgen
data_Mg2Nb2AgO8
_symmetry_space_group_name_H-M   'P 1'
_cell_length_a   5.24784429
_cell_length_b   6.16517980
_cell_length_c   10.56353422
_cell_angle_alpha   108.52492219
_cell_angle_beta   91.87043207
_cell_angle_gamma   89.45480044
_symmetry_Int_Tables_number   1
_chemical_formula_structural   Mg2Nb2AgO8
_chemical_formula_sum   'Mg4 Nb4 Ag2 O16'
_cell_volume   323.89006630
_cell_formula_units_Z   2
loop_
 _symmetry_equiv_pos_site_id
 _symmetry_equiv_pos_as_xyz
  1  'x, y, z'
loop_
 _atom_site_type_symbol
 _atom_site_label
 _atom_site_symmetry_multiplicity
 _atom_site_fract_x
 _atom_site_fract_y
 _atom_site_fract_z
 _atom_site_occupancy
  Mg  Mg0  1  0.751175  0.409382  0.541375  1
  Mg  Mg1  1  0.745895  0.869363  0.455045  1
  Mg  Mg2  1  0.244516  0.587703  0.457157  1
  Mg  Mg3  1  0.249913  0.127581  0.543304  1
  Nb  Nb4  1  0.731188  0.282323  0.244382  1
  Nb  Nb5  1  0.763792  0.045241  0.754407  1
  Nb  Nb6  1  0.264706  0.715180  0.753950  1
  Nb  Nb7  1  0.232545  0.951878  0.243974  1
  Ag  Ag8  1  0.747709  0.667147  0.999439  1
  Ag  Ag9  1  0.250432  0.330625  0.998590  1
  O  O10  1  0.054578  0.173704  0.161519  1
  O  O11  1  0.438555  0.032826  0.839212  1
  O  O12  1  0.941414  0.823163  0.837136  1
  O  O13  1  0.557684  0.965078  0.159426  1
  O  O14  1  0.575883  0.413617  0.126848  1
  O  O15  1  0.917071  0.303826  0.873860  1
  O  O16  1  0.422292  0.584733  0.871373  1
  O  O17  1  0.081135  0.692403  0.123793  1
  O  O18  1  0.449800  0.292795  0.380477  1
  O  O19  1  0.045748  0.914418  0.616269  1
  O  O20  1  0.375591  0.835640  0.386387  1
  O  O21  1  0.120593  0.451594  0.611107  1
  O  O22  1  0.620354  0.161161  0.611873  1
  O  O23  1  0.875302  0.545439  0.387590  1
  O  O24  1  0.950643  0.082208  0.382225  1
  O  O25  1  0.546113  0.704593  0.618089  1
