# generated using pymatgen
data_CaLa2Mn2(FeO6)2
_symmetry_space_group_name_H-M   'P 1'
_cell_length_a   5.45222884
_cell_length_b   5.48027797
_cell_length_c   7.71605328
_cell_angle_alpha   90.18568821
_cell_angle_beta   89.94102665
_cell_angle_gamma   90.27239791
_symmetry_Int_Tables_number   1
_chemical_formula_structural   CaLa2Mn2(FeO6)2
_chemical_formula_sum   'Ca1 La2 Mn2 Fe2 O12'
_cell_volume   230.54965039
_cell_formula_units_Z   1
loop_
 _symmetry_equiv_pos_site_id
 _symmetry_equiv_pos_as_xyz
  1  'x, y, z'
loop_
 _atom_site_type_symbol
 _atom_site_label
 _atom_site_symmetry_multiplicity
 _atom_site_fract_x
 _atom_site_fract_y
 _atom_site_fract_z
 _atom_site_occupancy
  Ca  Ca0  1  0.974276  0.000312  0.749964  1
  La  La1  1  0.016540  0.993905  0.250897  1
  La  La2  1  0.477295  0.494895  0.749318  1
  Mn  Mn3  1  0.500932  0.999008  0.496379  1
  Mn  Mn4  1  0.995182  0.496181  0.003907  1
  Fe  Fe5  1  0.500853  0.001204  0.005355  1
  Fe  Fe6  1  0.992353  0.496229  0.495002  1
  O  O7  1  0.012603  0.560118  0.752140  1
  O  O8  1  0.218071  0.224651  0.965521  1
  O  O9  1  0.223463  0.218733  0.534108  1
  O  O10  1  0.260199  0.732126  0.025157  1
  O  O11  1  0.268523  0.735831  0.474021  1
  O  O12  1  0.500390  0.054499  0.253324  1
  O  O13  1  0.498496  0.941433  0.748131  1
  O  O14  1  0.731867  0.260558  0.542879  1
  O  O15  1  0.734956  0.268244  0.955755  1
  O  O16  1  0.781759  0.786085  0.485313  1
  O  O17  1  0.787846  0.783113  0.015675  1
  O  O18  1  0.990044  0.442475  0.247337  1
