# generated using pymatgen
data_Si2Ni13(SbO14)2
_symmetry_space_group_name_H-M   'P 1'
_cell_length_a   5.51224440
_cell_length_b   8.48322197
_cell_length_c   11.26767953
_cell_angle_alpha   88.34692494
_cell_angle_beta   74.80987954
_cell_angle_gamma   79.75591455
_symmetry_Int_Tables_number   1
_chemical_formula_structural   Si2Ni13(SbO14)2
_chemical_formula_sum   'Si2 Ni13 Sb2 O28'
_cell_volume   500.29267268
_cell_formula_units_Z   1
loop_
 _symmetry_equiv_pos_site_id
 _symmetry_equiv_pos_as_xyz
  1  'x, y, z'
loop_
 _atom_site_type_symbol
 _atom_site_label
 _atom_site_symmetry_multiplicity
 _atom_site_fract_x
 _atom_site_fract_y
 _atom_site_fract_z
 _atom_site_occupancy
  Si  Si0  1  0.230062  0.315063  0.998235  1
  Si  Si1  1  0.768642  0.684186  0.002184  1
  Ni  Ni2  1  0.935190  0.622752  0.699872  1
  Ni  Ni3  1  0.644549  0.357248  0.145825  1
  Ni  Ni4  1  0.375288  0.365266  0.695973  1
  Ni  Ni5  1  0.066213  0.375813  0.299756  1
  Ni  Ni6  1  0.354578  0.641837  0.854998  1
  Ni  Ni7  1  0.286798  0.998963  0.430302  1
  Ni  Ni8  1  0.205693  0.648196  0.142450  1
  Ni  Ni9  1  0.999779  0.999733  0.000262  1
  Ni  Ni10  1  0.421520  0.004032  0.148392  1
  Ni  Ni11  1  0.794066  0.351100  0.857523  1
  Ni  Ni12  1  0.625489  0.633166  0.304880  1
  Ni  Ni13  1  0.578760  0.995232  0.851940  1
  Ni  Ni14  1  0.716648  0.998247  0.570147  1
  Sb  Sb15  1  0.849103  0.008793  0.292973  1
  Sb  Sb16  1  0.152919  0.989774  0.707560  1
  O  O17  1  0.728823  0.404188  0.295147  1
  O  O18  1  0.268921  0.426483  0.413271  1
  O  O19  1  0.930761  0.354217  0.000110  1
  O  O20  1  0.309493  0.118946  0.999260  1
  O  O21  1  0.734312  0.568934  0.585538  1
  O  O22  1  0.272682  0.594354  0.705093  1
  O  O23  1  0.010939  0.106242  0.571410  1
  O  O24  1  0.993871  0.890999  0.427897  1
  O  O25  1  0.689970  0.880394  0.001092  1
  O  O26  1  0.119242  0.886560  0.154847  1
  O  O27  1  0.288989  0.389117  0.120673  1
  O  O28  1  0.973839  0.604064  0.295308  1
  O  O29  1  0.438079  0.879887  0.571195  1
  O  O30  1  0.718332  0.118941  0.155055  1
  O  O31  1  0.586629  0.616449  0.128146  1
  O  O32  1  0.067749  0.644600  0.000313  1
  O  O33  1  0.281545  0.880090  0.846033  1
  O  O34  1  0.881170  0.112616  0.844873  1
  O  O35  1  0.564975  0.117154  0.430226  1
  O  O36  1  0.130108  0.140080  0.294044  1
  O  O37  1  0.871636  0.858687  0.706040  1
  O  O38  1  0.412615  0.382889  0.872568  1
  O  O39  1  0.441421  0.126525  0.703538  1
  O  O40  1  0.695150  0.423085  0.581626  1
  O  O41  1  0.710665  0.610167  0.879413  1
  O  O42  1  0.559799  0.871971  0.297282  1
  O  O43  1  0.027490  0.394475  0.705020  1
  O  O44  1  0.306524  0.572415  0.419212  1
