# generated using pymatgen
data_CaCoMo2O7
_symmetry_space_group_name_H-M   'P 1'
_cell_length_a   7.17946395
_cell_length_b   11.61757163
_cell_length_c   15.29645390
_cell_angle_alpha   90.00000000
_cell_angle_beta   90.00000000
_cell_angle_gamma   100.22960208
_symmetry_Int_Tables_number   1
_chemical_formula_structural   CaCoMo2O7
_chemical_formula_sum   'Ca8 Co8 Mo16 O56'
_cell_volume   1255.56479706
_cell_formula_units_Z   8
loop_
 _symmetry_equiv_pos_site_id
 _symmetry_equiv_pos_as_xyz
  1  'x, y, z'
loop_
 _atom_site_type_symbol
 _atom_site_label
 _atom_site_symmetry_multiplicity
 _atom_site_fract_x
 _atom_site_fract_y
 _atom_site_fract_z
 _atom_site_occupancy
  Ca  Ca0  1  0.095995  0.717682  0.517602  1
  Ca  Ca1  1  0.305075  0.973168  0.869021  1
  Ca  Ca2  1  0.694925  0.526832  0.369021  1
  Ca  Ca3  1  0.694925  0.026832  0.130979  1
  Ca  Ca4  1  0.305075  0.473168  0.630979  1
  Ca  Ca5  1  0.095995  0.217682  0.982398  1
  Ca  Ca6  1  0.904005  0.282318  0.482398  1
  Ca  Ca7  1  0.904005  0.782318  0.017602  1
  Co  Co8  1  0.654768  0.086761  0.655236  1
  Co  Co9  1  0.345232  0.413239  0.155236  1
  Co  Co10  1  0.345232  0.913239  0.344764  1
  Co  Co11  1  0.654768  0.586761  0.844764  1
  Co  Co12  1  0.991813  0.248520  0.747005  1
  Co  Co13  1  0.008187  0.251480  0.247005  1
  Co  Co14  1  0.008187  0.751480  0.252995  1
  Co  Co15  1  0.991813  0.748520  0.752995  1
  Mo  Mo16  1  0.830320  0.985380  0.875595  1
  Mo  Mo17  1  0.421067  0.697153  0.027340  1
  Mo  Mo18  1  0.421067  0.197153  0.472660  1
  Mo  Mo19  1  0.578933  0.302847  0.972660  1
  Mo  Mo20  1  0.504539  0.801636  0.724443  1
  Mo  Mo21  1  0.495461  0.698364  0.224443  1
  Mo  Mo22  1  0.495461  0.198364  0.275557  1
  Mo  Mo23  1  0.504539  0.301636  0.775557  1
  Mo  Mo24  1  0.578933  0.802847  0.527340  1
  Mo  Mo25  1  0.867390  0.484396  0.136736  1
  Mo  Mo26  1  0.132610  0.015604  0.636736  1
  Mo  Mo27  1  0.132610  0.515604  0.863264  1
  Mo  Mo28  1  0.169680  0.514620  0.375595  1
  Mo  Mo29  1  0.830320  0.485380  0.624405  1
  Mo  Mo30  1  0.169680  0.014620  0.124405  1
  Mo  Mo31  1  0.867390  0.984396  0.363264  1
  O  O32  1  0.777150  0.956157  0.992728  1
  O  O33  1  0.222850  0.543843  0.492728  1
  O  O34  1  0.222850  0.043843  0.007272  1
  O  O35  1  0.777150  0.456157  0.507272  1
  O  O36  1  0.986405  0.872896  0.858178  1
  O  O37  1  0.013595  0.627104  0.358178  1
  O  O38  1  0.013595  0.127104  0.141822  1
  O  O39  1  0.986405  0.372896  0.641822  1
  O  O40  1  0.994816  0.122894  0.849277  1
  O  O41  1  0.005184  0.377106  0.349277  1
  O  O42  1  0.005184  0.877106  0.150723  1
  O  O43  1  0.994816  0.622894  0.650723  1
  O  O44  1  0.687706  0.955885  0.282095  1
  O  O45  1  0.312294  0.544115  0.782095  1
  O  O46  1  0.312294  0.044115  0.717905  1
  O  O47  1  0.687706  0.455885  0.217905  1
  O  O48  1  0.966511  0.138130  0.364751  1
  O  O49  1  0.033489  0.361870  0.864751  1
  O  O50  1  0.033489  0.861870  0.635249  1
  O  O51  1  0.966511  0.638130  0.135249  1
  O  O52  1  0.051720  0.898096  0.343984  1
  O  O53  1  0.375803  0.821900  0.453169  1
  O  O54  1  0.948280  0.601904  0.843984  1
  O  O55  1  0.051720  0.398096  0.156016  1
  O  O56  1  0.742056  0.709179  0.496966  1
  O  O57  1  0.257944  0.790821  0.996966  1
  O  O58  1  0.257944  0.290821  0.503034  1
  O  O59  1  0.742056  0.209179  0.003034  1
  O  O60  1  0.760664  0.949044  0.468698  1
  O  O61  1  0.239336  0.550956  0.968698  1
  O  O62  1  0.239336  0.050956  0.531302  1
  O  O63  1  0.760664  0.449044  0.031302  1
  O  O64  1  0.414843  0.202091  0.889737  1
  O  O65  1  0.585157  0.297909  0.389737  1
  O  O66  1  0.585157  0.797909  0.110263  1
  O  O67  1  0.414843  0.702091  0.610263  1
  O  O68  1  0.698227  0.210647  0.740965  1
  O  O69  1  0.301773  0.289353  0.240965  1
  O  O70  1  0.301773  0.789353  0.259035  1
  O  O71  1  0.698227  0.710647  0.759035  1
  O  O72  1  0.600776  0.445919  0.685568  1
  O  O73  1  0.399224  0.054081  0.185568  1
  O  O74  1  0.399224  0.554081  0.314432  1
  O  O75  1  0.600776  0.945919  0.814432  1
  O  O76  1  0.268437  0.295554  0.718913  1
  O  O77  1  0.731563  0.204446  0.218914  1
  O  O78  1  0.731563  0.704446  0.281087  1
  O  O79  1  0.268437  0.795554  0.781087  1
  O  O80  1  0.593192  0.416079  0.871820  1
  O  O81  1  0.406808  0.083921  0.371820  1
  O  O82  1  0.406808  0.583921  0.128180  1
  O  O83  1  0.593192  0.916079  0.628180  1
  O  O84  1  0.375803  0.321900  0.046831  1
  O  O85  1  0.624197  0.178100  0.546831  1
  O  O86  1  0.624197  0.678100  0.953169  1
  O  O87  1  0.948280  0.101904  0.656016  1
