# generated using pymatgen
data_ZnCoNi2O7
_symmetry_space_group_name_H-M   'P 1'
_cell_length_a   7.01884020
_cell_length_b   10.90062729
_cell_length_c   13.14305178
_cell_angle_alpha   90.00000000
_cell_angle_beta   90.00000000
_cell_angle_gamma   108.94708790
_symmetry_Int_Tables_number   1
_chemical_formula_structural   ZnCoNi2O7
_chemical_formula_sum   'Zn8 Co8 Ni16 O56'
_cell_volume   951.08869918
_cell_formula_units_Z   8
loop_
 _symmetry_equiv_pos_site_id
 _symmetry_equiv_pos_as_xyz
  1  'x, y, z'
loop_
 _atom_site_type_symbol
 _atom_site_label
 _atom_site_symmetry_multiplicity
 _atom_site_fract_x
 _atom_site_fract_y
 _atom_site_fract_z
 _atom_site_occupancy
  Zn  Zn0  1  0.052264  0.787161  0.485269  1
  Zn  Zn1  1  0.303016  0.923307  0.858251  1
  Zn  Zn2  1  0.696984  0.576693  0.358251  1
  Zn  Zn3  1  0.696984  0.076693  0.141749  1
  Zn  Zn4  1  0.303016  0.423307  0.641749  1
  Zn  Zn5  1  0.052264  0.287161  0.014731  1
  Zn  Zn6  1  0.947736  0.212839  0.514731  1
  Zn  Zn7  1  0.947736  0.712839  0.985269  1
  Co  Co8  1  0.620023  0.060207  0.684784  1
  Co  Co9  1  0.379977  0.439792  0.184784  1
  Co  Co10  1  0.379977  0.939793  0.315216  1
  Co  Co11  1  0.620023  0.560207  0.815216  1
  Co  Co12  1  0.972685  0.246021  0.777375  1
  Co  Co13  1  0.027315  0.253979  0.277375  1
  Co  Co14  1  0.027315  0.753979  0.222625  1
  Co  Co15  1  0.972685  0.746021  0.722625  1
  Ni  Ni16  1  0.831278  0.969418  0.875272  1
  Ni  Ni17  1  0.409104  0.679128  0.004237  1
  Ni  Ni18  1  0.409104  0.179128  0.495763  1
  Ni  Ni19  1  0.590896  0.320872  0.995763  1
  Ni  Ni20  1  0.474565  0.762108  0.722790  1
  Ni  Ni21  1  0.525435  0.737892  0.222790  1
  Ni  Ni22  1  0.525435  0.237892  0.277210  1
  Ni  Ni23  1  0.474565  0.262108  0.777210  1
  Ni  Ni24  1  0.590896  0.820872  0.504237  1
  Ni  Ni25  1  0.879487  0.459172  0.153008  1
  Ni  Ni26  1  0.120513  0.040828  0.653008  1
  Ni  Ni27  1  0.120513  0.540828  0.846992  1
  Ni  Ni28  1  0.168722  0.530582  0.375272  1
  Ni  Ni29  1  0.831278  0.469418  0.624728  1
  Ni  Ni30  1  0.168722  0.030582  0.124728  1
  Ni  Ni31  1  0.879487  0.959172  0.346992  1
  O  O32  1  0.673796  0.940673  0.030828  1
  O  O33  1  0.326204  0.559327  0.530828  1
  O  O34  1  0.326204  0.059327  0.969172  1
  O  O35  1  0.673796  0.440673  0.469172  1
  O  O36  1  0.991463  0.867401  0.842614  1
  O  O37  1  0.008537  0.632599  0.342614  1
  O  O38  1  0.008537  0.132599  0.157386  1
  O  O39  1  0.991463  0.367401  0.657386  1
  O  O40  1  0.990712  0.146261  0.885015  1
  O  O41  1  0.009288  0.353739  0.385014  1
  O  O42  1  0.009288  0.853739  0.114986  1
  O  O43  1  0.990712  0.646261  0.614985  1
  O  O44  1  0.635957  0.924225  0.272664  1
  O  O45  1  0.364043  0.575775  0.772664  1
  O  O46  1  0.364043  0.075775  0.727336  1
  O  O47  1  0.635957  0.424225  0.227336  1
  O  O48  1  0.011139  0.136266  0.370262  1
  O  O49  1  0.988861  0.363734  0.870262  1
  O  O50  1  0.988861  0.863734  0.629738  1
  O  O51  1  0.011139  0.636266  0.129738  1
  O  O52  1  0.091967  0.892872  0.325344  1
  O  O53  1  0.355179  0.845057  0.431664  1
  O  O54  1  0.908033  0.607128  0.825344  1
  O  O55  1  0.091967  0.392872  0.174656  1
  O  O56  1  0.747273  0.722826  0.462062  1
  O  O57  1  0.252727  0.777174  0.962062  1
  O  O58  1  0.252727  0.277174  0.537938  1
  O  O59  1  0.747273  0.222826  0.037938  1
  O  O60  1  0.791151  0.965936  0.473459  1
  O  O61  1  0.208849  0.534064  0.973459  1
  O  O62  1  0.208849  0.034064  0.526541  1
  O  O63  1  0.791151  0.465936  0.026541  1
  O  O64  1  0.402490  0.177227  0.929435  1
  O  O65  1  0.597510  0.322773  0.429435  1
  O  O66  1  0.597510  0.822773  0.070565  1
  O  O67  1  0.402490  0.677227  0.570565  1
  O  O68  1  0.701277  0.200492  0.772179  1
  O  O69  1  0.298723  0.299508  0.272179  1
  O  O70  1  0.298723  0.799508  0.227821  1
  O  O71  1  0.701277  0.700492  0.727821  1
  O  O72  1  0.587684  0.444367  0.695352  1
  O  O73  1  0.412316  0.055633  0.195352  1
  O  O74  1  0.412316  0.555633  0.304648  1
  O  O75  1  0.587684  0.944367  0.804648  1
  O  O76  1  0.228989  0.283019  0.745026  1
  O  O77  1  0.771011  0.216981  0.245026  1
  O  O78  1  0.771011  0.716981  0.254974  1
  O  O79  1  0.228989  0.783019  0.754974  1
  O  O80  1  0.543061  0.406008  0.874990  1
  O  O81  1  0.456939  0.093992  0.374990  1
  O  O82  1  0.456939  0.593992  0.125010  1
  O  O83  1  0.543061  0.906008  0.625010  1
  O  O84  1  0.355179  0.345057  0.068336  1
  O  O85  1  0.644821  0.154943  0.568336  1
  O  O86  1  0.644821  0.654943  0.931664  1
  O  O87  1  0.908033  0.107128  0.674656  1
