# generated using pymatgen
data_Y4Si2Ni13(SbO14)2
_symmetry_space_group_name_H-M   'P 1'
_cell_length_a   5.56567368
_cell_length_b   9.25912201
_cell_length_c   12.18325865
_cell_angle_alpha   87.72584591
_cell_angle_beta   76.74872182
_cell_angle_gamma   80.01615654
_symmetry_Int_Tables_number   1
_chemical_formula_structural   Y4Si2Ni13(SbO14)2
_chemical_formula_sum   'Y4 Si2 Ni13 Sb2 O28'
_cell_volume   601.87160112
_cell_formula_units_Z   1
loop_
 _symmetry_equiv_pos_site_id
 _symmetry_equiv_pos_as_xyz
  1  'x, y, z'
loop_
 _atom_site_type_symbol
 _atom_site_label
 _atom_site_symmetry_multiplicity
 _atom_site_fract_x
 _atom_site_fract_y
 _atom_site_fract_z
 _atom_site_occupancy
  Y  Y0  1  0.073809  0.655552  0.410736  1
  Y  Y1  1  0.515974  0.344209  0.410860  1
  Y  Y2  1  0.926008  0.344504  0.589462  1
  Y  Y3  1  0.483937  0.655916  0.589194  1
  Si  Si4  1  0.241425  0.289380  0.999603  1
  Si  Si5  1  0.758872  0.710460  0.000160  1
  Ni  Ni6  1  0.921602  0.640705  0.740348  1
  Ni  Ni7  1  0.661735  0.323644  0.122830  1
  Ni  Ni8  1  0.335254  0.360271  0.739967  1
  Ni  Ni9  1  0.078061  0.359270  0.259655  1
  Ni  Ni10  1  0.337701  0.677892  0.876843  1
  Ni  Ni11  1  0.290821  0.000151  0.417041  1
  Ni  Ni12  1  0.216479  0.676561  0.122227  1
  Ni  Ni13  1  0.000358  0.999973  0.999960  1
  Ni  Ni14  1  0.429094  0.999842  0.142949  1
  Ni  Ni15  1  0.783620  0.322420  0.877603  1
  Ni  Ni16  1  0.664331  0.640281  0.259885  1
  Ni  Ni17  1  0.571755  0.999814  0.856176  1
  Ni  Ni18  1  0.706802  0.001041  0.581494  1
  Sb  Sb19  1  0.860733  0.999891  0.279033  1
  Sb  Sb20  1  0.138680  0.000196  0.719857  1
  O  O21  1  0.723234  0.404620  0.253516  1
  O  O22  1  0.120204  0.389647  0.417687  1
  O  O23  1  0.947463  0.343953  0.999888  1
  O  O24  1  0.302753  0.107891  0.999684  1
  O  O25  1  0.879706  0.610207  0.582394  1
  O  O26  1  0.276384  0.595677  0.746568  1
  O  O27  1  0.006468  0.104021  0.585635  1
  O  O28  1  0.992483  0.896004  0.413021  1
  O  O29  1  0.698093  0.891943  0.000159  1
  O  O30  1  0.124269  0.891876  0.149553  1
  O  O31  1  0.309597  0.354082  0.110274  1
  O  O32  1  0.025937  0.594854  0.253201  1
  O  O33  1  0.404680  0.896362  0.585511  1
  O  O34  1  0.726638  0.108242  0.149937  1
  O  O35  1  0.580948  0.645522  0.111109  1
  O  O36  1  0.052859  0.655639  0.999726  1
  O  O37  1  0.273632  0.892606  0.849171  1
  O  O38  1  0.875634  0.107758  0.849538  1
  O  O39  1  0.594345  0.103640  0.413671  1
  O  O40  1  0.130939  0.122033  0.282663  1
  O  O41  1  0.868442  0.878099  0.716622  1
  O  O42  1  0.419536  0.353623  0.888504  1
  O  O43  1  0.411761  0.122793  0.715744  1
  O  O44  1  0.537214  0.390353  0.582386  1
  O  O45  1  0.689697  0.646743  0.889471  1
  O  O46  1  0.587230  0.877748  0.282707  1
  O  O47  1  0.973524  0.405298  0.747043  1
  O  O48  1  0.462667  0.610083  0.417572  1
