# generated using pymatgen
data_SrMn(PO4)2
_symmetry_space_group_name_H-M   'P 1'
_cell_length_a   5.74537668
_cell_length_b   7.05383082
_cell_length_c   9.04854340
_cell_angle_alpha   110.04460124
_cell_angle_beta   101.68961176
_cell_angle_gamma   99.38836943
_symmetry_Int_Tables_number   1
_chemical_formula_structural   SrMn(PO4)2
_chemical_formula_sum   'Sr2 Mn2 P4 O16'
_cell_volume   326.39297006
_cell_formula_units_Z   2
loop_
 _symmetry_equiv_pos_site_id
 _symmetry_equiv_pos_as_xyz
  1  'x, y, z'
loop_
 _atom_site_type_symbol
 _atom_site_label
 _atom_site_symmetry_multiplicity
 _atom_site_fract_x
 _atom_site_fract_y
 _atom_site_fract_z
 _atom_site_occupancy
  Sr  Sr0  1  0.248902  0.767800  0.038445  1
  Sr  Sr1  1  0.751098  0.232200  0.961555  1
  Mn  Mn2  1  0.678090  0.836264  0.552809  1
  Mn  Mn3  1  0.321910  0.163736  0.447191  1
  P  P4  1  0.400841  0.434814  0.237570  1
  P  P5  1  0.599159  0.565186  0.762430  1
  P  P6  1  0.849945  0.024740  0.302736  1
  P  P7  1  0.150055  0.975260  0.697264  1
  O  O8  1  0.826475  0.561976  0.882524  1
  O  O9  1  0.631299  0.465033  0.183734  1
  O  O10  1  0.642873  0.782003  0.739385  1
  O  O11  1  0.939271  0.093962  0.702842  1
  O  O12  1  0.368701  0.534967  0.816266  1
  O  O13  1  0.983405  0.755738  0.565685  1
  O  O14  1  0.016595  0.244262  0.434315  1
  O  O15  1  0.278819  0.987732  0.864632  1
  O  O16  1  0.357127  0.217997  0.260615  1
  O  O17  1  0.721181  0.012268  0.135368  1
  O  O18  1  0.173525  0.438024  0.117476  1
  O  O19  1  0.424321  0.607986  0.409422  1
  O  O20  1  0.575679  0.392014  0.590578  1
  O  O21  1  0.645922  0.946177  0.376746  1
  O  O22  1  0.060729  0.906038  0.297158  1
  O  O23  1  0.354078  0.053823  0.623254  1
