# generated using pymatgen
data_Cr(WO4)2
_symmetry_space_group_name_H-M   'P 1'
_cell_length_a   5.02972656
_cell_length_b   5.77702305
_cell_length_c   9.25729798
_cell_angle_alpha   90.00000000
_cell_angle_beta   90.54638801
_cell_angle_gamma   90.00000000
_symmetry_Int_Tables_number   1
_chemical_formula_structural   Cr(WO4)2
_chemical_formula_sum   'Cr2 W4 O16'
_cell_volume   268.97565331
_cell_formula_units_Z   2
loop_
 _symmetry_equiv_pos_site_id
 _symmetry_equiv_pos_as_xyz
  1  'x, y, z'
loop_
 _atom_site_type_symbol
 _atom_site_label
 _atom_site_symmetry_multiplicity
 _atom_site_fract_x
 _atom_site_fract_y
 _atom_site_fract_z
 _atom_site_occupancy
  Cr  Cr0  1  0.750000  0.347053  0.250000  1
  Cr  Cr1  1  0.250000  0.652946  0.750000  1
  W  W2  1  0.241522  0.170790  0.507681  1
  W  W3  1  0.258477  0.170790  0.992320  1
  W  W4  1  0.758478  0.829210  0.492319  1
  W  W5  1  0.741523  0.829210  0.007680  1
  O  O6  1  0.428686  0.340536  0.138351  1
  O  O7  1  0.071313  0.340536  0.361648  1
  O  O8  1  0.571314  0.659463  0.861649  1
  O  O9  1  0.928686  0.659463  0.638352  1
  O  O10  1  0.419565  0.889738  0.609041  1
  O  O11  1  0.080435  0.889738  0.890959  1
  O  O12  1  0.580435  0.110262  0.390959  1
  O  O13  1  0.919565  0.110262  0.109041  1
  O  O14  1  0.867364  0.593142  0.120850  1
  O  O15  1  0.632636  0.593142  0.379150  1
  O  O16  1  0.132636  0.406859  0.879150  1
  O  O17  1  0.367364  0.406859  0.620850  1
  O  O18  1  0.434881  0.890612  0.111871  1
  O  O19  1  0.565119  0.109389  0.888129  1
  O  O20  1  0.065120  0.890612  0.388130  1
  O  O21  1  0.934880  0.109389  0.611870  1
