# generated using pymatgen
data_MgMn3O7
_symmetry_space_group_name_H-M   'P 1'
_cell_length_a   5.45648601
_cell_length_b   10.39044081
_cell_length_c   9.61065612
_cell_angle_alpha   90.00000000
_cell_angle_beta   90.00000000
_cell_angle_gamma   90.00000000
_symmetry_Int_Tables_number   1
_chemical_formula_structural   MgMn3O7
_chemical_formula_sum   'Mg4 Mn12 O28'
_cell_volume   544.87898307
_cell_formula_units_Z   4
loop_
 _symmetry_equiv_pos_site_id
 _symmetry_equiv_pos_as_xyz
  1  'x, y, z'
loop_
 _atom_site_type_symbol
 _atom_site_label
 _atom_site_symmetry_multiplicity
 _atom_site_fract_x
 _atom_site_fract_y
 _atom_site_fract_z
 _atom_site_occupancy
  Mg  Mg0  1  0.625721  0.750000  0.955608  1
  Mg  Mg1  1  0.125721  0.250000  0.544392  1
  Mg  Mg2  1  0.374279  0.250000  0.044392  1
  Mg  Mg3  1  0.874279  0.750000  0.455608  1
  Mn  Mn4  1  0.289563  0.028298  0.298742  1
  Mn  Mn5  1  0.789563  0.971702  0.201258  1
  Mn  Mn6  1  0.710437  0.528298  0.701258  1
  Mn  Mn7  1  0.210437  0.471702  0.798742  1
  Mn  Mn8  1  0.291874  0.750000  0.235252  1
  Mn  Mn9  1  0.791874  0.250000  0.264748  1
  Mn  Mn10  1  0.708126  0.250000  0.764748  1
  Mn  Mn11  1  0.208126  0.750000  0.735252  1
  Mn  Mn12  1  0.789563  0.528298  0.201258  1
  Mn  Mn13  1  0.289563  0.471702  0.298742  1
  Mn  Mn14  1  0.210437  0.028298  0.798742  1
  Mn  Mn15  1  0.710437  0.971702  0.701258  1
  O  O16  1  0.955166  0.122086  0.709419  1
  O  O17  1  0.455166  0.877914  0.790581  1
  O  O18  1  0.044834  0.622086  0.290581  1
  O  O19  1  0.544834  0.377914  0.209419  1
  O  O20  1  0.044834  0.877914  0.290581  1
  O  O21  1  0.544834  0.122086  0.209419  1
  O  O22  1  0.955166  0.377914  0.709419  1
  O  O23  1  0.455166  0.622086  0.790581  1
  O  O24  1  0.479949  0.117772  0.718841  1
  O  O25  1  0.979949  0.882228  0.781159  1
  O  O26  1  0.520051  0.617772  0.281159  1
  O  O27  1  0.020051  0.382228  0.218841  1
  O  O28  1  0.520051  0.882228  0.281159  1
  O  O29  1  0.020051  0.117772  0.218841  1
  O  O30  1  0.479949  0.382228  0.718841  1
  O  O31  1  0.979949  0.617772  0.781159  1
  O  O32  1  0.197926  0.750000  0.556753  1
  O  O33  1  0.697926  0.250000  0.943247  1
  O  O34  1  0.802074  0.250000  0.443247  1
  O  O35  1  0.302074  0.750000  0.056753  1
  O  O36  1  0.225625  0.409805  0.964061  1
  O  O37  1  0.725625  0.590195  0.535939  1
  O  O38  1  0.774375  0.909805  0.035939  1
  O  O39  1  0.274375  0.090195  0.464061  1
  O  O40  1  0.774375  0.590195  0.035939  1
  O  O41  1  0.274375  0.409805  0.464061  1
  O  O42  1  0.225625  0.090195  0.964061  1
  O  O43  1  0.725625  0.909805  0.535939  1
