# generated using pymatgen
data_LaZnFeBiO6
_symmetry_space_group_name_H-M   'P 1'
_cell_length_a   6.22224729
_cell_length_b   5.56269614
_cell_length_c   8.00976303
_cell_angle_alpha   90.87073379
_cell_angle_beta   90.00000000
_cell_angle_gamma   90.00000000
_symmetry_Int_Tables_number   1
_chemical_formula_structural   LaZnFeBiO6
_chemical_formula_sum   'La2 Zn2 Fe2 Bi2 O12'
_cell_volume   277.20567641
_cell_formula_units_Z   2
loop_
 _symmetry_equiv_pos_site_id
 _symmetry_equiv_pos_as_xyz
  1  'x, y, z'
loop_
 _atom_site_type_symbol
 _atom_site_label
 _atom_site_symmetry_multiplicity
 _atom_site_fract_x
 _atom_site_fract_y
 _atom_site_fract_z
 _atom_site_occupancy
  La  La0  1  0.082908  0.971970  0.249857  1
  La  La1  1  0.417092  0.471970  0.749857  1
  Zn  Zn2  1  0.379046  0.476485  0.236315  1
  Zn  Zn3  1  0.120954  0.976485  0.736315  1
  Fe  Fe4  1  0.523102  0.987022  0.006601  1
  Fe  Fe5  1  0.976898  0.487022  0.506601  1
  Bi  Bi6  1  0.555268  0.989800  0.492304  1
  Bi  Bi7  1  0.944732  0.489800  0.992304  1
  O  O8  1  0.042670  0.635887  0.736990  1
  O  O9  1  0.176410  0.184045  0.938131  1
  O  O10  1  0.189343  0.209174  0.557051  1
  O  O11  1  0.310657  0.709174  0.057051  1
  O  O12  1  0.323590  0.684045  0.438131  1
  O  O13  1  0.457330  0.135887  0.236989  1
  O  O14  1  0.481570  0.902487  0.761861  1
  O  O15  1  0.710731  0.335196  0.565821  1
  O  O16  1  0.643328  0.307933  0.955068  1
  O  O17  1  0.856672  0.807933  0.455068  1
  O  O18  1  0.789269  0.835196  0.065821  1
  O  O19  1  0.018430  0.402487  0.261861  1
