# generated using pymatgen
data_Zn2Fe3O8
_symmetry_space_group_name_H-M   'P 1'
_cell_length_a   5.03128914
_cell_length_b   5.90775122
_cell_length_c   5.93700856
_cell_angle_alpha   119.83711920
_cell_angle_beta   108.17414987
_cell_angle_gamma   89.99999701
_symmetry_Int_Tables_number   1
_chemical_formula_structural   Zn2Fe3O8
_chemical_formula_sum   'Zn2 Fe3 O8'
_cell_volume   142.83904513
_cell_formula_units_Z   1
loop_
 _symmetry_equiv_pos_site_id
 _symmetry_equiv_pos_as_xyz
  1  'x, y, z'
loop_
 _atom_site_type_symbol
 _atom_site_label
 _atom_site_symmetry_multiplicity
 _atom_site_fract_x
 _atom_site_fract_y
 _atom_site_fract_z
 _atom_site_occupancy
  Zn  Zn0  1  0.653273  0.716938  0.433874  1
  Zn  Zn1  1  0.346726  0.283063  0.566126  1
  Fe  Fe2  1  0.500000  0.999999  0.000000  1
  Fe  Fe3  1  0.999999  0.737473  1.000000  1
  Fe  Fe4  1  0.999999  0.262527  0.000000  1
  O  O5  1  0.076030  0.390040  0.780080  1
  O  O6  1  0.923970  0.609959  0.219920  1
  O  O7  1  0.077315  0.890843  0.781686  1
  O  O8  1  0.922685  0.109156  0.218313  1
  O  O9  1  0.399647  0.346016  0.233574  1
  O  O10  1  0.399647  0.887558  0.233574  1
  O  O11  1  0.600354  0.112441  0.766426  1
  O  O12  1  0.600354  0.653984  0.766426  1
