# generated using pymatgen
data_ZnFe(SiO3)2
_symmetry_space_group_name_H-M   'P 1'
_cell_length_a   5.31499713
_cell_length_b   9.18970244
_cell_length_c   18.61211069
_cell_angle_alpha   90.00000000
_cell_angle_beta   90.00000000
_cell_angle_gamma   90.00000000
_symmetry_Int_Tables_number   1
_chemical_formula_structural   ZnFe(SiO3)2
_chemical_formula_sum   'Zn8 Fe8 Si16 O48'
_cell_volume   909.07582831
_cell_formula_units_Z   8
loop_
 _symmetry_equiv_pos_site_id
 _symmetry_equiv_pos_as_xyz
  1  'x, y, z'
loop_
 _atom_site_type_symbol
 _atom_site_label
 _atom_site_symmetry_multiplicity
 _atom_site_fract_x
 _atom_site_fract_y
 _atom_site_fract_z
 _atom_site_occupancy
  Zn  Zn0  1  0.615952  0.149728  0.624553  1
  Zn  Zn1  1  0.384048  0.850272  0.375447  1
  Zn  Zn2  1  0.615952  0.649728  0.875447  1
  Zn  Zn3  1  0.115952  0.850272  0.875447  1
  Zn  Zn4  1  0.884048  0.149728  0.124553  1
  Zn  Zn5  1  0.384048  0.350272  0.124553  1
  Zn  Zn6  1  0.115952  0.350272  0.624553  1
  Zn  Zn7  1  0.884048  0.649728  0.375447  1
  Fe  Fe8  1  0.378449  0.989119  0.123081  1
  Fe  Fe9  1  0.621551  0.010881  0.876919  1
  Fe  Fe10  1  0.878449  0.010881  0.376919  1
  Fe  Fe11  1  0.121551  0.989119  0.623081  1
  Fe  Fe12  1  0.378449  0.489119  0.376919  1
  Fe  Fe13  1  0.621551  0.510881  0.623081  1
  Fe  Fe14  1  0.878449  0.510881  0.123081  1
  Fe  Fe15  1  0.121551  0.489119  0.876919  1
  Si  Si16  1  0.565612  0.661603  0.228293  1
  Si  Si17  1  0.710386  0.834740  0.525323  1
  Si  Si18  1  0.789614  0.834740  0.025323  1
  Si  Si19  1  0.934388  0.161603  0.771707  1
  Si  Si20  1  0.065612  0.338397  0.271707  1
  Si  Si21  1  0.434388  0.838397  0.728293  1
  Si  Si22  1  0.210386  0.665260  0.525323  1
  Si  Si23  1  0.710386  0.334740  0.974677  1
  Si  Si24  1  0.789614  0.334740  0.474677  1
  Si  Si25  1  0.934388  0.661603  0.728293  1
  Si  Si26  1  0.434388  0.338397  0.771707  1
  Si  Si27  1  0.565612  0.161603  0.271707  1
  Si  Si28  1  0.289614  0.165260  0.474677  1
  Si  Si29  1  0.065612  0.838397  0.228293  1
  Si  Si30  1  0.289614  0.665260  0.025323  1
  Si  Si31  1  0.210386  0.165260  0.974677  1
  O  O32  1  0.929093  0.504610  0.688610  1
  O  O33  1  0.299707  0.018076  0.934018  1
  O  O34  1  0.070907  0.495390  0.311390  1
  O  O35  1  0.710343  0.338027  0.062862  1
  O  O36  1  0.210343  0.161973  0.062862  1
  O  O37  1  0.917852  0.207236  0.948888  1
  O  O38  1  0.942442  0.661756  0.816151  1
  O  O39  1  0.057558  0.838244  0.316151  1
  O  O40  1  0.710343  0.838027  0.437138  1
  O  O41  1  0.942442  0.161756  0.683849  1
  O  O42  1  0.429093  0.495390  0.811390  1
  O  O43  1  0.789657  0.338027  0.562862  1
  O  O44  1  0.700293  0.981924  0.065982  1
  O  O45  1  0.442442  0.838244  0.816151  1
  O  O46  1  0.570907  0.004610  0.311390  1
  O  O47  1  0.299707  0.518076  0.565982  1
  O  O48  1  0.429093  0.995390  0.688610  1
  O  O49  1  0.166415  0.765371  0.698578  1
  O  O50  1  0.333585  0.765371  0.198578  1
  O  O51  1  0.582148  0.707236  0.051112  1
  O  O52  1  0.789657  0.838027  0.937138  1
  O  O53  1  0.557558  0.661756  0.316151  1
  O  O54  1  0.799707  0.481924  0.934018  1
  O  O55  1  0.166415  0.265371  0.801422  1
  O  O56  1  0.289657  0.161973  0.562862  1
  O  O57  1  0.557558  0.161756  0.183850  1
  O  O58  1  0.700293  0.481924  0.434018  1
  O  O59  1  0.210343  0.661973  0.437138  1
  O  O60  1  0.200293  0.518076  0.065982  1
  O  O61  1  0.666415  0.734629  0.698578  1
  O  O62  1  0.070907  0.995390  0.188610  1
  O  O63  1  0.833585  0.734629  0.198578  1
  O  O64  1  0.833585  0.234629  0.301422  1
  O  O65  1  0.799707  0.981924  0.565982  1
  O  O66  1  0.289657  0.661973  0.937138  1
  O  O67  1  0.200293  0.018076  0.434018  1
  O  O68  1  0.333585  0.265371  0.301422  1
  O  O69  1  0.082148  0.792764  0.051112  1
  O  O70  1  0.417852  0.792764  0.551112  1
  O  O71  1  0.666415  0.234629  0.801422  1
  O  O72  1  0.417852  0.292764  0.948888  1
  O  O73  1  0.582148  0.207236  0.448888  1
  O  O74  1  0.082148  0.292764  0.448888  1
  O  O75  1  0.442442  0.338244  0.683849  1
  O  O76  1  0.570907  0.504610  0.188610  1
  O  O77  1  0.917852  0.707236  0.551112  1
  O  O78  1  0.057558  0.338244  0.183850  1
  O  O79  1  0.929093  0.004610  0.811390  1
