# generated using pymatgen
data_Y2Mn3(SiO4)3
_symmetry_space_group_name_H-M   'P 1'
_cell_length_a   10.78135772
_cell_length_b   10.78135723
_cell_length_c   10.78135736
_cell_angle_alpha   109.47122090
_cell_angle_beta   109.47121998
_cell_angle_gamma   109.47122221
_symmetry_Int_Tables_number   1
_chemical_formula_structural   Y2Mn3(SiO4)3
_chemical_formula_sum   'Y8 Mn12 Si12 O48'
_cell_volume   964.71367866
_cell_formula_units_Z   4
loop_
 _symmetry_equiv_pos_site_id
 _symmetry_equiv_pos_as_xyz
  1  'x, y, z'
loop_
 _atom_site_type_symbol
 _atom_site_label
 _atom_site_symmetry_multiplicity
 _atom_site_fract_x
 _atom_site_fract_y
 _atom_site_fract_z
 _atom_site_occupancy
  Y  Y0  1  0.500000  0.000000  0.000000  1
  Y  Y1  1  0.000000  0.000000  0.000000  1
  Y  Y2  1  0.000000  0.500000  0.000000  1
  Y  Y3  1  0.000000  0.000000  0.500000  1
  Y  Y4  1  0.000000  0.500000  0.500001  1
  Y  Y5  1  0.500000  0.000000  0.500001  1
  Y  Y6  1  0.500000  0.500000  0.000000  1
  Y  Y7  1  0.500000  0.500000  0.500000  1
  Mn  Mn8  1  0.250000  0.875001  0.625000  1
  Mn  Mn9  1  0.875000  0.625000  0.250000  1
  Mn  Mn10  1  0.625001  0.875001  0.750001  1
  Mn  Mn11  1  0.875001  0.750001  0.625001  1
  Mn  Mn12  1  0.625000  0.250000  0.875000  1
  Mn  Mn13  1  0.750000  0.625000  0.875000  1
  Mn  Mn14  1  0.750000  0.125000  0.375000  1
  Mn  Mn15  1  0.125000  0.375000  0.750000  1
  Mn  Mn16  1  0.375000  0.125000  0.250000  1
  Mn  Mn17  1  0.125000  0.250000  0.375000  1
  Mn  Mn18  1  0.375000  0.750001  0.125000  1
  Mn  Mn19  1  0.250000  0.375000  0.125000  1
  Si  Si20  1  0.250000  0.125000  0.875000  1
  Si  Si21  1  0.875000  0.250000  0.125000  1
  Si  Si22  1  0.625000  0.750001  0.375000  1
  Si  Si23  1  0.250000  0.625000  0.375001  1
  Si  Si24  1  0.375000  0.625000  0.750000  1
  Si  Si25  1  0.750000  0.375000  0.625000  1
  Si  Si26  1  0.875000  0.125000  0.750000  1
  Si  Si27  1  0.125000  0.750001  0.875000  1
  Si  Si28  1  0.125000  0.875001  0.250000  1
  Si  Si29  1  0.625000  0.375000  0.250000  1
  Si  Si30  1  0.375000  0.250000  0.625000  1
  Si  Si31  1  0.750000  0.875001  0.125000  1
  O  O32  1  0.277023  0.481321  0.372801  1
  O  O33  1  0.018679  0.295702  0.891480  1
  O  O34  1  0.127199  0.608520  0.904222  1
  O  O35  1  0.222976  0.595778  0.204298  1
  O  O36  1  0.222976  0.127198  0.018678  1
  O  O37  1  0.595777  0.204297  0.222976  1
  O  O38  1  0.608519  0.204297  0.481321  1
  O  O39  1  0.204298  0.222976  0.595779  1
  O  O40  1  0.891481  0.372801  0.595778  1
  O  O41  1  0.295703  0.904222  0.277024  1
  O  O42  1  0.904222  0.277024  0.295703  1
  O  O43  1  0.018679  0.222976  0.127198  1
  O  O44  1  0.204298  0.481321  0.608520  1
  O  O45  1  0.595778  0.891481  0.372802  1
  O  O46  1  0.127198  0.018678  0.222976  1
  O  O47  1  0.481321  0.608520  0.204297  1
  O  O48  1  0.372801  0.595778  0.891480  1
  O  O49  1  0.891480  0.018678  0.295702  1
  O  O50  1  0.608519  0.904222  0.127199  1
  O  O51  1  0.108519  0.627198  0.404222  1
  O  O52  1  0.481321  0.372801  0.277023  1
  O  O53  1  0.372801  0.277024  0.481321  1
  O  O54  1  0.295703  0.891481  0.018679  1
  O  O55  1  0.277023  0.295702  0.904221  1
  O  O56  1  0.722976  0.518678  0.627199  1
  O  O57  1  0.981321  0.704297  0.108519  1
  O  O58  1  0.872802  0.391481  0.095778  1
  O  O59  1  0.777024  0.404222  0.795703  1
  O  O60  1  0.777023  0.872802  0.981322  1
  O  O61  1  0.404222  0.795702  0.777023  1
  O  O62  1  0.391481  0.795702  0.518678  1
  O  O63  1  0.795703  0.777024  0.404222  1
  O  O64  1  0.722976  0.704297  0.095778  1
  O  O65  1  0.704298  0.108520  0.981321  1
  O  O66  1  0.627198  0.722977  0.518679  1
  O  O67  1  0.518679  0.627198  0.722976  1
  O  O68  1  0.095778  0.872802  0.391480  1
  O  O69  1  0.391480  0.095777  0.872801  1
  O  O70  1  0.108520  0.981321  0.704297  1
  O  O71  1  0.627199  0.404222  0.108519  1
  O  O72  1  0.518679  0.391481  0.795703  1
  O  O73  1  0.872802  0.981321  0.777024  1
  O  O74  1  0.404223  0.108520  0.627199  1
  O  O75  1  0.795702  0.518678  0.391481  1
  O  O76  1  0.981321  0.777024  0.872802  1
  O  O77  1  0.095779  0.722977  0.704298  1
  O  O78  1  0.704297  0.095777  0.722976  1
  O  O79  1  0.904222  0.127198  0.608519  1
