# generated using pymatgen
data_Ca(NiO2)2
_symmetry_space_group_name_H-M   'P 1'
_cell_length_a   3.07008626
_cell_length_b   5.13541144
_cell_length_c   9.61980003
_cell_angle_alpha   90.00000000
_cell_angle_beta   90.00000000
_cell_angle_gamma   107.39234441
_symmetry_Int_Tables_number   1
_chemical_formula_structural   Ca(NiO2)2
_chemical_formula_sum   'Ca2 Ni4 O8'
_cell_volume   144.73308337
_cell_formula_units_Z   2
loop_
 _symmetry_equiv_pos_site_id
 _symmetry_equiv_pos_as_xyz
  1  'x, y, z'
loop_
 _atom_site_type_symbol
 _atom_site_label
 _atom_site_symmetry_multiplicity
 _atom_site_fract_x
 _atom_site_fract_y
 _atom_site_fract_z
 _atom_site_occupancy
  Ca  Ca0  1  0.393911  0.787823  0.750000  1
  Ca  Ca1  1  0.606089  0.212177  0.250000  1
  Ni  Ni2  1  0.861745  0.723492  0.068172  1
  Ni  Ni3  1  0.138255  0.276508  0.931828  1
  Ni  Ni4  1  0.861745  0.723492  0.431828  1
  Ni  Ni5  1  0.138255  0.276508  0.568172  1
  O  O6  1  0.231141  0.462285  0.393805  1
  O  O7  1  0.768859  0.537715  0.606195  1
  O  O8  1  0.768859  0.537715  0.893805  1
  O  O9  1  0.231141  0.462285  0.106195  1
  O  O10  1  0.937944  0.875889  0.250000  1
  O  O11  1  0.062056  0.124111  0.750000  1
  O  O12  1  0.500000  0.000000  -0.000000  1
  O  O13  1  0.500000  -0.000000  0.500000  1
