# generated using pymatgen
data_Al(WF5)3
_symmetry_space_group_name_H-M   'P 1'
_cell_length_a   10.17114584
_cell_length_b   6.19376921
_cell_length_c   10.00326839
_cell_angle_alpha   90.00000000
_cell_angle_beta   90.00000000
_cell_angle_gamma   104.35704714
_symmetry_Int_Tables_number   1
_chemical_formula_structural   Al(WF5)3
_chemical_formula_sum   'Al2 W6 F30'
_cell_volume   610.50215361
_cell_formula_units_Z   2
loop_
 _symmetry_equiv_pos_site_id
 _symmetry_equiv_pos_as_xyz
  1  'x, y, z'
loop_
 _atom_site_type_symbol
 _atom_site_label
 _atom_site_symmetry_multiplicity
 _atom_site_fract_x
 _atom_site_fract_y
 _atom_site_fract_z
 _atom_site_occupancy
  Al  Al0  1  0.899296  0.444843  0.250000  1
  Al  Al1  1  0.434037  0.555157  0.750000  1
  W  W2  1  0.166667  0.000000  0.500000  1
  W  W3  1  0.500914  0.994137  0.458263  1
  W  W4  1  0.832419  0.005863  0.541737  1
  W  W5  1  0.166667  0.000000  0.000000  1
  W  W6  1  0.500914  0.994137  0.041737  1
  W  W7  1  0.832419  0.005863  0.958263  1
  F  F8  1  0.061159  0.587685  0.250000  1
  F  F9  1  0.493128  0.928506  0.250000  1
  F  F10  1  0.780277  0.583743  0.250000  1
  F  F11  1  0.272174  0.412315  0.750000  1
  F  F12  1  0.553057  0.416257  0.750000  1
  F  F13  1  0.840205  0.071494  0.750000  1
  F  F14  1  0.038524  0.157969  0.597526  1
  F  F15  1  0.365840  0.113893  0.579407  1
  F  F16  1  0.659367  0.125076  0.590842  1
  F  F17  1  0.294810  0.842031  0.402474  1
  F  F18  1  0.673966  0.874924  0.409158  1
  F  F19  1  0.967493  0.886107  0.420592  1
  F  F20  1  0.114179  0.744846  0.883293  1
  F  F21  1  0.460108  0.736954  0.890183  1
  F  F22  1  0.783286  0.706452  0.889565  1
  F  F23  1  0.219155  0.255155  0.116707  1
  F  F24  1  0.550047  0.293548  0.110435  1
  F  F25  1  0.873225  0.263046  0.109817  1
  F  F26  1  0.219155  0.255155  0.383293  1
  F  F27  1  0.550047  0.293548  0.389565  1
  F  F28  1  0.873225  0.263046  0.390183  1
  F  F29  1  0.114179  0.744846  0.616707  1
  F  F30  1  0.460108  0.736954  0.609817  1
  F  F31  1  0.783286  0.706452  0.610435  1
  F  F32  1  0.038524  0.157969  0.902474  1
  F  F33  1  0.365840  0.113893  0.920593  1
  F  F34  1  0.659367  0.125076  0.909158  1
  F  F35  1  0.294810  0.842031  0.097526  1
  F  F36  1  0.673966  0.874924  0.090842  1
  F  F37  1  0.967493  0.886107  0.079407  1
