# generated using pymatgen
data_ZnAgF5
_symmetry_space_group_name_H-M   'P 1'
_cell_length_a   5.53575924
_cell_length_b   5.50455914
_cell_length_c   8.00070865
_cell_angle_alpha   99.19431792
_cell_angle_beta   105.96769231
_cell_angle_gamma   110.34991762
_symmetry_Int_Tables_number   1
_chemical_formula_structural   ZnAgF5
_chemical_formula_sum   'Zn2 Ag2 F10'
_cell_volume   210.75232536
_cell_formula_units_Z   2
loop_
 _symmetry_equiv_pos_site_id
 _symmetry_equiv_pos_as_xyz
  1  'x, y, z'
loop_
 _atom_site_type_symbol
 _atom_site_label
 _atom_site_symmetry_multiplicity
 _atom_site_fract_x
 _atom_site_fract_y
 _atom_site_fract_z
 _atom_site_occupancy
  Zn  Zn0  1  0.262554  0.517169  0.746410  1
  Zn  Zn1  1  0.740333  0.487538  0.253343  1
  Ag  Ag2  1  0.001908  0.003819  -0.000781  1
  Ag  Ag3  1  0.500865  0.000166  0.499846  1
  F  F4  1  0.433765  0.183145  0.250279  1
  F  F5  1  0.570909  0.821500  0.748643  1
  F  F6  1  0.593165  0.728892  0.368222  1
  F  F7  1  0.861861  0.225735  0.132510  1
  F  F8  1  0.770708  0.677214  0.064819  1
  F  F9  1  0.112638  0.701047  0.439841  1
  F  F10  1  0.235614  0.331348  0.935455  1
  F  F11  1  0.888846  0.301124  0.560886  1
  F  F12  1  0.141901  0.780847  0.866126  1
  F  F13  1  0.407381  0.275144  0.631045  1
