# generated using pymatgen
data_CaSn5O7
_symmetry_space_group_name_H-M   'P 1'
_cell_length_a   3.23058664
_cell_length_b   5.61305404
_cell_length_c   23.04869051
_cell_angle_alpha   90.00000000
_cell_angle_beta   90.00000000
_cell_angle_gamma   106.72476501
_symmetry_Int_Tables_number   1
_chemical_formula_structural   CaSn5O7
_chemical_formula_sum   'Ca2 Sn10 O14'
_cell_volume   400.27230603
_cell_formula_units_Z   2
loop_
 _symmetry_equiv_pos_site_id
 _symmetry_equiv_pos_as_xyz
  1  'x, y, z'
loop_
 _atom_site_type_symbol
 _atom_site_label
 _atom_site_symmetry_multiplicity
 _atom_site_fract_x
 _atom_site_fract_y
 _atom_site_fract_z
 _atom_site_occupancy
  Ca  Ca0  1  0.814057  0.628113  0.750000  1
  Ca  Ca1  1  0.185944  0.371886  0.250000  1
  Sn  Sn2  1  0.274471  0.548940  0.584350  1
  Sn  Sn3  1  0.451050  0.902099  0.166799  1
  Sn  Sn4  1  0.000000  0.000000  0.500000  1
  Sn  Sn5  1  0.000000  0.000000  0.000000  1
  Sn  Sn6  1  0.548950  0.097901  0.833202  1
  Sn  Sn7  1  0.725529  0.451059  0.415650  1
  Sn  Sn8  1  0.725529  0.451059  0.084350  1
  Sn  Sn9  1  0.274471  0.548940  0.915650  1
  Sn  Sn10  1  0.548950  0.097901  0.666798  1
  Sn  Sn11  1  0.451050  0.902099  0.333201  1
  O  O12  1  0.626687  0.253373  0.916689  1
  O  O13  1  0.373314  0.746628  0.083311  1
  O  O14  1  0.373314  0.746628  0.416689  1
  O  O15  1  0.626687  0.253373  0.583311  1
  O  O16  1  0.183722  0.367445  0.816617  1
  O  O17  1  0.816278  0.632555  0.183383  1
  O  O18  1  0.816278  0.632555  0.316618  1
  O  O19  1  0.183722  0.367445  0.683383  1
  O  O20  1  0.927866  0.855731  0.849745  1
  O  O21  1  0.072134  0.144269  0.150255  1
  O  O22  1  0.072134  0.144269  0.349745  1
  O  O23  1  0.927866  0.855731  0.650255  1
  O  O24  1  0.472207  0.944416  0.750000  1
  O  O25  1  0.527794  0.055586  0.250000  1
