# generated using pymatgen
data_Zn(Fe2O3)2
_symmetry_space_group_name_H-M   'P 1'
_cell_length_a   2.97259992
_cell_length_b   5.27671002
_cell_length_c   15.39688411
_cell_angle_alpha   90.00000000
_cell_angle_beta   90.00000000
_cell_angle_gamma   106.36000902
_symmetry_Int_Tables_number   1
_chemical_formula_structural   Zn(Fe2O3)2
_chemical_formula_sum   'Zn2 Fe8 O12'
_cell_volume   231.73007469
_cell_formula_units_Z   2
loop_
 _symmetry_equiv_pos_site_id
 _symmetry_equiv_pos_as_xyz
  1  'x, y, z'
loop_
 _atom_site_type_symbol
 _atom_site_label
 _atom_site_symmetry_multiplicity
 _atom_site_fract_x
 _atom_site_fract_y
 _atom_site_fract_z
 _atom_site_occupancy
  Zn  Zn0  1  0.652607  0.305215  0.750000  1
  Zn  Zn1  1  0.347393  0.694785  0.250000  1
  Fe  Fe2  1  0.865044  0.730090  0.046928  1
  Fe  Fe3  1  0.399893  0.799785  0.636543  1
  Fe  Fe4  1  0.134954  0.269909  0.953072  1
  Fe  Fe5  1  0.600107  0.200215  0.363458  1
  Fe  Fe6  1  0.865044  0.730090  0.453072  1
  Fe  Fe7  1  0.134954  0.269909  0.546928  1
  Fe  Fe8  1  0.600107  0.200215  0.136542  1
  Fe  Fe9  1  0.399893  0.799785  0.863457  1
  O  O10  1  0.499999  -0.000000  0.500000  1
  O  O11  1  0.499999  0.000000  0.000000  1
  O  O12  1  0.034900  0.069798  0.836791  1
  O  O13  1  0.965100  0.930202  0.163210  1
  O  O14  1  0.965100  0.930202  0.336790  1
  O  O15  1  0.034900  0.069798  0.663210  1
  O  O16  1  0.788056  0.576114  0.917213  1
  O  O17  1  0.211943  0.423887  0.082787  1
  O  O18  1  0.211943  0.423887  0.417213  1
  O  O19  1  0.788056  0.576114  0.582787  1
  O  O20  1  0.298105  0.596212  0.750000  1
  O  O21  1  0.701893  0.403787  0.250000  1
