# generated using pymatgen
data_LaCrNiO6
_symmetry_space_group_name_H-M   'P 1'
_cell_length_a   5.33101850
_cell_length_b   5.58463228
_cell_length_c   5.14411825
_cell_angle_alpha   63.37907903
_cell_angle_beta   118.57948965
_cell_angle_gamma   86.47281772
_symmetry_Int_Tables_number   1
_chemical_formula_structural   LaCrNiO6
_chemical_formula_sum   'La1 Cr1 Ni1 O6'
_cell_volume   112.56380203
_cell_formula_units_Z   1
loop_
 _symmetry_equiv_pos_site_id
 _symmetry_equiv_pos_as_xyz
  1  'x, y, z'
loop_
 _atom_site_type_symbol
 _atom_site_label
 _atom_site_symmetry_multiplicity
 _atom_site_fract_x
 _atom_site_fract_y
 _atom_site_fract_z
 _atom_site_occupancy
  La  La0  1  0.750418  0.278692  0.492198  1
  Cr  Cr1  1  0.997694  0.566231  0.960849  1
  Ni  Ni2  1  0.499226  0.015069  0.995453  1
  O  O3  1  0.297644  0.250007  0.484403  1
  O  O4  1  0.214338  0.296402  0.965893  1
  O  O5  1  0.794631  0.686861  0.084482  1
  O  O6  1  0.214743  0.777284  0.959912  1
  O  O7  1  0.776117  0.226541  0.033603  1
  O  O8  1  0.715427  0.744325  0.523620  1
