# generated using pymatgen
data_SrTiZn(PO4)2
_symmetry_space_group_name_H-M   'P 1'
_cell_length_a   5.57071421
_cell_length_b   6.95243812
_cell_length_c   9.57169511
_cell_angle_alpha   110.05025923
_cell_angle_beta   103.52977872
_cell_angle_gamma   96.92983816
_symmetry_Int_Tables_number   1
_chemical_formula_structural   SrTiZn(PO4)2
_chemical_formula_sum   'Sr2 Ti2 Zn2 P4 O16'
_cell_volume   330.29031949
_cell_formula_units_Z   2
loop_
 _symmetry_equiv_pos_site_id
 _symmetry_equiv_pos_as_xyz
  1  'x, y, z'
loop_
 _atom_site_type_symbol
 _atom_site_label
 _atom_site_symmetry_multiplicity
 _atom_site_fract_x
 _atom_site_fract_y
 _atom_site_fract_z
 _atom_site_occupancy
  Sr  Sr0  1  0.248336  0.794763  0.048074  1
  Sr  Sr1  1  0.751664  0.205237  0.951926  1
  Ti  Ti2  1  0.622851  0.867096  0.556104  1
  Ti  Ti3  1  0.377149  0.132904  0.443896  1
  Zn  Zn4  1  0.999317  0.383588  0.643726  1
  Zn  Zn5  1  0.000683  0.616412  0.356274  1
  P  P6  1  0.388553  0.420793  0.233512  1
  P  P7  1  0.611447  0.579207  0.766488  1
  P  P8  1  0.848563  0.020607  0.296816  1
  P  P9  1  0.151437  0.979393  0.703184  1
  O  O10  1  0.810509  0.560142  0.899991  1
  O  O11  1  0.658883  0.473479  0.216967  1
  O  O12  1  0.662425  0.799788  0.761661  1
  O  O13  1  0.953032  0.124300  0.703169  1
  O  O14  1  0.341117  0.526521  0.783033  1
  O  O15  1  0.992361  0.758693  0.577101  1
  O  O16  1  0.007639  0.241307  0.422899  1
  O  O17  1  0.257116  0.987498  0.866407  1
  O  O18  1  0.337575  0.200212  0.238339  1
  O  O19  1  0.742884  0.012502  0.133593  1
  O  O20  1  0.189491  0.439858  0.100009  1
  O  O21  1  0.360431  0.585667  0.388648  1
  O  O22  1  0.639569  0.414333  0.611352  1
  O  O23  1  0.629746  0.943333  0.354906  1
  O  O24  1  0.046968  0.875700  0.296831  1
  O  O25  1  0.370254  0.056667  0.645094  1
