# generated using pymatgen
data_VP2O7
_symmetry_space_group_name_H-M   'P 1'
_cell_length_a   6.95452649
_cell_length_b   8.58697930
_cell_length_c   9.36796370
_cell_angle_alpha   90.00000000
_cell_angle_beta   72.24720733
_cell_angle_gamma   90.00000000
_symmetry_Int_Tables_number   1
_chemical_formula_structural   VP2O7
_chemical_formula_sum   'V4 P8 O28'
_cell_volume   532.79958253
_cell_formula_units_Z   4
loop_
 _symmetry_equiv_pos_site_id
 _symmetry_equiv_pos_as_xyz
  1  'x, y, z'
loop_
 _atom_site_type_symbol
 _atom_site_label
 _atom_site_symmetry_multiplicity
 _atom_site_fract_x
 _atom_site_fract_y
 _atom_site_fract_z
 _atom_site_occupancy
  V  V0  1  0.704296  0.077687  0.194117  1
  V  V1  1  0.704296  0.422313  0.694117  1
  V  V2  1  0.295704  0.577687  0.305883  1
  V  V3  1  0.295704  0.922313  0.805883  1
  P  P4  1  0.523970  0.713933  0.536241  1
  P  P5  1  0.095298  0.244272  0.246227  1
  P  P6  1  0.904702  0.744272  0.253773  1
  P  P7  1  0.095298  0.255728  0.746227  1
  P  P8  1  0.523970  0.786067  0.036241  1
  P  P9  1  0.904702  0.755728  0.753773  1
  P  P10  1  0.476030  0.213933  0.963759  1
  P  P11  1  0.476030  0.286067  0.463759  1
  O  O12  1  0.519533  0.127099  0.379667  1
  O  O13  1  0.261275  0.222866  0.080867  1
  O  O14  1  0.893970  0.263733  0.709548  1
  O  O15  1  0.127906  0.077975  0.783075  1
  O  O16  1  0.480467  0.872901  0.620333  1
  O  O17  1  0.738725  0.777134  0.919133  1
  O  O18  1  0.635207  0.196898  0.048492  1
  O  O19  1  0.522197  0.917144  0.145222  1
  O  O20  1  0.872094  0.577975  0.716925  1
  O  O21  1  0.364793  0.696898  0.451508  1
  O  O22  1  0.519533  0.372901  0.879667  1
  O  O23  1  0.873860  0.866579  0.643899  1
  O  O24  1  0.480467  0.627099  0.120333  1
  O  O25  1  0.106030  0.736267  0.290452  1
  O  O26  1  0.477803  0.417144  0.354778  1
  O  O27  1  0.364793  0.803102  0.951508  1
  O  O28  1  0.872094  0.922025  0.216925  1
  O  O29  1  0.893970  0.236267  0.209548  1
  O  O30  1  0.126140  0.133421  0.356101  1
  O  O31  1  0.522197  0.582856  0.645222  1
  O  O32  1  0.261275  0.277134  0.580867  1
  O  O33  1  0.635207  0.303102  0.548492  1
  O  O34  1  0.477803  0.082856  0.854778  1
  O  O35  1  0.127906  0.422025  0.283075  1
  O  O36  1  0.738725  0.722866  0.419133  1
  O  O37  1  0.873860  0.633421  0.143899  1
  O  O38  1  0.106030  0.763733  0.790452  1
  O  O39  1  0.126140  0.366579  0.856101  1
