# generated using pymatgen
data_CaTiSb(PO4)3
_symmetry_space_group_name_H-M   'P 1'
_cell_length_a   9.02793000
_cell_length_b   9.02792953
_cell_length_c   9.02792981
_cell_angle_alpha   59.84901446
_cell_angle_beta   59.84901603
_cell_angle_gamma   59.84902076
_symmetry_Int_Tables_number   1
_chemical_formula_structural   CaTiSb(PO4)3
_chemical_formula_sum   'Ca2 Ti2 Sb2 P6 O24'
_cell_volume   518.51210375
_cell_formula_units_Z   2
loop_
 _symmetry_equiv_pos_site_id
 _symmetry_equiv_pos_as_xyz
  1  'x, y, z'
loop_
 _atom_site_type_symbol
 _atom_site_label
 _atom_site_symmetry_multiplicity
 _atom_site_fract_x
 _atom_site_fract_y
 _atom_site_fract_z
 _atom_site_occupancy
  Ca  Ca0  1  0.997020  0.997020  0.997020  1
  Ca  Ca1  1  0.497020  0.497020  0.497020  1
  Ti  Ti2  1  0.150629  0.150629  0.150629  1
  Ti  Ti3  1  0.650629  0.650629  0.650629  1
  Sb  Sb4  1  0.348933  0.348933  0.348933  1
  Sb  Sb5  1  0.848933  0.848933  0.848933  1
  P  P6  1  0.039333  0.442823  0.767429  1
  P  P7  1  0.442823  0.767429  0.039333  1
  P  P8  1  0.767429  0.039333  0.442823  1
  P  P9  1  0.267429  0.942823  0.539333  1
  P  P10  1  0.539333  0.267429  0.942823  1
  P  P11  1  0.942823  0.539333  0.267429  1
  O  O12  1  0.086299  0.514695  0.327307  1
  O  O13  1  0.327307  0.086299  0.514695  1
  O  O14  1  0.045100  0.261426  0.930723  1
  O  O15  1  0.514695  0.327307  0.086299  1
  O  O16  1  0.014695  0.586299  0.827307  1
  O  O17  1  0.221868  0.421540  0.610465  1
  O  O18  1  0.261426  0.930723  0.045100  1
  O  O19  1  0.421540  0.610465  0.221868  1
  O  O20  1  0.211056  0.003536  0.369813  1
  O  O21  1  0.610465  0.221868  0.421540  1
  O  O22  1  0.110465  0.921541  0.721868  1
  O  O23  1  0.369813  0.211056  0.003536  1
  O  O24  1  0.586299  0.827307  0.014695  1
  O  O25  1  0.930723  0.045100  0.261426  1
  O  O26  1  0.430723  0.761426  0.545100  1
  O  O27  1  0.827307  0.014695  0.586299  1
  O  O28  1  0.545100  0.430723  0.761426  1
  O  O29  1  0.721868  0.110465  0.921541  1
  O  O30  1  0.761426  0.545100  0.430723  1
  O  O31  1  0.003536  0.369813  0.211056  1
  O  O32  1  0.503536  0.711056  0.869813  1
  O  O33  1  0.921541  0.721868  0.110465  1
  O  O34  1  0.711056  0.869813  0.503536  1
  O  O35  1  0.869813  0.503536  0.711056  1
