# generated using pymatgen
data_ZnFeO2
_symmetry_space_group_name_H-M   'P 1'
_cell_length_a   3.02330573
_cell_length_b   7.98503578
_cell_length_c   8.11367623
_cell_angle_alpha   75.98125972
_cell_angle_beta   79.52819827
_cell_angle_gamma   75.84534933
_symmetry_Int_Tables_number   1
_chemical_formula_structural   ZnFeO2
_chemical_formula_sum   'Zn4 Fe4 O8'
_cell_volume   182.70108486
_cell_formula_units_Z   4
loop_
 _symmetry_equiv_pos_site_id
 _symmetry_equiv_pos_as_xyz
  1  'x, y, z'
loop_
 _atom_site_type_symbol
 _atom_site_label
 _atom_site_symmetry_multiplicity
 _atom_site_fract_x
 _atom_site_fract_y
 _atom_site_fract_z
 _atom_site_occupancy
  Zn  Zn0  1  0.277025  0.138661  0.231248  1
  Zn  Zn1  1  0.708791  0.835832  0.800637  1
  Zn  Zn2  1  0.189237  0.857177  0.107449  1
  Zn  Zn3  1  0.012466  0.130033  0.900378  1
  Fe  Fe4  1  0.611185  0.200002  0.563875  1
  Fe  Fe5  1  0.118406  0.499571  0.192376  1
  Fe  Fe6  1  0.811127  0.487986  0.838668  1
  Fe  Fe7  1  0.374800  0.776604  0.471457  1
  O  O8  1  0.857920  0.680595  0.629611  1
  O  O9  1  0.463580  0.299648  0.771595  1
  O  O10  1  0.497685  0.641645  0.261528  1
  O  O11  1  0.121814  0.303229  0.411237  1
  O  O12  1  0.157054  0.021802  0.668496  1
  O  O13  1  0.771942  0.343032  0.099624  1
  O  O14  1  0.828462  0.965306  0.324472  1
  O  O15  1  0.166782  0.658213  0.952968  1
