# generated using pymatgen
data_AlCrO3
_symmetry_space_group_name_H-M   'P 1'
_cell_length_a   5.01951329
_cell_length_b   5.05239259
_cell_length_c   7.53218164
_cell_angle_alpha   90.00000000
_cell_angle_beta   90.00000000
_cell_angle_gamma   90.00000000
_symmetry_Int_Tables_number   1
_chemical_formula_structural   AlCrO3
_chemical_formula_sum   'Al4 Cr4 O12'
_cell_volume   191.02028229
_cell_formula_units_Z   4
loop_
 _symmetry_equiv_pos_site_id
 _symmetry_equiv_pos_as_xyz
  1  'x, y, z'
loop_
 _atom_site_type_symbol
 _atom_site_label
 _atom_site_symmetry_multiplicity
 _atom_site_fract_x
 _atom_site_fract_y
 _atom_site_fract_z
 _atom_site_occupancy
  Al  Al0  1  0.988192  0.977569  0.750000  1
  Al  Al1  1  0.488192  0.522431  0.250000  1
  Al  Al2  1  0.511808  0.477569  0.750000  1
  Al  Al3  1  0.011808  0.022431  0.250000  1
  Cr  Cr4  1  0.000000  0.500000  0.500000  1
  Cr  Cr5  1  0.500000  0.000000  0.500000  1
  Cr  Cr6  1  0.500000  0.000000  0.000000  1
  Cr  Cr7  1  0.000000  0.500000  0.000000  1
  O  O8  1  0.660014  0.337016  0.421399  1
  O  O9  1  0.160014  0.162984  0.578601  1
  O  O10  1  0.839986  0.837016  0.078601  1
  O  O11  1  0.339986  0.662984  0.921399  1
  O  O12  1  0.339986  0.662984  0.578601  1
  O  O13  1  0.839986  0.837016  0.421399  1
  O  O14  1  0.160014  0.162984  0.921399  1
  O  O15  1  0.660014  0.337016  0.078601  1
  O  O16  1  0.141489  0.378420  0.250000  1
  O  O17  1  0.641489  0.121580  0.750000  1
  O  O18  1  0.358511  0.878420  0.250000  1
  O  O19  1  0.858511  0.621580  0.750000  1
