# generated using pymatgen
data_Ca3Si4(BiO7)2
_symmetry_space_group_name_H-M   'P 1'
_cell_length_a   8.13288145
_cell_length_b   9.88877410
_cell_length_c   10.18744144
_cell_angle_alpha   64.87484911
_cell_angle_beta   66.47419035
_cell_angle_gamma   65.71863495
_symmetry_Int_Tables_number   1
_chemical_formula_structural   Ca3Si4(BiO7)2
_chemical_formula_sum   'Ca6 Si8 Bi4 O28'
_cell_volume   650.66148934
_cell_formula_units_Z   2
loop_
 _symmetry_equiv_pos_site_id
 _symmetry_equiv_pos_as_xyz
  1  'x, y, z'
loop_
 _atom_site_type_symbol
 _atom_site_label
 _atom_site_symmetry_multiplicity
 _atom_site_fract_x
 _atom_site_fract_y
 _atom_site_fract_z
 _atom_site_occupancy
  Ca  Ca0  1  0.840376  0.947000  0.465216  1
  Ca  Ca1  1  0.252592  0.553000  0.034784  1
  Ca  Ca2  1  0.747408  0.447000  0.965216  1
  Ca  Ca3  1  0.658494  0.250000  0.750000  1
  Ca  Ca4  1  0.159624  0.053000  0.534784  1
  Ca  Ca5  1  0.341506  0.750000  0.250000  1
  Si  Si6  1  0.469642  0.287309  0.331148  1
  Si  Si7  1  0.911900  0.787309  0.831148  1
  Si  Si8  1  0.507913  0.880607  0.861074  1
  Si  Si9  1  0.750407  0.380607  0.361074  1
  Si  Si10  1  0.088100  0.212691  0.168852  1
  Si  Si11  1  0.492087  0.119393  0.138926  1
  Si  Si12  1  0.249593  0.619393  0.638926  1
  Si  Si13  1  0.530358  0.712691  0.668852  1
  Bi  Bi14  1  0.228977  0.250000  0.750000  1
  Bi  Bi15  1  0.771023  0.750000  0.250000  1
  Bi  Bi16  1  0.000000  0.000000  0.000000  1
  Bi  Bi17  1  0.000000  0.500000  0.500000  1
  O  O18  1  0.154835  0.676732  0.501107  1
  O  O19  1  0.056739  0.594105  0.246320  1
  O  O20  1  0.485474  0.946319  0.171667  1
  O  O21  1  0.102836  0.094105  0.746320  1
  O  O22  1  0.716943  0.703279  0.523394  1
  O  O23  1  0.917621  0.374107  0.196801  1
  O  O24  1  0.396538  0.446319  0.671667  1
  O  O25  1  0.943616  0.796721  0.976606  1
  O  O26  1  0.082379  0.625893  0.803199  1
  O  O27  1  0.347474  0.758498  0.603095  1
  O  O28  1  0.943261  0.405895  0.753680  1
  O  O29  1  0.283057  0.296721  0.476606  1
  O  O30  1  0.488530  0.125893  0.303199  1
  O  O31  1  0.667326  0.176732  0.001107  1
  O  O32  1  0.290934  0.258498  0.103095  1
  O  O33  1  0.056384  0.203279  0.023394  1
  O  O34  1  0.082754  0.069328  0.324481  1
  O  O35  1  0.652526  0.241502  0.396905  1
  O  O36  1  0.476561  0.430672  0.175519  1
  O  O37  1  0.709066  0.741502  0.896905  1
  O  O38  1  0.511470  0.874107  0.696801  1
  O  O39  1  0.897164  0.905895  0.253680  1
  O  O40  1  0.523439  0.569328  0.824481  1
  O  O41  1  0.514526  0.053681  0.828333  1
  O  O42  1  0.917246  0.930672  0.675519  1
  O  O43  1  0.603462  0.553681  0.328333  1
  O  O44  1  0.332674  0.823268  0.998893  1
  O  O45  1  0.845165  0.323268  0.498893  1
