# generated using pymatgen
data_BaZnCrF7
_symmetry_space_group_name_H-M   'P 1'
_cell_length_a   5.67203359
_cell_length_b   9.71492631
_cell_length_c   10.06583029
_cell_angle_alpha   90.00000000
_cell_angle_beta   90.00000000
_cell_angle_gamma   93.08640070
_symmetry_Int_Tables_number   1
_chemical_formula_structural   BaZnCrF7
_chemical_formula_sum   'Ba4 Zn4 Cr4 F28'
_cell_volume   553.85680666
_cell_formula_units_Z   4
loop_
 _symmetry_equiv_pos_site_id
 _symmetry_equiv_pos_as_xyz
  1  'x, y, z'
loop_
 _atom_site_type_symbol
 _atom_site_label
 _atom_site_symmetry_multiplicity
 _atom_site_fract_x
 _atom_site_fract_y
 _atom_site_fract_z
 _atom_site_occupancy
  Ba  Ba0  1  0.260696  0.498851  0.320183  1
  Ba  Ba1  1  0.739304  0.001149  0.820183  1
  Ba  Ba2  1  0.739304  0.501149  0.679817  1
  Ba  Ba3  1  0.260696  0.998851  0.179817  1
  Zn  Zn4  1  0.696302  0.810905  0.399065  1
  Zn  Zn5  1  0.303698  0.689095  0.899065  1
  Zn  Zn6  1  0.696302  0.310905  0.100935  1
  Zn  Zn7  1  0.303698  0.189095  0.600935  1
  Cr  Cr8  1  0.195214  0.812764  0.612825  1
  Cr  Cr9  1  0.804786  0.187236  0.387175  1
  Cr  Cr10  1  0.195214  0.312764  0.887175  1
  Cr  Cr11  1  0.804786  0.687236  0.112825  1
  F  F12  1  0.108445  0.122205  0.443840  1
  F  F13  1  0.361171  0.370152  0.049186  1
  F  F14  1  0.475676  0.751977  0.706413  1
  F  F15  1  0.524324  0.248023  0.293587  1
  F  F16  1  0.889234  0.366306  0.457744  1
  F  F17  1  0.260733  0.497556  0.808250  1
  F  F18  1  0.024072  0.752895  0.775836  1
  F  F19  1  0.110766  0.133694  0.957744  1
  F  F20  1  0.361171  0.870152  0.450814  1
  F  F21  1  0.524324  0.748023  0.206413  1
  F  F22  1  0.108445  0.622205  0.056160  1
  F  F23  1  0.891555  0.877795  0.556160  1
  F  F24  1  0.975928  0.747105  0.275836  1
  F  F25  1  0.387967  0.875859  0.957216  1
  F  F26  1  0.110766  0.633694  0.542256  1
  F  F27  1  0.889234  0.866306  0.042256  1
  F  F28  1  0.975928  0.247105  0.224164  1
  F  F29  1  0.891555  0.377795  0.943840  1
  F  F30  1  0.612033  0.624141  0.457216  1
  F  F31  1  0.638829  0.629848  0.950814  1
  F  F32  1  0.612033  0.124141  0.042784  1
  F  F33  1  0.024072  0.252895  0.724164  1
  F  F34  1  0.387967  0.375859  0.542784  1
  F  F35  1  0.739267  0.002444  0.308250  1
  F  F36  1  0.739267  0.502444  0.191750  1
  F  F37  1  0.260733  0.997556  0.691750  1
  F  F38  1  0.638829  0.129848  0.549186  1
  F  F39  1  0.475676  0.251977  0.793587  1
