# generated using pymatgen
data_YNiO3
_symmetry_space_group_name_H-M   'P 1'
_cell_length_a   6.18090844
_cell_length_b   6.18090810
_cell_length_c   11.35973568
_cell_angle_alpha   90.00000000
_cell_angle_beta   90.00000000
_cell_angle_gamma   120.00000180
_symmetry_Int_Tables_number   1
_chemical_formula_structural   YNiO3
_chemical_formula_sum   'Y6 Ni6 O18'
_cell_volume   375.84038740
_cell_formula_units_Z   6
loop_
 _symmetry_equiv_pos_site_id
 _symmetry_equiv_pos_as_xyz
  1  'x, y, z'
loop_
 _atom_site_type_symbol
 _atom_site_label
 _atom_site_symmetry_multiplicity
 _atom_site_fract_x
 _atom_site_fract_y
 _atom_site_fract_z
 _atom_site_occupancy
  Y  Y0  1  0.666667  0.333333  0.233417  1
  Y  Y1  1  0.333333  0.666667  0.733417  1
  Y  Y2  1  0.666667  0.333333  0.733417  1
  Y  Y3  1  0.333333  0.666667  0.233417  1
  Y  Y4  1  0.000000  0.000000  0.776914  1
  Y  Y5  1  0.000000  0.000000  0.276914  1
  Ni  Ni6  1  0.667325  0.000000  0.501431  1
  Ni  Ni7  1  0.667325  0.667325  0.001431  1
  Ni  Ni8  1  0.000000  0.332675  0.001431  1
  Ni  Ni9  1  1.000000  0.667325  0.501431  1
  Ni  Ni10  1  0.332675  0.332675  0.501431  1
  Ni  Ni11  1  0.332675  0.000000  0.001431  1
  O  O12  1  0.666667  0.333333  0.019186  1
  O  O13  1  0.333333  0.666667  0.519186  1
  O  O14  1  0.666667  0.333333  0.519186  1
  O  O15  1  0.333333  0.666667  0.019186  1
  O  O16  1  0.000000  0.000000  0.980398  1
  O  O17  1  0.000000  0.000000  0.480398  1
  O  O18  1  0.357283  0.000000  0.838114  1
  O  O19  1  0.357283  0.357283  0.338114  1
  O  O20  1  0.000000  0.642717  0.338114  1
  O  O21  1  1.000000  0.357283  0.838114  1
  O  O22  1  0.642717  0.642717  0.838114  1
  O  O23  1  0.642717  0.000000  0.338114  1
  O  O24  1  0.309476  0.000000  0.164614  1
  O  O25  1  0.309476  0.309476  0.664614  1
  O  O26  1  1.000000  0.690524  0.664614  1
  O  O27  1  0.000000  0.309476  0.164614  1
  O  O28  1  0.690524  0.690524  0.164614  1
  O  O29  1  0.690524  0.000000  0.664614  1
