# generated using pymatgen
data_ZnCr2O5
_symmetry_space_group_name_H-M   'P 1'
_cell_length_a   3.66447772
_cell_length_b   5.37277408
_cell_length_c   11.40587620
_cell_angle_alpha   90.00000000
_cell_angle_beta   90.00000000
_cell_angle_gamma   109.93919967
_symmetry_Int_Tables_number   1
_chemical_formula_structural   ZnCr2O5
_chemical_formula_sum   'Zn2 Cr4 O10'
_cell_volume   211.10212097
_cell_formula_units_Z   2
loop_
 _symmetry_equiv_pos_site_id
 _symmetry_equiv_pos_as_xyz
  1  'x, y, z'
loop_
 _atom_site_type_symbol
 _atom_site_label
 _atom_site_symmetry_multiplicity
 _atom_site_fract_x
 _atom_site_fract_y
 _atom_site_fract_z
 _atom_site_occupancy
  Zn  Zn0  1  0.902465  0.804928  0.750000  1
  Zn  Zn1  1  0.097545  0.195091  0.250000  1
  Cr  Cr2  1  0.208624  0.417248  0.596828  1
  Cr  Cr3  1  0.791376  0.582750  0.403164  1
  Cr  Cr4  1  0.791376  0.582750  0.096836  1
  Cr  Cr5  1  0.208624  0.417248  0.903172  1
  O  O6  1  0.699963  0.399925  0.250000  1
  O  O7  1  0.300046  0.600093  0.750000  1
  O  O8  1  0.233452  0.466904  0.075078  1
  O  O9  1  0.766553  0.533103  0.924935  1
  O  O10  1  0.766553  0.533103  0.575065  1
  O  O11  1  0.233452  0.466904  0.424921  1
  O  O12  1  0.043758  0.087516  0.629989  1
  O  O13  1  0.956232  0.912462  0.370008  1
  O  O14  1  0.043758  0.087516  0.870011  1
  O  O15  1  0.956232  0.912462  0.129993  1
