# generated using pymatgen
data_BaMn4ZnO8
_symmetry_space_group_name_H-M   'P 1'
_cell_length_a   5.50042384
_cell_length_b   5.50042447
_cell_length_c   7.22333587
_cell_angle_alpha   90.00000000
_cell_angle_beta   90.00000000
_cell_angle_gamma   120.00000153
_symmetry_Int_Tables_number   1
_chemical_formula_structural   BaMn4ZnO8
_chemical_formula_sum   'Ba1 Mn4 Zn1 O8'
_cell_volume   189.26085398
_cell_formula_units_Z   1
loop_
 _symmetry_equiv_pos_site_id
 _symmetry_equiv_pos_as_xyz
  1  'x, y, z'
loop_
 _atom_site_type_symbol
 _atom_site_label
 _atom_site_symmetry_multiplicity
 _atom_site_fract_x
 _atom_site_fract_y
 _atom_site_fract_z
 _atom_site_occupancy
  Ba  Ba0  1  0.000000  0.000000  -0.000000  1
  Mn  Mn1  1  0.333333  0.666667  0.738158  1
  Mn  Mn2  1  0.666667  0.333333  0.738158  1
  Mn  Mn3  1  0.333333  0.666667  0.261842  1
  Mn  Mn4  1  0.666667  0.333333  0.261842  1
  Zn  Zn5  1  0.000000  0.000000  0.500000  1
  O  O6  1  0.311590  0.311590  0.680688  1
  O  O7  1  0.688410  1.000000  0.680688  1
  O  O8  1  0.000000  0.688410  0.680688  1
  O  O9  1  0.688410  0.688410  0.319312  1
  O  O10  1  1.000000  0.311590  0.319312  1
  O  O11  1  0.311590  0.000000  0.319312  1
  O  O12  1  0.333333  0.666667  -0.000000  1
  O  O13  1  0.666667  0.333333  -0.000000  1
