# generated using pymatgen
data_Mg2Ta2TiO8
_symmetry_space_group_name_H-M   'P 1'
_cell_length_a   5.23067058
_cell_length_b   6.00343268
_cell_length_c   10.03753947
_cell_angle_alpha   107.40993533
_cell_angle_beta   90.07965275
_cell_angle_gamma   89.99902505
_symmetry_Int_Tables_number   1
_chemical_formula_structural   Mg2Ta2TiO8
_chemical_formula_sum   'Mg4 Ta4 Ti2 O16'
_cell_volume   300.75855049
_cell_formula_units_Z   2
loop_
 _symmetry_equiv_pos_site_id
 _symmetry_equiv_pos_as_xyz
  1  'x, y, z'
loop_
 _atom_site_type_symbol
 _atom_site_label
 _atom_site_symmetry_multiplicity
 _atom_site_fract_x
 _atom_site_fract_y
 _atom_site_fract_z
 _atom_site_occupancy
  Mg  Mg0  1  0.761893  0.419492  0.549843  1
  Mg  Mg1  1  0.738530  0.869558  0.449487  1
  Mg  Mg2  1  0.238673  0.580931  0.449779  1
  Mg  Mg3  1  0.261822  0.130961  0.550066  1
  Ta  Ta4  1  0.744595  0.270045  0.233507  1
  Ta  Ta5  1  0.756401  0.036304  0.766083  1
  Ta  Ta6  1  0.256331  0.730235  0.766203  1
  Ta  Ta7  1  0.244596  0.964318  0.233550  1
  Ti  Ti8  1  0.750807  0.625804  0.999829  1
  Ti  Ti9  1  0.250588  0.374702  0.999769  1
  O  O10  1  0.082057  0.191747  0.140965  1
  O  O11  1  0.418999  0.050348  0.858655  1
  O  O12  1  0.918781  0.808525  0.858621  1
  O  O13  1  0.582312  0.949504  0.141205  1
  O  O14  1  0.590718  0.427216  0.116342  1
  O  O15  1  0.910535  0.310818  0.883022  1
  O  O16  1  0.410714  0.573078  0.883196  1
  O  O17  1  0.090811  0.689780  0.116452  1
  O  O18  1  0.444090  0.285383  0.369095  1
  O  O19  1  0.056766  0.915902  0.630631  1
  O  O20  1  0.372238  0.839841  0.384141  1
  O  O21  1  0.128113  0.455434  0.615612  1
  O  O22  1  0.628138  0.160658  0.615612  1
  O  O23  1  0.872476  0.545135  0.383962  1
  O  O24  1  0.943992  0.084778  0.369164  1
  O  O25  1  0.556635  0.714998  0.630561  1
