# generated using pymatgen
data_ZnBiF5
_symmetry_space_group_name_H-M   'P 1'
_cell_length_a   5.81336987
_cell_length_b   5.81556367
_cell_length_c   8.37152600
_cell_angle_alpha   100.18427882
_cell_angle_beta   108.03674050
_cell_angle_gamma   107.43185031
_symmetry_Int_Tables_number   1
_chemical_formula_structural   ZnBiF5
_chemical_formula_sum   'Zn2 Bi2 F10'
_cell_volume   245.15954016
_cell_formula_units_Z   2
loop_
 _symmetry_equiv_pos_site_id
 _symmetry_equiv_pos_as_xyz
  1  'x, y, z'
loop_
 _atom_site_type_symbol
 _atom_site_label
 _atom_site_symmetry_multiplicity
 _atom_site_fract_x
 _atom_site_fract_y
 _atom_site_fract_z
 _atom_site_occupancy
  Zn  Zn0  1  0.256291  0.503557  0.749242  1
  Zn  Zn1  1  0.740456  0.490382  0.247936  1
  Bi  Bi2  1  0.999866  -0.002586  0.997618  1
  Bi  Bi3  1  0.495808  0.996375  0.497295  1
  F  F4  1  0.388431  0.133669  0.244274  1
  F  F5  1  0.605814  0.855011  0.747604  1
  F  F6  1  0.575874  0.675912  0.356627  1
  F  F7  1  0.833755  0.220533  0.147254  1
  F  F8  1  0.776766  0.668337  0.065769  1
  F  F9  1  0.097647  0.706236  0.433417  1
  F  F10  1  0.236652  0.338988  0.940438  1
  F  F11  1  0.896993  0.289424  0.566252  1
  F  F12  1  0.172158  0.778817  0.852056  1
  F  F13  1  0.427283  0.318730  0.645178  1
