# generated using pymatgen
data_MnZn2WO6
_symmetry_space_group_name_H-M   'P 1'
_cell_length_a   5.32093075
_cell_length_b   5.31591405
_cell_length_c   7.97457661
_cell_angle_alpha   90.00000000
_cell_angle_beta   88.51677333
_cell_angle_gamma   90.00000000
_symmetry_Int_Tables_number   1
_chemical_formula_structural   MnZn2WO6
_chemical_formula_sum   'Mn2 Zn4 W2 O12'
_cell_volume   225.49019124
_cell_formula_units_Z   2
loop_
 _symmetry_equiv_pos_site_id
 _symmetry_equiv_pos_as_xyz
  1  'x, y, z'
loop_
 _atom_site_type_symbol
 _atom_site_label
 _atom_site_symmetry_multiplicity
 _atom_site_fract_x
 _atom_site_fract_y
 _atom_site_fract_z
 _atom_site_occupancy
  Mn  Mn0  1  0.500000  0.000000  0.000000  1
  Mn  Mn1  1  0.000001  0.499999  0.500000  1
  Zn  Zn2  1  0.012993  0.025942  0.258349  1
  Zn  Zn3  1  0.487007  0.525943  0.241651  1
  Zn  Zn4  1  0.987008  0.974059  0.741651  1
  Zn  Zn5  1  0.512992  0.474058  0.758349  1
  W  W6  1  0.500000  0.000000  0.499999  1
  W  W7  1  0.000000  0.499999  0.000000  1
  O  O8  1  0.644223  0.310126  0.415281  1
  O  O9  1  0.855777  0.810127  0.084719  1
  O  O10  1  0.355776  0.689874  0.584719  1
  O  O11  1  0.144224  0.189873  0.915281  1
  O  O12  1  0.183094  0.161260  0.555560  1
  O  O13  1  0.316906  0.661259  0.944440  1
  O  O14  1  0.816907  0.838740  0.444440  1
  O  O15  1  0.683093  0.338741  0.055560  1
  O  O16  1  0.119958  0.401391  0.228164  1
  O  O17  1  0.380043  0.901392  0.271835  1
  O  O18  1  0.619958  0.098608  0.728165  1
  O  O19  1  0.880043  0.598609  0.771836  1
