# generated using pymatgen
data_CaSnO2
_symmetry_space_group_name_H-M   'P 1'
_cell_length_a   3.35891358
_cell_length_b   9.21377180
_cell_length_c   9.07968598
_cell_angle_alpha   97.44089547
_cell_angle_beta   79.56958885
_cell_angle_gamma   81.61432998
_symmetry_Int_Tables_number   1
_chemical_formula_structural   CaSnO2
_chemical_formula_sum   'Ca4 Sn4 O8'
_cell_volume   269.86973479
_cell_formula_units_Z   4
loop_
 _symmetry_equiv_pos_site_id
 _symmetry_equiv_pos_as_xyz
  1  'x, y, z'
loop_
 _atom_site_type_symbol
 _atom_site_label
 _atom_site_symmetry_multiplicity
 _atom_site_fract_x
 _atom_site_fract_y
 _atom_site_fract_z
 _atom_site_occupancy
  Ca  Ca0  1  0.023141  0.077314  0.261367  1
  Ca  Ca1  1  0.846620  0.899420  0.809031  1
  Ca  Ca2  1  0.091563  0.681254  0.087428  1
  Ca  Ca3  1  0.987555  0.301322  0.977831  1
  Sn  Sn4  1  0.593681  0.170373  0.635580  1
  Sn  Sn5  1  0.402691  0.428170  0.319252  1
  Sn  Sn6  1  0.575473  0.553521  0.682366  1
  Sn  Sn7  1  0.496514  0.790567  0.432091  1
  O  O8  1  0.870667  0.929621  0.541958  1
  O  O9  1  0.540937  0.359833  0.799577  1
  O  O10  1  0.633402  0.523897  0.119325  1
  O  O11  1  0.159890  0.198687  0.500724  1
  O  O12  1  0.266801  0.078519  0.806705  1
  O  O13  1  0.492564  0.218478  0.154841  1
  O  O14  1  0.593110  0.886110  0.231212  1
  O  O15  1  0.393665  0.742248  0.866329  1
