# generated using pymatgen
data_YFeF5
_symmetry_space_group_name_H-M   'P 1'
_cell_length_a   4.23219991
_cell_length_b   5.81826079
_cell_length_c   5.81826035
_cell_angle_alpha   73.78282215
_cell_angle_beta   68.67242255
_cell_angle_gamma   68.67240875
_symmetry_Int_Tables_number   1
_chemical_formula_structural   YFeF5
_chemical_formula_sum   'Y1 Fe1 F5'
_cell_volume   122.52086715
_cell_formula_units_Z   1
loop_
 _symmetry_equiv_pos_site_id
 _symmetry_equiv_pos_as_xyz
  1  'x, y, z'
loop_
 _atom_site_type_symbol
 _atom_site_label
 _atom_site_symmetry_multiplicity
 _atom_site_fract_x
 _atom_site_fract_y
 _atom_site_fract_z
 _atom_site_occupancy
  Y  Y0  1  0.500000  0.500000  0.500000  1
  Fe  Fe1  1  0.000000  0.000000  0.000000  1
  F  F2  1  0.500000  0.814448  0.185552  1
  F  F3  1  0.500000  0.185552  0.814448  1
  F  F4  1  0.767677  0.232323  0.232323  1
  F  F5  1  0.232323  0.767677  0.767677  1
  F  F6  1  0.000000  0.500000  0.500000  1
