# generated using pymatgen
data_Ca2CoWO6
_symmetry_space_group_name_H-M   'P 1'
_cell_length_a   5.59340572
_cell_length_b   5.60153230
_cell_length_c   7.87845421
_cell_angle_alpha   89.60003601
_cell_angle_beta   135.08863603
_cell_angle_gamma   120.25806842
_symmetry_Int_Tables_number   1
_chemical_formula_structural   Ca2CoWO6
_chemical_formula_sum   'Ca2 Co1 W1 O6'
_cell_volume   123.29296506
_cell_formula_units_Z   1
loop_
 _symmetry_equiv_pos_site_id
 _symmetry_equiv_pos_as_xyz
  1  'x, y, z'
loop_
 _atom_site_type_symbol
 _atom_site_label
 _atom_site_symmetry_multiplicity
 _atom_site_fract_x
 _atom_site_fract_y
 _atom_site_fract_z
 _atom_site_occupancy
  Ca  Ca0  1  0.996447  0.518965  0.267892  1
  Ca  Ca1  1  0.992667  0.515221  0.764102  1
  Co  Co2  1  0.994069  0.981714  0.499041  1
  W  W3  1  0.995428  0.978018  0.996892  1
  O  O4  1  0.161929  0.048760  0.318286  1
  O  O5  1  0.822310  0.874587  0.667620  1
  O  O6  1  0.393012  0.451816  0.148943  1
  O  O7  1  0.422380  0.880018  0.746187  1
  O  O8  1  0.548172  0.048983  0.219849  1
  O  O9  1  0.620510  0.496147  0.843111  1
