# generated using pymatgen
data_CaMnAs2O7
_symmetry_space_group_name_H-M   'P 1'
_cell_length_a   7.60946873
_cell_length_b   9.23375112
_cell_length_c   9.63397123
_cell_angle_alpha   90.00000000
_cell_angle_beta   111.67000634
_cell_angle_gamma   90.00000000
_symmetry_Int_Tables_number   1
_chemical_formula_structural   CaMnAs2O7
_chemical_formula_sum   'Ca4 Mn4 As8 O28'
_cell_volume   629.08008200
_cell_formula_units_Z   4
loop_
 _symmetry_equiv_pos_site_id
 _symmetry_equiv_pos_as_xyz
  1  'x, y, z'
loop_
 _atom_site_type_symbol
 _atom_site_label
 _atom_site_symmetry_multiplicity
 _atom_site_fract_x
 _atom_site_fract_y
 _atom_site_fract_z
 _atom_site_occupancy
  Ca  Ca0  1  0.259159  0.933190  0.929590  1
  Ca  Ca1  1  0.740841  0.433190  0.570410  1
  Ca  Ca2  1  0.740841  0.066810  0.070410  1
  Ca  Ca3  1  0.259159  0.566810  0.429590  1
  Mn  Mn4  1  0.800093  0.054945  0.689572  1
  Mn  Mn5  1  0.199907  0.554945  0.810428  1
  Mn  Mn6  1  0.199907  0.945055  0.310428  1
  Mn  Mn7  1  0.800093  0.445055  0.189572  1
  As  As8  1  0.419848  0.235550  0.733136  1
  As  As9  1  0.580152  0.735550  0.766864  1
  As  As10  1  0.580152  0.764450  0.266864  1
  As  As11  1  0.419848  0.264450  0.233135  1
  As  As12  1  0.017440  0.292360  0.953573  1
  As  As13  1  0.982560  0.792360  0.546427  1
  As  As14  1  0.982560  0.707640  0.046427  1
  As  As15  1  0.017440  0.207640  0.453573  1
  O  O16  1  0.856832  0.303527  0.037664  1
  O  O17  1  0.143168  0.803527  0.462336  1
  O  O18  1  0.143168  0.696473  0.962336  1
  O  O19  1  0.856832  0.196473  0.537664  1
  O  O20  1  0.344870  0.409216  0.726184  1
  O  O21  1  0.655130  0.909216  0.773816  1
  O  O22  1  0.655130  0.590784  0.273816  1
  O  O23  1  0.344870  0.090784  0.226184  1
  O  O24  1  0.435513  0.132269  0.883639  1
  O  O25  1  0.564487  0.632269  0.616361  1
  O  O26  1  0.564487  0.867731  0.116361  1
  O  O27  1  0.435513  0.367731  0.383639  1
  O  O28  1  0.244567  0.144840  0.575188  1
  O  O29  1  0.755433  0.644840  0.924812  1
  O  O30  1  0.755433  0.855160  0.424812  1
  O  O31  1  0.244567  0.355160  0.075188  1
  O  O32  1  0.983396  0.091888  0.308970  1
  O  O33  1  0.016604  0.591888  0.191030  1
  O  O34  1  0.016604  0.908112  0.691030  1
  O  O35  1  0.983396  0.408112  0.808970  1
  O  O36  1  0.621952  0.268391  0.195618  1
  O  O37  1  0.378048  0.768391  0.304382  1
  O  O38  1  0.378048  0.731609  0.804382  1
  O  O39  1  0.621952  0.231609  0.695618  1
  O  O40  1  0.017980  0.384638  0.403640  1
  O  O41  1  0.982020  0.884638  0.096360  1
  O  O42  1  0.982020  0.615362  0.596360  1
  O  O43  1  0.017980  0.115362  0.903640  1
