# generated using pymatgen
data_CaNiO2
_symmetry_space_group_name_H-M   'P 1'
_cell_length_a   3.02210305
_cell_length_b   9.33315838
_cell_length_c   8.57152942
_cell_angle_alpha   81.51049567
_cell_angle_beta   79.30618290
_cell_angle_gamma   80.65671454
_symmetry_Int_Tables_number   1
_chemical_formula_structural   CaNiO2
_chemical_formula_sum   'Ca4 Ni4 O8'
_cell_volume   232.68830553
_cell_formula_units_Z   4
loop_
 _symmetry_equiv_pos_site_id
 _symmetry_equiv_pos_as_xyz
  1  'x, y, z'
loop_
 _atom_site_type_symbol
 _atom_site_label
 _atom_site_symmetry_multiplicity
 _atom_site_fract_x
 _atom_site_fract_y
 _atom_site_fract_z
 _atom_site_occupancy
  Ca  Ca0  1  0.355058  0.055348  0.251839  1
  Ca  Ca1  1  0.640778  0.924428  0.776486  1
  Ca  Ca2  1  0.086759  0.675085  0.155381  1
  Ca  Ca3  1  0.909328  0.304942  0.872931  1
  Ni  Ni4  1  0.625042  0.186932  0.557888  1
  Ni  Ni5  1  0.215738  0.358782  0.211975  1
  Ni  Ni6  1  0.780900  0.621138  0.815840  1
  Ni  Ni7  1  0.370780  0.792935  0.470318  1
  O  O8  1  0.818727  0.752431  0.608173  1
  O  O9  1  0.347543  0.474388  0.828890  1
  O  O10  1  0.648853  0.505474  0.199286  1
  O  O11  1  0.177057  0.227606  0.420223  1
  O  O12  1  0.078054  0.121228  0.708576  1
  O  O13  1  0.844063  0.208883  0.127400  1
  O  O14  1  0.917767  0.858741  0.319563  1
  O  O15  1  0.151827  0.770994  0.900845  1
