# generated using pymatgen
data_Mg2TaFeO6
_symmetry_space_group_name_H-M   'P 1'
_cell_length_a   5.19045779
_cell_length_b   5.42053961
_cell_length_c   7.61816174
_cell_angle_alpha   90.00000000
_cell_angle_beta   90.00000000
_cell_angle_gamma   89.33696360
_symmetry_Int_Tables_number   1
_chemical_formula_structural   Mg2TaFeO6
_chemical_formula_sum   'Mg4 Ta2 Fe2 O12'
_cell_volume   214.32325444
_cell_formula_units_Z   2
loop_
 _symmetry_equiv_pos_site_id
 _symmetry_equiv_pos_as_xyz
  1  'x, y, z'
loop_
 _atom_site_type_symbol
 _atom_site_label
 _atom_site_symmetry_multiplicity
 _atom_site_fract_x
 _atom_site_fract_y
 _atom_site_fract_z
 _atom_site_occupancy
  Mg  Mg0  1  0.006888  0.957540  0.250000  1
  Mg  Mg1  1  0.487076  0.430542  0.250000  1
  Mg  Mg2  1  0.512924  0.569458  0.750000  1
  Mg  Mg3  1  0.993112  0.042460  0.750000  1
  Ta  Ta4  1  0.000000  0.500000  0.000000  1
  Ta  Ta5  1  0.000000  0.500000  0.500000  1
  Fe  Fe6  1  0.500000  0.000000  0.000000  1
  Fe  Fe7  1  0.500000  0.000000  0.500000  1
  O  O8  1  0.824836  0.810951  0.568678  1
  O  O9  1  0.313648  0.679488  0.430339  1
  O  O10  1  0.175164  0.189049  0.431322  1
  O  O11  1  0.686352  0.320512  0.930339  1
  O  O12  1  0.132860  0.440917  0.750000  1
  O  O13  1  0.686352  0.320512  0.569661  1
  O  O14  1  0.313648  0.679488  0.069661  1
  O  O15  1  0.824836  0.810951  0.931322  1
  O  O16  1  0.630775  0.068153  0.250000  1
  O  O17  1  0.175164  0.189049  0.068678  1
  O  O18  1  0.369225  0.931848  0.750000  1
  O  O19  1  0.867140  0.559083  0.250000  1
