# generated using pymatgen
data_BaYCoCuO5
_symmetry_space_group_name_H-M   'P 1'
_cell_length_a   3.90598538
_cell_length_b   3.90598538
_cell_length_c   7.81013083
_cell_angle_alpha   90.00000000
_cell_angle_beta   90.00000000
_cell_angle_gamma   90.00000000
_symmetry_Int_Tables_number   1
_chemical_formula_structural   BaYCoCuO5
_chemical_formula_sum   'Ba1 Y1 Co1 Cu1 O5'
_cell_volume   119.15699321
_cell_formula_units_Z   1
loop_
 _symmetry_equiv_pos_site_id
 _symmetry_equiv_pos_as_xyz
  1  'x, y, z'
loop_
 _atom_site_type_symbol
 _atom_site_label
 _atom_site_symmetry_multiplicity
 _atom_site_fract_x
 _atom_site_fract_y
 _atom_site_fract_z
 _atom_site_occupancy
  Ba  Ba0  1  0.000000  -0.000000  0.993085  1
  Y  Y1  1  0.000000  -0.000000  0.469859  1
  Co  Co2  1  0.499999  0.499999  0.709613  1
  Cu  Cu3  1  0.499999  0.499999  0.255788  1
  O  O4  1  0.000000  0.499999  0.638276  1
  O  O5  1  0.499999  -0.000000  0.638276  1
  O  O6  1  0.000000  0.499999  0.272330  1
  O  O7  1  0.499999  0.000000  0.272330  1
  O  O8  1  0.499999  0.499999  0.938360  1
