# generated using pymatgen
data_BiOF
_symmetry_space_group_name_H-M   'P 1'
_cell_length_a   4.01445763
_cell_length_b   4.00549026
_cell_length_c   5.83501706
_cell_angle_alpha   89.99332876
_cell_angle_beta   90.27115804
_cell_angle_gamma   90.00179726
_symmetry_Int_Tables_number   1
_chemical_formula_structural   BiOF
_chemical_formula_sum   'Bi2 O2 F2'
_cell_volume   93.82526980
_cell_formula_units_Z   2
loop_
 _symmetry_equiv_pos_site_id
 _symmetry_equiv_pos_as_xyz
  1  'x, y, z'
loop_
 _atom_site_type_symbol
 _atom_site_label
 _atom_site_symmetry_multiplicity
 _atom_site_fract_x
 _atom_site_fract_y
 _atom_site_fract_z
 _atom_site_occupancy
  Bi  Bi0  1  0.744052  0.750398  0.780980  1
  Bi  Bi1  1  0.247474  0.246206  0.215125  1
  O  O2  1  0.746908  0.247056  -0.000686  1
  O  O3  1  0.247863  0.748859  0.996758  1
  F  F4  1  0.752980  0.240281  0.499678  1
  F  F5  1  0.251292  0.750312  0.496294  1
