# generated using pymatgen
data_Ca(WO2)2
_symmetry_space_group_name_H-M   'P 1'
_cell_length_a   6.53619657
_cell_length_b   6.55402225
_cell_length_c   26.22403290
_cell_angle_alpha   60.01001794
_cell_angle_beta   61.63510519
_cell_angle_gamma   59.90974329
_symmetry_Int_Tables_number   1
_chemical_formula_structural   Ca(WO2)2
_chemical_formula_sum   'Ca8 W16 O32'
_cell_volume   803.20647029
_cell_formula_units_Z   8
loop_
 _symmetry_equiv_pos_site_id
 _symmetry_equiv_pos_as_xyz
  1  'x, y, z'
loop_
 _atom_site_type_symbol
 _atom_site_label
 _atom_site_symmetry_multiplicity
 _atom_site_fract_x
 _atom_site_fract_y
 _atom_site_fract_z
 _atom_site_occupancy
  Ca  Ca0  1  0.138801  0.122749  0.028926  1
  Ca  Ca1  1  0.005066  0.497039  0.125214  1
  Ca  Ca2  1  0.140413  0.117316  0.281239  1
  Ca  Ca3  1  0.010149  0.495209  0.374858  1
  Ca  Ca4  1  -0.000293  0.497959  0.626093  1
  Ca  Ca5  1  0.505925  0.499407  0.498815  1
  Ca  Ca6  1  -0.015122  0.510628  0.873466  1
  Ca  Ca7  1  0.492820  0.501047  0.751271  1
  W  W8  1  0.503341  0.494666  0.124820  1
  W  W9  1  0.503293  0.495028  0.251662  1
  W  W10  1  0.503341  0.002712  0.124820  1
  W  W11  1  0.120856  0.131972  0.528800  1
  W  W12  1  0.512799  0.491593  0.374925  1
  W  W13  1  0.882372  0.867171  0.220821  1
  W  W14  1  0.101276  0.145016  0.777173  1
  W  W15  1  0.512799  -0.004089  0.374925  1
  W  W16  1  0.501736  0.499280  0.625062  1
  W  W17  1  0.895624  0.860918  0.470635  1
  W  W18  1  0.501736  -0.001265  0.625062  1
  W  W19  1  0.480383  0.011340  0.874263  1
  W  W20  1  0.480383  0.511226  0.874263  1
  W  W21  1  0.882255  0.862482  0.723195  1
  W  W22  1  0.492285  0.501132  0.001363  1
  W  W23  1  0.838399  0.891997  0.969402  1
  O  O24  1  0.283165  0.255247  0.062989  1
  O  O25  1  0.296038  0.246888  0.177546  1
  O  O26  1  0.283165  0.709633  0.062989  1
  O  O27  1  0.708749  0.261403  0.067112  1
  O  O28  1  0.279428  0.744903  0.182691  1
  O  O29  1  0.288957  0.252819  0.314277  1
  O  O30  1  0.731026  0.273294  0.189744  1
  O  O31  1  0.295202  0.228582  0.436908  1
  O  O32  1  0.288957  0.701115  0.314277  1
  O  O33  1  0.725126  0.755063  0.066187  1
  O  O34  1  0.711584  0.258530  0.317839  1
  O  O35  1  0.731026  0.736702  0.189744  1
  O  O36  1  0.260159  0.230369  0.565578  1
  O  O37  1  0.289249  0.755287  0.425044  1
  O  O38  1  0.749342  0.258622  0.435725  1
  O  O39  1  0.301235  0.243075  0.678154  1
  O  O40  1  0.260159  0.747158  0.565578  1
  O  O41  1  0.719039  0.758165  0.316157  1
  O  O42  1  0.742847  0.235257  0.571660  1
  O  O43  1  0.749342  0.749136  0.435725  1
  O  O44  1  0.262818  0.763344  0.677623  1
  O  O45  1  0.246330  0.251235  0.814492  1
  O  O46  1  0.740911  0.253366  0.684554  1
  O  O47  1  0.271291  0.262631  0.925861  1
  O  O48  1  0.246330  0.744464  0.814492  1
  O  O49  1  0.705400  0.755910  0.570695  1
  O  O50  1  0.707550  0.245196  0.825515  1
  O  O51  1  0.740911  0.767511  0.684554  1
  O  O52  1  0.279575  0.742163  0.934025  1
  O  O53  1  0.707817  0.281250  0.938012  1
  O  O54  1  0.698821  0.770263  0.815163  1
  O  O55  1  0.707817  0.758884  0.938012  1
