# generated using pymatgen
data_VF5
_symmetry_space_group_name_H-M   'P 1'
_cell_length_a   5.39863689
_cell_length_b   5.41159896
_cell_length_c   7.60423239
_cell_angle_alpha   96.15984889
_cell_angle_beta   111.39438444
_cell_angle_gamma   109.82464274
_symmetry_Int_Tables_number   1
_chemical_formula_structural   VF5
_chemical_formula_sum   'V2 F10'
_cell_volume   187.70189475
_cell_formula_units_Z   2
loop_
 _symmetry_equiv_pos_site_id
 _symmetry_equiv_pos_as_xyz
  1  'x, y, z'
loop_
 _atom_site_type_symbol
 _atom_site_label
 _atom_site_symmetry_multiplicity
 _atom_site_fract_x
 _atom_site_fract_y
 _atom_site_fract_z
 _atom_site_occupancy
  V  V0  1  0.996066  0.999862  0.999700  1
  V  V1  1  0.499637  0.000541  0.499020  1
  F  F2  1  0.324497  0.074524  0.247790  1
  F  F3  1  0.668827  0.925872  0.749580  1
  F  F4  1  0.591054  0.761611  0.386527  1
  F  F5  1  0.873875  0.208411  0.112281  1
  F  F6  1  0.778465  0.714588  0.049738  1
  F  F7  1  0.160985  0.737669  0.449906  1
  F  F8  1  0.214874  0.286139  0.951205  1
  F  F9  1  0.838702  0.261855  0.546703  1
  F  F10  1  0.111662  0.789046  0.882853  1
  F  F11  1  0.409604  0.241531  0.610573  1
