# generated using pymatgen
data_CaNiWO6
_symmetry_space_group_name_H-M   'P 1'
_cell_length_a   5.07802508
_cell_length_b   5.60935726
_cell_length_c   9.99914558
_cell_angle_alpha   90.00000000
_cell_angle_beta   89.62404804
_cell_angle_gamma   90.00000000
_symmetry_Int_Tables_number   1
_chemical_formula_structural   CaNiWO6
_chemical_formula_sum   'Ca2 Ni2 W2 O12'
_cell_volume   284.81409951
_cell_formula_units_Z   2
loop_
 _symmetry_equiv_pos_site_id
 _symmetry_equiv_pos_as_xyz
  1  'x, y, z'
loop_
 _atom_site_type_symbol
 _atom_site_label
 _atom_site_symmetry_multiplicity
 _atom_site_fract_x
 _atom_site_fract_y
 _atom_site_fract_z
 _atom_site_occupancy
  Ca  Ca0  1  0.498487  0.499705  0.324357  1
  Ca  Ca1  1  0.998487  0.000295  0.824357  1
  Ni  Ni2  1  0.500422  0.500121  0.991932  1
  Ni  Ni3  1  0.000422  0.999879  0.491932  1
  W  W4  1  0.000801  0.500278  0.009866  1
  W  W5  1  0.500801  0.999722  0.509866  1
  O  O6  1  0.250530  0.739931  0.484220  1
  O  O7  1  0.243050  0.652489  0.880027  1
  O  O8  1  0.759629  0.351584  0.878910  1
  O  O9  1  0.743050  0.847511  0.380027  1
  O  O10  1  0.249165  0.240174  0.981945  1
  O  O11  1  0.265605  0.611424  0.133868  1
  O  O12  1  0.749165  0.259826  0.481945  1
  O  O13  1  0.259629  0.148416  0.378910  1
  O  O14  1  0.750530  0.760069  0.984220  1
  O  O15  1  0.765605  0.888576  0.633868  1
  O  O16  1  0.730709  0.385276  0.132379  1
  O  O17  1  0.230709  0.114724  0.632379  1
