# generated using pymatgen
data_HoMg(WO3)2
_symmetry_space_group_name_H-M   'P 1'
_cell_length_a   5.43916607
_cell_length_b   5.64956562
_cell_length_c   8.00833762
_cell_angle_alpha   90.00028998
_cell_angle_beta   89.99903199
_cell_angle_gamma   90.93088319
_symmetry_Int_Tables_number   1
_chemical_formula_structural   HoMg(WO3)2
_chemical_formula_sum   'Ho2 Mg2 W4 O12'
_cell_volume   246.05513274
_cell_formula_units_Z   2
loop_
 _symmetry_equiv_pos_site_id
 _symmetry_equiv_pos_as_xyz
  1  'x, y, z'
loop_
 _atom_site_type_symbol
 _atom_site_label
 _atom_site_symmetry_multiplicity
 _atom_site_fract_x
 _atom_site_fract_y
 _atom_site_fract_z
 _atom_site_occupancy
  Ho  Ho0  1  0.007457  0.942357  0.749997  1
  Ho  Ho1  1  0.508613  0.554356  0.250009  1
  Mg  Mg2  1  0.498001  0.464843  0.749995  1
  Mg  Mg3  1  0.999860  0.037160  0.250004  1
  W  W4  1  0.000069  0.496246  0.000152  1
  W  W5  1  0.000079  0.496249  0.499848  1
  W  W6  1  0.499827  0.004732  0.500342  1
  W  W7  1  0.499818  0.004736  0.999658  1
  O  O8  1  0.127575  0.402933  0.250001  1
  O  O9  1  0.192167  0.182599  0.928888  1
  O  O10  1  0.192188  0.182589  0.571110  1
  O  O11  1  0.332701  0.689005  0.928161  1
  O  O12  1  0.332747  0.688989  0.571808  1
  O  O13  1  0.358287  0.929619  0.249993  1
  O  O14  1  0.629737  0.087591  0.750008  1
  O  O15  1  0.669830  0.310779  0.431836  1
  O  O16  1  0.669825  0.310783  0.068171  1
  O  O17  1  0.811755  0.821881  0.073525  1
  O  O18  1  0.811792  0.821914  0.426498  1
  O  O19  1  0.857668  0.570636  0.749997  1
