# generated using pymatgen
data_CaNiF6
_symmetry_space_group_name_H-M   'P 1'
_cell_length_a   5.65941424
_cell_length_b   5.65941361
_cell_length_c   5.65941324
_cell_angle_alpha   58.19905145
_cell_angle_beta   58.19904993
_cell_angle_gamma   58.19905523
_symmetry_Int_Tables_number   1
_chemical_formula_structural   CaNiF6
_chemical_formula_sum   'Ca1 Ni1 F6'
_cell_volume   122.88446666
_cell_formula_units_Z   1
loop_
 _symmetry_equiv_pos_site_id
 _symmetry_equiv_pos_as_xyz
  1  'x, y, z'
loop_
 _atom_site_type_symbol
 _atom_site_label
 _atom_site_symmetry_multiplicity
 _atom_site_fract_x
 _atom_site_fract_y
 _atom_site_fract_z
 _atom_site_occupancy
  Ca  Ca0  1  0.500000  0.500000  0.500000  1
  Ni  Ni1  1  0.000000  0.000000  0.000000  1
  F  F2  1  0.310537  0.126949  0.783994  1
  F  F3  1  0.126949  0.783994  0.310537  1
  F  F4  1  0.216006  0.689463  0.873051  1
  F  F5  1  0.873051  0.216006  0.689463  1
  F  F6  1  0.689463  0.873051  0.216006  1
  F  F7  1  0.783994  0.310537  0.126949  1
