# generated using pymatgen
data_YSb3F15
_symmetry_space_group_name_H-M   'P 1'
_cell_length_a   10.72666516
_cell_length_b   5.84300908
_cell_length_c   11.36077580
_cell_angle_alpha   90.00000000
_cell_angle_beta   90.00000000
_cell_angle_gamma   107.34790234
_symmetry_Int_Tables_number   1
_chemical_formula_structural   YSb3F15
_chemical_formula_sum   'Y2 Sb6 F30'
_cell_volume   679.65825556
_cell_formula_units_Z   2
loop_
 _symmetry_equiv_pos_site_id
 _symmetry_equiv_pos_as_xyz
  1  'x, y, z'
loop_
 _atom_site_type_symbol
 _atom_site_label
 _atom_site_symmetry_multiplicity
 _atom_site_fract_x
 _atom_site_fract_y
 _atom_site_fract_z
 _atom_site_occupancy
  Y  Y0  1  0.884897  0.475961  0.250000  1
  Y  Y1  1  0.448436  0.524039  0.750000  1
  Sb  Sb2  1  0.166667  -0.000000  0.500000  1
  Sb  Sb3  1  0.512188  0.967566  0.435592  1
  Sb  Sb4  1  0.821145  0.032434  0.564408  1
  Sb  Sb5  1  0.166667  -0.000000  0.000000  1
  Sb  Sb6  1  0.512188  0.967566  0.064408  1
  Sb  Sb7  1  0.821145  0.032434  0.935592  1
  F  F8  1  0.079113  0.574901  0.250000  1
  F  F9  1  0.491248  0.870851  0.250000  1
  F  F10  1  0.824591  0.772052  0.250000  1
  F  F11  1  0.254220  0.425099  0.750000  1
  F  F12  1  0.508743  0.227948  0.750000  1
  F  F13  1  0.842085  0.129149  0.750000  1
  F  F14  1  0.065295  0.126942  0.611089  1
  F  F15  1  0.338133  0.151033  0.569123  1
  F  F16  1  0.653448  0.125956  0.581616  1
  F  F17  1  0.268039  0.873058  0.388911  1
  F  F18  1  0.679885  0.874044  0.418384  1
  F  F19  1  0.995200  0.848967  0.430877  1
  F  F20  1  0.143980  0.727286  0.903635  1
  F  F21  1  0.467617  0.700244  0.926796  1
  F  F22  1  0.737482  0.707056  0.876880  1
  F  F23  1  0.189354  0.272714  0.096365  1
  F  F24  1  0.595851  0.292944  0.123120  1
  F  F25  1  0.865716  0.299756  0.073204  1
  F  F26  1  0.189354  0.272714  0.403635  1
  F  F27  1  0.595851  0.292944  0.376880  1
  F  F28  1  0.865716  0.299756  0.426796  1
  F  F29  1  0.143980  0.727286  0.596365  1
  F  F30  1  0.467617  0.700244  0.573204  1
  F  F31  1  0.737482  0.707056  0.623120  1
  F  F32  1  0.065295  0.126942  0.888911  1
  F  F33  1  0.338133  0.151033  0.930877  1
  F  F34  1  0.653448  0.125956  0.918384  1
  F  F35  1  0.268039  0.873058  0.111089  1
  F  F36  1  0.679885  0.874044  0.081616  1
  F  F37  1  0.995200  0.848967  0.069123  1
