# generated using pymatgen
data_Ca(MnS2)2
_symmetry_space_group_name_H-M   'P 1'
_cell_length_a   7.08479325
_cell_length_b   7.08479435
_cell_length_c   7.99474273
_cell_angle_alpha   116.30124794
_cell_angle_beta   116.30125463
_cell_angle_gamma   89.99999383
_symmetry_Int_Tables_number   1
_chemical_formula_structural   Ca(MnS2)2
_chemical_formula_sum   'Ca2 Mn4 S8'
_cell_volume   312.73413511
_cell_formula_units_Z   2
loop_
 _symmetry_equiv_pos_site_id
 _symmetry_equiv_pos_as_xyz
  1  'x, y, z'
loop_
 _atom_site_type_symbol
 _atom_site_label
 _atom_site_symmetry_multiplicity
 _atom_site_fract_x
 _atom_site_fract_y
 _atom_site_fract_z
 _atom_site_occupancy
  Ca  Ca0  1  0.375000  0.625000  0.750000  1
  Ca  Ca1  1  0.625000  0.375000  0.250000  1
  Mn  Mn2  1  0.000000  0.000000  0.500000  1
  Mn  Mn3  1  0.000000  0.500000  0.000000  1
  Mn  Mn4  1  0.500000  0.000000  0.500000  1
  Mn  Mn5  1  0.000000  0.000000  0.000000  1
  S  S6  1  0.767918  0.799834  0.535836  1
  S  S7  1  0.763999  0.232082  0.964164  1
  S  S8  1  0.200166  0.232082  0.964164  1
  S  S9  1  0.232082  0.200166  0.464164  1
  S  S10  1  0.232082  0.763999  0.464164  1
  S  S11  1  0.236001  0.767918  0.035836  1
  S  S12  1  0.767918  0.236001  0.535836  1
  S  S13  1  0.799834  0.767918  0.035836  1
