# generated using pymatgen
data_VZnSF5
_symmetry_space_group_name_H-M   'P 1'
_cell_length_a   8.43223760
_cell_length_b   7.62157459
_cell_length_c   12.04167121
_cell_angle_alpha   77.45897382
_cell_angle_beta   26.20508970
_cell_angle_gamma   88.69325814
_symmetry_Int_Tables_number   1
_chemical_formula_structural   VZnSF5
_chemical_formula_sum   'V2 Zn2 S2 F10'
_cell_volume   305.86848520
_cell_formula_units_Z   2
loop_
 _symmetry_equiv_pos_site_id
 _symmetry_equiv_pos_as_xyz
  1  'x, y, z'
loop_
 _atom_site_type_symbol
 _atom_site_label
 _atom_site_symmetry_multiplicity
 _atom_site_fract_x
 _atom_site_fract_y
 _atom_site_fract_z
 _atom_site_occupancy
  V  V0  1  0.498013  0.499834  0.502084  1
  V  V1  1  0.498309  -0.000455  0.502679  1
  Zn  Zn2  1  0.532959  0.352962  0.210946  1
  Zn  Zn3  1  0.462862  0.644252  0.794110  1
  S  S4  1  0.965871  0.370636  0.504158  1
  S  S5  1  0.026881  0.622906  0.502940  1
  F  F6  1  0.456445  0.879548  0.691216  1
  F  F7  1  0.327365  0.478033  0.766103  1
  F  F8  1  0.543852  0.119639  0.311858  1
  F  F9  1  0.667662  0.520735  0.238834  1
  F  F10  1  0.065026  0.594043  0.167432  1
  F  F11  1  0.980832  0.881134  0.823345  1
  F  F12  1  0.930957  0.405206  0.837059  1
  F  F13  1  0.017637  0.118933  0.181275  1
  F  F14  1  0.561005  0.779917  0.422026  1
  F  F15  1  0.437020  0.219938  0.581924  1
