# generated using pymatgen
data_Mg3Cu2(Si2O7)2
_symmetry_space_group_name_H-M   'P 1'
_cell_length_a   7.63564677
_cell_length_b   9.41061703
_cell_length_c   9.41986839
_cell_angle_alpha   63.80493061
_cell_angle_beta   66.09039918
_cell_angle_gamma   66.06542405
_symmetry_Int_Tables_number   1
_chemical_formula_structural   Mg3Cu2(Si2O7)2
_chemical_formula_sum   'Mg6 Cu4 Si8 O28'
_cell_volume   533.59685859
_cell_formula_units_Z   2
loop_
 _symmetry_equiv_pos_site_id
 _symmetry_equiv_pos_as_xyz
  1  'x, y, z'
loop_
 _atom_site_type_symbol
 _atom_site_label
 _atom_site_symmetry_multiplicity
 _atom_site_fract_x
 _atom_site_fract_y
 _atom_site_fract_z
 _atom_site_occupancy
  Mg  Mg0  1  0.929594  0.878450  0.451715  1
  Mg  Mg1  1  0.259759  0.621550  0.048285  1
  Mg  Mg2  1  0.740241  0.378450  0.951715  1
  Mg  Mg3  1  0.608492  0.250000  0.750000  1
  Mg  Mg4  1  0.070406  0.121550  0.548285  1
  Mg  Mg5  1  0.391508  0.750000  0.250000  1
  Cu  Cu6  1  0.219982  0.250000  0.750000  1
  Cu  Cu7  1  0.780018  0.750000  0.250000  1
  Cu  Cu8  1  0.000000  0.000000  0.000000  1
  Cu  Cu9  1  0.000000  0.500000  0.500000  1
  Si  Si10  1  0.441749  0.300783  0.329407  1
  Si  Si11  1  0.928060  0.800783  0.829407  1
  Si  Si12  1  0.487968  0.894473  0.870430  1
  Si  Si13  1  0.747130  0.394473  0.370430  1
  Si  Si14  1  0.071940  0.199217  0.170593  1
  Si  Si15  1  0.512032  0.105527  0.129570  1
  Si  Si16  1  0.252870  0.605527  0.629570  1
  Si  Si17  1  0.558251  0.699217  0.670593  1
  O  O18  1  0.181573  0.683874  0.461638  1
  O  O19  1  0.014942  0.593117  0.278478  1
  O  O20  1  0.547609  0.907670  0.180238  1
  O  O21  1  0.113462  0.093117  0.778478  1
  O  O22  1  0.785794  0.692012  0.544649  1
  O  O23  1  0.928223  0.373942  0.203351  1
  O  O24  1  0.364481  0.407670  0.680238  1
  O  O25  1  0.022455  0.807988  0.955351  1
  O  O26  1  0.071777  0.626058  0.796649  1
  O  O27  1  0.398397  0.719704  0.583338  1
  O  O28  1  0.985058  0.406883  0.721522  1
  O  O29  1  0.214206  0.307988  0.455351  1
  O  O30  1  0.505517  0.126058  0.296649  1
  O  O31  1  0.672914  0.183874  0.961638  1
  O  O32  1  0.298561  0.219704  0.083338  1
  O  O33  1  0.977545  0.192012  0.044649  1
  O  O34  1  0.075286  0.049948  0.342536  1
  O  O35  1  0.601603  0.280296  0.416662  1
  O  O36  1  0.467770  0.450052  0.157464  1
  O  O37  1  0.701439  0.780296  0.916662  1
  O  O38  1  0.494483  0.873942  0.703351  1
  O  O39  1  0.886538  0.906883  0.221522  1
  O  O40  1  0.532230  0.549948  0.842536  1
  O  O41  1  0.452391  0.092330  0.819762  1
  O  O42  1  0.924714  0.950052  0.657464  1
  O  O43  1  0.635519  0.592330  0.319762  1
  O  O44  1  0.327086  0.816126  0.038362  1
  O  O45  1  0.818427  0.316126  0.538362  1
