# generated using pymatgen
data_CaMnP2O7
_symmetry_space_group_name_H-M   'P 1'
_cell_length_a   7.46074504
_cell_length_b   8.97770770
_cell_length_c   9.09831622
_cell_angle_alpha   90.00000000
_cell_angle_beta   112.12850832
_cell_angle_gamma   90.00000000
_symmetry_Int_Tables_number   1
_chemical_formula_structural   CaMnP2O7
_chemical_formula_sum   'Ca4 Mn4 P8 O28'
_cell_volume   564.52050865
_cell_formula_units_Z   4
loop_
 _symmetry_equiv_pos_site_id
 _symmetry_equiv_pos_as_xyz
  1  'x, y, z'
loop_
 _atom_site_type_symbol
 _atom_site_label
 _atom_site_symmetry_multiplicity
 _atom_site_fract_x
 _atom_site_fract_y
 _atom_site_fract_z
 _atom_site_occupancy
  Ca  Ca0  1  0.134766  0.947041  0.847860  1
  Ca  Ca1  1  0.365234  0.447041  0.652140  1
  Ca  Ca2  1  0.634766  0.552959  0.347860  1
  Ca  Ca3  1  0.865234  0.052959  0.152140  1
  Mn  Mn4  1  0.385609  0.069261  0.613785  1
  Mn  Mn5  1  0.614391  0.930739  0.386215  1
  Mn  Mn6  1  0.114391  0.569261  0.886215  1
  Mn  Mn7  1  0.885609  0.430739  0.113785  1
  P  P8  1  0.183708  0.727760  0.241395  1
  P  P9  1  0.434411  0.238829  0.969784  1
  P  P10  1  0.683708  0.772240  0.741395  1
  P  P11  1  0.934411  0.261171  0.469784  1
  P  P12  1  0.316292  0.227760  0.258605  1
  P  P13  1  0.065589  0.738829  0.530216  1
  P  P14  1  0.565589  0.761171  0.030216  1
  P  P15  1  0.816292  0.272240  0.758605  1
  O  O16  1  0.360418  0.175575  0.103887  1
  O  O17  1  0.580766  0.627032  0.676095  1
  O  O18  1  0.080766  0.872968  0.176095  1
  O  O19  1  0.333487  0.386401  0.901072  1
  O  O20  1  0.639582  0.824425  0.896113  1
  O  O21  1  0.393517  0.095341  0.373742  1
  O  O22  1  0.666513  0.613599  0.098928  1
  O  O23  1  0.374138  0.109696  0.849926  1
  O  O24  1  0.155266  0.245354  0.548308  1
  O  O25  1  0.606483  0.904659  0.626258  1
  O  O26  1  0.893517  0.404659  0.873742  1
  O  O27  1  0.905305  0.760758  0.803960  1
  O  O28  1  0.594695  0.260758  0.696040  1
  O  O29  1  0.860418  0.324425  0.603887  1
  O  O30  1  0.106483  0.595341  0.126258  1
  O  O31  1  0.919234  0.127032  0.823905  1
  O  O32  1  0.094695  0.239242  0.196040  1
  O  O33  1  0.625862  0.890304  0.150074  1
  O  O34  1  0.655266  0.254646  0.048308  1
  O  O35  1  0.344734  0.745354  0.951692  1
  O  O36  1  0.166513  0.886401  0.598928  1
  O  O37  1  0.874138  0.390304  0.349926  1
  O  O38  1  0.125862  0.609696  0.650074  1
  O  O39  1  0.419234  0.372968  0.323905  1
  O  O40  1  0.405305  0.739242  0.303960  1
  O  O41  1  0.833487  0.113599  0.401072  1
  O  O42  1  0.844734  0.754646  0.451692  1
  O  O43  1  0.139582  0.675575  0.396113  1
