# generated using pymatgen
data_YMo(WO4)2
_symmetry_space_group_name_H-M   'P 1'
_cell_length_a   5.38522313
_cell_length_b   5.82203473
_cell_length_c   9.95300125
_cell_angle_alpha   89.99683098
_cell_angle_beta   92.50046997
_cell_angle_gamma   90.00167868
_symmetry_Int_Tables_number   1
_chemical_formula_structural   YMo(WO4)2
_chemical_formula_sum   'Y2 Mo2 W4 O16'
_cell_volume   311.75889081
_cell_formula_units_Z   2
loop_
 _symmetry_equiv_pos_site_id
 _symmetry_equiv_pos_as_xyz
  1  'x, y, z'
loop_
 _atom_site_type_symbol
 _atom_site_label
 _atom_site_symmetry_multiplicity
 _atom_site_fract_x
 _atom_site_fract_y
 _atom_site_fract_z
 _atom_site_occupancy
  Y  Y0  1  0.249748  0.669547  0.250005  1
  Y  Y1  1  0.750251  0.330452  0.749995  1
  Mo  Mo2  1  0.749766  0.339878  0.250068  1
  Mo  Mo3  1  0.250234  0.660121  0.749932  1
  W  W4  1  0.252370  0.156030  0.496608  1
  W  W5  1  0.247620  0.155933  0.003424  1
  W  W6  1  0.747630  0.843970  0.503392  1
  W  W7  1  0.752380  0.844067  0.996576  1
  O  O8  1  0.404669  0.364300  0.137252  1
  O  O9  1  0.094711  0.364604  0.363049  1
  O  O10  1  0.595331  0.635699  0.862748  1
  O  O11  1  0.905288  0.635395  0.636951  1
  O  O12  1  0.438358  0.893520  0.610451  1
  O  O13  1  0.061861  0.893319  0.889611  1
  O  O14  1  0.561642  0.106480  0.389549  1
  O  O15  1  0.938139  0.106681  0.110389  1
  O  O16  1  0.877223  0.625682  0.126197  1
  O  O17  1  0.622153  0.625578  0.373954  1
  O  O18  1  0.122777  0.374319  0.873803  1
  O  O19  1  0.377847  0.374423  0.626046  1
  O  O20  1  0.422318  0.888228  0.096984  1
  O  O21  1  0.577682  0.111773  0.903016  1
  O  O22  1  0.077622  0.888361  0.403013  1
  O  O23  1  0.922378  0.111640  0.596987  1
