# generated using pymatgen
data_Ca3Sn2(GeO4)3
_symmetry_space_group_name_H-M   'P 1'
_cell_length_a   11.18640790
_cell_length_b   11.18640727
_cell_length_c   11.18640742
_cell_angle_alpha   109.47122089
_cell_angle_beta   109.47121974
_cell_angle_gamma   109.47121984
_symmetry_Int_Tables_number   1
_chemical_formula_structural   Ca3Sn2(GeO4)3
_chemical_formula_sum   'Ca12 Sn8 Ge12 O48'
_cell_volume   1077.58125471
_cell_formula_units_Z   4
loop_
 _symmetry_equiv_pos_site_id
 _symmetry_equiv_pos_as_xyz
  1  'x, y, z'
loop_
 _atom_site_type_symbol
 _atom_site_label
 _atom_site_symmetry_multiplicity
 _atom_site_fract_x
 _atom_site_fract_y
 _atom_site_fract_z
 _atom_site_occupancy
  Ca  Ca0  1  0.625000  0.250000  0.875000  1
  Ca  Ca1  1  0.875000  0.750000  0.625000  1
  Ca  Ca2  1  0.750000  0.625000  0.875000  1
  Ca  Ca3  1  0.250000  0.875000  0.625000  1
  Ca  Ca4  1  0.875000  0.625000  0.250000  1
  Ca  Ca5  1  0.625000  0.875000  0.750000  1
  Ca  Ca6  1  0.375000  0.750000  0.125000  1
  Ca  Ca7  1  0.125000  0.250000  0.375000  1
  Ca  Ca8  1  0.250000  0.375000  0.125000  1
  Ca  Ca9  1  0.750000  0.125000  0.375000  1
  Ca  Ca10  1  0.125000  0.375000  0.750000  1
  Ca  Ca11  1  0.375000  0.125000  0.250000  1
  Sn  Sn12  1  0.500000  0.500000  0.500000  1
  Sn  Sn13  1  0.500000  0.500000  0.000000  1
  Sn  Sn14  1  0.500000  0.000000  0.500000  1
  Sn  Sn15  1  0.000000  0.500000  0.500000  1
  Sn  Sn16  1  0.500000  0.000000  0.000000  1
  Sn  Sn17  1  0.000000  0.000000  0.500000  1
  Sn  Sn18  1  0.000000  0.500000  0.000000  1
  Sn  Sn19  1  0.000000  0.000000  0.000000  1
  Ge  Ge20  1  0.875000  0.125000  0.750000  1
  Ge  Ge21  1  0.125000  0.875000  0.250000  1
  Ge  Ge22  1  0.250000  0.625000  0.375000  1
  Ge  Ge23  1  0.125000  0.750000  0.875000  1
  Ge  Ge24  1  0.750000  0.875000  0.125000  1
  Ge  Ge25  1  0.375000  0.250000  0.625000  1
  Ge  Ge26  1  0.625000  0.750000  0.375000  1
  Ge  Ge27  1  0.875000  0.250000  0.125000  1
  Ge  Ge28  1  0.250000  0.125000  0.875000  1
  Ge  Ge29  1  0.750000  0.375000  0.625000  1
  Ge  Ge30  1  0.375000  0.625000  0.750000  1
  Ge  Ge31  1  0.625000  0.375000  0.250000  1
  O  O32  1  0.788069  0.412942  0.808377  1
  O  O33  1  0.087058  0.875127  0.395435  1
  O  O34  1  0.691623  0.104565  0.979691  1
  O  O35  1  0.711931  0.520309  0.624873  1
  O  O36  1  0.711931  0.691623  0.087058  1
  O  O37  1  0.520309  0.624873  0.711931  1
  O  O38  1  0.104565  0.624873  0.412942  1
  O  O39  1  0.624873  0.711931  0.520309  1
  O  O40  1  0.395435  0.808377  0.520309  1
  O  O41  1  0.875127  0.979691  0.788069  1
  O  O42  1  0.979691  0.788069  0.875127  1
  O  O43  1  0.087058  0.711931  0.691623  1
  O  O44  1  0.624873  0.412942  0.104565  1
  O  O45  1  0.520309  0.395435  0.808377  1
  O  O46  1  0.691623  0.087058  0.711931  1
  O  O47  1  0.412942  0.104565  0.624873  1
  O  O48  1  0.808377  0.520309  0.395435  1
  O  O49  1  0.395435  0.087058  0.875127  1
  O  O50  1  0.104565  0.979691  0.691623  1
  O  O51  1  0.604565  0.191623  0.479691  1
  O  O52  1  0.979691  0.691623  0.104565  1
  O  O53  1  0.808377  0.788069  0.412942  1
  O  O54  1  0.875127  0.395435  0.087058  1
  O  O55  1  0.788069  0.875127  0.979691  1
  O  O56  1  0.211931  0.587058  0.191623  1
  O  O57  1  0.912942  0.124873  0.604565  1
  O  O58  1  0.308377  0.895435  0.020309  1
  O  O59  1  0.288069  0.479691  0.375127  1
  O  O60  1  0.288069  0.308377  0.912942  1
  O  O61  1  0.479691  0.375127  0.288069  1
  O  O62  1  0.895435  0.375127  0.587058  1
  O  O63  1  0.375127  0.288069  0.479691  1
  O  O64  1  0.211931  0.124873  0.020309  1
  O  O65  1  0.124873  0.604565  0.912942  1
  O  O66  1  0.191623  0.211931  0.587058  1
  O  O67  1  0.587058  0.191623  0.211931  1
  O  O68  1  0.020309  0.308377  0.895435  1
  O  O69  1  0.895435  0.020309  0.308377  1
  O  O70  1  0.604565  0.912942  0.124873  1
  O  O71  1  0.191623  0.479691  0.604565  1
  O  O72  1  0.587058  0.895435  0.375127  1
  O  O73  1  0.308377  0.912942  0.288069  1
  O  O74  1  0.479691  0.604565  0.191623  1
  O  O75  1  0.375127  0.587058  0.895435  1
  O  O76  1  0.912942  0.288069  0.308377  1
  O  O77  1  0.020309  0.211931  0.124873  1
  O  O78  1  0.124873  0.020309  0.211931  1
  O  O79  1  0.412942  0.808377  0.788069  1
