# generated using pymatgen
data_YAg(WO4)2
_symmetry_space_group_name_H-M   'P 1'
_cell_length_a   5.23623914
_cell_length_b   6.01014327
_cell_length_c   6.45284312
_cell_angle_alpha   109.82028064
_cell_angle_beta   116.31305426
_cell_angle_gamma   90.37971780
_symmetry_Int_Tables_number   1
_chemical_formula_structural   YAg(WO4)2
_chemical_formula_sum   'Y1 Ag1 W2 O8'
_cell_volume   168.25818799
_cell_formula_units_Z   1
loop_
 _symmetry_equiv_pos_site_id
 _symmetry_equiv_pos_as_xyz
  1  'x, y, z'
loop_
 _atom_site_type_symbol
 _atom_site_label
 _atom_site_symmetry_multiplicity
 _atom_site_fract_x
 _atom_site_fract_y
 _atom_site_fract_z
 _atom_site_occupancy
  Y  Y0  1  0.624643  0.723244  0.099590  1
  Ag  Ag1  1  0.125300  0.224551  0.100322  1
  W  W2  1  0.871482  0.392333  0.591358  1
  W  W3  1  0.377756  0.053790  0.607864  1
  O  O4  1  0.140258  0.653925  0.845072  1
  O  O5  1  0.652778  0.518246  0.363030  1
  O  O6  1  0.173358  0.198265  0.788013  1
  O  O7  1  0.592316  0.049728  0.412358  1
  O  O8  1  0.596422  0.927884  0.836163  1
  O  O9  1  0.108942  0.792238  0.354211  1
  O  O10  1  0.075803  0.247861  0.411180  1
  O  O11  1  0.656942  0.396429  0.786932  1
