# generated using pymatgen
data_Ba2AlFe3O8
_symmetry_space_group_name_H-M   'P 1'
_cell_length_a   3.87273935
_cell_length_b   3.87276295
_cell_length_c   12.06085980
_cell_angle_alpha   89.99666388
_cell_angle_beta   90.00391502
_cell_angle_gamma   89.99848391
_symmetry_Int_Tables_number   1
_chemical_formula_structural   Ba2AlFe3O8
_chemical_formula_sum   'Ba2 Al1 Fe3 O8'
_cell_volume   180.89120463
_cell_formula_units_Z   1
loop_
 _symmetry_equiv_pos_site_id
 _symmetry_equiv_pos_as_xyz
  1  'x, y, z'
loop_
 _atom_site_type_symbol
 _atom_site_label
 _atom_site_symmetry_multiplicity
 _atom_site_fract_x
 _atom_site_fract_y
 _atom_site_fract_z
 _atom_site_occupancy
  Ba  Ba0  1  0.500000  0.499997  0.166741  1
  Ba  Ba1  1  0.499989  0.500003  0.833223  1
  Al  Al2  1  0.499956  0.500052  0.499985  1
  Fe  Fe3  1  0.999993  0.999995  0.350906  1
  Fe  Fe4  1  0.000033  0.000007  0.999906  1
  Fe  Fe5  1  0.999998  0.999999  0.649166  1
  O  O6  1  0.000107  0.499965  0.397546  1
  O  O7  1  0.500044  0.999906  0.397550  1
  O  O8  1  0.499989  0.999996  0.999991  1
  O  O9  1  0.000001  0.999997  0.194161  1
  O  O10  1  0.999943  0.500035  0.602485  1
  O  O11  1  0.499959  0.000045  0.602488  1
  O  O12  1  0.999991  0.000004  0.805859  1
  O  O13  1  0.999995  0.499996  0.999991  1
