# generated using pymatgen
data_ZnCrNiP2O9
_symmetry_space_group_name_H-M   'P 1'
_cell_length_a   6.25211735
_cell_length_b   7.41924405
_cell_length_c   14.11134709
_cell_angle_alpha   90.00369162
_cell_angle_beta   90.00576234
_cell_angle_gamma   89.98982736
_symmetry_Int_Tables_number   1
_chemical_formula_structural   ZnCrNiP2O9
_chemical_formula_sum   'Zn4 Cr4 Ni4 P8 O36'
_cell_volume   654.56871150
_cell_formula_units_Z   4
loop_
 _symmetry_equiv_pos_site_id
 _symmetry_equiv_pos_as_xyz
  1  'x, y, z'
loop_
 _atom_site_type_symbol
 _atom_site_label
 _atom_site_symmetry_multiplicity
 _atom_site_fract_x
 _atom_site_fract_y
 _atom_site_fract_z
 _atom_site_occupancy
  Zn  Zn0  1  0.749531  0.883798  0.777018  1
  Zn  Zn1  1  0.749751  0.607968  0.277917  1
  Zn  Zn2  1  0.249968  0.115729  0.221776  1
  Zn  Zn3  1  0.250293  0.382646  0.723125  1
  Cr  Cr4  1  0.749965  0.350843  0.884175  1
  Cr  Cr5  1  0.249936  0.649252  0.115937  1
  Cr  Cr6  1  0.249950  0.850831  0.615941  1
  Cr  Cr7  1  0.749675  0.148975  0.384040  1
  Ni  Ni8  1  0.500019  0.999779  0.999775  1
  Ni  Ni9  1  0.500519  0.500254  0.499793  1
  Ni  Ni10  1  0.000473  0.499907  0.500363  1
  Ni  Ni11  1  0.999939  0.999822  0.999769  1
  P  P12  1  0.250001  0.351846  0.933554  1
  P  P13  1  0.749927  0.648069  0.066660  1
  P  P14  1  0.749907  0.852473  0.566777  1
  P  P15  1  0.249941  0.147852  0.433234  1
  P  P16  1  0.750187  0.387288  0.699272  1
  P  P17  1  0.249701  0.612718  0.300838  1
  P  P18  1  0.249761  0.887113  0.800822  1
  P  P19  1  0.750071  0.114520  0.198965  1
  O  O20  1  0.037858  0.608432  0.359406  1
  O  O21  1  0.538348  0.391424  0.640599  1
  O  O22  1  0.962069  0.110036  0.140504  1
  O  O23  1  0.461869  0.890888  0.859244  1
  O  O24  1  0.962612  0.391153  0.641010  1
  O  O25  1  0.461829  0.608587  0.359309  1
  O  O26  1  0.037502  0.891193  0.859107  1
  O  O27  1  0.538038  0.109571  0.140519  1
  O  O28  1  0.250682  0.334186  0.479731  1
  O  O29  1  0.750317  0.666816  0.519590  1
  O  O30  1  0.749771  0.834248  0.020064  1
  O  O31  1  0.250229  0.165714  0.980192  1
  O  O32  1  0.750064  0.148687  0.948638  1
  O  O33  1  0.249868  0.851450  0.051466  1
  O  O34  1  0.250670  0.648572  0.551601  1
  O  O35  1  0.751001  0.352336  0.447827  1
  O  O36  1  0.749753  0.212413  0.762513  1
  O  O37  1  0.249843  0.787587  0.237598  1
  O  O38  1  0.249665  0.712437  0.737517  1
  O  O39  1  0.749446  0.289822  0.262194  1
  O  O40  1  0.438309  0.127163  0.362779  1
  O  O41  1  0.938461  0.871946  0.637192  1
  O  O42  1  0.561547  0.627693  0.137126  1
  O  O43  1  0.061604  0.371362  0.863033  1
  O  O44  1  0.561831  0.871294  0.637552  1
  O  O45  1  0.061498  0.128151  0.362790  1
  O  O46  1  0.438227  0.371856  0.862943  1
  O  O47  1  0.938400  0.628099  0.137075  1
  O  O48  1  0.750769  0.961643  0.274821  1
  O  O49  1  0.250263  0.041238  0.725307  1
  O  O50  1  0.249741  0.458973  0.225295  1
  O  O51  1  0.750002  0.541003  0.774825  1
  O  O52  1  0.748810  0.995198  0.489680  1
  O  O53  1  0.249583  0.006890  0.511197  1
  O  O54  1  0.249962  0.493227  0.011275  1
  O  O55  1  0.750044  0.507031  0.988737  1
