# generated using pymatgen
data_V4ZnO6
_symmetry_space_group_name_H-M   'P 1'
_cell_length_a   2.95485837
_cell_length_b   5.27322615
_cell_length_c   15.73413947
_cell_angle_alpha   90.00000000
_cell_angle_beta   90.00000000
_cell_angle_gamma   106.27067790
_symmetry_Int_Tables_number   1
_chemical_formula_structural   V4ZnO6
_chemical_formula_sum   'V8 Zn2 O12'
_cell_volume   235.34454317
_cell_formula_units_Z   2
loop_
 _symmetry_equiv_pos_site_id
 _symmetry_equiv_pos_as_xyz
  1  'x, y, z'
loop_
 _atom_site_type_symbol
 _atom_site_label
 _atom_site_symmetry_multiplicity
 _atom_site_fract_x
 _atom_site_fract_y
 _atom_site_fract_z
 _atom_site_occupancy
  V  V0  1  0.865463  0.730928  0.047322  1
  V  V1  1  0.397075  0.794149  0.638143  1
  V  V2  1  0.134535  0.269071  0.952678  1
  V  V3  1  0.602925  0.205851  0.361858  1
  V  V4  1  0.865463  0.730928  0.452678  1
  V  V5  1  0.134535  0.269071  0.547322  1
  V  V6  1  0.602925  0.205851  0.138142  1
  V  V7  1  0.397075  0.794149  0.861857  1
  Zn  Zn8  1  0.650807  0.301614  0.750000  1
  Zn  Zn9  1  0.349193  0.698386  0.250000  1
  O  O10  1  0.499999  0.000000  0.500000  1
  O  O11  1  0.499999  0.000000  -0.000000  1
  O  O12  1  0.033512  0.067023  0.837954  1
  O  O13  1  0.966488  0.932977  0.162047  1
  O  O14  1  0.966488  0.932977  0.337953  1
  O  O15  1  0.033512  0.067023  0.662047  1
  O  O16  1  0.777016  0.554034  0.921228  1
  O  O17  1  0.222983  0.445967  0.078772  1
  O  O18  1  0.222983  0.445967  0.421228  1
  O  O19  1  0.777016  0.554034  0.578772  1
  O  O20  1  0.290262  0.580525  0.750000  1
  O  O21  1  0.709736  0.419474  0.250000  1
