# generated using pymatgen
data_CaSb2O5
_symmetry_space_group_name_H-M   'P 1'
_cell_length_a   3.87834207
_cell_length_b   5.16183308
_cell_length_c   13.45351935
_cell_angle_alpha   89.98841561
_cell_angle_beta   89.99675377
_cell_angle_gamma   89.93763991
_symmetry_Int_Tables_number   1
_chemical_formula_structural   CaSb2O5
_chemical_formula_sum   'Ca2 Sb4 O10'
_cell_volume   269.33060585
_cell_formula_units_Z   2
loop_
 _symmetry_equiv_pos_site_id
 _symmetry_equiv_pos_as_xyz
  1  'x, y, z'
loop_
 _atom_site_type_symbol
 _atom_site_label
 _atom_site_symmetry_multiplicity
 _atom_site_fract_x
 _atom_site_fract_y
 _atom_site_fract_z
 _atom_site_occupancy
  Ca  Ca0  1  0.747194  0.897033  0.250226  1
  Ca  Ca1  1  0.251000  0.107583  0.750930  1
  Sb  Sb2  1  0.249688  0.425447  0.110437  1
  Sb  Sb3  1  0.751204  0.580475  0.891335  1
  Sb  Sb4  1  0.749063  0.580293  0.610568  1
  Sb  Sb5  1  0.247347  0.423906  0.391134  1
  O  O6  1  0.749248  0.424221  0.751078  1
  O  O7  1  0.246082  0.580762  0.250942  1
  O  O8  1  0.749184  0.551655  0.089670  1
  O  O9  1  0.251056  0.455018  0.913137  1
  O  O10  1  0.746799  0.549060  0.412849  1
  O  O11  1  0.248923  0.454834  0.589400  1
  O  O12  1  0.250258  0.065649  0.355722  1
  O  O13  1  0.750675  0.938937  0.645452  1
  O  O14  1  0.753603  0.938958  0.856199  1
  O  O15  1  0.253340  0.066437  0.144781  1
