# generated using pymatgen
data_MgVO2
_symmetry_space_group_name_H-M   'P 1'
_cell_length_a   2.91485665
_cell_length_b   8.02430609
_cell_length_c   8.49425394
_cell_angle_alpha   85.23256043
_cell_angle_beta   80.14610885
_cell_angle_gamma   79.50944043
_symmetry_Int_Tables_number   1
_chemical_formula_structural   MgVO2
_chemical_formula_sum   'Mg4 V4 O8'
_cell_volume   192.19815747
_cell_formula_units_Z   4
loop_
 _symmetry_equiv_pos_site_id
 _symmetry_equiv_pos_as_xyz
  1  'x, y, z'
loop_
 _atom_site_type_symbol
 _atom_site_label
 _atom_site_symmetry_multiplicity
 _atom_site_fract_x
 _atom_site_fract_y
 _atom_site_fract_z
 _atom_site_occupancy
  Mg  Mg0  1  0.339264  0.060850  0.257752  1
  Mg  Mg1  1  0.656675  0.919071  0.770444  1
  Mg  Mg2  1  0.083032  0.738813  0.092059  1
  Mg  Mg3  1  0.913211  0.241100  0.936127  1
  V  V4  1  0.568221  0.258197  0.607251  1
  V  V5  1  0.156717  0.405221  0.279972  1
  V  V6  1  0.839290  0.574737  0.748268  1
  V  V7  1  0.427765  0.721708  0.420953  1
  O  O8  1  0.823614  0.766814  0.585042  1
  O  O9  1  0.393212  0.389288  0.826247  1
  O  O10  1  0.602990  0.590578  0.201943  1
  O  O11  1  0.172364  0.213069  0.443172  1
  O  O12  1  0.079269  0.102327  0.741153  1
  O  O13  1  0.790616  0.247518  0.170672  1
  O  O14  1  0.916733  0.877592  0.287046  1
  O  O15  1  0.205303  0.732450  0.857516  1
