# generated using pymatgen
data_Ba2Ni2F11
_symmetry_space_group_name_H-M   'P 1'
_cell_length_a   7.60116420
_cell_length_b   7.60116353
_cell_length_c   13.93896183
_cell_angle_alpha   90.00000000
_cell_angle_beta   90.00000000
_cell_angle_gamma   119.99999620
_symmetry_Int_Tables_number   1
_chemical_formula_structural   Ba2Ni2F11
_chemical_formula_sum   'Ba6 Ni6 F33'
_cell_volume   697.46315051
_cell_formula_units_Z   3
loop_
 _symmetry_equiv_pos_site_id
 _symmetry_equiv_pos_as_xyz
  1  'x, y, z'
loop_
 _atom_site_type_symbol
 _atom_site_label
 _atom_site_symmetry_multiplicity
 _atom_site_fract_x
 _atom_site_fract_y
 _atom_site_fract_z
 _atom_site_occupancy
  Ba  Ba0  1  0.530006  0.181367  0.675695  1
  Ba  Ba1  1  0.153708  0.477499  0.827631  1
  Ba  Ba2  1  0.651361  0.469994  0.009028  1
  Ba  Ba3  1  0.522501  0.676209  0.494297  1
  Ba  Ba4  1  0.323791  0.846292  0.160964  1
  Ba  Ba5  1  0.818633  0.348639  0.342361  1
  Ni  Ni6  1  0.649286  0.975893  0.881808  1
  Ni  Ni7  1  0.856344  0.775117  0.726288  1
  Ni  Ni8  1  0.224883  0.081227  0.392954  1
  Ni  Ni9  1  0.326608  0.350714  0.215141  1
  Ni  Ni10  1  0.918773  0.143656  0.059621  1
  Ni  Ni11  1  0.024107  0.673392  0.548474  1
  F  F12  1  0.632108  0.050919  0.015486  1
  F  F13  1  0.518829  0.711662  0.930278  1
  F  F14  1  0.418811  0.367892  0.348819  1
  F  F15  1  0.109221  0.505315  0.486018  1
  F  F16  1  0.518620  0.269958  0.181226  1
  F  F17  1  0.937304  0.604859  0.185391  1
  F  F18  1  0.494685  0.603905  0.152685  1
  F  F19  1  0.395141  0.332446  0.852058  1
  F  F20  1  0.751336  0.481380  0.514559  1
  F  F21  1  0.208258  0.267684  0.089663  1
  F  F22  1  0.396095  0.890779  0.819352  1
  F  F23  1  0.949081  0.581189  0.682153  1
  F  F24  1  0.327869  0.043387  0.999046  1
  F  F25  1  0.992302  0.414568  0.014190  1
  F  F26  1  0.715518  0.672131  0.332379  1
  F  F27  1  0.288338  0.807168  0.596944  1
  F  F28  1  0.936828  0.091636  0.920994  1
  F  F29  1  0.059426  0.791742  0.422996  1
  F  F30  1  0.012076  0.126603  0.405899  1
  F  F31  1  0.956613  0.284482  0.665712  1
  F  F32  1  0.114527  0.987924  0.739233  1
  F  F33  1  0.585432  0.577735  0.680857  1
  F  F34  1  0.422265  0.007698  0.347523  1
  F  F35  1  0.154807  0.063172  0.254327  1
  F  F36  1  0.732316  0.940574  0.756330  1
  F  F37  1  0.730041  0.248664  0.847893  1
  F  F38  1  0.192832  0.481171  0.263611  1
  F  F39  1  0.837182  0.668168  0.846452  1
  F  F40  1  0.830986  0.162818  0.179785  1
  F  F41  1  0.873397  0.885473  0.072566  1
  F  F42  1  0.667554  0.062696  0.518724  1
  F  F43  1  0.908364  0.845193  0.587660  1
  F  F44  1  0.331832  0.169014  0.513118  1
