# generated using pymatgen
data_TiAlO3
_symmetry_space_group_name_H-M   'P 1'
_cell_length_a   5.48850047
_cell_length_b   5.48850025
_cell_length_c   12.03981603
_cell_angle_alpha   90.00000000
_cell_angle_beta   90.00000000
_cell_angle_gamma   120.00000129
_symmetry_Int_Tables_number   1
_chemical_formula_structural   TiAlO3
_chemical_formula_sum   'Ti6 Al6 O18'
_cell_volume   314.09272014
_cell_formula_units_Z   6
loop_
 _symmetry_equiv_pos_site_id
 _symmetry_equiv_pos_as_xyz
  1  'x, y, z'
loop_
 _atom_site_type_symbol
 _atom_site_label
 _atom_site_symmetry_multiplicity
 _atom_site_fract_x
 _atom_site_fract_y
 _atom_site_fract_z
 _atom_site_occupancy
  Ti  Ti0  1  0.669478  0.000000  0.500905  1
  Ti  Ti1  1  0.669478  0.669478  0.000905  1
  Ti  Ti2  1  1.000000  0.330522  0.000905  1
  Ti  Ti3  1  0.000000  0.669478  0.500905  1
  Ti  Ti4  1  0.330522  0.330522  0.500905  1
  Ti  Ti5  1  0.330522  0.000000  0.000905  1
  Al  Al6  1  0.666667  0.333333  0.251935  1
  Al  Al7  1  0.333333  0.666667  0.751935  1
  Al  Al8  1  0.666667  0.333333  0.751935  1
  Al  Al9  1  0.333333  0.666667  0.251935  1
  Al  Al10  1  0.000000  0.000000  0.750943  1
  Al  Al11  1  0.000000  0.000000  0.250943  1
  O  O12  1  0.666667  0.333333  0.018279  1
  O  O13  1  0.333333  0.666667  0.518279  1
  O  O14  1  0.666667  0.333333  0.518279  1
  O  O15  1  0.333333  0.666667  0.018279  1
  O  O16  1  0.000000  0.000000  0.969636  1
  O  O17  1  0.000000  0.000000  0.469636  1
  O  O18  1  0.355505  0.000000  0.827594  1
  O  O19  1  0.355505  0.355505  0.327594  1
  O  O20  1  1.000000  0.644495  0.327594  1
  O  O21  1  0.000000  0.355505  0.827594  1
  O  O22  1  0.644495  0.644495  0.827594  1
  O  O23  1  0.644495  0.000000  0.327594  1
  O  O24  1  0.316785  0.000000  0.176165  1
  O  O25  1  0.316785  0.316785  0.676165  1
  O  O26  1  0.000000  0.683215  0.676165  1
  O  O27  1  1.000000  0.316785  0.176165  1
  O  O28  1  0.683215  0.683215  0.176165  1
  O  O29  1  0.683215  0.000000  0.676165  1
