# generated using pymatgen
data_Ba2AlW2F11
_symmetry_space_group_name_H-M   'P 1'
_cell_length_a   7.68560001
_cell_length_b   7.68559784
_cell_length_c   15.41796980
_cell_angle_alpha   89.99788924
_cell_angle_beta   90.00285450
_cell_angle_gamma   120.00100334
_symmetry_Int_Tables_number   1
_chemical_formula_structural   Ba2AlW2F11
_chemical_formula_sum   'Ba6 Al3 W6 F33'
_cell_volume   788.69459486
_cell_formula_units_Z   3
loop_
 _symmetry_equiv_pos_site_id
 _symmetry_equiv_pos_as_xyz
  1  'x, y, z'
loop_
 _atom_site_type_symbol
 _atom_site_label
 _atom_site_symmetry_multiplicity
 _atom_site_fract_x
 _atom_site_fract_y
 _atom_site_fract_z
 _atom_site_occupancy
  Ba  Ba0  1  0.515390  0.179653  0.648160  1
  Ba  Ba1  1  0.170062  0.469064  0.786851  1
  Ba  Ba2  1  0.664247  0.484592  0.981490  1
  Ba  Ba3  1  0.530955  0.701012  0.453517  1
  Ba  Ba4  1  0.298990  0.829918  0.120179  1
  Ba  Ba5  1  0.820337  0.335747  0.314813  1
  Al  Al6  1  0.181302  0.015627  0.873456  1
  Al  Al7  1  0.834328  0.818708  0.206784  1
  Al  Al8  1  0.984385  0.165684  0.540119  1
  W  W9  1  0.638252  0.997865  0.890877  1
  W  W10  1  0.761049  0.758556  0.727306  1
  W  W11  1  0.241440  0.002476  0.393963  1
  W  W12  1  0.359608  0.361748  0.224207  1
  W  W13  1  0.997499  0.238951  0.060633  1
  W  W14  1  0.002130  0.640373  0.557542  1
  F  F15  1  0.683813  0.096047  0.025990  1
  F  F16  1  0.482240  0.679987  0.914732  1
  F  F17  1  0.412280  0.316163  0.359311  1
  F  F18  1  0.172561  0.399869  0.491755  1
  F  F19  1  0.508753  0.196323  0.196307  1
  F  F20  1  0.808817  0.595385  0.150818  1
  F  F21  1  0.600141  0.772703  0.158425  1
  F  F22  1  0.404628  0.213442  0.817490  1
  F  F23  1  0.687555  0.491232  0.529643  1
  F  F24  1  0.315343  0.391253  0.087579  1
  F  F25  1  0.227308  0.827448  0.825099  1
  F  F26  1  0.903893  0.587722  0.692656  1
  F  F27  1  0.326263  0.046148  0.972142  1
  F  F28  1  0.033737  0.518894  0.020875  1
  F  F29  1  0.719881  0.673767  0.305466  1
  F  F30  1  0.319997  0.802259  0.581405  1
  F  F31  1  0.138113  0.218766  0.911191  1
  F  F32  1  0.075834  0.684616  0.420904  1
  F  F33  1  0.989160  0.026397  0.438473  1
  F  F34  1  0.953878  0.280113  0.638801  1
  F  F35  1  0.037279  0.010864  0.771803  1
  F  F36  1  0.481097  0.514856  0.687554  1
  F  F37  1  0.485136  0.966251  0.354211  1
  F  F38  1  0.080664  0.861894  0.244530  1
  F  F39  1  0.608803  0.924165  0.754237  1
  F  F40  1  0.803689  0.312453  0.862982  1
  F  F41  1  0.197729  0.517739  0.248065  1
  F  F42  1  0.950087  0.824727  0.921474  1
  F  F43  1  0.874651  0.049929  0.254801  1
  F  F44  1  0.973605  0.962745  0.105140  1
  F  F45  1  0.786555  0.191165  0.484152  1
  F  F46  1  0.781236  0.919331  0.577858  1
  F  F47  1  0.175299  0.125374  0.588133  1
