# generated using pymatgen
data_Sr2AlCr2GaO7
_symmetry_space_group_name_H-M   'P 1'
_cell_length_a   5.47014024
_cell_length_b   5.87849516
_cell_length_c   11.50581881
_cell_angle_alpha   99.07677691
_cell_angle_beta   103.16193068
_cell_angle_gamma   89.92609728
_symmetry_Int_Tables_number   1
_chemical_formula_structural   Sr2AlCr2GaO7
_chemical_formula_sum   'Sr4 Al2 Cr4 Ga2 O14'
_cell_volume   355.52190493
_cell_formula_units_Z   2
loop_
 _symmetry_equiv_pos_site_id
 _symmetry_equiv_pos_as_xyz
  1  'x, y, z'
loop_
 _atom_site_type_symbol
 _atom_site_label
 _atom_site_symmetry_multiplicity
 _atom_site_fract_x
 _atom_site_fract_y
 _atom_site_fract_z
 _atom_site_occupancy
  Sr  Sr0  1  0.143115  0.218924  0.298208  1
  Sr  Sr1  1  0.825898  0.786682  0.696812  1
  Sr  Sr2  1  0.655819  0.663808  0.295992  1
  Sr  Sr3  1  0.328070  0.344707  0.691812  1
  Al  Al4  1  0.516185  0.406056  0.991637  1
  Al  Al5  1  0.976870  0.933637  0.000770  1
  Cr  Cr6  1  0.426215  0.874812  0.879281  1
  Cr  Cr7  1  0.077414  0.628333  0.140217  1
  Cr  Cr8  1  0.938737  0.376720  0.877971  1
  Cr  Cr9  1  0.571206  0.126031  0.145496  1
  Ga  Ga10  1  0.213451  0.824789  0.498840  1
  Ga  Ga11  1  0.714675  0.181390  0.499344  1
  O  O12  1  0.819250  0.351841  0.101945  1
  O  O13  1  0.868994  0.890836  0.498468  1
  O  O14  1  0.370920  0.431471  0.120100  1
  O  O15  1  0.841759  0.357893  0.649068  1
  O  O16  1  0.764140  0.058888  0.885676  1
  O  O17  1  0.276000  0.203170  0.886945  1
  O  O18  1  0.368452  0.114982  0.495660  1
  O  O19  1  0.100073  0.711171  0.896620  1
  O  O20  1  0.604918  0.555275  0.883406  1
  O  O21  1  0.342857  0.747130  0.649543  1
  O  O22  1  0.203835  0.645517  0.350253  1
  O  O23  1  0.709708  0.266336  0.350648  1
  O  O24  1  0.791841  0.856278  0.109335  1
  O  O25  1  0.252040  0.944882  0.128950  1
