# generated using pymatgen
data_Ca2Nb2CrO8
_symmetry_space_group_name_H-M   'P 1'
_cell_length_a   5.49511864
_cell_length_b   6.46544360
_cell_length_c   10.30456942
_cell_angle_alpha   110.88839722
_cell_angle_beta   92.57957118
_cell_angle_gamma   88.44117605
_symmetry_Int_Tables_number   1
_chemical_formula_structural   Ca2Nb2CrO8
_chemical_formula_sum   'Ca4 Nb4 Cr2 O16'
_cell_volume   341.67203718
_cell_formula_units_Z   2
loop_
 _symmetry_equiv_pos_site_id
 _symmetry_equiv_pos_as_xyz
  1  'x, y, z'
loop_
 _atom_site_type_symbol
 _atom_site_label
 _atom_site_symmetry_multiplicity
 _atom_site_fract_x
 _atom_site_fract_y
 _atom_site_fract_z
 _atom_site_occupancy
  Ca  Ca0  1  0.755509  0.461979  0.578360  1
  Ca  Ca1  1  0.743638  0.884449  0.418231  1
  Ca  Ca2  1  0.241710  0.537980  0.425020  1
  Ca  Ca3  1  0.253840  0.113174  0.584616  1
  Nb  Nb4  1  0.744691  0.253773  0.228088  1
  Nb  Nb5  1  0.748611  0.044584  0.773729  1
  Nb  Nb6  1  0.253727  0.744812  0.773571  1
  Nb  Nb7  1  0.250225  0.954545  0.228546  1
  Cr  Cr8  1  0.756837  0.649292  0.998869  1
  Cr  Cr9  1  0.246047  0.351317  0.002492  1
  O  O10  1  0.072836  0.172990  0.146396  1
  O  O11  1  0.412970  0.068478  0.855412  1
  O  O12  1  0.924928  0.823568  0.855107  1
  O  O13  1  0.585843  0.931301  0.146353  1
  O  O14  1  0.565274  0.385677  0.119433  1
  O  O15  1  0.911652  0.305883  0.890563  1
  O  O16  1  0.439457  0.615442  0.881142  1
  O  O17  1  0.092312  0.690075  0.109813  1
  O  O18  1  0.492946  0.242223  0.367400  1
  O  O19  1  0.001418  0.883053  0.631452  1
  O  O20  1  0.342758  0.832012  0.370707  1
  O  O21  1  0.158519  0.469227  0.630144  1
  O  O22  1  0.655079  0.166973  0.631638  1
  O  O23  1  0.839276  0.528366  0.372875  1
  O  O24  1  0.995115  0.113435  0.370003  1
  O  O25  1  0.502415  0.757042  0.633446  1
