# generated using pymatgen
data_Zn(FeS2)2
_symmetry_space_group_name_H-M   'P 1'
_cell_length_a   6.80106565
_cell_length_b   6.80106671
_cell_length_c   6.86863403
_cell_angle_alpha   119.67511776
_cell_angle_beta   119.67512112
_cell_angle_gamma   89.99999380
_symmetry_Int_Tables_number   1
_chemical_formula_structural   Zn(FeS2)2
_chemical_formula_sum   'Zn2 Fe4 S8'
_cell_volume   226.83994612
_cell_formula_units_Z   2
loop_
 _symmetry_equiv_pos_site_id
 _symmetry_equiv_pos_as_xyz
  1  'x, y, z'
loop_
 _atom_site_type_symbol
 _atom_site_label
 _atom_site_symmetry_multiplicity
 _atom_site_fract_x
 _atom_site_fract_y
 _atom_site_fract_z
 _atom_site_occupancy
  Zn  Zn0  1  0.375000  0.625000  0.750000  1
  Zn  Zn1  1  0.625000  0.375000  0.250000  1
  Fe  Fe2  1  0.000000  0.000000  0.500000  1
  Fe  Fe3  1  0.000000  0.500000  0.000000  1
  Fe  Fe4  1  0.500000  0.000000  0.500000  1
  Fe  Fe5  1  0.000000  0.000000  0.000000  1
  S  S6  1  0.767936  0.792644  0.535871  1
  S  S7  1  0.756773  0.232064  0.964129  1
  S  S8  1  0.207356  0.232064  0.964129  1
  S  S9  1  0.232064  0.207356  0.464129  1
  S  S10  1  0.232064  0.756773  0.464129  1
  S  S11  1  0.243227  0.767936  0.035871  1
  S  S12  1  0.767936  0.243227  0.535871  1
  S  S13  1  0.792644  0.767936  0.035871  1
