# generated using pymatgen
data_YTa(WO4)2
_symmetry_space_group_name_H-M   'P 1'
_cell_length_a   5.47365962
_cell_length_b   5.84250011
_cell_length_c   9.69950965
_cell_angle_alpha   90.00015700
_cell_angle_beta   91.86108737
_cell_angle_gamma   89.99970732
_symmetry_Int_Tables_number   1
_chemical_formula_structural   YTa(WO4)2
_chemical_formula_sum   'Y2 Ta2 W4 O16'
_cell_volume   310.02530730
_cell_formula_units_Z   2
loop_
 _symmetry_equiv_pos_site_id
 _symmetry_equiv_pos_as_xyz
  1  'x, y, z'
loop_
 _atom_site_type_symbol
 _atom_site_label
 _atom_site_symmetry_multiplicity
 _atom_site_fract_x
 _atom_site_fract_y
 _atom_site_fract_z
 _atom_site_occupancy
  Y  Y0  1  0.249990  0.664669  0.249997  1
  Y  Y1  1  0.750009  0.335331  0.750003  1
  Ta  Ta2  1  0.749990  0.337736  0.250006  1
  Ta  Ta3  1  0.250010  0.662264  0.749994  1
  W  W4  1  0.244768  0.151309  0.500220  1
  W  W5  1  0.255234  0.151308  0.999778  1
  W  W6  1  0.755233  0.848691  0.499779  1
  W  W7  1  0.744766  0.848692  0.000222  1
  O  O8  1  0.436914  0.358255  0.140576  1
  O  O9  1  0.063050  0.358263  0.359441  1
  O  O10  1  0.563086  0.641744  0.859424  1
  O  O11  1  0.936949  0.641737  0.640559  1
  O  O12  1  0.412095  0.886670  0.618595  1
  O  O13  1  0.087915  0.886646  0.881405  1
  O  O14  1  0.587905  0.113331  0.381405  1
  O  O15  1  0.912085  0.113354  0.118595  1
  O  O16  1  0.883151  0.597728  0.133450  1
  O  O17  1  0.616803  0.597715  0.366566  1
  O  O18  1  0.116849  0.402272  0.866550  1
  O  O19  1  0.383197  0.402285  0.633433  1
  O  O20  1  0.417201  0.886849  0.102714  1
  O  O21  1  0.582799  0.113151  0.897286  1
  O  O22  1  0.082797  0.886855  0.397287  1
  O  O23  1  0.917203  0.113146  0.602713  1
