# generated using pymatgen
data_Zn(NiS2)2
_symmetry_space_group_name_H-M   'P 1'
_cell_length_a   6.98011995
_cell_length_b   6.90243780
_cell_length_c   6.90286195
_cell_angle_alpha   89.45346769
_cell_angle_beta   120.86204508
_cell_angle_gamma   120.25584329
_symmetry_Int_Tables_number   1
_chemical_formula_structural   Zn(NiS2)2
_chemical_formula_sum   'Zn2 Ni4 S8'
_cell_volume   232.28716255
_cell_formula_units_Z   2
loop_
 _symmetry_equiv_pos_site_id
 _symmetry_equiv_pos_as_xyz
  1  'x, y, z'
loop_
 _atom_site_type_symbol
 _atom_site_label
 _atom_site_symmetry_multiplicity
 _atom_site_fract_x
 _atom_site_fract_y
 _atom_site_fract_z
 _atom_site_occupancy
  Zn  Zn0  1  -0.000000  0.999997  0.999996  1
  Zn  Zn1  1  0.500025  0.000005  0.000019  1
  Ni  Ni2  1  0.499994  0.999995  0.499995  1
  Ni  Ni3  1  0.500019  0.500004  0.500020  1
  Ni  Ni4  1  0.000002  0.499994  0.000006  1
  Ni  Ni5  1  0.000000  0.500001  0.500000  1
  S  S6  1  0.032834  0.750929  0.245266  1
  S  S7  1  0.474207  0.756364  0.722535  1
  S  S8  1  0.468072  0.736258  0.262796  1
  S  S9  1  0.974958  0.707735  0.735345  1
  S  S10  1  0.531933  0.263734  0.737212  1
  S  S11  1  0.525790  0.243634  0.277461  1
  S  S12  1  0.025064  0.292258  0.264672  1
  S  S13  1  0.967151  0.249055  0.754720  1
