# generated using pymatgen
data_Ta2Bi2O9
_symmetry_space_group_name_H-M   'P 1'
_cell_length_a   5.40949787
_cell_length_b   5.53818532
_cell_length_c   12.45523334
_cell_angle_alpha   90.00000000
_cell_angle_beta   102.54214529
_cell_angle_gamma   90.00000000
_symmetry_Int_Tables_number   1
_chemical_formula_structural   Ta2Bi2O9
_chemical_formula_sum   'Ta4 Bi4 O18'
_cell_volume   364.23936026
_cell_formula_units_Z   2
loop_
 _symmetry_equiv_pos_site_id
 _symmetry_equiv_pos_as_xyz
  1  'x, y, z'
loop_
 _atom_site_type_symbol
 _atom_site_label
 _atom_site_symmetry_multiplicity
 _atom_site_fract_x
 _atom_site_fract_y
 _atom_site_fract_z
 _atom_site_occupancy
  Ta  Ta0  1  0.824135  0.957244  0.154026  1
  Ta  Ta1  1  0.175865  0.457244  0.845974  1
  Ta  Ta2  1  0.329891  0.457244  0.154026  1
  Ta  Ta3  1  0.670109  0.957244  0.845974  1
  Bi  Bi4  1  0.024283  0.061167  0.609536  1
  Bi  Bi5  1  0.414746  0.061167  0.390464  1
  Bi  Bi6  1  0.585254  0.561167  0.609536  1
  Bi  Bi7  1  0.975717  0.561167  0.390464  1
  O  O8  1  0.686817  0.939114  0.679595  1
  O  O9  1  0.568014  0.160305  0.202398  1
  O  O10  1  0.667805  0.929398  1.000000  1
  O  O11  1  0.332195  0.429398  0.000000  1
  O  O12  1  0.365617  0.160305  0.797602  1
  O  O13  1  0.267185  0.778331  0.510880  1
  O  O14  1  0.992778  0.439114  0.679595  1
  O  O15  1  0.953231  0.713556  0.858450  1
  O  O16  1  0.094781  0.713556  0.141550  1
  O  O17  1  0.634383  0.660305  0.202398  1
  O  O18  1  0.313183  0.439114  0.320405  1
  O  O19  1  0.046769  0.213556  0.141550  1
  O  O20  1  0.732815  0.278331  0.489120  1
  O  O21  1  0.431986  0.660305  0.797602  1
  O  O22  1  0.243694  0.278331  0.510880  1
  O  O23  1  0.905219  0.213556  0.858450  1
  O  O24  1  0.007222  0.939114  0.320405  1
  O  O25  1  0.756306  0.778331  0.489120  1
