# generated using pymatgen
data_Ca2VWO6
_symmetry_space_group_name_H-M   'P 1'
_cell_length_a   5.62518876
_cell_length_b   5.56396765
_cell_length_c   7.93723881
_cell_angle_alpha   89.58091861
_cell_angle_beta   135.36305192
_cell_angle_gamma   120.08818710
_symmetry_Int_Tables_number   1
_chemical_formula_structural   Ca2VWO6
_chemical_formula_sum   'Ca2 V1 W1 O6'
_cell_volume   123.58734834
_cell_formula_units_Z   1
loop_
 _symmetry_equiv_pos_site_id
 _symmetry_equiv_pos_as_xyz
  1  'x, y, z'
loop_
 _atom_site_type_symbol
 _atom_site_label
 _atom_site_symmetry_multiplicity
 _atom_site_fract_x
 _atom_site_fract_y
 _atom_site_fract_z
 _atom_site_occupancy
  Ca  Ca0  1  0.972326  0.483070  0.230036  1
  Ca  Ca1  1  0.022755  0.483639  0.770302  1
  V  V2  1  0.997363  0.983350  0.500184  1
  W  W3  1  0.997306  0.983336  0.000174  1
  O  O4  1  0.882687  0.882667  0.183865  1
  O  O5  1  0.112033  0.083827  0.816533  1
  O  O6  1  0.580690  0.456968  0.336688  1
  O  O7  1  0.635092  0.102018  0.814332  1
  O  O8  1  0.359644  0.864763  0.185990  1
  O  O9  1  0.413580  0.509753  0.663657  1
