# generated using pymatgen
data_CaTiSn(PO4)3
_symmetry_space_group_name_H-M   'P 1'
_cell_length_a   8.97818070
_cell_length_b   8.97894565
_cell_length_c   8.97916977
_cell_angle_alpha   58.56019720
_cell_angle_beta   58.54968669
_cell_angle_gamma   58.55085732
_symmetry_Int_Tables_number   1
_chemical_formula_structural   CaTiSn(PO4)3
_chemical_formula_sum   'Ca2 Ti2 Sn2 P6 O24'
_cell_volume   494.91002129
_cell_formula_units_Z   2
loop_
 _symmetry_equiv_pos_site_id
 _symmetry_equiv_pos_as_xyz
  1  'x, y, z'
loop_
 _atom_site_type_symbol
 _atom_site_label
 _atom_site_symmetry_multiplicity
 _atom_site_fract_x
 _atom_site_fract_y
 _atom_site_fract_z
 _atom_site_occupancy
  Ca  Ca0  1  0.003406  0.003359  0.003425  1
  Ca  Ca1  1  0.503422  0.503379  0.503379  1
  Ti  Ti2  1  0.145942  0.145792  0.146063  1
  Ti  Ti3  1  0.645955  0.645914  0.645905  1
  Sn  Sn4  1  0.352622  0.352633  0.352587  1
  Sn  Sn5  1  0.852588  0.852610  0.852636  1
  P  P6  1  0.040793  0.456462  0.749349  1
  P  P7  1  0.456434  0.749405  0.040722  1
  P  P8  1  0.749360  0.040814  0.456410  1
  P  P9  1  0.249366  0.956417  0.540853  1
  P  P10  1  0.540710  0.249399  0.956445  1
  P  P11  1  0.956446  0.540746  0.249357  1
  O  O12  1  0.115251  0.517801  0.291557  1
  O  O13  1  0.291542  0.115214  0.517790  1
  O  O14  1  0.060771  0.272491  0.916786  1
  O  O15  1  0.517812  0.291539  0.115248  1
  O  O16  1  0.017805  0.615224  0.791538  1
  O  O17  1  0.230404  0.436248  0.583067  1
  O  O18  1  0.272490  0.916715  0.060758  1
  O  O19  1  0.436247  0.583053  0.230425  1
  O  O20  1  0.201160  0.994362  0.381579  1
  O  O21  1  0.583031  0.230434  0.436245  1
  O  O22  1  0.083056  0.936246  0.730405  1
  O  O23  1  0.381771  0.201212  0.994258  1
  O  O24  1  0.615258  0.791544  0.017803  1
  O  O25  1  0.916735  0.060708  0.272539  1
  O  O26  1  0.416743  0.772523  0.560731  1
  O  O27  1  0.791555  0.017795  0.615235  1
  O  O28  1  0.560766  0.416745  0.772486  1
  O  O29  1  0.730419  0.083054  0.936248  1
  O  O30  1  0.772536  0.560730  0.416711  1
  O  O31  1  0.994235  0.381788  0.201195  1
  O  O32  1  0.494249  0.701198  0.881764  1
  O  O33  1  0.936241  0.730441  0.083034  1
  O  O34  1  0.701184  0.881716  0.494275  1
  O  O35  1  0.881688  0.494286  0.701186  1
