# generated using pymatgen
data_MgAgAsO5
_symmetry_space_group_name_H-M   'P 1'
_cell_length_a   7.92509879
_cell_length_b   6.16728588
_cell_length_c   9.26958486
_cell_angle_alpha   89.96331714
_cell_angle_beta   89.99910307
_cell_angle_gamma   90.04329545
_symmetry_Int_Tables_number   1
_chemical_formula_structural   MgAgAsO5
_chemical_formula_sum   'Mg4 Ag4 As4 O20'
_cell_volume   453.06325010
_cell_formula_units_Z   4
loop_
 _symmetry_equiv_pos_site_id
 _symmetry_equiv_pos_as_xyz
  1  'x, y, z'
loop_
 _atom_site_type_symbol
 _atom_site_label
 _atom_site_symmetry_multiplicity
 _atom_site_fract_x
 _atom_site_fract_y
 _atom_site_fract_z
 _atom_site_occupancy
  Mg  Mg0  1  0.928224  0.642655  0.066686  1
  Mg  Mg1  1  0.571444  0.357169  0.566628  1
  Mg  Mg2  1  0.427839  0.857443  0.933164  1
  Mg  Mg3  1  0.071747  0.142789  0.433225  1
  Ag  Ag4  1  0.998245  0.508325  0.740972  1
  Ag  Ag5  1  0.501844  0.491600  0.240899  1
  Ag  Ag6  1  0.498200  0.991649  0.258863  1
  Ag  Ag7  1  0.001881  0.008389  0.758926  1
  As  As8  1  0.641311  0.309940  0.898528  1
  As  As9  1  0.858519  0.689216  0.398616  1
  As  As10  1  0.141198  0.190340  0.101422  1
  As  As11  1  0.358514  0.810742  0.601253  1
  O  O12  1  0.815722  0.256293  0.779491  1
  O  O13  1  0.684331  0.743464  0.279575  1
  O  O14  1  0.315549  0.243465  0.220715  1
  O  O15  1  0.184528  0.756721  0.720658  1
  O  O16  1  0.496708  0.386768  0.773503  1
  O  O17  1  0.003422  0.613026  0.273342  1
  O  O18  1  0.996297  0.113293  0.226459  1
  O  O19  1  0.503814  0.887029  0.726644  1
  O  O20  1  0.592429  0.085361  0.996555  1
  O  O21  1  0.907571  0.914536  0.496666  1
  O  O22  1  0.092658  0.414622  0.003519  1
  O  O23  1  0.407421  0.585403  0.503382  1
  O  O24  1  0.692722  0.518519  0.013632  1
  O  O25  1  0.807558  0.480994  0.513333  1
  O  O26  1  0.192522  0.981236  0.986594  1
  O  O27  1  0.307694  0.019054  0.486931  1
  O  O28  1  0.892990  0.756186  0.859223  1
  O  O29  1  0.607040  0.243864  0.359196  1
  O  O30  1  0.392851  0.743599  0.140674  1
  O  O31  1  0.107205  0.256310  0.640724  1
