# generated using pymatgen
data_ZnCoSb2O7
_symmetry_space_group_name_H-M   'P 1'
_cell_length_a   6.60166143
_cell_length_b   13.11295550
_cell_length_c   14.70815341
_cell_angle_alpha   90.00000000
_cell_angle_beta   90.00000000
_cell_angle_gamma   105.34150880
_symmetry_Int_Tables_number   1
_chemical_formula_structural   ZnCoSb2O7
_chemical_formula_sum   'Zn8 Co8 Sb16 O56'
_cell_volume   1227.87420332
_cell_formula_units_Z   8
loop_
 _symmetry_equiv_pos_site_id
 _symmetry_equiv_pos_as_xyz
  1  'x, y, z'
loop_
 _atom_site_type_symbol
 _atom_site_label
 _atom_site_symmetry_multiplicity
 _atom_site_fract_x
 _atom_site_fract_y
 _atom_site_fract_z
 _atom_site_occupancy
  Zn  Zn0  1  0.059113  0.779868  0.525225  1
  Zn  Zn1  1  0.313883  0.897061  0.893571  1
  Zn  Zn2  1  0.686117  0.602939  0.393571  1
  Zn  Zn3  1  0.686117  0.102939  0.106429  1
  Zn  Zn4  1  0.313883  0.397061  0.606429  1
  Zn  Zn5  1  0.059113  0.279868  0.974775  1
  Zn  Zn6  1  0.940887  0.220132  0.474775  1
  Zn  Zn7  1  0.940887  0.720132  0.025225  1
  Co  Co8  1  0.672808  0.101110  0.654608  1
  Co  Co9  1  0.327192  0.398890  0.154608  1
  Co  Co10  1  0.327192  0.898890  0.345392  1
  Co  Co11  1  0.672808  0.601110  0.845392  1
  Co  Co12  1  0.018802  0.248303  0.770527  1
  Co  Co13  1  0.981198  0.251697  0.270527  1
  Co  Co14  1  0.981198  0.751697  0.229473  1
  Co  Co15  1  0.018802  0.748303  0.729473  1
  Sb  Sb16  1  0.922101  0.011199  0.895851  1
  Sb  Sb17  1  0.393071  0.669091  0.026503  1
  Sb  Sb18  1  0.393071  0.169091  0.473497  1
  Sb  Sb19  1  0.606929  0.330909  0.973497  1
  Sb  Sb20  1  0.572471  0.822986  0.736719  1
  Sb  Sb21  1  0.427529  0.677014  0.236719  1
  Sb  Sb22  1  0.427529  0.177014  0.263281  1
  Sb  Sb23  1  0.572471  0.322986  0.763281  1
  Sb  Sb24  1  0.606929  0.830909  0.526503  1
  Sb  Sb25  1  0.859258  0.485962  0.168206  1
  Sb  Sb26  1  0.140742  0.014038  0.668206  1
  Sb  Sb27  1  0.140742  0.514038  0.831794  1
  Sb  Sb28  1  0.077899  0.488801  0.395851  1
  Sb  Sb29  1  0.922101  0.511199  0.604149  1
  Sb  Sb30  1  0.077899  0.988801  0.104150  1
  Sb  Sb31  1  0.859258  0.985962  0.331794  1
  O  O32  1  0.826164  0.012120  0.028016  1
  O  O33  1  0.173836  0.487880  0.528016  1
  O  O34  1  0.173836  0.987880  0.971984  1
  O  O35  1  0.826164  0.512120  0.471984  1
  O  O36  1  0.065937  0.951488  0.802338  1
  O  O37  1  0.934063  0.548512  0.302338  1
  O  O38  1  0.934063  0.048512  0.197662  1
  O  O39  1  0.065937  0.451488  0.697662  1
  O  O40  1  0.997280  0.160359  0.880584  1
  O  O41  1  0.002720  0.339641  0.380584  1
  O  O42  1  0.002720  0.839641  0.119416  1
  O  O43  1  0.997280  0.660359  0.619416  1
  O  O44  1  0.587036  0.927795  0.283019  1
  O  O45  1  0.412964  0.572205  0.783019  1
  O  O46  1  0.412964  0.072205  0.716981  1
  O  O47  1  0.587036  0.427795  0.216981  1
  O  O48  1  0.979381  0.133964  0.366060  1
  O  O49  1  0.020619  0.366036  0.866060  1
  O  O50  1  0.020619  0.866036  0.633940  1
  O  O51  1  0.979381  0.633964  0.133940  1
  O  O52  1  0.037250  0.892494  0.314344  1
  O  O53  1  0.337244  0.825344  0.469942  1
  O  O54  1  0.962750  0.607506  0.814344  1
  O  O55  1  0.037250  0.392494  0.185656  1
  O  O56  1  0.765256  0.735836  0.475993  1
  O  O57  1  0.234744  0.764164  0.975993  1
  O  O58  1  0.234744  0.264164  0.524007  1
  O  O59  1  0.765256  0.235836  0.024007  1
  O  O60  1  0.775549  0.955668  0.462870  1
  O  O61  1  0.224451  0.544332  0.962870  1
  O  O62  1  0.224451  0.044332  0.537130  1
  O  O63  1  0.775549  0.455668  0.037130  1
  O  O64  1  0.498456  0.229833  0.872528  1
  O  O65  1  0.501544  0.270167  0.372528  1
  O  O66  1  0.501544  0.770167  0.127472  1
  O  O67  1  0.498456  0.729833  0.627472  1
  O  O68  1  0.758366  0.252251  0.707085  1
  O  O69  1  0.241634  0.247749  0.207085  1
  O  O70  1  0.241634  0.747749  0.292915  1
  O  O71  1  0.758366  0.752251  0.792915  1
  O  O72  1  0.635697  0.437801  0.650397  1
  O  O73  1  0.364303  0.062199  0.150397  1
  O  O74  1  0.364303  0.562199  0.349603  1
  O  O75  1  0.635697  0.937801  0.849603  1
  O  O76  1  0.298333  0.301028  0.712870  1
  O  O77  1  0.701667  0.198972  0.212870  1
  O  O78  1  0.701667  0.698972  0.287130  1
  O  O79  1  0.298333  0.801028  0.787130  1
  O  O80  1  0.633992  0.432091  0.862510  1
  O  O81  1  0.366008  0.067909  0.362510  1
  O  O82  1  0.366008  0.567909  0.137490  1
  O  O83  1  0.633992  0.932091  0.637490  1
  O  O84  1  0.337244  0.325344  0.030058  1
  O  O85  1  0.662756  0.174656  0.530058  1
  O  O86  1  0.662756  0.674656  0.969942  1
  O  O87  1  0.962750  0.107506  0.685656  1
