# generated using pymatgen
data_Ca(AgO2)2
_symmetry_space_group_name_H-M   'P 1'
_cell_length_a   6.63366889
_cell_length_b   6.63367090
_cell_length_c   6.64239267
_cell_angle_alpha   119.95657485
_cell_angle_beta   119.95657180
_cell_angle_gamma   89.99999446
_symmetry_Int_Tables_number   1
_chemical_formula_structural   Ca(AgO2)2
_chemical_formula_sum   'Ca2 Ag4 O8'
_cell_volume   206.96000253
_cell_formula_units_Z   2
loop_
 _symmetry_equiv_pos_site_id
 _symmetry_equiv_pos_as_xyz
  1  'x, y, z'
loop_
 _atom_site_type_symbol
 _atom_site_label
 _atom_site_symmetry_multiplicity
 _atom_site_fract_x
 _atom_site_fract_y
 _atom_site_fract_z
 _atom_site_occupancy
  Ca  Ca0  1  0.375000  0.625000  0.750000  1
  Ca  Ca1  1  0.625000  0.375000  0.250000  1
  Ag  Ag2  1  0.000000  0.000000  0.500000  1
  Ag  Ag3  1  0.000000  0.500000  0.000000  1
  Ag  Ag4  1  0.500000  0.000000  0.500000  1
  Ag  Ag5  1  0.000000  0.000000  0.000000  1
  O  O6  1  0.763146  0.788796  0.526294  1
  O  O7  1  0.762503  0.236854  0.973706  1
  O  O8  1  0.211204  0.236854  0.973706  1
  O  O9  1  0.236854  0.211204  0.473706  1
  O  O10  1  0.236854  0.762503  0.473706  1
  O  O11  1  0.237497  0.763146  0.026294  1
  O  O12  1  0.763146  0.237497  0.526294  1
  O  O13  1  0.788796  0.763146  0.026294  1
