# generated using pymatgen
data_Mn2ZnO4
_symmetry_space_group_name_H-M   'P 1'
_cell_length_a   6.20249221
_cell_length_b   6.19658552
_cell_length_c   17.78614779
_cell_angle_alpha   61.24099244
_cell_angle_beta   61.04432956
_cell_angle_gamma   56.96708491
_symmetry_Int_Tables_number   1
_chemical_formula_structural   Mn2ZnO4
_chemical_formula_sum   'Mn12 Zn6 O24'
_cell_volume   478.96984342
_cell_formula_units_Z   6
loop_
 _symmetry_equiv_pos_site_id
 _symmetry_equiv_pos_as_xyz
  1  'x, y, z'
loop_
 _atom_site_type_symbol
 _atom_site_label
 _atom_site_symmetry_multiplicity
 _atom_site_fract_x
 _atom_site_fract_y
 _atom_site_fract_z
 _atom_site_occupancy
  Mn  Mn0  1  0.500528  0.501318  0.166122  1
  Mn  Mn1  1  0.499481  0.999965  0.166983  1
  Mn  Mn2  1  0.503242  0.501757  0.500772  1
  Mn  Mn3  1  0.000183  0.498830  0.166800  1
  Mn  Mn4  1  0.505712  0.006051  0.499546  1
  Mn  Mn5  1  0.499113  0.499270  0.666381  1
  Mn  Mn6  1  0.881430  0.884829  0.287972  1
  Mn  Mn7  1  0.498661  0.499738  0.831134  1
  Mn  Mn8  1  0.005911  0.505296  0.499762  1
  Mn  Mn9  1  0.492956  0.994176  0.834187  1
  Mn  Mn10  1  0.993827  0.493606  0.833954  1
  Mn  Mn11  1  0.875919  0.879452  0.953828  1
  Zn  Zn12  1  0.116930  0.112117  0.046551  1
  Zn  Zn13  1  0.124794  0.120153  0.380726  1
  Zn  Zn14  1  0.503714  0.501329  0.335323  1
  Zn  Zn15  1  0.120621  0.120626  0.709347  1
  Zn  Zn16  1  0.495643  0.497615  0.999526  1
  Zn  Zn17  1  0.878310  0.878591  0.622880  1
  O  O18  1  0.251467  0.253718  0.091953  1
  O  O19  1  0.260857  0.243447  0.242755  1
  O  O20  1  0.251780  0.711591  0.094021  1
  O  O21  1  0.707795  0.237877  0.095774  1
  O  O22  1  0.262013  0.261376  0.422501  1
  O  O23  1  0.297391  0.764421  0.236024  1
  O  O24  1  0.253011  0.253284  0.574850  1
  O  O25  1  0.747854  0.294995  0.237889  1
  O  O26  1  0.740230  0.758584  0.091309  1
  O  O27  1  0.264915  0.724243  0.425435  1
  O  O28  1  0.727861  0.263708  0.424575  1
  O  O29  1  0.748130  0.745243  0.240142  1
  O  O30  1  0.252887  0.252642  0.756975  1
  O  O31  1  0.282279  0.730426  0.582534  1
  O  O32  1  0.731691  0.282316  0.582012  1
  O  O33  1  0.245492  0.246673  0.909642  1
  O  O34  1  0.752229  0.750423  0.426843  1
  O  O35  1  0.262708  0.713973  0.752676  1
  O  O36  1  0.714786  0.266020  0.751608  1
  O  O37  1  0.742881  0.744654  0.578285  1
  O  O38  1  0.279817  0.736317  0.907332  1
  O  O39  1  0.738975  0.282966  0.905773  1
  O  O40  1  0.746243  0.746949  0.758375  1
  O  O41  1  0.739731  0.739432  0.908921  1
