# generated using pymatgen
data_CaHoCr2O6
_symmetry_space_group_name_H-M   'P 1'
_cell_length_a   5.30358524
_cell_length_b   5.53434495
_cell_length_c   7.58341456
_cell_angle_alpha   90.00035161
_cell_angle_beta   90.12144131
_cell_angle_gamma   89.99991163
_symmetry_Int_Tables_number   1
_chemical_formula_structural   CaHoCr2O6
_chemical_formula_sum   'Ca2 Ho2 Cr4 O12'
_cell_volume   222.58689966
_cell_formula_units_Z   2
loop_
 _symmetry_equiv_pos_site_id
 _symmetry_equiv_pos_as_xyz
  1  'x, y, z'
loop_
 _atom_site_type_symbol
 _atom_site_label
 _atom_site_symmetry_multiplicity
 _atom_site_fract_x
 _atom_site_fract_y
 _atom_site_fract_z
 _atom_site_occupancy
  Ca  Ca0  1  0.487487  0.447798  0.750430  1
  Ca  Ca1  1  0.987498  0.052194  0.250499  1
  Ho  Ho2  1  0.019421  0.933264  0.749568  1
  Ho  Ho3  1  0.519434  0.566744  0.249555  1
  Cr  Cr4  1  0.000684  0.496097  0.000426  1
  Cr  Cr5  1  0.000176  0.494788  0.499889  1
  Cr  Cr6  1  0.500666  0.003898  0.500432  1
  Cr  Cr7  1  0.500193  0.005218  0.999888  1
  O  O8  1  0.107248  0.470442  0.254944  1
  O  O9  1  0.199731  0.193043  0.947031  1
  O  O10  1  0.188067  0.198861  0.552955  1
  O  O11  1  0.297995  0.712042  0.949729  1
  O  O12  1  0.288771  0.705618  0.549836  1
  O  O13  1  0.410398  0.964829  0.245156  1
  O  O14  1  0.607253  0.029574  0.754940  1
  O  O15  1  0.699709  0.306959  0.447037  1
  O  O16  1  0.688101  0.301133  0.052965  1
  O  O17  1  0.788809  0.794403  0.049832  1
  O  O18  1  0.797965  0.787936  0.449737  1
  O  O19  1  0.910393  0.535162  0.745151  1
