# generated using pymatgen
data_PrMg(SnO3)2
_symmetry_space_group_name_H-M   'P 1'
_cell_length_a   5.58260611
_cell_length_b   5.83320309
_cell_length_c   8.19565370
_cell_angle_alpha   90.00222024
_cell_angle_beta   90.00274494
_cell_angle_gamma   89.99839214
_symmetry_Int_Tables_number   1
_chemical_formula_structural   PrMg(SnO3)2
_chemical_formula_sum   'Pr2 Mg2 Sn4 O12'
_cell_volume   266.88716145
_cell_formula_units_Z   2
loop_
 _symmetry_equiv_pos_site_id
 _symmetry_equiv_pos_as_xyz
  1  'x, y, z'
loop_
 _atom_site_type_symbol
 _atom_site_label
 _atom_site_symmetry_multiplicity
 _atom_site_fract_x
 _atom_site_fract_y
 _atom_site_fract_z
 _atom_site_occupancy
  Pr  Pr0  1  0.015086  0.940226  0.750004  1
  Pr  Pr1  1  0.514928  0.559077  0.249994  1
  Mg  Mg2  1  0.485292  0.462984  0.750003  1
  Mg  Mg3  1  0.984941  0.037299  0.250001  1
  Sn  Sn4  1  0.000473  0.492949  0.998828  1
  Sn  Sn5  1  0.000455  0.492934  0.501172  1
  Sn  Sn6  1  0.500504  0.006843  0.498924  1
  Sn  Sn7  1  0.500522  0.006823  0.001072  1
  O  O8  1  0.115154  0.423188  0.250009  1
  O  O9  1  0.200020  0.201382  0.930367  1
  O  O10  1  0.200024  0.201348  0.569652  1
  O  O11  1  0.319564  0.686102  0.571060  1
  O  O12  1  0.319557  0.686113  0.928914  1
  O  O13  1  0.348255  0.949700  0.250004  1
  O  O14  1  0.615527  0.076944  0.750007  1
  O  O15  1  0.698198  0.296640  0.069728  1
  O  O16  1  0.698212  0.296639  0.430287  1
  O  O17  1  0.817499  0.816243  0.071210  1
  O  O18  1  0.817458  0.816255  0.428767  1
  O  O19  1  0.848330  0.550312  0.749996  1
