# generated using pymatgen
data_MgSiNiO5
_symmetry_space_group_name_H-M   'P 1'
_cell_length_a   5.29120728
_cell_length_b   6.85296479
_cell_length_c   8.46574877
_cell_angle_alpha   90.77144709
_cell_angle_beta   143.50531666
_cell_angle_gamma   74.48602701
_symmetry_Int_Tables_number   1
_chemical_formula_structural   MgSiNiO5
_chemical_formula_sum   'Mg2 Si2 Ni2 O10'
_cell_volume   164.67899915
_cell_formula_units_Z   2
loop_
 _symmetry_equiv_pos_site_id
 _symmetry_equiv_pos_as_xyz
  1  'x, y, z'
loop_
 _atom_site_type_symbol
 _atom_site_label
 _atom_site_symmetry_multiplicity
 _atom_site_fract_x
 _atom_site_fract_y
 _atom_site_fract_z
 _atom_site_occupancy
  Mg  Mg0  1  0.486498  0.250360  0.160921  1
  Mg  Mg1  1  0.497064  0.743025  0.830823  1
  Si  Si2  1  0.496977  0.242549  0.821945  1
  Si  Si3  1  0.493947  0.742739  0.172777  1
  Ni  Ni4  1  0.494792  0.492377  0.496991  1
  Ni  Ni5  1  0.494761  0.992348  0.497266  1
  O  O6  1  0.237510  0.123596  0.585288  1
  O  O7  1  0.740765  0.367305  0.841056  1
  O  O8  1  0.754477  0.859874  0.411331  1
  O  O9  1  0.251746  0.615930  0.153283  1
  O  O10  1  0.855807  0.577420  0.219545  1
  O  O11  1  0.127601  0.917165  0.863107  1
  O  O12  1  0.133330  0.408915  0.773330  1
  O  O13  1  0.861888  0.068566  0.132011  1
  O  O14  1  0.499725  0.742731  0.589400  1
  O  O15  1  0.489941  0.241873  0.404967  1
