# generated using pymatgen
data_Si3(TeO6)2
_symmetry_space_group_name_H-M   'P 1'
_cell_length_a   10.27659778
_cell_length_b   10.27659767
_cell_length_c   10.27659721
_cell_angle_alpha   109.47122349
_cell_angle_beta   109.47122328
_cell_angle_gamma   109.47121825
_symmetry_Int_Tables_number   1
_chemical_formula_structural   Si3(TeO6)2
_chemical_formula_sum   'Si12 Te8 O48'
_cell_volume   835.46092054
_cell_formula_units_Z   4
loop_
 _symmetry_equiv_pos_site_id
 _symmetry_equiv_pos_as_xyz
  1  'x, y, z'
loop_
 _atom_site_type_symbol
 _atom_site_label
 _atom_site_symmetry_multiplicity
 _atom_site_fract_x
 _atom_site_fract_y
 _atom_site_fract_z
 _atom_site_occupancy
  Si  Si0  1  0.250000  0.125000  0.875000  1
  Si  Si1  1  0.750000  0.875000  0.125000  1
  Si  Si2  1  0.375000  0.250000  0.625000  1
  Si  Si3  1  0.625000  0.375000  0.250000  1
  Si  Si4  1  0.125000  0.750000  0.875000  1
  Si  Si5  1  0.875000  0.125000  0.750000  1
  Si  Si6  1  0.750000  0.375000  0.625000  1
  Si  Si7  1  0.375000  0.625000  0.750000  1
  Si  Si8  1  0.125000  0.875000  0.250000  1
  Si  Si9  1  0.875000  0.250000  0.125000  1
  Si  Si10  1  0.625000  0.750000  0.375000  1
  Si  Si11  1  0.250000  0.625000  0.375000  1
  Te  Te12  1  0.000000  0.000000  0.000000  1
  Te  Te13  1  0.000000  0.500000  0.000000  1
  Te  Te14  1  0.000000  0.000000  0.500000  1
  Te  Te15  1  0.000000  0.500000  0.500000  1
  Te  Te16  1  0.500000  0.000000  0.500000  1
  Te  Te17  1  0.500000  0.500000  0.000000  1
  Te  Te18  1  0.500000  0.500000  0.500000  1
  Te  Te19  1  0.500000  0.000000  0.000000  1
  O  O20  1  0.302831  0.492704  0.387038  1
  O  O21  1  0.007296  0.310128  0.894334  1
  O  O22  1  0.112962  0.605666  0.915793  1
  O  O23  1  0.197169  0.584207  0.189872  1
  O  O24  1  0.197169  0.112962  0.007296  1
  O  O25  1  0.584207  0.189872  0.197169  1
  O  O26  1  0.605666  0.189872  0.492704  1
  O  O27  1  0.189872  0.197169  0.584207  1
  O  O28  1  0.894334  0.387038  0.584207  1
  O  O29  1  0.310128  0.915793  0.302831  1
  O  O30  1  0.915793  0.302831  0.310128  1
  O  O31  1  0.007296  0.197169  0.112962  1
  O  O32  1  0.189872  0.492704  0.605666  1
  O  O33  1  0.584207  0.894334  0.387038  1
  O  O34  1  0.112962  0.007296  0.197169  1
  O  O35  1  0.492704  0.605666  0.189872  1
  O  O36  1  0.387038  0.584207  0.894334  1
  O  O37  1  0.894334  0.007296  0.310128  1
  O  O38  1  0.605666  0.915793  0.112962  1
  O  O39  1  0.105666  0.612962  0.415793  1
  O  O40  1  0.915793  0.112962  0.605666  1
  O  O41  1  0.387038  0.302831  0.492704  1
  O  O42  1  0.310128  0.894334  0.007296  1
  O  O43  1  0.302831  0.310128  0.915793  1
  O  O44  1  0.697169  0.507296  0.612962  1
  O  O45  1  0.992704  0.689872  0.105666  1
  O  O46  1  0.887038  0.394334  0.084207  1
  O  O47  1  0.802831  0.415793  0.810128  1
  O  O48  1  0.802831  0.887038  0.992704  1
  O  O49  1  0.415793  0.810128  0.802831  1
  O  O50  1  0.394334  0.810128  0.507296  1
  O  O51  1  0.810128  0.802831  0.415793  1
  O  O52  1  0.697169  0.689872  0.084207  1
  O  O53  1  0.689872  0.105666  0.992704  1
  O  O54  1  0.612962  0.697169  0.507296  1
  O  O55  1  0.507296  0.612962  0.697169  1
  O  O56  1  0.084207  0.887038  0.394334  1
  O  O57  1  0.394334  0.084207  0.887038  1
  O  O58  1  0.105666  0.992704  0.689872  1
  O  O59  1  0.612962  0.415793  0.105666  1
  O  O60  1  0.507296  0.394334  0.810128  1
  O  O61  1  0.887038  0.992704  0.802831  1
  O  O62  1  0.415793  0.105666  0.612962  1
  O  O63  1  0.810128  0.507296  0.394334  1
  O  O64  1  0.992704  0.802831  0.887038  1
  O  O65  1  0.084207  0.697169  0.689872  1
  O  O66  1  0.689872  0.084207  0.697169  1
  O  O67  1  0.492704  0.387038  0.302831  1
