# generated using pymatgen
data_V2ZnO4
_symmetry_space_group_name_H-M   'P 1'
_cell_length_a   6.08459270
_cell_length_b   6.07714591
_cell_length_c   24.38403731
_cell_angle_alpha   60.10230688
_cell_angle_beta   59.44973088
_cell_angle_gamma   60.04047724
_symmetry_Int_Tables_number   1
_chemical_formula_structural   V2ZnO4
_chemical_formula_sum   'V16 Zn8 O32'
_cell_volume   635.54573159
_cell_formula_units_Z   8
loop_
 _symmetry_equiv_pos_site_id
 _symmetry_equiv_pos_as_xyz
  1  'x, y, z'
loop_
 _atom_site_type_symbol
 _atom_site_label
 _atom_site_symmetry_multiplicity
 _atom_site_fract_x
 _atom_site_fract_y
 _atom_site_fract_z
 _atom_site_occupancy
  V  V0  1  0.496264  0.498805  0.125154  1
  V  V1  1  0.496502  0.499330  0.251209  1
  V  V2  1  0.496264  0.004316  0.125154  1
  V  V3  1  0.130345  0.119706  0.532561  1
  V  V4  1  0.496258  0.501746  0.374921  1
  V  V5  1  0.867824  0.878088  0.219000  1
  V  V6  1  0.133511  0.120073  0.781586  1
  V  V7  1  0.496258  0.002313  0.374921  1
  V  V8  1  0.500881  0.500974  0.624456  1
  V  V9  1  0.867970  0.884315  0.465850  1
  V  V10  1  0.500881  0.000319  0.624456  1
  V  V11  1  0.502926  0.000583  0.874814  1
  V  V12  1  0.502926  0.497233  0.874814  1
  V  V13  1  0.868936  0.881279  0.717126  1
  V  V14  1  0.501048  0.496419  0.001528  1
  V  V15  1  0.869396  0.875893  0.969704  1
  Zn  Zn16  1  0.133249  0.121118  0.031129  1
  Zn  Zn17  1  0.000322  0.499177  0.125330  1
  Zn  Zn18  1  0.134508  0.118562  0.282092  1
  Zn  Zn19  1  0.000166  0.501293  0.374312  1
  Zn  Zn20  1  0.000178  0.501200  0.624355  1
  Zn  Zn21  1  0.502008  0.499170  0.499913  1
  Zn  Zn22  1  0.005115  0.497421  0.875011  1
  Zn  Zn23  1  0.497594  0.501945  0.749629  1
  O  O24  1  0.271313  0.250640  0.064387  1
  O  O25  1  0.271924  0.253502  0.180268  1
  O  O26  1  0.271313  0.720501  0.064387  1
  O  O27  1  0.723897  0.262915  0.062569  1
  O  O28  1  0.269288  0.739054  0.188151  1
  O  O29  1  0.267746  0.253917  0.314753  1
  O  O30  1  0.729769  0.273194  0.185943  1
  O  O31  1  0.262249  0.249670  0.434602  1
  O  O32  1  0.267746  0.719326  0.314753  1
  O  O33  1  0.728658  0.748352  0.068659  1
  O  O34  1  0.717159  0.262416  0.314503  1
  O  O35  1  0.729769  0.753267  0.185943  1
  O  O36  1  0.260944  0.249869  0.565328  1
  O  O37  1  0.267454  0.754638  0.430817  1
  O  O38  1  0.736511  0.271494  0.433978  1
  O  O39  1  0.275862  0.247522  0.682274  1
  O  O40  1  0.260944  0.727874  0.565328  1
  O  O41  1  0.733545  0.750066  0.316581  1
  O  O42  1  0.732716  0.249946  0.566848  1
  O  O43  1  0.736511  0.756083  0.433978  1
  O  O44  1  0.265999  0.750042  0.683479  1
  O  O45  1  0.262409  0.243906  0.815552  1
  O  O46  1  0.739431  0.270811  0.684896  1
  O  O47  1  0.276931  0.253127  0.929203  1
  O  O48  1  0.262409  0.731475  0.815552  1
  O  O49  1  0.725014  0.754261  0.566616  1
  O  O50  1  0.736544  0.247082  0.817323  1
  O  O51  1  0.739431  0.750175  0.684896  1
  O  O52  1  0.274434  0.738702  0.937041  1
  O  O53  1  0.735103  0.269017  0.937233  1
  O  O54  1  0.730548  0.748933  0.817896  1
  O  O55  1  0.735103  0.746945  0.937233  1
