# generated using pymatgen
data_AlBiO3
_symmetry_space_group_name_H-M   'P 1'
_cell_length_a   6.32377267
_cell_length_b   6.32377231
_cell_length_c   11.83357815
_cell_angle_alpha   90.00000000
_cell_angle_beta   90.00000000
_cell_angle_gamma   120.00000182
_symmetry_Int_Tables_number   1
_chemical_formula_structural   AlBiO3
_chemical_formula_sum   'Al6 Bi6 O18'
_cell_volume   409.82569218
_cell_formula_units_Z   6
loop_
 _symmetry_equiv_pos_site_id
 _symmetry_equiv_pos_as_xyz
  1  'x, y, z'
loop_
 _atom_site_type_symbol
 _atom_site_label
 _atom_site_symmetry_multiplicity
 _atom_site_fract_x
 _atom_site_fract_y
 _atom_site_fract_z
 _atom_site_occupancy
  Al  Al0  1  0.666667  0.333333  0.247875  1
  Al  Al1  1  0.333333  0.666667  0.747875  1
  Al  Al2  1  0.666667  0.333333  0.747875  1
  Al  Al3  1  0.333333  0.666667  0.247875  1
  Al  Al4  1  0.000000  0.000000  0.742008  1
  Al  Al5  1  0.000000  0.000000  0.242008  1
  Bi  Bi6  1  0.674996  0.000000  0.500557  1
  Bi  Bi7  1  0.674996  0.674996  0.000557  1
  Bi  Bi8  1  0.000000  0.325004  0.000557  1
  Bi  Bi9  1  1.000000  0.674996  0.500557  1
  Bi  Bi10  1  0.325004  0.325004  0.500557  1
  Bi  Bi11  1  0.325004  0.000000  0.000557  1
  O  O12  1  0.666667  0.333333  0.077480  1
  O  O13  1  0.333333  0.666667  0.577480  1
  O  O14  1  0.666667  0.333333  0.577480  1
  O  O15  1  0.333333  0.666667  0.077480  1
  O  O16  1  0.000000  0.000000  0.897372  1
  O  O17  1  0.000000  0.000000  0.397372  1
  O  O18  1  0.459990  0.000000  0.814098  1
  O  O19  1  0.459990  0.459990  0.314098  1
  O  O20  1  0.000000  0.540010  0.314098  1
  O  O21  1  1.000000  0.459990  0.814098  1
  O  O22  1  0.540010  0.540010  0.814098  1
  O  O23  1  0.540010  0.000000  0.314098  1
  O  O24  1  0.253371  0.000000  0.180315  1
  O  O25  1  0.253371  0.253371  0.680315  1
  O  O26  1  0.000000  0.746629  0.680315  1
  O  O27  1  1.000000  0.253371  0.180315  1
  O  O28  1  0.746629  0.746629  0.180315  1
  O  O29  1  0.746629  0.000000  0.680315  1
