# generated using pymatgen
data_Zn2CrIrO6
_symmetry_space_group_name_H-M   'P 1'
_cell_length_a   5.23314217
_cell_length_b   5.22492265
_cell_length_c   7.64378101
_cell_angle_alpha   90.00000000
_cell_angle_beta   89.68627260
_cell_angle_gamma   90.00000000
_symmetry_Int_Tables_number   1
_chemical_formula_structural   Zn2CrIrO6
_chemical_formula_sum   'Zn4 Cr2 Ir2 O12'
_cell_volume   208.99896005
_cell_formula_units_Z   2
loop_
 _symmetry_equiv_pos_site_id
 _symmetry_equiv_pos_as_xyz
  1  'x, y, z'
loop_
 _atom_site_type_symbol
 _atom_site_label
 _atom_site_symmetry_multiplicity
 _atom_site_fract_x
 _atom_site_fract_y
 _atom_site_fract_z
 _atom_site_occupancy
  Zn  Zn0  1  0.990569  0.967483  0.249162  1
  Zn  Zn1  1  0.509431  0.467483  0.250838  1
  Zn  Zn2  1  0.490569  0.532517  0.749162  1
  Zn  Zn3  1  0.009431  0.032517  0.750838  1
  Cr  Cr4  1  -0.000000  0.500000  0.000000  1
  Cr  Cr5  1  0.500000  0.000000  0.500000  1
  Ir  Ir6  1  -0.000000  0.500000  0.500000  1
  Ir  Ir7  1  0.500000  0.000000  0.000000  1
  O  O8  1  0.117423  0.415051  0.747392  1
  O  O9  1  0.176619  0.173892  0.062653  1
  O  O10  1  0.171671  0.176736  0.433501  1
  O  O11  1  0.328329  0.676736  0.066499  1
  O  O12  1  0.323381  0.673892  0.437347  1
  O  O13  1  0.382577  0.915051  0.752608  1
  O  O14  1  0.617423  0.084949  0.247392  1
  O  O15  1  0.676619  0.326108  0.562653  1
  O  O16  1  0.671671  0.323264  0.933501  1
  O  O17  1  0.823381  0.826108  0.937347  1
  O  O18  1  0.828329  0.823264  0.566499  1
  O  O19  1  0.882577  0.584949  0.252608  1
