# generated using pymatgen
data_Zn2TeWO6
_symmetry_space_group_name_H-M   'P 1'
_cell_length_a   7.51534271
_cell_length_b   7.94408311
_cell_length_c   9.12050150
_cell_angle_alpha   75.57556908
_cell_angle_beta   135.56379749
_cell_angle_gamma   138.81731687
_symmetry_Int_Tables_number   1
_chemical_formula_structural   Zn2TeWO6
_chemical_formula_sum   'Zn2 Te1 W1 O6'
_cell_volume   195.88301127
_cell_formula_units_Z   1
loop_
 _symmetry_equiv_pos_site_id
 _symmetry_equiv_pos_as_xyz
  1  'x, y, z'
loop_
 _atom_site_type_symbol
 _atom_site_label
 _atom_site_symmetry_multiplicity
 _atom_site_fract_x
 _atom_site_fract_y
 _atom_site_fract_z
 _atom_site_occupancy
  Zn  Zn0  1  0.153194  0.793033  0.357827  1
  Zn  Zn1  1  0.083434  0.576188  0.828098  1
  Te  Te2  1  0.909492  0.010574  0.510780  1
  W  W3  1  0.939116  0.949776  0.939580  1
  O  O4  1  0.009220  0.949167  0.178430  1
  O  O5  1  0.915427  0.879947  0.718952  1
  O  O6  1  0.547583  0.375797  0.175116  1
  O  O7  1  0.587855  0.943401  0.732680  1
  O  O8  1  0.423230  0.884549  0.303516  1
  O  O9  1  0.442254  0.471998  0.748114  1
