# generated using pymatgen
data_CaBiO3
_symmetry_space_group_name_H-M   'P 1'
_cell_length_a   5.83227010
_cell_length_b   6.08104832
_cell_length_c   8.41391393
_cell_angle_alpha   89.99884691
_cell_angle_beta   90.00003566
_cell_angle_gamma   90.00002637
_symmetry_Int_Tables_number   1
_chemical_formula_structural   CaBiO3
_chemical_formula_sum   'Ca4 Bi4 O12'
_cell_volume   298.41053268
_cell_formula_units_Z   4
loop_
 _symmetry_equiv_pos_site_id
 _symmetry_equiv_pos_as_xyz
  1  'x, y, z'
loop_
 _atom_site_type_symbol
 _atom_site_label
 _atom_site_symmetry_multiplicity
 _atom_site_fract_x
 _atom_site_fract_y
 _atom_site_fract_z
 _atom_site_occupancy
  Ca  Ca0  1  0.989283  0.056585  0.249998  1
  Ca  Ca1  1  0.489281  0.443416  0.750001  1
  Ca  Ca2  1  0.510717  0.556584  0.249997  1
  Ca  Ca3  1  0.010716  0.943415  0.750001  1
  Bi  Bi4  1  0.500000  -0.000000  -0.000000  1
  Bi  Bi5  1  0.000000  0.500000  1.000000  1
  Bi  Bi6  1  0.000000  0.500000  0.500000  1
  Bi  Bi7  1  0.500000  0.000000  0.500000  1
  O  O8  1  0.871404  0.564870  0.750023  1
  O  O9  1  0.371404  0.935130  0.250009  1
  O  O10  1  0.628595  0.064871  0.749991  1
  O  O11  1  0.128596  0.435129  0.249978  1
  O  O12  1  0.684718  0.310923  0.433661  1
  O  O13  1  0.184754  0.189049  0.566338  1
  O  O14  1  0.815269  0.810903  0.066337  1
  O  O15  1  0.315235  0.689067  0.933664  1
  O  O16  1  0.684766  0.310932  0.066336  1
  O  O17  1  0.184730  0.189096  0.933663  1
  O  O18  1  0.315282  0.689079  0.566339  1
  O  O19  1  0.815248  0.810953  0.433663  1
