# generated using pymatgen
data_CaFe2(SiO3)4
_symmetry_space_group_name_H-M   'P 1'
_cell_length_a   5.34544383
_cell_length_b   6.62010759
_cell_length_c   6.62096695
_cell_angle_alpha   84.76045773
_cell_angle_beta   77.38932975
_cell_angle_gamma   77.39172716
_symmetry_Int_Tables_number   1
_chemical_formula_structural   CaFe2(SiO3)4
_chemical_formula_sum   'Ca1 Fe2 Si4 O12'
_cell_volume   222.89829838
_cell_formula_units_Z   1
loop_
 _symmetry_equiv_pos_site_id
 _symmetry_equiv_pos_as_xyz
  1  'x, y, z'
loop_
 _atom_site_type_symbol
 _atom_site_label
 _atom_site_symmetry_multiplicity
 _atom_site_fract_x
 _atom_site_fract_y
 _atom_site_fract_z
 _atom_site_occupancy
  Ca  Ca0  1  0.249991  0.696497  0.303506  1
  Fe  Fe1  1  0.749954  0.908226  0.091916  1
  Fe  Fe2  1  0.249994  0.112163  0.887761  1
  Si  Si3  1  0.264090  0.200948  0.381413  1
  Si  Si4  1  0.772170  0.378516  0.201900  1
  Si  Si5  1  0.727865  0.798074  0.621522  1
  Si  Si6  1  0.235905  0.618521  0.799077  1
  O  O7  1  0.631240  0.955630  0.813082  1
  O  O8  1  0.290464  0.390462  0.904874  1
  O  O9  1  0.140253  0.801688  0.970018  1
  O  O10  1  0.488741  0.345025  0.354111  1
  O  O11  1  0.209500  0.095096  0.609419  1
  O  O12  1  0.868797  0.186911  0.044360  1
  O  O13  1  0.689253  0.616254  0.114184  1
  O  O14  1  0.810755  0.885846  0.383798  1
  O  O15  1  0.002131  0.371343  0.335837  1
  O  O16  1  0.011283  0.645885  0.654987  1
  O  O17  1  0.359743  0.029961  0.198318  1
  O  O18  1  0.497870  0.664161  0.628710  1
