# generated using pymatgen
data_MoF4
_symmetry_space_group_name_H-M   'P 1'
_cell_length_a   5.06927114
_cell_length_b   5.33312006
_cell_length_c   6.58499971
_cell_angle_alpha   112.81894425
_cell_angle_beta   115.15509056
_cell_angle_gamma   89.98107460
_symmetry_Int_Tables_number   1
_chemical_formula_structural   MoF4
_chemical_formula_sum   'Mo2 F8'
_cell_volume   145.61365248
_cell_formula_units_Z   2
loop_
 _symmetry_equiv_pos_site_id
 _symmetry_equiv_pos_as_xyz
  1  'x, y, z'
loop_
 _atom_site_type_symbol
 _atom_site_label
 _atom_site_symmetry_multiplicity
 _atom_site_fract_x
 _atom_site_fract_y
 _atom_site_fract_z
 _atom_site_occupancy
  Mo  Mo0  1  0.955199  0.536367  0.973241  1
  Mo  Mo1  1  0.514279  0.037123  0.974490  1
  F  F2  1  0.842528  0.393363  0.186993  1
  F  F3  1  0.649905  0.155342  0.749290  1
  F  F4  1  0.122698  0.745721  0.830131  1
  F  F5  1  0.187629  0.244660  0.829215  1
  F  F6  1  0.334569  0.665606  0.254032  1
  F  F7  1  0.445231  0.166217  0.255741  1
  F  F8  1  0.862037  0.892356  0.186179  1
  F  F9  1  0.570572  0.655883  0.748157  1
