# generated using pymatgen
data_MgFeF5
_symmetry_space_group_name_H-M   'P 1'
_cell_length_a   5.19165111
_cell_length_b   7.46250710
_cell_length_c   9.73625874
_cell_angle_alpha   90.00000000
_cell_angle_beta   90.00000000
_cell_angle_gamma   109.79704543
_symmetry_Int_Tables_number   1
_chemical_formula_structural   MgFeF5
_chemical_formula_sum   'Mg4 Fe4 F20'
_cell_volume   354.91554146
_cell_formula_units_Z   4
loop_
 _symmetry_equiv_pos_site_id
 _symmetry_equiv_pos_as_xyz
  1  'x, y, z'
loop_
 _atom_site_type_symbol
 _atom_site_label
 _atom_site_symmetry_multiplicity
 _atom_site_fract_x
 _atom_site_fract_y
 _atom_site_fract_z
 _atom_site_occupancy
  Mg  Mg0  1  0.478702  0.755212  0.011302  1
  Mg  Mg1  1  0.521298  0.744788  0.511302  1
  Mg  Mg2  1  0.521298  0.244788  0.988698  1
  Mg  Mg3  1  0.478702  0.255212  0.488698  1
  Fe  Fe4  1  0.898267  0.603651  0.754947  1
  Fe  Fe5  1  0.101733  0.896349  0.254947  1
  Fe  Fe6  1  0.101733  0.396349  0.245053  1
  Fe  Fe7  1  0.898267  0.103651  0.745053  1
  F  F8  1  0.608750  0.583853  0.889359  1
  F  F9  1  0.391250  0.916147  0.389359  1
  F  F10  1  0.391250  0.416147  0.110641  1
  F  F11  1  0.608750  0.083853  0.610641  1
  F  F12  1  0.644944  0.491734  0.604994  1
  F  F13  1  0.355056  0.008266  0.104994  1
  F  F14  1  0.355056  0.508266  0.395006  1
  F  F15  1  0.644944  0.991734  0.895006  1
  F  F16  1  0.853834  0.803159  0.402855  1
  F  F17  1  0.146166  0.696841  0.902855  1
  F  F18  1  0.146166  0.196841  0.597145  1
  F  F19  1  0.853834  0.303159  0.097145  1
  F  F20  1  0.791659  0.843621  0.135201  1
  F  F21  1  0.208341  0.656379  0.635201  1
  F  F22  1  0.208341  0.156379  0.864799  1
  F  F23  1  0.791659  0.343621  0.364799  1
  F  F24  1  0.824938  0.834869  0.682963  1
  F  F25  1  0.175062  0.665131  0.182963  1
  F  F26  1  0.175062  0.165131  0.317037  1
  F  F27  1  0.824938  0.334869  0.817037  1
