# generated using pymatgen
data_MgCoF5
_symmetry_space_group_name_H-M   'P 1'
_cell_length_a   5.18507424
_cell_length_b   7.35479195
_cell_length_c   9.59941317
_cell_angle_alpha   90.00000000
_cell_angle_beta   90.00000000
_cell_angle_gamma   109.96008184
_symmetry_Int_Tables_number   1
_chemical_formula_structural   MgCoF5
_chemical_formula_sum   'Mg4 Co4 F20'
_cell_volume   344.08511084
_cell_formula_units_Z   4
loop_
 _symmetry_equiv_pos_site_id
 _symmetry_equiv_pos_as_xyz
  1  'x, y, z'
loop_
 _atom_site_type_symbol
 _atom_site_label
 _atom_site_symmetry_multiplicity
 _atom_site_fract_x
 _atom_site_fract_y
 _atom_site_fract_z
 _atom_site_occupancy
  Mg  Mg0  1  0.477053  0.747135  0.012467  1
  Mg  Mg1  1  0.522947  0.752865  0.512467  1
  Mg  Mg2  1  0.522947  0.252865  0.987533  1
  Mg  Mg3  1  0.477053  0.247135  0.487533  1
  Co  Co4  1  0.898771  0.601716  0.753450  1
  Co  Co5  1  0.101229  0.898284  0.253450  1
  Co  Co6  1  0.101229  0.398284  0.246550  1
  Co  Co7  1  0.898771  0.101717  0.746550  1
  F  F8  1  0.606850  0.575123  0.888028  1
  F  F9  1  0.393150  0.924877  0.388028  1
  F  F10  1  0.393150  0.424877  0.111972  1
  F  F11  1  0.606850  0.075123  0.611972  1
  F  F12  1  0.643912  0.489057  0.608152  1
  F  F13  1  0.356088  0.010943  0.108152  1
  F  F14  1  0.356088  0.510943  0.391848  1
  F  F15  1  0.643912  0.989057  0.891848  1
  F  F16  1  0.853521  0.803589  0.397574  1
  F  F17  1  0.146479  0.696411  0.897574  1
  F  F18  1  0.146479  0.196411  0.602426  1
  F  F19  1  0.853521  0.303589  0.102426  1
  F  F20  1  0.793954  0.846910  0.134802  1
  F  F21  1  0.206046  0.653090  0.634802  1
  F  F22  1  0.206046  0.153090  0.865198  1
  F  F23  1  0.793954  0.346910  0.365198  1
  F  F24  1  0.825073  0.832820  0.679533  1
  F  F25  1  0.174927  0.667180  0.179533  1
  F  F26  1  0.174927  0.167180  0.320467  1
  F  F27  1  0.825073  0.332820  0.820467  1
