# generated using pymatgen
data_Y(WO2)2
_symmetry_space_group_name_H-M   'P 1'
_cell_length_a   6.05747809
_cell_length_b   6.15029216
_cell_length_c   6.57333588
_cell_angle_alpha   116.86393554
_cell_angle_beta   116.39576081
_cell_angle_gamma   91.98352316
_symmetry_Int_Tables_number   1
_chemical_formula_structural   Y(WO2)2
_chemical_formula_sum   'Y2 W4 O8'
_cell_volume   186.99577007
_cell_formula_units_Z   2
loop_
 _symmetry_equiv_pos_site_id
 _symmetry_equiv_pos_as_xyz
  1  'x, y, z'
loop_
 _atom_site_type_symbol
 _atom_site_label
 _atom_site_symmetry_multiplicity
 _atom_site_fract_x
 _atom_site_fract_y
 _atom_site_fract_z
 _atom_site_occupancy
  Y  Y0  1  0.874383  0.124383  0.748767  1
  Y  Y1  1  0.125617  0.875617  0.251233  1
  W  W2  1  0.500000  0.000000  0.000000  1
  W  W3  1  0.500000  0.500000  0.000000  1
  W  W4  1  0.000000  0.500000  0.500000  1
  W  W5  1  0.500000  0.500000  0.500000  1
  O  O6  1  0.743513  0.494090  0.857984  1
  O  O7  1  0.114472  0.863895  0.857984  1
  O  O8  1  0.256487  0.505910  0.142016  1
  O  O9  1  0.885528  0.136105  0.142016  1
  O  O10  1  0.521169  0.109520  0.358153  1
  O  O11  1  0.836984  0.748633  0.358153  1
  O  O12  1  0.163016  0.251367  0.641847  1
  O  O13  1  0.478831  0.890480  0.641847  1
