# generated using pymatgen
data_Ca3Fe2(Si2O7)2
_symmetry_space_group_name_H-M   'P 1'
_cell_length_a   7.75394791
_cell_length_b   9.44397296
_cell_length_c   9.70341042
_cell_angle_alpha   64.20734755
_cell_angle_beta   66.45010206
_cell_angle_gamma   65.76226630
_symmetry_Int_Tables_number   1
_chemical_formula_structural   Ca3Fe2(Si2O7)2
_chemical_formula_sum   'Ca6 Fe4 Si8 O28'
_cell_volume   561.85873856
_cell_formula_units_Z   2
loop_
 _symmetry_equiv_pos_site_id
 _symmetry_equiv_pos_as_xyz
  1  'x, y, z'
loop_
 _atom_site_type_symbol
 _atom_site_label
 _atom_site_symmetry_multiplicity
 _atom_site_fract_x
 _atom_site_fract_y
 _atom_site_fract_z
 _atom_site_occupancy
  Ca  Ca0  1  0.837600  0.936387  0.460014  1
  Ca  Ca1  1  0.234000  0.563613  0.039986  1
  Ca  Ca2  1  0.766000  0.436387  0.960014  1
  Ca  Ca3  1  0.652546  0.250000  0.750000  1
  Ca  Ca4  1  0.162400  0.063613  0.539986  1
  Ca  Ca5  1  0.347454  0.750000  0.250000  1
  Fe  Fe6  1  0.208313  0.250000  0.750000  1
  Fe  Fe7  1  0.791687  0.750000  0.250000  1
  Fe  Fe8  1  0.000000  0.000000  0.000000  1
  Fe  Fe9  1  0.000000  0.500000  0.500000  1
  Si  Si10  1  0.465796  0.303232  0.345849  1
  Si  Si11  1  0.885122  0.803232  0.845849  1
  Si  Si12  1  0.467642  0.894952  0.853228  1
  Si  Si13  1  0.784179  0.394952  0.353228  1
  Si  Si14  1  0.114878  0.196768  0.154151  1
  Si  Si15  1  0.532358  0.105048  0.146772  1
  Si  Si16  1  0.215821  0.605048  0.646772  1
  Si  Si17  1  0.534204  0.696768  0.654151  1
  O  O18  1  0.123850  0.669957  0.497041  1
  O  O19  1  0.037367  0.581331  0.275352  1
  O  O20  1  0.540657  0.916843  0.189890  1
  O  O21  1  0.105950  0.081331  0.775352  1
  O  O22  1  0.732987  0.690434  0.505475  1
  O  O23  1  0.948803  0.370314  0.183232  1
  O  O24  1  0.352609  0.416843  0.689890  1
  O  O25  1  0.928895  0.809566  0.994525  1
  O  O26  1  0.051197  0.629686  0.816768  1
  O  O27  1  0.341744  0.739245  0.591424  1
  O  O28  1  0.962633  0.418669  0.724648  1
  O  O29  1  0.267013  0.309566  0.494525  1
  O  O30  1  0.502350  0.129686  0.316768  1
  O  O31  1  0.709151  0.169957  0.997041  1
  O  O32  1  0.327588  0.239245  0.091424  1
  O  O33  1  0.071105  0.190434  0.005475  1
  O  O34  1  0.105686  0.045516  0.318975  1
  O  O35  1  0.658256  0.260755  0.408576  1
  O  O36  1  0.470176  0.454484  0.181025  1
  O  O37  1  0.672412  0.760755  0.908576  1
  O  O38  1  0.497650  0.870314  0.683232  1
  O  O39  1  0.894050  0.918669  0.224648  1
  O  O40  1  0.529824  0.545516  0.818975  1
  O  O41  1  0.459343  0.083157  0.810110  1
  O  O42  1  0.894314  0.954484  0.681025  1
  O  O43  1  0.647391  0.583157  0.310110  1
  O  O44  1  0.290849  0.830043  0.002959  1
  O  O45  1  0.876150  0.330043  0.502959  1
