# generated using pymatgen
data_AlV(WO4)2
_symmetry_space_group_name_H-M   'P 1'
_cell_length_a   4.96916186
_cell_length_b   5.46409788
_cell_length_c   6.13864975
_cell_angle_alpha   105.66216594
_cell_angle_beta   120.79240711
_cell_angle_gamma   90.67773077
_symmetry_Int_Tables_number   1
_chemical_formula_structural   AlV(WO4)2
_chemical_formula_sum   'Al1 V1 W2 O8'
_cell_volume   135.57662539
_cell_formula_units_Z   1
loop_
 _symmetry_equiv_pos_site_id
 _symmetry_equiv_pos_as_xyz
  1  'x, y, z'
loop_
 _atom_site_type_symbol
 _atom_site_label
 _atom_site_symmetry_multiplicity
 _atom_site_fract_x
 _atom_site_fract_y
 _atom_site_fract_z
 _atom_site_occupancy
  Al  Al0  1  0.624198  0.724806  0.100491  1
  V  V1  1  0.124141  0.222789  0.099367  1
  W  W2  1  0.865188  0.403855  0.585222  1
  W  W3  1  0.383747  0.042425  0.613733  1
  O  O4  1  0.203810  0.665013  0.855899  1
  O  O5  1  0.543462  0.504859  0.284097  1
  O  O6  1  0.123573  0.147519  0.776259  1
  O  O7  1  0.537522  0.042465  0.344453  1
  O  O8  1  0.706057  0.941373  0.915614  1
  O  O9  1  0.045357  0.781422  0.343382  1
  O  O10  1  0.126609  0.299288  0.423351  1
  O  O11  1  0.712335  0.402683  0.854227  1
