# generated using pymatgen
data_Ba2W2F11
_symmetry_space_group_name_H-M   'P 1'
_cell_length_a   8.51880636
_cell_length_b   8.51880579
_cell_length_c   13.82500814
_cell_angle_alpha   90.00000000
_cell_angle_beta   90.00000000
_cell_angle_gamma   119.99999774
_symmetry_Int_Tables_number   1
_chemical_formula_structural   Ba2W2F11
_chemical_formula_sum   'Ba6 W6 F33'
_cell_volume   868.86739710
_cell_formula_units_Z   3
loop_
 _symmetry_equiv_pos_site_id
 _symmetry_equiv_pos_as_xyz
  1  'x, y, z'
loop_
 _atom_site_type_symbol
 _atom_site_label
 _atom_site_symmetry_multiplicity
 _atom_site_fract_x
 _atom_site_fract_y
 _atom_site_fract_z
 _atom_site_occupancy
  Ba  Ba0  1  0.633787  0.230356  0.649160  1
  Ba  Ba1  1  0.179807  0.366528  0.807478  1
  Ba  Ba2  1  0.596569  0.366213  0.982493  1
  Ba  Ba3  1  0.633472  0.813279  0.474144  1
  Ba  Ba4  1  0.186721  0.820193  0.140811  1
  Ba  Ba5  1  0.769644  0.403431  0.315826  1
  W  W6  1  0.601869  0.883216  0.884500  1
  W  W7  1  0.894716  0.769636  0.737139  1
  W  W8  1  0.230364  0.125080  0.403805  1
  W  W9  1  0.281349  0.398131  0.217833  1
  W  W10  1  0.874920  0.105284  0.070472  1
  W  W11  1  0.116784  0.718651  0.551166  1
  F  F12  1  0.599350  0.955186  0.036070  1
  F  F13  1  0.536049  0.630750  0.941888  1
  F  F14  1  0.355837  0.400650  0.369403  1
  F  F15  1  0.273461  0.617815  0.495900  1
  F  F16  1  0.484229  0.346256  0.170771  1
  F  F17  1  0.876921  0.547363  0.140264  1
  F  F18  1  0.382185  0.655647  0.162567  1
  F  F19  1  0.452637  0.329559  0.806931  1
  F  F20  1  0.862026  0.515771  0.504104  1
  F  F21  1  0.154264  0.288262  0.080096  1
  F  F22  1  0.344353  0.726539  0.829234  1
  F  F23  1  0.044814  0.644163  0.702737  1
  F  F24  1  0.324533  0.051532  0.013665  1
  F  F25  1  0.886388  0.317246  0.003452  1
  F  F26  1  0.726998  0.675467  0.346998  1
  F  F27  1  0.369250  0.905298  0.608554  1
  F  F28  1  0.895083  0.043565  0.926874  1
  F  F29  1  0.133998  0.845736  0.413429  1
  F  F30  1  0.989488  0.089449  0.431221  1
  F  F31  1  0.948468  0.273002  0.680331  1
  F  F32  1  0.099961  0.010512  0.764555  1
  F  F33  1  0.682755  0.569143  0.670119  1
  F  F34  1  0.430857  0.113612  0.336785  1
  F  F35  1  0.148482  0.104917  0.260207  1
  F  F36  1  0.711738  0.866002  0.746763  1
  F  F37  1  0.653743  0.137974  0.837438  1
  F  F38  1  0.094702  0.463951  0.275221  1
  F  F39  1  0.862943  0.669374  0.867591  1
  F  F40  1  0.806432  0.137057  0.200924  1
  F  F41  1  0.910551  0.900039  0.097888  1
  F  F42  1  0.670441  0.123079  0.473597  1
  F  F43  1  0.956435  0.851518  0.593540  1
  F  F44  1  0.330626  0.193568  0.534257  1
