# generated using pymatgen
data_CaLaFeCuO6
_symmetry_space_group_name_H-M   'P 1'
_cell_length_a   5.49850163
_cell_length_b   5.49647388
_cell_length_c   7.68674659
_cell_angle_alpha   89.93956038
_cell_angle_beta   90.00000000
_cell_angle_gamma   90.00000000
_symmetry_Int_Tables_number   1
_chemical_formula_structural   CaLaFeCuO6
_chemical_formula_sum   'Ca2 La2 Fe2 Cu2 O12'
_cell_volume   232.31157515
_cell_formula_units_Z   2
loop_
 _symmetry_equiv_pos_site_id
 _symmetry_equiv_pos_as_xyz
  1  'x, y, z'
loop_
 _atom_site_type_symbol
 _atom_site_label
 _atom_site_symmetry_multiplicity
 _atom_site_fract_x
 _atom_site_fract_y
 _atom_site_fract_z
 _atom_site_occupancy
  Ca  Ca0  1  0.539800  0.510390  0.249513  1
  Ca  Ca1  1  0.960200  0.010390  0.749513  1
  La  La2  1  0.029310  0.992824  0.250431  1
  La  La3  1  0.470690  0.492824  0.750431  1
  Fe  Fe4  1  0.500322  -0.000271  0.000657  1
  Fe  Fe5  1  0.999678  0.499729  0.500657  1
  Cu  Cu6  1  0.499530  0.999690  0.499755  1
  Cu  Cu7  1  0.000470  0.499690  0.999755  1
  O  O8  1  0.013802  0.579261  0.752397  1
  O  O9  1  0.217090  0.216599  0.957948  1
  O  O10  1  0.216846  0.216053  0.541766  1
  O  O11  1  0.283154  0.716053  0.041766  1
  O  O12  1  0.282910  0.716599  0.457948  1
  O  O13  1  0.486198  0.079261  0.252396  1
  O  O14  1  0.518280  0.930557  0.747503  1
  O  O15  1  0.721824  0.276895  0.538241  1
  O  O16  1  0.722937  0.277999  0.961791  1
  O  O17  1  0.777063  0.777999  0.461791  1
  O  O18  1  0.778176  0.776895  0.038241  1
  O  O19  1  0.981720  0.430557  0.247503  1
