# generated using pymatgen
data_MgTi2S5
_symmetry_space_group_name_H-M   'P 1'
_cell_length_a   3.93251611
_cell_length_b   6.06763000
_cell_length_c   14.80998510
_cell_angle_alpha   90.08073449
_cell_angle_beta   90.00004227
_cell_angle_gamma   90.00047809
_symmetry_Int_Tables_number   1
_chemical_formula_structural   MgTi2S5
_chemical_formula_sum   'Mg2 Ti4 S10'
_cell_volume   353.38148423
_cell_formula_units_Z   2
loop_
 _symmetry_equiv_pos_site_id
 _symmetry_equiv_pos_as_xyz
  1  'x, y, z'
loop_
 _atom_site_type_symbol
 _atom_site_label
 _atom_site_symmetry_multiplicity
 _atom_site_fract_x
 _atom_site_fract_y
 _atom_site_fract_z
 _atom_site_occupancy
  Mg  Mg0  1  0.749997  0.903254  0.249809  1
  Mg  Mg1  1  0.250001  0.096945  0.750151  1
  Ti  Ti2  1  0.250007  0.431915  0.099001  1
  Ti  Ti3  1  0.749999  0.568250  0.901007  1
  Ti  Ti4  1  0.749998  0.567679  0.599106  1
  Ti  Ti5  1  0.249993  0.432132  0.400892  1
  S  S6  1  0.749998  0.408366  0.750026  1
  S  S7  1  0.249998  0.591626  0.250005  1
  S  S8  1  0.750007  0.635962  0.067769  1
  S  S9  1  0.249998  0.364264  0.932242  1
  S  S10  1  0.749997  0.635736  0.432379  1
  S  S11  1  0.249994  0.364034  0.567655  1
  S  S12  1  0.249984  0.085601  0.357773  1
  S  S13  1  0.750018  0.914148  0.642218  1
  S  S14  1  0.749993  0.914511  0.858032  1
  S  S15  1  0.250012  0.085580  0.141934  1
