# generated using pymatgen
data_Sr2Y2Ti2O7
_symmetry_space_group_name_H-M   'P 1'
_cell_length_a   12.97934083
_cell_length_b   12.97934083
_cell_length_c   12.97934083
_cell_angle_alpha   35.24425777
_cell_angle_beta   155.15947082
_cell_angle_gamma   155.39762439
_symmetry_Int_Tables_number   1
_chemical_formula_structural   Sr2Y2Ti2O7
_chemical_formula_sum   'Sr4 Y4 Ti4 O14'
_cell_volume   381.96961941
_cell_formula_units_Z   2
loop_
 _symmetry_equiv_pos_site_id
 _symmetry_equiv_pos_as_xyz
  1  'x, y, z'
loop_
 _atom_site_type_symbol
 _atom_site_label
 _atom_site_symmetry_multiplicity
 _atom_site_fract_x
 _atom_site_fract_y
 _atom_site_fract_z
 _atom_site_occupancy
  Sr  Sr0  1  0.038508  0.872368  0.875978  1
  Sr  Sr1  1  0.996390  0.162530  0.124022  1
  Sr  Sr2  1  0.038508  0.662530  0.666140  1
  Sr  Sr3  1  0.996390  0.372368  0.333860  1
  Y  Y4  1  0.028362  0.528362  0.500000  1
  Y  Y5  1  0.028362  0.028362  0.000000  1
  Y  Y6  1  0.530416  0.734432  0.295984  1
  Y  Y7  1  0.438448  0.234432  0.704016  1
  Ti  Ti8  1  0.527053  0.470020  0.941422  1
  Ti  Ti9  1  0.528597  0.585630  0.058578  1
  Ti  Ti10  1  0.527053  0.085630  0.557032  1
  Ti  Ti11  1  0.528597  0.970020  0.442968  1
  O  O12  1  0.011454  0.834206  0.677249  1
  O  O13  1  0.156957  0.334206  0.322751  1
  O  O14  1  0.517685  0.209938  0.181469  1
  O  O15  1  0.028470  0.336218  0.818531  1
  O  O16  1  0.517685  0.836218  0.807748  1
  O  O17  1  0.028470  0.709938  0.192252  1
  O  O18  1  0.536265  0.717829  0.689602  1
  O  O19  1  0.028228  0.846663  0.310398  1
  O  O20  1  0.536265  0.346663  0.318436  1
  O  O21  1  0.028228  0.217829  0.681564  1
  O  O22  1  0.519381  0.894016  0.291595  1
  O  O23  1  0.602422  0.227786  0.708405  1
  O  O24  1  0.519381  0.727786  0.125365  1
  O  O25  1  0.602422  0.394016  0.874635  1
