# generated using pymatgen
data_CaMn2O4
_symmetry_space_group_name_H-M   'P 1'
_cell_length_a   3.14650864
_cell_length_b   5.30961372
_cell_length_c   9.79372063
_cell_angle_alpha   90.00000000
_cell_angle_beta   90.00000000
_cell_angle_gamma   107.23569070
_symmetry_Int_Tables_number   1
_chemical_formula_structural   CaMn2O4
_chemical_formula_sum   'Ca2 Mn4 O8'
_cell_volume   156.27361968
_cell_formula_units_Z   2
loop_
 _symmetry_equiv_pos_site_id
 _symmetry_equiv_pos_as_xyz
  1  'x, y, z'
loop_
 _atom_site_type_symbol
 _atom_site_label
 _atom_site_symmetry_multiplicity
 _atom_site_fract_x
 _atom_site_fract_y
 _atom_site_fract_z
 _atom_site_occupancy
  Ca  Ca0  1  0.396548  0.793094  0.750000  1
  Ca  Ca1  1  0.603452  0.206906  0.250000  1
  Mn  Mn2  1  0.863224  0.726449  0.068756  1
  Mn  Mn3  1  0.136776  0.273551  0.931244  1
  Mn  Mn4  1  0.863224  0.726449  0.431244  1
  Mn  Mn5  1  0.136776  0.273551  0.568756  1
  O  O6  1  0.224763  0.449528  0.393066  1
  O  O7  1  0.775237  0.550472  0.606934  1
  O  O8  1  0.775237  0.550472  0.893066  1
  O  O9  1  0.224763  0.449528  0.106934  1
  O  O10  1  0.938265  0.876530  0.250000  1
  O  O11  1  0.061735  0.123470  0.750000  1
  O  O12  1  0.500000  -0.000000  0.000000  1
  O  O13  1  0.500000  -0.000000  0.500000  1
