# generated using pymatgen
data_BaSbF7
_symmetry_space_group_name_H-M   'P 1'
_cell_length_a   5.73038810
_cell_length_b   10.50314768
_cell_length_c   10.04491218
_cell_angle_alpha   90.00000000
_cell_angle_beta   90.00000000
_cell_angle_gamma   92.55387703
_symmetry_Int_Tables_number   1
_chemical_formula_structural   BaSbF7
_chemical_formula_sum   'Ba4 Sb4 F28'
_cell_volume   603.97377370
_cell_formula_units_Z   4
loop_
 _symmetry_equiv_pos_site_id
 _symmetry_equiv_pos_as_xyz
  1  'x, y, z'
loop_
 _atom_site_type_symbol
 _atom_site_label
 _atom_site_symmetry_multiplicity
 _atom_site_fract_x
 _atom_site_fract_y
 _atom_site_fract_z
 _atom_site_occupancy
  Ba  Ba0  1  0.306528  0.492828  0.329106  1
  Ba  Ba1  1  0.693472  0.007172  0.829106  1
  Ba  Ba2  1  0.693472  0.507172  0.670894  1
  Ba  Ba3  1  0.306528  0.992828  0.170894  1
  Sb  Sb4  1  0.184168  0.813313  0.612920  1
  Sb  Sb5  1  0.815832  0.186687  0.387080  1
  Sb  Sb6  1  0.184168  0.313313  0.887080  1
  Sb  Sb7  1  0.815832  0.686687  0.112920  1
  F  F8  1  0.102003  0.123717  0.451293  1
  F  F9  1  0.342061  0.363148  0.047349  1
  F  F10  1  0.468290  0.758374  0.692018  1
  F  F11  1  0.531710  0.241626  0.307982  1
  F  F12  1  0.883008  0.357271  0.454230  1
  F  F13  1  0.253389  0.477475  0.806179  1
  F  F14  1  0.004871  0.759533  0.767080  1
  F  F15  1  0.116992  0.142729  0.954229  1
  F  F16  1  0.342061  0.863148  0.452651  1
  F  F17  1  0.531710  0.741626  0.192018  1
  F  F18  1  0.102003  0.623717  0.048707  1
  F  F19  1  0.897997  0.876283  0.548707  1
  F  F20  1  0.995129  0.740467  0.267080  1
  F  F21  1  0.384442  0.889241  0.956893  1
  F  F22  1  0.116992  0.642729  0.545771  1
  F  F23  1  0.883008  0.857271  0.045770  1
  F  F24  1  0.995129  0.240467  0.232920  1
  F  F25  1  0.897997  0.376283  0.951293  1
  F  F26  1  0.615558  0.610759  0.456893  1
  F  F27  1  0.657939  0.636852  0.952651  1
  F  F28  1  0.615558  0.110759  0.043107  1
  F  F29  1  0.004871  0.259533  0.732920  1
  F  F30  1  0.384442  0.389241  0.543107  1
  F  F31  1  0.746611  0.022525  0.306179  1
  F  F32  1  0.746611  0.522525  0.193821  1
  F  F33  1  0.253389  0.977475  0.693821  1
  F  F34  1  0.657939  0.136852  0.547349  1
  F  F35  1  0.468290  0.258374  0.807982  1
