# generated using pymatgen
data_MgAgF5
_symmetry_space_group_name_H-M   'P 1'
_cell_length_a   5.50044912
_cell_length_b   5.50044869
_cell_length_c   8.05660168
_cell_angle_alpha   100.24161807
_cell_angle_beta   105.36824388
_cell_angle_gamma   110.57248024
_symmetry_Int_Tables_number   1
_chemical_formula_structural   MgAgF5
_chemical_formula_sum   'Mg2 Ag2 F10'
_cell_volume   209.90410853
_cell_formula_units_Z   2
loop_
 _symmetry_equiv_pos_site_id
 _symmetry_equiv_pos_as_xyz
  1  'x, y, z'
loop_
 _atom_site_type_symbol
 _atom_site_label
 _atom_site_symmetry_multiplicity
 _atom_site_fract_x
 _atom_site_fract_y
 _atom_site_fract_z
 _atom_site_occupancy
  Mg  Mg0  1  0.261181  0.511181  0.750000  1
  Mg  Mg1  1  0.738819  0.488819  0.250000  1
  Ag  Ag2  1  0.000000  0.000000  0.000000  1
  Ag  Ag3  1  0.500000  0.000000  0.500000  1
  F  F4  1  0.430618  0.180618  0.250000  1
  F  F5  1  0.569382  0.819382  0.750000  1
  F  F6  1  0.594476  0.732344  0.366896  1
  F  F7  1  0.865447  0.227580  0.133104  1
  F  F8  1  0.763410  0.674157  0.060950  1
  F  F9  1  0.113207  0.702461  0.439050  1
  F  F10  1  0.236590  0.325844  0.939050  1
  F  F11  1  0.886793  0.297539  0.560950  1
  F  F12  1  0.134553  0.772420  0.866896  1
  F  F13  1  0.405524  0.267656  0.633104  1
