# generated using pymatgen
data_Sr2VCu2O7
_symmetry_space_group_name_H-M   'P 1'
_cell_length_a   5.26914969
_cell_length_b   5.38922487
_cell_length_c   13.07874805
_cell_angle_alpha   101.87415642
_cell_angle_beta   101.35494435
_cell_angle_gamma   90.18674239
_symmetry_Int_Tables_number   1
_chemical_formula_structural   Sr2VCu2O7
_chemical_formula_sum   'Sr4 V2 Cu4 O14'
_cell_volume   355.96033156
_cell_formula_units_Z   2
loop_
 _symmetry_equiv_pos_site_id
 _symmetry_equiv_pos_as_xyz
  1  'x, y, z'
loop_
 _atom_site_type_symbol
 _atom_site_label
 _atom_site_symmetry_multiplicity
 _atom_site_fract_x
 _atom_site_fract_y
 _atom_site_fract_z
 _atom_site_occupancy
  Sr  Sr0  1  0.343494  0.350447  0.724207  1
  Sr  Sr1  1  0.622544  0.649156  0.277056  1
  Sr  Sr2  1  0.842429  0.872624  0.723506  1
  Sr  Sr3  1  0.122975  0.126235  0.276330  1
  V  V4  1  0.298982  0.669345  0.500409  1
  V  V5  1  0.789890  0.310570  0.500337  1
  Cu  Cu6  1  0.917973  0.441990  0.878253  1
  Cu  Cu7  1  0.045515  0.557488  0.121908  1
  Cu  Cu8  1  0.417635  0.936380  0.878691  1
  Cu  Cu9  1  0.546272  0.063475  0.122319  1
  O  O10  1  0.155800  0.367413  0.500274  1
  O  O11  1  0.640232  0.639949  0.500271  1
  O  O12  1  0.154582  0.175224  0.851049  1
  O  O13  1  0.309906  0.823989  0.151193  1
  O  O14  1  0.653340  0.173579  0.849385  1
  O  O15  1  0.809659  0.823873  0.149509  1
  O  O16  1  0.650816  0.672792  0.844326  1
  O  O17  1  0.814278  0.329259  0.158637  1
  O  O18  1  0.150319  0.671251  0.841938  1
  O  O19  1  0.312435  0.328380  0.156272  1
  O  O20  1  0.267005  0.865195  0.617346  1
  O  O21  1  0.651785  0.136993  0.373989  1
  O  O22  1  0.775836  0.263471  0.626556  1
  O  O23  1  0.152007  0.748162  0.383151  1
