# generated using pymatgen
data_Y8Cu3(SiSe7)3
_symmetry_space_group_name_H-M   'P 1'
_cell_length_a   10.31734657
_cell_length_b   10.27209403
_cell_length_c   18.24430411
_cell_angle_alpha   89.99672796
_cell_angle_beta   89.99353368
_cell_angle_gamma   120.04214187
_symmetry_Int_Tables_number   1
_chemical_formula_structural   Y8Cu3(SiSe7)3
_chemical_formula_sum   'Y16 Cu6 Si6 Se42'
_cell_volume   1673.78763038
_cell_formula_units_Z   2
loop_
 _symmetry_equiv_pos_site_id
 _symmetry_equiv_pos_as_xyz
  1  'x, y, z'
loop_
 _atom_site_type_symbol
 _atom_site_label
 _atom_site_symmetry_multiplicity
 _atom_site_fract_x
 _atom_site_fract_y
 _atom_site_fract_z
 _atom_site_occupancy
  Y  Y0  1  0.221934  0.357194  0.308772  1
  Y  Y1  1  0.222825  0.359232  0.637438  1
  Y  Y2  1  0.229774  0.362646  0.974094  1
  Y  Y3  1  0.646886  0.874584  0.309258  1
  Y  Y4  1  0.641469  0.870424  0.637661  1
  Y  Y5  1  0.635383  0.862388  0.973028  1
  Y  Y6  1  0.869417  0.226436  0.143220  1
  Y  Y7  1  0.865202  0.226325  0.808290  1
  Y  Y8  1  0.777382  0.640975  0.137286  1
  Y  Y9  1  0.769847  0.637205  0.474014  1
  Y  Y10  1  0.778176  0.642866  0.808830  1
  Y  Y11  1  0.134728  0.773505  0.308309  1
  Y  Y12  1  0.130943  0.773763  0.643269  1
  Y  Y13  1  0.358480  0.129604  0.137598  1
  Y  Y14  1  0.364881  0.137512  0.472873  1
  Y  Y15  1  0.353179  0.125663  0.809365  1
  Cu  Cu16  1  0.000341  0.000905  0.322048  1
  Cu  Cu17  1  0.999605  0.997378  0.659045  1
  Cu  Cu18  1  0.001880  0.997293  0.990157  1
  Cu  Cu19  1  0.000304  0.002234  0.159173  1
  Cu  Cu20  1  0.998040  0.002496  0.490236  1
  Cu  Cu21  1  0.999793  0.999103  0.822212  1
  Si  Si22  1  0.663111  0.334914  0.280748  1
  Si  Si23  1  0.669822  0.333301  0.611625  1
  Si  Si24  1  0.668542  0.331863  0.943870  1
  Si  Si25  1  0.329872  0.666653  0.111587  1
  Si  Si26  1  0.331427  0.668113  0.444025  1
  Si  Si27  1  0.336927  0.665099  0.780706  1
  Se  Se28  1  0.836062  0.737938  0.317899  1
  Se  Se29  1  0.833521  0.736108  0.648835  1
  Se  Se30  1  0.834092  0.740055  0.981064  1
  Se  Se31  1  0.425724  0.903180  0.062842  1
  Se  Se32  1  0.423721  0.904955  0.394548  1
  Se  Se33  1  0.419403  0.899070  0.727121  1
  Se  Se34  1  0.262392  0.098369  0.317541  1
  Se  Se35  1  0.262035  0.100375  0.650234  1
  Se  Se36  1  0.260439  0.099268  0.983180  1
  Se  Se37  1  0.166509  0.263716  0.148980  1
  Se  Se38  1  0.165594  0.259734  0.481104  1
  Se  Se39  1  0.163864  0.262035  0.817807  1
  Se  Se40  1  0.480907  0.580277  0.061176  1
  Se  Se41  1  0.480476  0.581382  0.394488  1
  Se  Se42  1  0.481473  0.579841  0.724426  1
  Se  Se43  1  0.737997  0.899631  0.150278  1
  Se  Se44  1  0.739703  0.901271  0.483150  1
  Se  Se45  1  0.737730  0.901662  0.817503  1
  Se  Se46  1  0.580593  0.101032  0.227106  1
  Se  Se47  1  0.574389  0.096773  0.562919  1
  Se  Se48  1  0.576141  0.094932  0.894497  1
  Se  Se49  1  0.333655  0.666384  0.237225  1
  Se  Se50  1  0.333848  0.668746  0.569281  1
  Se  Se51  1  0.334157  0.665498  0.904008  1
  Se  Se52  1  0.898128  0.480489  0.228161  1
  Se  Se53  1  0.900837  0.482433  0.559646  1
  Se  Se54  1  0.901608  0.480750  0.896242  1
  Se  Se55  1  0.666277  0.331460  0.069194  1
  Se  Se56  1  0.666037  0.334432  0.404067  1
  Se  Se57  1  0.666291  0.333669  0.737168  1
  Se  Se58  1  0.905383  0.166012  0.310990  1
  Se  Se59  1  0.901907  0.161904  0.654795  1
  Se  Se60  1  0.902815  0.162601  0.984416  1
  Se  Se61  1  0.098329  0.838029  0.154890  1
  Se  Se62  1  0.097094  0.837456  0.484445  1
  Se  Se63  1  0.094750  0.834092  0.810819  1
  Se  Se64  1  0.098856  0.517755  0.059657  1
  Se  Se65  1  0.098205  0.518907  0.396604  1
  Se  Se66  1  0.101929  0.519529  0.728068  1
  Se  Se67  1  0.518731  0.420282  0.224437  1
  Se  Se68  1  0.518664  0.419490  0.561097  1
  Se  Se69  1  0.519556  0.418810  0.894411  1
