# generated using pymatgen
data_YMn2O4
_symmetry_space_group_name_H-M   'P 1'
_cell_length_a   6.29432533
_cell_length_b   6.29432571
_cell_length_c   6.50846035
_cell_angle_alpha   117.22866741
_cell_angle_beta   119.48852074
_cell_angle_gamma   91.02540988
_symmetry_Int_Tables_number   1
_chemical_formula_structural   YMn2O4
_chemical_formula_sum   'Y2 Mn4 O8'
_cell_volume   189.47808843
_cell_formula_units_Z   2
loop_
 _symmetry_equiv_pos_site_id
 _symmetry_equiv_pos_as_xyz
  1  'x, y, z'
loop_
 _atom_site_type_symbol
 _atom_site_label
 _atom_site_symmetry_multiplicity
 _atom_site_fract_x
 _atom_site_fract_y
 _atom_site_fract_z
 _atom_site_occupancy
  Y  Y0  1  0.000000  0.500001  0.000001  1
  Y  Y1  1  0.000001  -0.000000  0.500000  1
  Mn  Mn2  1  0.385070  0.635070  0.750000  1
  Mn  Mn3  1  0.614930  0.364931  0.250000  1
  Mn  Mn4  1  0.500001  -0.000000  0.500000  1
  Mn  Mn5  1  0.000000  -0.000000  -0.000000  1
  O  O6  1  0.710868  0.767627  0.485841  1
  O  O7  1  0.781786  0.225029  0.014161  1
  O  O8  1  0.211117  0.215254  0.975590  1
  O  O9  1  0.289132  0.232374  0.514160  1
  O  O10  1  0.260337  0.764472  0.475589  1
  O  O11  1  0.218214  0.774972  0.985841  1
  O  O12  1  0.739662  0.235527  0.524410  1
  O  O13  1  0.788883  0.784747  0.024410  1
