# generated using pymatgen
data_Zn3Bi2O7
_symmetry_space_group_name_H-M   'P 1'
_cell_length_a   5.55905089
_cell_length_b   5.66612280
_cell_length_c   10.41071368
_cell_angle_alpha   105.79101305
_cell_angle_beta   90.00000000
_cell_angle_gamma   90.00000000
_symmetry_Int_Tables_number   1
_chemical_formula_structural   Zn3Bi2O7
_chemical_formula_sum   'Zn6 Bi4 O14'
_cell_volume   315.54396573
_cell_formula_units_Z   2
loop_
 _symmetry_equiv_pos_site_id
 _symmetry_equiv_pos_as_xyz
  1  'x, y, z'
loop_
 _atom_site_type_symbol
 _atom_site_label
 _atom_site_symmetry_multiplicity
 _atom_site_fract_x
 _atom_site_fract_y
 _atom_site_fract_z
 _atom_site_occupancy
  Zn  Zn0  1  0.745435  0.738427  1.000000  1
  Zn  Zn1  1  0.245435  0.261573  0.000000  1
  Zn  Zn2  1  0.783023  0.585151  0.579788  1
  Zn  Zn3  1  0.283023  0.414849  0.420212  1
  Zn  Zn4  1  0.783023  0.005362  0.420212  1
  Zn  Zn5  1  0.283023  0.994638  0.579788  1
  Bi  Bi6  1  0.754655  0.364988  0.209693  1
  Bi  Bi7  1  0.254655  0.635012  0.790308  1
  Bi  Bi8  1  0.254655  0.844705  0.209693  1
  Bi  Bi9  1  0.754655  0.155295  0.790308  1
  O  O10  1  0.645692  0.923052  0.584376  1
  O  O11  1  0.145692  0.076948  0.415624  1
  O  O12  1  0.145692  0.661323  0.584376  1
  O  O13  1  0.645692  0.338677  0.415624  1
  O  O14  1  0.091844  0.255865  0.707886  1
  O  O15  1  0.591844  0.744135  0.292114  1
  O  O16  1  0.591844  0.452021  0.707886  1
  O  O17  1  0.091844  0.547979  0.292114  1
  O  O18  1  0.909975  0.836452  0.851209  1
  O  O19  1  0.409975  0.163548  0.148791  1
  O  O20  1  0.904186  0.399159  0.000000  1
  O  O21  1  0.404186  0.600841  1.000000  1
  O  O22  1  0.909975  0.985243  0.148791  1
  O  O23  1  0.409975  0.014757  0.851209  1
