# generated using pymatgen
data_CaMn3(P2O7)2
_symmetry_space_group_name_H-M   'P 1'
_cell_length_a   7.67908749
_cell_length_b   7.88941239
_cell_length_c   9.70142210
_cell_angle_alpha   90.00000000
_cell_angle_beta   111.65683427
_cell_angle_gamma   90.00000000
_symmetry_Int_Tables_number   1
_chemical_formula_structural   CaMn3(P2O7)2
_chemical_formula_sum   'Ca2 Mn6 P8 O28'
_cell_volume   546.25751056
_cell_formula_units_Z   2
loop_
 _symmetry_equiv_pos_site_id
 _symmetry_equiv_pos_as_xyz
  1  'x, y, z'
loop_
 _atom_site_type_symbol
 _atom_site_label
 _atom_site_symmetry_multiplicity
 _atom_site_fract_x
 _atom_site_fract_y
 _atom_site_fract_z
 _atom_site_occupancy
  Ca  Ca0  1  0.500000  -0.000000  0.000000  1
  Ca  Ca1  1  0.500000  0.500000  0.500000  1
  Mn  Mn2  1  0.192312  0.877229  0.529755  1
  Mn  Mn3  1  0.807688  0.377229  0.970245  1
  Mn  Mn4  1  0.807688  0.122771  0.470245  1
  Mn  Mn5  1  0.192312  0.622771  0.029755  1
  Mn  Mn6  1  0.000000  -0.000000  0.000000  1
  Mn  Mn7  1  0.000000  0.500000  0.500000  1
  P  P8  1  0.601060  0.065316  0.706461  1
  P  P9  1  0.398940  0.565316  0.793539  1
  P  P10  1  0.398940  0.934684  0.293539  1
  P  P11  1  0.601060  0.434684  0.206461  1
  P  P12  1  0.874254  0.796822  0.689922  1
  P  P13  1  0.125746  0.296822  0.810078  1
  P  P14  1  0.125746  0.203178  0.310078  1
  P  P15  1  0.874254  0.703178  0.189922  1
  O  O16  1  0.818404  0.628323  0.607792  1
  O  O17  1  0.181596  0.128323  0.892208  1
  O  O18  1  0.181596  0.371677  0.392208  1
  O  O19  1  0.818404  0.871677  0.107792  1
  O  O20  1  0.276741  0.615423  0.630629  1
  O  O21  1  0.723259  0.115423  0.869371  1
  O  O22  1  0.723259  0.384577  0.369371  1
  O  O23  1  0.276741  0.884577  0.130629  1
  O  O24  1  0.619542  0.192342  0.593842  1
  O  O25  1  0.380458  0.692342  0.906158  1
  O  O26  1  0.380458  0.807658  0.406158  1
  O  O27  1  0.619542  0.307658  0.093842  1
  O  O28  1  0.677380  0.883880  0.675103  1
  O  O29  1  0.322620  0.383880  0.824897  1
  O  O30  1  0.322620  0.116120  0.324897  1
  O  O31  1  0.677380  0.616120  0.175103  1
  O  O32  1  0.404674  0.477478  0.200367  1
  O  O33  1  0.595326  0.977478  0.299633  1
  O  O34  1  0.595326  0.522522  0.799633  1
  O  O35  1  0.404674  0.022522  0.700367  1
  O  O36  1  0.013682  0.213174  0.142873  1
  O  O37  1  0.986318  0.713174  0.357127  1
  O  O38  1  0.986318  0.786826  0.857127  1
  O  O39  1  0.013682  0.286826  0.642873  1
  O  O40  1  0.965915  0.583396  0.111494  1
  O  O41  1  0.034085  0.083396  0.388506  1
  O  O42  1  0.034085  0.416604  0.888506  1
  O  O43  1  0.965915  0.916604  0.611494  1
