# generated using pymatgen
data_Ba2AlV2F11
_symmetry_space_group_name_H-M   'P 1'
_cell_length_a   7.45686591
_cell_length_b   7.45689552
_cell_length_c   14.84713762
_cell_angle_alpha   90.00070597
_cell_angle_beta   89.99971798
_cell_angle_gamma   119.99986791
_symmetry_Int_Tables_number   1
_chemical_formula_structural   Ba2AlV2F11
_chemical_formula_sum   'Ba6 Al3 V6 F33'
_cell_volume   714.97085011
_cell_formula_units_Z   3
loop_
 _symmetry_equiv_pos_site_id
 _symmetry_equiv_pos_as_xyz
  1  'x, y, z'
loop_
 _atom_site_type_symbol
 _atom_site_label
 _atom_site_symmetry_multiplicity
 _atom_site_fract_x
 _atom_site_fract_y
 _atom_site_fract_z
 _atom_site_occupancy
  Ba  Ba0  1  0.535155  0.188525  0.663714  1
  Ba  Ba1  1  0.187465  0.488223  0.796453  1
  Ba  Ba2  1  0.653371  0.464870  0.997048  1
  Ba  Ba3  1  0.511794  0.699233  0.463134  1
  Ba  Ba4  1  0.300738  0.812534  0.129792  1
  Ba  Ba5  1  0.811482  0.346615  0.330372  1
  Al  Al6  1  0.159005  0.998922  0.874526  1
  Al  Al7  1  0.839905  0.841004  0.207858  1
  Al  Al8  1  0.001081  0.160081  0.541189  1
  V  V9  1  0.643435  0.995714  0.881480  1
  V  V10  1  0.819264  0.771988  0.723280  1
  V  V11  1  0.228014  0.047261  0.389946  1
  V  V12  1  0.352307  0.356561  0.214823  1
  V  V13  1  0.952718  0.180744  0.056611  1
  V  V14  1  0.004298  0.647743  0.548132  1
  F  F15  1  0.641115  0.065937  0.019108  1
  F  F16  1  0.500712  0.685447  0.918904  1
  F  F17  1  0.424820  0.358849  0.352443  1
  F  F18  1  0.095173  0.427726  0.498623  1
  F  F19  1  0.535218  0.229067  0.180391  1
  F  F20  1  0.903650  0.638917  0.204128  1
  F  F21  1  0.572261  0.667444  0.165292  1
  F  F22  1  0.361090  0.264753  0.870795  1
  F  F23  1  0.693885  0.464794  0.513721  1
  F  F24  1  0.269221  0.325660  0.079964  1
  F  F25  1  0.332544  0.904816  0.831965  1
  F  F26  1  0.934078  0.575201  0.685769  1
  F  F27  1  0.219687  0.960738  0.983995  1
  F  F28  1  0.008819  0.481084  0.034308  1
  F  F29  1  0.741024  0.780324  0.317322  1
  F  F30  1  0.314557  0.815289  0.585572  1
  F  F31  1  0.979814  0.105026  0.913430  1
  F  F32  1  0.056427  0.730745  0.413270  1
  F  F33  1  0.970719  0.086433  0.422118  1
  F  F34  1  0.039261  0.258948  0.650654  1
  F  F35  1  0.115747  0.029305  0.755450  1
  F  F36  1  0.518924  0.527762  0.700979  1
  F  F37  1  0.472270  0.991166  0.367652  1
  F  F38  1  0.125207  0.020177  0.246768  1
  F  F39  1  0.674328  0.943564  0.746617  1
  F  F40  1  0.770910  0.306122  0.847058  1
  F  F41  1  0.184728  0.499271  0.252236  1
  F  F42  1  0.919556  0.747759  0.863560  1
  F  F43  1  0.828193  0.080450  0.196895  1
  F  F44  1  0.913552  0.884268  0.088784  1
  F  F45  1  0.735249  0.096332  0.537457  1
  F  F46  1  0.894975  0.874788  0.580091  1
  F  F47  1  0.252256  0.171823  0.530229  1
