# generated using pymatgen
data_CoTe2O7
_symmetry_space_group_name_H-M   'P 1'
_cell_length_a   7.03466579
_cell_length_b   11.88887719
_cell_length_c   15.66469111
_cell_angle_alpha   90.00000000
_cell_angle_beta   90.00000000
_cell_angle_gamma   103.05506304
_symmetry_Int_Tables_number   1
_chemical_formula_structural   CoTe2O7
_chemical_formula_sum   'Co8 Te16 O56'
_cell_volume   1276.24340181
_cell_formula_units_Z   8
loop_
 _symmetry_equiv_pos_site_id
 _symmetry_equiv_pos_as_xyz
  1  'x, y, z'
loop_
 _atom_site_type_symbol
 _atom_site_label
 _atom_site_symmetry_multiplicity
 _atom_site_fract_x
 _atom_site_fract_y
 _atom_site_fract_z
 _atom_site_occupancy
  Co  Co0  1  0.637459  0.082202  0.661409  1
  Co  Co1  1  0.362541  0.417798  0.161409  1
  Co  Co2  1  0.362541  0.917798  0.338591  1
  Co  Co3  1  0.637459  0.582202  0.838591  1
  Co  Co4  1  0.994715  0.254152  0.759653  1
  Co  Co5  1  0.005285  0.245848  0.259653  1
  Co  Co6  1  0.005285  0.745848  0.240347  1
  Co  Co7  1  0.994715  0.754152  0.740347  1
  Te  Te8  1  0.850747  0.977468  0.861551  1
  Te  Te9  1  0.418691  0.696390  0.006731  1
  Te  Te10  1  0.418691  0.196390  0.493269  1
  Te  Te11  1  0.581310  0.303610  0.993269  1
  Te  Te12  1  0.523423  0.803901  0.706077  1
  Te  Te13  1  0.476577  0.696099  0.206077  1
  Te  Te14  1  0.476577  0.196099  0.293923  1
  Te  Te15  1  0.523423  0.303901  0.793923  1
  Te  Te16  1  0.581310  0.803610  0.506731  1
  Te  Te17  1  0.880355  0.478549  0.138813  1
  Te  Te18  1  0.119645  0.021451  0.638813  1
  Te  Te19  1  0.119645  0.521451  0.861187  1
  Te  Te20  1  0.149253  0.522532  0.361551  1
  Te  Te21  1  0.850747  0.477468  0.638449  1
  Te  Te22  1  0.149253  0.022532  0.138449  1
  Te  Te23  1  0.880355  0.978549  0.361187  1
  O  O24  1  0.729991  0.935706  0.961792  1
  O  O25  1  0.270009  0.564294  0.461792  1
  O  O26  1  0.270009  0.064294  0.038208  1
  O  O27  1  0.729991  0.435706  0.538208  1
  O  O28  1  0.025917  0.898947  0.816285  1
  O  O29  1  0.974083  0.601053  0.316285  1
  O  O30  1  0.974083  0.101053  0.183715  1
  O  O31  1  0.025917  0.398947  0.683715  1
  O  O32  1  0.965179  0.132328  0.851855  1
  O  O33  1  0.034821  0.367672  0.351855  1
  O  O34  1  0.034821  0.867672  0.148145  1
  O  O35  1  0.965179  0.632328  0.648145  1
  O  O36  1  0.652031  0.943413  0.299816  1
  O  O37  1  0.347969  0.556587  0.799816  1
  O  O38  1  0.347969  0.056587  0.700184  1
  O  O39  1  0.652031  0.443413  0.200184  1
  O  O40  1  0.011072  0.131142  0.363491  1
  O  O41  1  0.988928  0.368858  0.863491  1
  O  O42  1  0.988928  0.868858  0.636509  1
  O  O43  1  0.011072  0.631142  0.136509  1
  O  O44  1  0.051392  0.882556  0.336929  1
  O  O45  1  0.369742  0.828489  0.446077  1
  O  O46  1  0.948608  0.617444  0.836929  1
  O  O47  1  0.051392  0.382557  0.163071  1
  O  O48  1  0.729394  0.714155  0.460788  1
  O  O49  1  0.270606  0.785845  0.960788  1
  O  O50  1  0.270606  0.285845  0.539212  1
  O  O51  1  0.729394  0.214155  0.039212  1
  O  O52  1  0.782698  0.955183  0.475038  1
  O  O53  1  0.217302  0.544817  0.975038  1
  O  O54  1  0.217302  0.044817  0.524962  1
  O  O55  1  0.782698  0.455183  0.024962  1
  O  O56  1  0.472630  0.202465  0.895042  1
  O  O57  1  0.527370  0.297535  0.395042  1
  O  O58  1  0.527370  0.797535  0.104958  1
  O  O59  1  0.472630  0.702465  0.604958  1
  O  O60  1  0.692334  0.221252  0.743385  1
  O  O61  1  0.307666  0.278748  0.243385  1
  O  O62  1  0.307666  0.778748  0.256615  1
  O  O63  1  0.692334  0.721252  0.756615  1
  O  O64  1  0.651644  0.452501  0.732708  1
  O  O65  1  0.348356  0.047499  0.232708  1
  O  O66  1  0.348356  0.547499  0.267292  1
  O  O67  1  0.651644  0.952501  0.767292  1
  O  O68  1  0.287080  0.285626  0.743453  1
  O  O69  1  0.712920  0.214374  0.243453  1
  O  O70  1  0.712920  0.714374  0.256547  1
  O  O71  1  0.287080  0.785626  0.756547  1
  O  O72  1  0.579073  0.415272  0.889522  1
  O  O73  1  0.420927  0.084728  0.389522  1
  O  O74  1  0.420927  0.584728  0.110478  1
  O  O75  1  0.579073  0.915272  0.610478  1
  O  O76  1  0.369742  0.328489  0.053923  1
  O  O77  1  0.630258  0.171511  0.553923  1
  O  O78  1  0.630258  0.671511  0.946077  1
  O  O79  1  0.948608  0.117444  0.663071  1
