# generated using pymatgen
data_Ca2MnWO6
_symmetry_space_group_name_H-M   'P 1'
_cell_length_a   5.70403951
_cell_length_b   5.72371508
_cell_length_c   8.01676716
_cell_angle_alpha   88.94921308
_cell_angle_beta   135.33938578
_cell_angle_gamma   120.91176443
_symmetry_Int_Tables_number   1
_chemical_formula_structural   Ca2MnWO6
_chemical_formula_sum   'Ca2 Mn1 W1 O6'
_cell_volume   129.08456957
_cell_formula_units_Z   1
loop_
 _symmetry_equiv_pos_site_id
 _symmetry_equiv_pos_as_xyz
  1  'x, y, z'
loop_
 _atom_site_type_symbol
 _atom_site_label
 _atom_site_symmetry_multiplicity
 _atom_site_fract_x
 _atom_site_fract_y
 _atom_site_fract_z
 _atom_site_occupancy
  Ca  Ca0  1  0.995195  0.531086  0.275175  1
  Ca  Ca1  1  0.004964  0.534094  0.774955  1
  Mn  Mn2  1  0.997439  0.992437  0.505136  1
  W  W3  1  0.996348  0.978711  0.997089  1
  O  O4  1  0.188929  0.063592  0.325072  1
  O  O5  1  0.796073  0.846532  0.660268  1
  O  O6  1  0.390904  0.442869  0.136203  1
  O  O7  1  0.429973  0.879926  0.749630  1
  O  O8  1  0.539259  0.045425  0.206643  1
  O  O9  1  0.634024  0.505539  0.858907  1
