# generated using pymatgen
data_CaMn5O7
_symmetry_space_group_name_H-M   'P 1'
_cell_length_a   3.16126955
_cell_length_b   5.44574831
_cell_length_c   18.34429314
_cell_angle_alpha   90.00000000
_cell_angle_beta   90.00000000
_cell_angle_gamma   106.87299327
_symmetry_Int_Tables_number   1
_chemical_formula_structural   CaMn5O7
_chemical_formula_sum   'Ca2 Mn10 O14'
_cell_volume   302.21050039
_cell_formula_units_Z   2
loop_
 _symmetry_equiv_pos_site_id
 _symmetry_equiv_pos_as_xyz
  1  'x, y, z'
loop_
 _atom_site_type_symbol
 _atom_site_label
 _atom_site_symmetry_multiplicity
 _atom_site_fract_x
 _atom_site_fract_y
 _atom_site_fract_z
 _atom_site_occupancy
  Ca  Ca0  1  0.798120  0.596238  0.750000  1
  Ca  Ca1  1  0.201881  0.403761  0.250000  1
  Mn  Mn2  1  0.276097  0.552192  0.574142  1
  Mn  Mn3  1  0.458452  0.916903  0.153405  1
  Mn  Mn4  1  -0.000000  -0.000000  0.500000  1
  Mn  Mn5  1  -0.000000  -0.000000  0.000000  1
  Mn  Mn6  1  0.541548  0.083096  0.846596  1
  Mn  Mn7  1  0.723903  0.447807  0.425858  1
  Mn  Mn8  1  0.723903  0.447807  0.074142  1
  Mn  Mn9  1  0.276097  0.552192  0.925858  1
  Mn  Mn10  1  0.541548  0.083096  0.653404  1
  Mn  Mn11  1  0.458452  0.916903  0.346596  1
  O  O12  1  0.644795  0.289590  0.970969  1
  O  O13  1  0.355206  0.710411  0.029031  1
  O  O14  1  0.355206  0.710411  0.470969  1
  O  O15  1  0.644795  0.289590  0.529031  1
  O  O16  1  0.181807  0.363616  0.834415  1
  O  O17  1  0.818193  0.636384  0.165585  1
  O  O18  1  0.818193  0.636384  0.334416  1
  O  O19  1  0.181807  0.363616  0.665585  1
  O  O20  1  0.910243  0.820484  0.895936  1
  O  O21  1  0.089757  0.179516  0.104064  1
  O  O22  1  0.089757  0.179516  0.395936  1
  O  O23  1  0.910243  0.820484  0.604064  1
  O  O24  1  0.452448  0.904896  0.750000  1
  O  O25  1  0.547553  0.095106  0.250000  1
