# generated using pymatgen
data_Zn(CoS2)4
_symmetry_space_group_name_H-M   'P 1'
_cell_length_a   7.04434000
_cell_length_b   7.04433976
_cell_length_c   7.04434085
_cell_angle_alpha   55.90503474
_cell_angle_beta   55.90502952
_cell_angle_gamma   55.90503569
_symmetry_Int_Tables_number   1
_chemical_formula_structural   Zn(CoS2)4
_chemical_formula_sum   'Zn1 Co4 S8'
_cell_volume   223.71663289
_cell_formula_units_Z   1
loop_
 _symmetry_equiv_pos_site_id
 _symmetry_equiv_pos_as_xyz
  1  'x, y, z'
loop_
 _atom_site_type_symbol
 _atom_site_label
 _atom_site_symmetry_multiplicity
 _atom_site_fract_x
 _atom_site_fract_y
 _atom_site_fract_z
 _atom_site_occupancy
  Zn  Zn0  1  0.500000  0.500001  0.499999  1
  Co  Co1  1  0.500001  0.999999  0.500001  1
  Co  Co2  1  0.999999  0.500000  0.500001  1
  Co  Co3  1  0.500000  0.500000  0.000000  1
  Co  Co4  1  0.000000  0.000000  0.000000  1
  S  S5  1  0.761439  0.272555  0.761439  1
  S  S6  1  0.238560  0.238561  0.727445  1
  S  S7  1  0.238560  0.727446  0.238560  1
  S  S8  1  0.727444  0.238561  0.238561  1
  S  S9  1  0.264667  0.264668  0.264667  1
  S  S10  1  0.735333  0.735333  0.735333  1
  S  S11  1  0.272556  0.761440  0.761439  1
  S  S12  1  0.761440  0.761440  0.272555  1
