# generated using pymatgen
data_TaZnBiO5
_symmetry_space_group_name_H-M   'P 1'
_cell_length_a   5.41083084
_cell_length_b   8.06905466
_cell_length_c   12.12848970
_cell_angle_alpha   90.00000000
_cell_angle_beta   90.00000000
_cell_angle_gamma   106.31151965
_symmetry_Int_Tables_number   1
_chemical_formula_structural   TaZnBiO5
_chemical_formula_sum   'Ta4 Zn4 Bi4 O20'
_cell_volume   508.21904413
_cell_formula_units_Z   4
loop_
 _symmetry_equiv_pos_site_id
 _symmetry_equiv_pos_as_xyz
  1  'x, y, z'
loop_
 _atom_site_type_symbol
 _atom_site_label
 _atom_site_symmetry_multiplicity
 _atom_site_fract_x
 _atom_site_fract_y
 _atom_site_fract_z
 _atom_site_occupancy
  Ta  Ta0  1  0.786926  0.965998  0.644763  1
  Ta  Ta1  1  0.213074  0.034002  0.355237  1
  Ta  Ta2  1  0.713074  0.534002  0.144763  1
  Ta  Ta3  1  0.286926  0.465998  0.855237  1
  Zn  Zn4  1  0.620815  0.166520  0.918884  1
  Zn  Zn5  1  0.379185  0.833480  0.081116  1
  Zn  Zn6  1  0.879185  0.333480  0.418884  1
  Zn  Zn7  1  0.120815  0.666520  0.581116  1
  Bi  Bi8  1  0.114388  0.167630  0.092506  1
  Bi  Bi9  1  0.885612  0.832370  0.907494  1
  Bi  Bi10  1  0.614388  0.667630  0.407494  1
  Bi  Bi11  1  0.385612  0.332370  0.592506  1
  O  O12  1  0.548551  0.329042  0.069567  1
  O  O13  1  0.020173  0.318906  0.940130  1
  O  O14  1  0.476362  0.652313  0.174547  1
  O  O15  1  0.757518  0.515092  0.525014  1
  O  O16  1  0.802767  0.486751  0.288653  1
  O  O17  1  0.302767  0.986751  0.211347  1
  O  O18  1  0.520173  0.818906  0.559870  1
  O  O19  1  0.479827  0.181094  0.440130  1
  O  O20  1  0.242482  0.484908  0.474986  1
  O  O21  1  0.951449  0.170958  0.569567  1
  O  O22  1  0.197233  0.513249  0.711347  1
  O  O23  1  0.451449  0.670958  0.930433  1
  O  O24  1  0.048551  0.829042  0.430433  1
  O  O25  1  0.697233  0.013249  0.788653  1
  O  O26  1  0.742482  0.984908  0.025013  1
  O  O27  1  0.257518  0.015092  0.974986  1
  O  O28  1  0.523638  0.347687  0.825453  1
  O  O29  1  0.979827  0.681094  0.059870  1
  O  O30  1  0.023638  0.847687  0.674547  1
  O  O31  1  0.976362  0.152313  0.325453  1
