# generated using pymatgen
data_Ca(CoO2)2
_symmetry_space_group_name_H-M   'P 1'
_cell_length_a   3.11677659
_cell_length_b   5.18801523
_cell_length_c   9.78481355
_cell_angle_alpha   90.00000000
_cell_angle_beta   90.00000000
_cell_angle_gamma   107.48057049
_symmetry_Int_Tables_number   1
_chemical_formula_structural   Ca(CoO2)2
_chemical_formula_sum   'Ca2 Co4 O8'
_cell_volume   150.91255746
_cell_formula_units_Z   2
loop_
 _symmetry_equiv_pos_site_id
 _symmetry_equiv_pos_as_xyz
  1  'x, y, z'
loop_
 _atom_site_type_symbol
 _atom_site_label
 _atom_site_symmetry_multiplicity
 _atom_site_fract_x
 _atom_site_fract_y
 _atom_site_fract_z
 _atom_site_occupancy
  Ca  Ca0  1  0.392518  0.785037  0.750000  1
  Ca  Ca1  1  0.607482  0.214963  0.250000  1
  Co  Co2  1  0.864554  0.729109  0.067256  1
  Co  Co3  1  0.135446  0.270891  0.932744  1
  Co  Co4  1  0.864554  0.729109  0.432744  1
  Co  Co5  1  0.135446  0.270891  0.567256  1
  O  O6  1  0.227382  0.454766  0.392985  1
  O  O7  1  0.772618  0.545234  0.607015  1
  O  O8  1  0.772618  0.545234  0.892985  1
  O  O9  1  0.227382  0.454766  0.107015  1
  O  O10  1  0.932396  0.864793  0.250000  1
  O  O11  1  0.067604  0.135207  0.750000  1
  O  O12  1  0.500000  -0.000000  -0.000000  1
  O  O13  1  0.500000  -0.000000  0.500000  1
