# generated using pymatgen
data_YCo3F15
_symmetry_space_group_name_H-M   'P 1'
_cell_length_a   9.45139157
_cell_length_b   5.75781613
_cell_length_c   11.50120246
_cell_angle_alpha   90.00000000
_cell_angle_beta   90.00000000
_cell_angle_gamma   108.36677205
_symmetry_Int_Tables_number   1
_chemical_formula_structural   YCo3F15
_chemical_formula_sum   'Y2 Co6 F30'
_cell_volume   594.00481677
_cell_formula_units_Z   2
loop_
 _symmetry_equiv_pos_site_id
 _symmetry_equiv_pos_as_xyz
  1  'x, y, z'
loop_
 _atom_site_type_symbol
 _atom_site_label
 _atom_site_symmetry_multiplicity
 _atom_site_fract_x
 _atom_site_fract_y
 _atom_site_fract_z
 _atom_site_occupancy
  Y  Y0  1  0.909228  0.527314  0.250000  1
  Y  Y1  1  0.424105  0.472686  0.750000  1
  Co  Co2  1  0.166667  -0.000000  0.500000  1
  Co  Co3  1  0.514145  0.027653  0.511334  1
  Co  Co4  1  0.819188  0.972347  0.488666  1
  Co  Co5  1  0.166667  -0.000000  -0.000000  1
  Co  Co6  1  0.514145  0.027653  0.988666  1
  Co  Co7  1  0.819188  0.972347  0.011334  1
  F  F8  1  0.211230  0.580935  0.250000  1
  F  F9  1  0.366696  0.608981  0.250000  1
  F  F10  1  0.713607  0.584747  0.250000  1
  F  F11  1  0.122103  0.419065  0.750000  1
  F  F12  1  0.619727  0.415253  0.750000  1
  F  F13  1  0.966637  0.391019  0.750000  1
  F  F14  1  0.024236  0.112261  0.567767  1
  F  F15  1  0.338428  0.182701  0.613524  1
  F  F16  1  0.713379  0.127136  0.588232  1
  F  F17  1  0.309099  0.887739  0.432233  1
  F  F18  1  0.619954  0.872864  0.411768  1
  F  F19  1  0.994905  0.817299  0.386476  1
  F  F20  1  0.118201  0.750930  0.909382  1
  F  F21  1  0.443721  0.767425  0.880406  1
  F  F22  1  0.787869  0.697902  0.936623  1
  F  F23  1  0.215133  0.249070  0.090618  1
  F  F24  1  0.545464  0.302098  0.063377  1
  F  F25  1  0.889612  0.232575  0.119594  1
  F  F26  1  0.215133  0.249070  0.409382  1
  F  F27  1  0.545464  0.302098  0.436623  1
  F  F28  1  0.889612  0.232575  0.380406  1
  F  F29  1  0.118201  0.750930  0.590618  1
  F  F30  1  0.443721  0.767425  0.619594  1
  F  F31  1  0.787869  0.697902  0.563377  1
  F  F32  1  0.024236  0.112261  0.932233  1
  F  F33  1  0.338428  0.182701  0.886476  1
  F  F34  1  0.713379  0.127136  0.911768  1
  F  F35  1  0.309099  0.887739  0.067767  1
  F  F36  1  0.619954  0.872864  0.088232  1
  F  F37  1  0.994905  0.817299  0.113524  1
