# generated using pymatgen
data_Ca3Ta6(FeO6)4
_symmetry_space_group_name_H-M   'P 1'
_cell_length_a   7.02682230
_cell_length_b   8.68606152
_cell_length_c   10.64760446
_cell_angle_alpha   107.41974239
_cell_angle_beta   103.48660544
_cell_angle_gamma   107.24554072
_symmetry_Int_Tables_number   1
_chemical_formula_structural   Ca3Ta6(FeO6)4
_chemical_formula_sum   'Ca3 Ta6 Fe4 O24'
_cell_volume   554.00075857
_cell_formula_units_Z   1
loop_
 _symmetry_equiv_pos_site_id
 _symmetry_equiv_pos_as_xyz
  1  'x, y, z'
loop_
 _atom_site_type_symbol
 _atom_site_label
 _atom_site_symmetry_multiplicity
 _atom_site_fract_x
 _atom_site_fract_y
 _atom_site_fract_z
 _atom_site_occupancy
  Ca  Ca0  1  -0.000000  0.500000  0.500000  1
  Ca  Ca1  1  0.315654  0.310036  0.809174  1
  Ca  Ca2  1  0.684346  0.689964  0.190826  1
  Ta  Ta3  1  0.822126  0.341560  0.743036  1
  Ta  Ta4  1  0.177874  0.658440  0.256964  1
  Ta  Ta5  1  0.876993  0.906155  0.668236  1
  Ta  Ta6  1  0.398302  0.755648  0.869017  1
  Ta  Ta7  1  0.123007  0.093845  0.331764  1
  Ta  Ta8  1  0.601698  0.244352  0.130983  1
  Fe  Fe9  1  0.374773  0.957408  0.600113  1
  Fe  Fe10  1  0.625227  0.042592  0.399887  1
  Fe  Fe11  1  0.034735  0.192772  0.015012  1
  Fe  Fe12  1  0.965265  0.807228  0.984988  1
  O  O13  1  0.825496  0.679513  0.574832  1
  O  O14  1  0.174504  0.320487  0.425168  1
  O  O15  1  0.207590  0.521672  0.759212  1
  O  O16  1  0.792410  0.478328  0.240788  1
  O  O17  1  0.797659  0.285271  0.553071  1
  O  O18  1  0.202341  0.714729  0.446929  1
  O  O19  1  0.657448  0.962385  0.569146  1
  O  O20  1  0.342552  0.037615  0.430854  1
  O  O21  1  0.639256  0.739138  0.982267  1
  O  O22  1  0.360744  0.260862  0.017733  1
  O  O23  1  0.452841  0.783451  0.268953  1
  O  O24  1  0.547159  0.216549  0.731047  1
  O  O25  1  0.135489  0.020088  0.649401  1
  O  O26  1  0.079960  0.064240  0.139697  1
  O  O27  1  0.920040  0.935760  0.860303  1
  O  O28  1  0.577551  0.147577  0.263688  1
  O  O29  1  0.422449  0.852423  0.736312  1
  O  O30  1  0.142884  0.434216  0.151524  1
  O  O31  1  0.857116  0.565784  0.848476  1
  O  O32  1  0.988297  0.244127  0.836883  1
  O  O33  1  0.011703  0.755873  0.163117  1
  O  O34  1  0.258416  0.847928  0.978934  1
  O  O35  1  0.741584  0.152072  0.021066  1
  O  O36  1  0.864511  0.979912  0.350599  1
