# generated using pymatgen
data_V2Zn(PO4)2
_symmetry_space_group_name_H-M   'P 1'
_cell_length_a   4.79096976
_cell_length_b   8.61143031
_cell_length_c   15.78146480
_cell_angle_alpha   86.43755265
_cell_angle_beta   81.25905091
_cell_angle_gamma   73.92670361
_symmetry_Int_Tables_number   1
_chemical_formula_structural   V2Zn(PO4)2
_chemical_formula_sum   'V8 Zn4 P8 O32'
_cell_volume   618.24048838
_cell_formula_units_Z   4
loop_
 _symmetry_equiv_pos_site_id
 _symmetry_equiv_pos_as_xyz
  1  'x, y, z'
loop_
 _atom_site_type_symbol
 _atom_site_label
 _atom_site_symmetry_multiplicity
 _atom_site_fract_x
 _atom_site_fract_y
 _atom_site_fract_z
 _atom_site_occupancy
  V  V0  1  0.190522  0.216471  0.965861  1
  V  V1  1  0.373821  0.283265  0.534351  1
  V  V2  1  0.811017  0.783183  0.034090  1
  V  V3  1  0.498519  0.501424  0.000768  1
  V  V4  1  0.628937  0.715832  0.466273  1
  V  V5  1  0.675029  0.750566  0.249589  1
  V  V6  1  0.325399  0.250189  0.750065  1
  V  V7  1  0.001007  0.998512  0.499793  1
  Zn  Zn8  1  0.485846  0.830267  0.838400  1
  Zn  Zn9  1  0.154760  0.671058  0.662101  1
  Zn  Zn10  1  0.848774  0.329619  0.339444  1
  Zn  Zn11  1  0.514687  0.170050  0.161748  1
  P  P12  1  0.065784  0.574523  0.866170  1
  P  P13  1  0.765530  0.424009  0.619784  1
  P  P14  1  0.935374  0.425103  0.134485  1
  P  P15  1  0.192846  0.923853  0.119803  1
  P  P16  1  0.495599  0.073563  0.365972  1
  P  P17  1  0.505003  0.925483  0.634351  1
  P  P18  1  0.238392  0.575956  0.380885  1
  P  P19  1  0.807388  0.075529  0.880289  1
  O  O20  1  0.676326  0.364644  0.112565  1
  O  O21  1  0.725343  0.919901  0.919287  1
  O  O22  1  0.846256  0.865887  0.612905  1
  O  O23  1  0.837585  0.283413  0.553946  1
  O  O24  1  0.176320  0.390571  0.054678  1
  O  O25  1  0.605572  0.393359  0.707190  1
  O  O26  1  0.673495  0.216494  0.945846  1
  O  O27  1  0.849597  0.949531  0.128996  1
  O  O28  1  0.164558  0.718242  0.445881  1
  O  O29  1  0.565965  0.579541  0.581367  1
  O  O30  1  0.845060  0.611432  0.141353  1
  O  O31  1  0.608589  0.161532  0.285230  1
  O  O32  1  0.275144  0.079006  0.080642  1
  O  O33  1  0.073444  0.450877  0.628649  1
  O  O34  1  0.323299  0.636298  0.888122  1
  O  O35  1  0.158693  0.388256  0.858926  1
  O  O36  1  0.944334  0.661965  0.785500  1
  O  O37  1  0.327470  0.782251  0.054489  1
  O  O38  1  0.400338  0.111679  0.641577  1
  O  O39  1  0.391931  0.836800  0.714928  1
  O  O40  1  0.931333  0.548201  0.372426  1
  O  O41  1  0.379417  0.890340  0.554494  1
  O  O42  1  0.150576  0.049720  0.871059  1
  O  O43  1  0.296194  0.895092  0.207206  1
  O  O44  1  0.438385  0.421717  0.420286  1
  O  O45  1  0.154407  0.134124  0.387891  1
  O  O46  1  0.055682  0.337227  0.215219  1
  O  O47  1  0.622163  0.108708  0.445650  1
  O  O48  1  0.825296  0.608176  0.946051  1
  O  O49  1  0.702968  0.104309  0.793036  1
  O  O50  1  0.399904  0.604790  0.293378  1
  O  O51  1  0.597534  0.887263  0.358961  1
