# generated using pymatgen
data_Mg(NiO2)2
_symmetry_space_group_name_H-M   'P 1'
_cell_length_a   5.86804721
_cell_length_b   5.87595620
_cell_length_c   5.87595605
_cell_angle_alpha   59.99999865
_cell_angle_beta   59.95540559
_cell_angle_gamma   59.95540948
_symmetry_Int_Tables_number   1
_chemical_formula_structural   Mg(NiO2)2
_chemical_formula_sum   'Mg2 Ni4 O8'
_cell_volume   143.16690464
_cell_formula_units_Z   2
loop_
 _symmetry_equiv_pos_site_id
 _symmetry_equiv_pos_as_xyz
  1  'x, y, z'
loop_
 _atom_site_type_symbol
 _atom_site_label
 _atom_site_symmetry_multiplicity
 _atom_site_fract_x
 _atom_site_fract_y
 _atom_site_fract_z
 _atom_site_occupancy
  Mg  Mg0  1  0.973774  0.008742  0.008742  1
  Mg  Mg1  1  0.124025  0.625325  0.625325  1
  Ni  Ni2  1  0.269661  0.243447  0.243447  1
  Ni  Ni3  1  0.623443  0.117228  0.629664  1
  Ni  Ni4  1  0.623443  0.629664  0.117228  1
  Ni  Ni5  1  0.623443  0.629664  0.629664  1
  O  O6  1  0.405946  0.375340  0.375340  1
  O  O7  1  0.405946  0.375340  0.843374  1
  O  O8  1  0.405946  0.843374  0.375340  1
  O  O9  1  0.888580  0.370473  0.370473  1
  O  O10  1  0.379113  0.873628  0.873628  1
  O  O11  1  0.842226  0.419321  0.869226  1
  O  O12  1  0.842226  0.869226  0.419321  1
  O  O13  1  0.842226  0.869226  0.869226  1
