# generated using pymatgen
data_Mg2TeWO6
_symmetry_space_group_name_H-M   'P 1'
_cell_length_a   5.09139420
_cell_length_b   5.31206587
_cell_length_c   9.40487409
_cell_angle_alpha   90.00000000
_cell_angle_beta   85.32430569
_cell_angle_gamma   90.00000000
_symmetry_Int_Tables_number   1
_chemical_formula_structural   Mg2TeWO6
_chemical_formula_sum   'Mg4 Te2 W2 O12'
_cell_volume   253.51604048
_cell_formula_units_Z   2
loop_
 _symmetry_equiv_pos_site_id
 _symmetry_equiv_pos_as_xyz
  1  'x, y, z'
loop_
 _atom_site_type_symbol
 _atom_site_label
 _atom_site_symmetry_multiplicity
 _atom_site_fract_x
 _atom_site_fract_y
 _atom_site_fract_z
 _atom_site_occupancy
  Mg  Mg0  1  0.020047  0.025190  0.251675  1
  Mg  Mg1  1  0.479953  0.525191  0.248325  1
  Mg  Mg2  1  0.979954  0.974811  0.748325  1
  Mg  Mg3  1  0.520046  0.474810  0.751675  1
  Te  Te4  1  0.500000  0.000000  0.000000  1
  Te  Te5  1  0.000001  0.499999  0.500000  1
  W  W6  1  0.500000  0.000000  0.499999  1
  W  W7  1  0.000000  0.499999  0.000000  1
  O  O8  1  0.650276  0.301585  0.394495  1
  O  O9  1  0.849724  0.801586  0.105505  1
  O  O10  1  0.349723  0.698415  0.605505  1
  O  O11  1  0.150277  0.198414  0.894495  1
  O  O12  1  0.174643  0.161265  0.573589  1
  O  O13  1  0.325357  0.661264  0.926411  1
  O  O14  1  0.825358  0.838735  0.426411  1
  O  O15  1  0.674642  0.338736  0.073589  1
  O  O16  1  0.150544  0.376276  0.168602  1
  O  O17  1  0.349457  0.876277  0.331397  1
  O  O18  1  0.650544  0.123723  0.668603  1
  O  O19  1  0.849457  0.623724  0.831398  1
