# generated using pymatgen
data_MnZnO2
_symmetry_space_group_name_H-M   'P 1'
_cell_length_a   3.14040164
_cell_length_b   8.20797124
_cell_length_c   8.27042554
_cell_angle_alpha   72.57020675
_cell_angle_beta   88.69607501
_cell_angle_gamma   81.20257656
_symmetry_Int_Tables_number   1
_chemical_formula_structural   MnZnO2
_chemical_formula_sum   'Mn4 Zn4 O8'
_cell_volume   200.93994234
_cell_formula_units_Z   4
loop_
 _symmetry_equiv_pos_site_id
 _symmetry_equiv_pos_as_xyz
  1  'x, y, z'
loop_
 _atom_site_type_symbol
 _atom_site_label
 _atom_site_symmetry_multiplicity
 _atom_site_fract_x
 _atom_site_fract_y
 _atom_site_fract_z
 _atom_site_occupancy
  Mn  Mn0  1  0.740362  0.089805  0.544587  1
  Mn  Mn1  1  0.105438  0.467022  0.225630  1
  Mn  Mn2  1  0.739611  0.515225  0.873373  1
  Mn  Mn3  1  0.348759  0.764421  0.469087  1
  Zn  Zn4  1  0.807289  0.100826  0.157600  1
  Zn  Zn5  1  0.439146  0.834722  0.950712  1
  Zn  Zn6  1  0.321718  0.202353  0.800986  1
  Zn  Zn7  1  0.780710  0.415921  0.562284  1
  O  O8  1  0.883425  0.622133  0.632071  1
  O  O9  1  0.339748  0.044251  0.032175  1
  O  O10  1  0.482443  0.568544  0.341726  1
  O  O11  1  0.150765  0.262667  0.432287  1
  O  O12  1  0.293921  0.989645  0.709474  1
  O  O13  1  0.718758  0.357575  0.110821  1
  O  O14  1  0.799494  0.935064  0.385913  1
  O  O15  1  0.016689  0.669162  0.996892  1
