# generated using pymatgen
data_Ti2ZnCoO7
_symmetry_space_group_name_H-M   'P 1'
_cell_length_a   6.63847550
_cell_length_b   11.84286083
_cell_length_c   14.20539780
_cell_angle_alpha   90.00000000
_cell_angle_beta   90.00000000
_cell_angle_gamma   105.48242732
_symmetry_Int_Tables_number   1
_chemical_formula_structural   Ti2ZnCoO7
_chemical_formula_sum   'Ti16 Zn8 Co8 O56'
_cell_volume   1076.28135289
_cell_formula_units_Z   8
loop_
 _symmetry_equiv_pos_site_id
 _symmetry_equiv_pos_as_xyz
  1  'x, y, z'
loop_
 _atom_site_type_symbol
 _atom_site_label
 _atom_site_symmetry_multiplicity
 _atom_site_fract_x
 _atom_site_fract_y
 _atom_site_fract_z
 _atom_site_occupancy
  Ti  Ti0  1  0.845682  0.990313  0.885401  1
  Ti  Ti1  1  0.429637  0.683985  0.012640  1
  Ti  Ti2  1  0.429637  0.183985  0.487360  1
  Ti  Ti3  1  0.570363  0.316015  0.987360  1
  Ti  Ti4  1  0.512709  0.803279  0.711709  1
  Ti  Ti5  1  0.487291  0.696721  0.211709  1
  Ti  Ti6  1  0.487291  0.196721  0.288291  1
  Ti  Ti7  1  0.512709  0.303279  0.788291  1
  Ti  Ti8  1  0.570363  0.816015  0.512640  1
  Ti  Ti9  1  0.872778  0.473822  0.147690  1
  Ti  Ti10  1  0.127222  0.026178  0.647690  1
  Ti  Ti11  1  0.127222  0.526178  0.852310  1
  Ti  Ti12  1  0.154318  0.509687  0.385401  1
  Ti  Ti13  1  0.845682  0.490313  0.614599  1
  Ti  Ti14  1  0.154318  0.009687  0.114599  1
  Ti  Ti15  1  0.872778  0.973822  0.352310  1
  Zn  Zn16  1  0.040122  0.763908  0.514937  1
  Zn  Zn17  1  0.309199  0.921505  0.890233  1
  Zn  Zn18  1  0.690801  0.578495  0.390233  1
  Zn  Zn19  1  0.690801  0.078495  0.109767  1
  Zn  Zn20  1  0.309199  0.421505  0.609767  1
  Zn  Zn21  1  0.040122  0.263908  0.985063  1
  Zn  Zn22  1  0.959878  0.236092  0.485063  1
  Zn  Zn23  1  0.959878  0.736092  0.014937  1
  Co  Co24  1  0.638648  0.084023  0.667955  1
  Co  Co25  1  0.361352  0.415977  0.167955  1
  Co  Co26  1  0.361352  0.915977  0.332045  1
  Co  Co27  1  0.638648  0.584023  0.832045  1
  Co  Co28  1  0.991239  0.255244  0.765656  1
  Co  Co29  1  0.008761  0.244756  0.265656  1
  Co  Co30  1  0.008761  0.744756  0.234344  1
  Co  Co31  1  0.991239  0.755244  0.734344  1
  O  O32  1  0.778725  0.985818  0.006074  1
  O  O33  1  0.221275  0.514182  0.506074  1
  O  O34  1  0.221275  0.014182  0.993926  1
  O  O35  1  0.778725  0.485818  0.493926  1
  O  O36  1  0.013962  0.895835  0.835673  1
  O  O37  1  0.986038  0.604165  0.335673  1
  O  O38  1  0.986038  0.104165  0.164327  1
  O  O39  1  0.013962  0.395835  0.664327  1
  O  O40  1  0.983864  0.152842  0.868771  1
  O  O41  1  0.016136  0.347158  0.368771  1
  O  O42  1  0.016136  0.847158  0.131229  1
  O  O43  1  0.983864  0.652842  0.631229  1
  O  O44  1  0.625973  0.924787  0.289961  1
  O  O45  1  0.374027  0.575213  0.789961  1
  O  O46  1  0.374027  0.075213  0.710039  1
  O  O47  1  0.625973  0.424787  0.210039  1
  O  O48  1  0.981965  0.135899  0.360699  1
  O  O49  1  0.018035  0.364101  0.860699  1
  O  O50  1  0.018035  0.864101  0.639301  1
  O  O51  1  0.981965  0.635899  0.139301  1
  O  O52  1  0.069712  0.890218  0.315165  1
  O  O53  1  0.323767  0.818757  0.451511  1
  O  O54  1  0.930288  0.609782  0.815165  1
  O  O55  1  0.069712  0.390218  0.184835  1
  O  O56  1  0.746076  0.729494  0.466486  1
  O  O57  1  0.253924  0.770506  0.966486  1
  O  O58  1  0.253924  0.270506  0.533514  1
  O  O59  1  0.746076  0.229494  0.033514  1
  O  O60  1  0.789058  0.953040  0.469977  1
  O  O61  1  0.210942  0.546960  0.969977  1
  O  O62  1  0.210942  0.046960  0.530023  1
  O  O63  1  0.789058  0.453040  0.030023  1
  O  O64  1  0.450304  0.210967  0.890831  1
  O  O65  1  0.549696  0.289033  0.390831  1
  O  O66  1  0.549696  0.789033  0.109169  1
  O  O67  1  0.450304  0.710967  0.609169  1
  O  O68  1  0.719343  0.233495  0.746437  1
  O  O69  1  0.280657  0.266505  0.246437  1
  O  O70  1  0.280657  0.766505  0.253563  1
  O  O71  1  0.719343  0.733495  0.753563  1
  O  O72  1  0.592135  0.442588  0.677870  1
  O  O73  1  0.407865  0.057412  0.177870  1
  O  O74  1  0.407865  0.557412  0.322130  1
  O  O75  1  0.592135  0.942588  0.822130  1
  O  O76  1  0.250872  0.282529  0.734162  1
  O  O77  1  0.749128  0.217471  0.234162  1
  O  O78  1  0.749128  0.717471  0.265838  1
  O  O79  1  0.250872  0.782529  0.765838  1
  O  O80  1  0.590804  0.423947  0.875046  1
  O  O81  1  0.409196  0.076053  0.375046  1
  O  O82  1  0.409196  0.576053  0.124954  1
  O  O83  1  0.590804  0.923947  0.624954  1
  O  O84  1  0.323767  0.318757  0.048489  1
  O  O85  1  0.676233  0.181243  0.548489  1
  O  O86  1  0.676233  0.681243  0.951511  1
  O  O87  1  0.930288  0.109782  0.684835  1
