# generated using pymatgen
data_Be3Si3(AgO6)2
_symmetry_space_group_name_H-M   'P 1'
_cell_length_a   7.85135053
_cell_length_b   8.22750984
_cell_length_c   14.48983129
_cell_angle_alpha   89.24826445
_cell_angle_beta   89.99703846
_cell_angle_gamma   90.00747297
_symmetry_Int_Tables_number   1
_chemical_formula_structural   Be3Si3(AgO6)2
_chemical_formula_sum   'Be12 Si12 Ag8 O48'
_cell_volume   935.91998518
_cell_formula_units_Z   4
loop_
 _symmetry_equiv_pos_site_id
 _symmetry_equiv_pos_as_xyz
  1  'x, y, z'
loop_
 _atom_site_type_symbol
 _atom_site_label
 _atom_site_symmetry_multiplicity
 _atom_site_fract_x
 _atom_site_fract_y
 _atom_site_fract_z
 _atom_site_occupancy
  Be  Be0  1  0.834045  0.928226  0.762119  1
  Be  Be1  1  0.663292  0.933274  0.401518  1
  Be  Be2  1  0.163221  0.566775  0.098485  1
  Be  Be3  1  0.336786  0.066739  0.598508  1
  Be  Be4  1  0.836830  0.433197  0.901499  1
  Be  Be5  1  0.165337  0.605989  0.418398  1
  Be  Be6  1  0.665316  0.893903  0.081579  1
  Be  Be7  1  0.834712  0.394014  0.581461  1
  Be  Be8  1  0.334722  0.106103  0.918525  1
  Be  Be9  1  0.665897  0.428195  0.262075  1
  Be  Be10  1  0.166028  0.071831  0.237912  1
  Be  Be11  1  0.334144  0.571750  0.737917  1
  Si  Si12  1  0.212401  0.918852  0.770265  1
  Si  Si13  1  0.712424  0.581127  0.729758  1
  Si  Si14  1  0.787664  0.081152  0.229784  1
  Si  Si15  1  0.287657  0.418915  0.270156  1
  Si  Si16  1  0.723111  0.112896  0.917862  1
  Si  Si17  1  0.223100  0.387124  0.582162  1
  Si  Si18  1  0.276855  0.887109  0.082078  1
  Si  Si19  1  0.776914  0.612898  0.417901  1
  Si  Si20  1  0.220124  0.437803  0.904501  1
  Si  Si21  1  0.720195  0.062184  0.595483  1
  Si  Si22  1  0.779904  0.562387  0.095573  1
  Si  Si23  1  0.279910  0.937608  0.404429  1
  Ag  Ag24  1  0.474261  0.251293  0.089208  1
  Ag  Ag25  1  0.025612  0.751451  0.589219  1
  Ag  Ag26  1  0.525580  0.748659  0.910781  1
  Ag  Ag27  1  0.974243  0.248561  0.410797  1
  Ag  Ag28  1  0.564305  0.254133  0.429181  1
  Ag  Ag29  1  0.064460  0.245942  0.070896  1
  Ag  Ag30  1  0.435343  0.745978  0.570925  1
  Ag  Ag31  1  0.935226  0.753972  0.929025  1
  O  O32  1  0.150184  0.740941  0.050694  1
  O  O33  1  0.019460  0.914521  0.815930  1
  O  O34  1  0.519491  0.585504  0.684141  1
  O  O35  1  0.980610  0.085331  0.184211  1
  O  O36  1  0.480575  0.414743  0.315721  1
  O  O37  1  0.527201  0.162114  0.947905  1
  O  O38  1  0.027164  0.337879  0.552104  1
  O  O39  1  0.472798  0.837662  0.052118  1
  O  O40  1  0.972857  0.662377  0.447862  1
  O  O41  1  0.027297  0.518158  0.888532  1
  O  O42  1  0.527342  0.981816  0.611425  1
  O  O43  1  0.972556  0.482035  0.111478  1
  O  O44  1  0.142236  0.051087  0.349366  1
  O  O45  1  0.642198  0.448906  0.150577  1
  O  O46  1  0.857924  0.948824  0.650620  1
  O  O47  1  0.357915  0.551184  0.849408  1
  O  O48  1  0.650230  0.759056  0.449254  1
  O  O49  1  0.472591  0.017945  0.388568  1
  O  O50  1  0.349675  0.240867  0.550781  1
  O  O51  1  0.849724  0.259098  0.949267  1
  O  O52  1  0.753406  0.066381  0.479687  1
  O  O53  1  0.652017  0.057884  0.144052  1
  O  O54  1  0.848145  0.557984  0.644041  1
  O  O55  1  0.348078  0.942076  0.855998  1
  O  O56  1  0.731762  0.443716  0.809128  1
  O  O57  1  0.231741  0.056196  0.690909  1
  O  O58  1  0.268245  0.556303  0.190774  1
  O  O59  1  0.768308  0.943746  0.309200  1
  O  O60  1  0.731669  0.069230  0.809891  1
  O  O61  1  0.231670  0.430782  0.690099  1
  O  O62  1  0.268350  0.930823  0.190026  1
  O  O63  1  0.768402  0.569157  0.309958  1
  O  O64  1  0.230184  0.250939  0.874026  1
  O  O65  1  0.730192  0.249034  0.625980  1
  O  O66  1  0.769705  0.749180  0.126226  1
  O  O67  1  0.269698  0.750785  0.373768  1
  O  O68  1  0.735236  0.755098  0.784384  1
  O  O69  1  0.235227  0.744868  0.715667  1
  O  O70  1  0.264774  0.244807  0.215675  1
  O  O71  1  0.764715  0.255186  0.284300  1
  O  O72  1  0.768272  0.942766  0.979524  1
  O  O73  1  0.268300  0.557208  0.520460  1
  O  O74  1  0.231743  0.057044  0.020430  1
  O  O75  1  0.731757  0.443056  0.479605  1
  O  O76  1  0.746861  0.566851  0.979728  1
  O  O77  1  0.246727  0.933152  0.520277  1
  O  O78  1  0.253204  0.433563  0.020341  1
  O  O79  1  0.151966  0.442093  0.355904  1
