# generated using pymatgen
data_ZnSnAs2O7
_symmetry_space_group_name_H-M   'P 1'
_cell_length_a   7.52950803
_cell_length_b   9.46821832
_cell_length_c   10.12187978
_cell_angle_alpha   90.00000000
_cell_angle_beta   120.38399431
_cell_angle_gamma   90.00000000
_symmetry_Int_Tables_number   1
_chemical_formula_structural   ZnSnAs2O7
_chemical_formula_sum   'Zn4 Sn4 As8 O28'
_cell_volume   622.49114993
_cell_formula_units_Z   4
loop_
 _symmetry_equiv_pos_site_id
 _symmetry_equiv_pos_as_xyz
  1  'x, y, z'
loop_
 _atom_site_type_symbol
 _atom_site_label
 _atom_site_symmetry_multiplicity
 _atom_site_fract_x
 _atom_site_fract_y
 _atom_site_fract_z
 _atom_site_occupancy
  Zn  Zn0  1  0.262211  0.945897  0.908688  1
  Zn  Zn1  1  0.737789  0.445897  0.591312  1
  Zn  Zn2  1  0.737789  0.054103  0.091312  1
  Zn  Zn3  1  0.262211  0.554103  0.408688  1
  Sn  Sn4  1  0.763836  0.036974  0.625190  1
  Sn  Sn5  1  0.236164  0.536974  0.874810  1
  Sn  Sn6  1  0.236164  0.963026  0.374810  1
  Sn  Sn7  1  0.763836  0.463026  0.125190  1
  As  As8  1  0.428908  0.215693  0.754511  1
  As  As9  1  0.571092  0.715693  0.745489  1
  As  As10  1  0.571092  0.784307  0.245489  1
  As  As11  1  0.428908  0.284307  0.254510  1
  As  As12  1  0.975953  0.254754  0.931545  1
  As  As13  1  0.024047  0.754754  0.568455  1
  As  As14  1  0.024047  0.745246  0.068455  1
  As  As15  1  0.975953  0.245246  0.431545  1
  O  O16  1  0.869542  0.228509  0.043930  1
  O  O17  1  0.130458  0.728509  0.456070  1
  O  O18  1  0.130458  0.771491  0.956070  1
  O  O19  1  0.869542  0.271491  0.543930  1
  O  O20  1  0.374458  0.380624  0.786449  1
  O  O21  1  0.625542  0.880624  0.713551  1
  O  O22  1  0.625542  0.619376  0.213551  1
  O  O23  1  0.374458  0.119376  0.286449  1
  O  O24  1  0.457087  0.091601  0.890564  1
  O  O25  1  0.542913  0.591601  0.609436  1
  O  O26  1  0.542913  0.908399  0.109436  1
  O  O27  1  0.457087  0.408399  0.390564  1
  O  O28  1  0.225159  0.164996  0.570826  1
  O  O29  1  0.774841  0.664996  0.929174  1
  O  O30  1  0.774841  0.835004  0.429174  1
  O  O31  1  0.225159  0.335004  0.070826  1
  O  O32  1  0.930752  0.097065  0.318130  1
  O  O33  1  0.069248  0.597065  0.181870  1
  O  O34  1  0.069248  0.902935  0.681870  1
  O  O35  1  0.930752  0.402935  0.818130  1
  O  O36  1  0.636185  0.291302  0.226898  1
  O  O37  1  0.363816  0.791302  0.273102  1
  O  O38  1  0.363816  0.708698  0.773102  1
  O  O39  1  0.636185  0.208698  0.726898  1
  O  O40  1  0.031123  0.397509  0.363305  1
  O  O41  1  0.968877  0.897509  0.136695  1
  O  O42  1  0.968877  0.602491  0.636695  1
  O  O43  1  0.031123  0.102491  0.863305  1
