# generated using pymatgen
data_Mg(AgO2)2
_symmetry_space_group_name_H-M   'P 1'
_cell_length_a   3.29468393
_cell_length_b   8.07245041
_cell_length_c   7.72997520
_cell_angle_alpha   80.94831553
_cell_angle_beta   77.38640718
_cell_angle_gamma   96.83468826
_symmetry_Int_Tables_number   1
_chemical_formula_structural   Mg(AgO2)2
_chemical_formula_sum   'Mg2 Ag4 O8'
_cell_volume   195.60266864
_cell_formula_units_Z   2
loop_
 _symmetry_equiv_pos_site_id
 _symmetry_equiv_pos_as_xyz
  1  'x, y, z'
loop_
 _atom_site_type_symbol
 _atom_site_label
 _atom_site_symmetry_multiplicity
 _atom_site_fract_x
 _atom_site_fract_y
 _atom_site_fract_z
 _atom_site_occupancy
  Mg  Mg0  1  0.300462  0.181694  0.206423  1
  Mg  Mg1  1  0.701769  0.796287  0.826641  1
  Ag  Ag2  1  0.666864  0.165004  0.559142  1
  Ag  Ag3  1  0.072005  0.521636  0.201677  1
  Ag  Ag4  1  0.930528  0.456497  0.831319  1
  Ag  Ag5  1  0.335628  0.813118  0.473976  1
  O  O6  1  0.841309  0.639032  0.632267  1
  O  O7  1  0.577364  0.255897  0.785631  1
  O  O8  1  0.424588  0.722202  0.247572  1
  O  O9  1  0.161201  0.339172  0.400739  1
  O  O10  1  0.304533  0.933295  0.700337  1
  O  O11  1  0.891758  0.314639  0.085157  1
  O  O12  1  0.697751  0.044817  0.332684  1
  O  O13  1  0.110549  0.663509  0.947877  1
