# generated using pymatgen
data_Zn3Fe2(GeO4)3
_symmetry_space_group_name_H-M   'P 1'
_cell_length_a   10.52245130
_cell_length_b   10.52245076
_cell_length_c   10.52245090
_cell_angle_alpha   109.47122088
_cell_angle_beta   109.47121985
_cell_angle_gamma   109.47121995
_symmetry_Int_Tables_number   1
_chemical_formula_structural   Zn3Fe2(GeO4)3
_chemical_formula_sum   'Zn12 Fe8 Ge12 O48'
_cell_volume   896.86866398
_cell_formula_units_Z   4
loop_
 _symmetry_equiv_pos_site_id
 _symmetry_equiv_pos_as_xyz
  1  'x, y, z'
loop_
 _atom_site_type_symbol
 _atom_site_label
 _atom_site_symmetry_multiplicity
 _atom_site_fract_x
 _atom_site_fract_y
 _atom_site_fract_z
 _atom_site_occupancy
  Zn  Zn0  1  0.625000  0.250000  0.875000  1
  Zn  Zn1  1  0.875000  0.750000  0.625000  1
  Zn  Zn2  1  0.750000  0.625000  0.875000  1
  Zn  Zn3  1  0.250000  0.875000  0.625000  1
  Zn  Zn4  1  0.875000  0.625000  0.250000  1
  Zn  Zn5  1  0.625000  0.875000  0.750000  1
  Zn  Zn6  1  0.375000  0.750000  0.125000  1
  Zn  Zn7  1  0.125000  0.250000  0.375000  1
  Zn  Zn8  1  0.250000  0.375000  0.125000  1
  Zn  Zn9  1  0.750000  0.125000  0.375000  1
  Zn  Zn10  1  0.125000  0.375000  0.750000  1
  Zn  Zn11  1  0.375000  0.125000  0.250000  1
  Fe  Fe12  1  0.500000  0.500000  0.500000  1
  Fe  Fe13  1  0.500000  0.500000  0.000000  1
  Fe  Fe14  1  0.500000  0.000000  0.500000  1
  Fe  Fe15  1  0.000000  0.500000  0.500000  1
  Fe  Fe16  1  0.500000  0.000000  0.000000  1
  Fe  Fe17  1  0.000000  0.000000  0.500000  1
  Fe  Fe18  1  0.000000  0.500000  0.000000  1
  Fe  Fe19  1  0.000000  0.000000  0.000000  1
  Ge  Ge20  1  0.875000  0.125000  0.750000  1
  Ge  Ge21  1  0.125000  0.875000  0.250000  1
  Ge  Ge22  1  0.250000  0.625000  0.375000  1
  Ge  Ge23  1  0.125000  0.750000  0.875000  1
  Ge  Ge24  1  0.750000  0.875000  0.125000  1
  Ge  Ge25  1  0.375000  0.250000  0.625000  1
  Ge  Ge26  1  0.625000  0.750000  0.375000  1
  Ge  Ge27  1  0.875000  0.250000  0.125000  1
  Ge  Ge28  1  0.250000  0.125000  0.875000  1
  Ge  Ge29  1  0.750000  0.375000  0.625000  1
  Ge  Ge30  1  0.375000  0.625000  0.750000  1
  Ge  Ge31  1  0.625000  0.375000  0.250000  1
  O  O32  1  0.791014  0.417988  0.817442  1
  O  O33  1  0.082012  0.873026  0.399453  1
  O  O34  1  0.682558  0.100547  0.973571  1
  O  O35  1  0.708986  0.526429  0.626974  1
  O  O36  1  0.708986  0.682558  0.082012  1
  O  O37  1  0.526429  0.626974  0.708986  1
  O  O38  1  0.100547  0.626974  0.417988  1
  O  O39  1  0.626974  0.708986  0.526429  1
  O  O40  1  0.399453  0.817442  0.526429  1
  O  O41  1  0.873026  0.973571  0.791014  1
  O  O42  1  0.973571  0.791014  0.873026  1
  O  O43  1  0.082012  0.708986  0.682558  1
  O  O44  1  0.626974  0.417988  0.100547  1
  O  O45  1  0.526429  0.399453  0.817442  1
  O  O46  1  0.682558  0.082012  0.708986  1
  O  O47  1  0.417988  0.100547  0.626974  1
  O  O48  1  0.817442  0.526429  0.399453  1
  O  O49  1  0.399453  0.082012  0.873026  1
  O  O50  1  0.100547  0.973571  0.682558  1
  O  O51  1  0.600547  0.182558  0.473571  1
  O  O52  1  0.973571  0.682558  0.100547  1
  O  O53  1  0.817442  0.791014  0.417988  1
  O  O54  1  0.873026  0.399453  0.082012  1
  O  O55  1  0.791014  0.873026  0.973571  1
  O  O56  1  0.208986  0.582012  0.182558  1
  O  O57  1  0.917988  0.126974  0.600547  1
  O  O58  1  0.317442  0.899453  0.026429  1
  O  O59  1  0.291014  0.473571  0.373026  1
  O  O60  1  0.291014  0.317442  0.917988  1
  O  O61  1  0.473571  0.373026  0.291014  1
  O  O62  1  0.899453  0.373026  0.582012  1
  O  O63  1  0.373026  0.291014  0.473571  1
  O  O64  1  0.208986  0.126974  0.026429  1
  O  O65  1  0.126974  0.600547  0.917988  1
  O  O66  1  0.182558  0.208986  0.582012  1
  O  O67  1  0.582012  0.182558  0.208986  1
  O  O68  1  0.026429  0.317442  0.899453  1
  O  O69  1  0.899453  0.026429  0.317442  1
  O  O70  1  0.600547  0.917988  0.126974  1
  O  O71  1  0.182558  0.473571  0.600547  1
  O  O72  1  0.582012  0.899453  0.373026  1
  O  O73  1  0.317442  0.917988  0.291014  1
  O  O74  1  0.473571  0.600547  0.182558  1
  O  O75  1  0.373026  0.582012  0.899453  1
  O  O76  1  0.917988  0.291014  0.317442  1
  O  O77  1  0.026429  0.208986  0.126974  1
  O  O78  1  0.126974  0.026429  0.208986  1
  O  O79  1  0.417988  0.817442  0.791014  1
