# generated using pymatgen
data_Sn(GeO3)2
_symmetry_space_group_name_H-M   'P 1'
_cell_length_a   5.65510787
_cell_length_b   6.85867134
_cell_length_c   6.85867182
_cell_angle_alpha   83.96344398
_cell_angle_beta   76.89802694
_cell_angle_gamma   76.89802922
_symmetry_Int_Tables_number   1
_chemical_formula_structural   Sn(GeO3)2
_chemical_formula_sum   'Sn2 Ge4 O12'
_cell_volume   251.94831084
_cell_formula_units_Z   2
loop_
 _symmetry_equiv_pos_site_id
 _symmetry_equiv_pos_as_xyz
  1  'x, y, z'
loop_
 _atom_site_type_symbol
 _atom_site_label
 _atom_site_symmetry_multiplicity
 _atom_site_fract_x
 _atom_site_fract_y
 _atom_site_fract_z
 _atom_site_occupancy
  Sn  Sn0  1  0.750000  0.895411  0.104589  1
  Sn  Sn1  1  0.250000  0.104589  0.895411  1
  Ge  Ge2  1  0.763662  0.384304  0.211427  1
  Ge  Ge3  1  0.736338  0.788573  0.615696  1
  Ge  Ge4  1  0.236338  0.615696  0.788573  1
  Ge  Ge5  1  0.263662  0.211427  0.384304  1
  O  O6  1  0.502427  0.335531  0.387092  1
  O  O7  1  0.997573  0.612908  0.664469  1
  O  O8  1  0.497573  0.664469  0.612908  1
  O  O9  1  0.002427  0.387092  0.335531  1
  O  O10  1  0.196295  0.086133  0.618232  1
  O  O11  1  0.303705  0.381769  0.913867  1
  O  O12  1  0.803705  0.913867  0.381769  1
  O  O13  1  0.696295  0.618232  0.086133  1
  O  O14  1  0.870547  0.180235  0.041621  1
  O  O15  1  0.629453  0.958379  0.819765  1
  O  O16  1  0.129453  0.819765  0.958379  1
  O  O17  1  0.370547  0.041621  0.180235  1
