# generated using pymatgen
data_ZnCoBi2O7
_symmetry_space_group_name_H-M   'P 1'
_cell_length_a   7.11245808
_cell_length_b   11.59399671
_cell_length_c   15.26010147
_cell_angle_alpha   90.00000000
_cell_angle_beta   90.00000000
_cell_angle_gamma   102.39236890
_symmetry_Int_Tables_number   1
_chemical_formula_structural   ZnCoBi2O7
_chemical_formula_sum   'Zn8 Co8 Bi16 O56'
_cell_volume   1229.05661444
_cell_formula_units_Z   8
loop_
 _symmetry_equiv_pos_site_id
 _symmetry_equiv_pos_as_xyz
  1  'x, y, z'
loop_
 _atom_site_type_symbol
 _atom_site_label
 _atom_site_symmetry_multiplicity
 _atom_site_fract_x
 _atom_site_fract_y
 _atom_site_fract_z
 _atom_site_occupancy
  Zn  Zn0  1  0.061064  0.867794  0.484386  1
  Zn  Zn1  1  0.202606  0.878737  0.895447  1
  Zn  Zn2  1  0.797394  0.621263  0.395447  1
  Zn  Zn3  1  0.797394  0.121263  0.104553  1
  Zn  Zn4  1  0.202606  0.378737  0.604553  1
  Zn  Zn5  1  0.061064  0.367794  0.015614  1
  Zn  Zn6  1  0.938936  0.132206  0.515614  1
  Zn  Zn7  1  0.938936  0.632206  0.984386  1
  Co  Co8  1  0.656081  0.088101  0.673419  1
  Co  Co9  1  0.343919  0.411899  0.173419  1
  Co  Co10  1  0.343919  0.911899  0.326581  1
  Co  Co11  1  0.656081  0.588101  0.826581  1
  Co  Co12  1  0.995746  0.255666  0.746623  1
  Co  Co13  1  0.004254  0.244334  0.246623  1
  Co  Co14  1  0.004254  0.744334  0.253377  1
  Co  Co15  1  0.995746  0.755666  0.753377  1
  Bi  Bi16  1  0.876349  0.033812  0.900409  1
  Bi  Bi17  1  0.411590  0.658518  0.995634  1
  Bi  Bi18  1  0.411590  0.158518  0.504366  1
  Bi  Bi19  1  0.588410  0.341482  0.004366  1
  Bi  Bi20  1  0.525013  0.807927  0.714482  1
  Bi  Bi21  1  0.474987  0.692073  0.214482  1
  Bi  Bi22  1  0.474987  0.192073  0.285518  1
  Bi  Bi23  1  0.525013  0.307927  0.785518  1
  Bi  Bi24  1  0.588410  0.841482  0.495634  1
  Bi  Bi25  1  0.872656  0.487654  0.200376  1
  Bi  Bi26  1  0.127344  0.012346  0.700376  1
  Bi  Bi27  1  0.127344  0.512346  0.799624  1
  Bi  Bi28  1  0.123651  0.466188  0.400409  1
  Bi  Bi29  1  0.876349  0.533812  0.599591  1
  Bi  Bi30  1  0.123651  0.966188  0.099591  1
  Bi  Bi31  1  0.872656  0.987654  0.299624  1
  O  O32  1  0.836920  0.982085  0.045382  1
  O  O33  1  0.163080  0.517915  0.545382  1
  O  O34  1  0.163080  0.017915  0.954618  1
  O  O35  1  0.836920  0.482085  0.454618  1
  O  O36  1  0.967171  0.891665  0.819293  1
  O  O37  1  0.032829  0.608335  0.319293  1
  O  O38  1  0.032829  0.108335  0.180707  1
  O  O39  1  0.967171  0.391665  0.680707  1
  O  O40  1  0.086033  0.139924  0.806812  1
  O  O41  1  0.913967  0.360076  0.306812  1
  O  O42  1  0.913967  0.860076  0.193188  1
  O  O43  1  0.086033  0.639924  0.693188  1
  O  O44  1  0.583923  0.872196  0.315248  1
  O  O45  1  0.416077  0.627804  0.815248  1
  O  O46  1  0.416077  0.127804  0.684752  1
  O  O47  1  0.583923  0.372196  0.184752  1
  O  O48  1  0.008027  0.156065  0.347470  1
  O  O49  1  0.991973  0.343935  0.847470  1
  O  O50  1  0.991973  0.843935  0.652530  1
  O  O51  1  0.008027  0.656065  0.152530  1
  O  O52  1  0.060131  0.873898  0.346878  1
  O  O53  1  0.315882  0.818268  0.433210  1
  O  O54  1  0.939869  0.626102  0.846878  1
  O  O55  1  0.060131  0.373898  0.153122  1
  O  O56  1  0.812612  0.740173  0.486713  1
  O  O57  1  0.187388  0.759827  0.986713  1
  O  O58  1  0.187388  0.259827  0.513287  1
  O  O59  1  0.812612  0.240173  0.013287  1
  O  O60  1  0.826248  0.980633  0.453799  1
  O  O61  1  0.173752  0.519367  0.953799  1
  O  O62  1  0.173752  0.019367  0.546201  1
  O  O63  1  0.826248  0.480633  0.046201  1
  O  O64  1  0.470700  0.214843  0.905493  1
  O  O65  1  0.529300  0.285157  0.405493  1
  O  O66  1  0.529300  0.785157  0.094507  1
  O  O67  1  0.470700  0.714843  0.594507  1
  O  O68  1  0.736706  0.198683  0.761270  1
  O  O69  1  0.263294  0.301317  0.261270  1
  O  O70  1  0.263294  0.801317  0.238730  1
  O  O71  1  0.736706  0.698683  0.738730  1
  O  O72  1  0.654989  0.479794  0.732078  1
  O  O73  1  0.345011  0.020206  0.232078  1
  O  O74  1  0.345011  0.520206  0.267922  1
  O  O75  1  0.654989  0.979794  0.767922  1
  O  O76  1  0.262668  0.339735  0.726911  1
  O  O77  1  0.737332  0.160265  0.226911  1
  O  O78  1  0.737332  0.660265  0.273089  1
  O  O79  1  0.262668  0.839735  0.773089  1
  O  O80  1  0.558867  0.448724  0.891640  1
  O  O81  1  0.441133  0.051276  0.391640  1
  O  O82  1  0.441133  0.551276  0.108360  1
  O  O83  1  0.558867  0.948724  0.608360  1
  O  O84  1  0.315882  0.318268  0.066790  1
  O  O85  1  0.684118  0.181732  0.566790  1
  O  O86  1  0.684118  0.681732  0.933210  1
  O  O87  1  0.939869  0.126102  0.653122  1
