# generated using pymatgen
data_Zn(CrS2)4
_symmetry_space_group_name_H-M   'P 1'
_cell_length_a   6.95061377
_cell_length_b   6.93261478
_cell_length_c   6.93261551
_cell_angle_alpha   60.00000091
_cell_angle_beta   60.08562159
_cell_angle_gamma   60.08561613
_symmetry_Int_Tables_number   1
_chemical_formula_structural   Zn(CrS2)4
_chemical_formula_sum   'Zn1 Cr4 S8'
_cell_volume   236.51743838
_cell_formula_units_Z   1
loop_
 _symmetry_equiv_pos_site_id
 _symmetry_equiv_pos_as_xyz
  1  'x, y, z'
loop_
 _atom_site_type_symbol
 _atom_site_label
 _atom_site_symmetry_multiplicity
 _atom_site_fract_x
 _atom_site_fract_y
 _atom_site_fract_z
 _atom_site_occupancy
  Zn  Zn0  1  0.500000  0.000000  0.000000  1
  Cr  Cr1  1  0.000000  0.500000  0.500000  1
  Cr  Cr2  1  0.500000  0.500000  0.000000  1
  Cr  Cr3  1  0.500000  0.500000  0.500000  1
  Cr  Cr4  1  0.500000  0.000000  0.500000  1
  S  S5  1  0.259470  0.254977  0.254977  1
  S  S6  1  0.259470  0.254977  0.730575  1
  S  S7  1  0.259470  0.730575  0.254977  1
  S  S8  1  0.727882  0.257372  0.257372  1
  S  S9  1  0.272118  0.742628  0.742628  1
  S  S10  1  0.740530  0.745023  0.269425  1
  S  S11  1  0.740530  0.269425  0.745023  1
  S  S12  1  0.740530  0.745023  0.745023  1
