# generated using pymatgen
data_Al(FeS2)2
_symmetry_space_group_name_H-M   'P 1'
_cell_length_a   6.98823380
_cell_length_b   6.86651295
_cell_length_c   6.85575406
_cell_angle_alpha   88.21448820
_cell_angle_beta   120.56966521
_cell_angle_gamma   120.64737572
_symmetry_Int_Tables_number   1
_chemical_formula_structural   Al(FeS2)2
_chemical_formula_sum   'Al2 Fe4 S8'
_cell_volume   231.84412139
_cell_formula_units_Z   2
loop_
 _symmetry_equiv_pos_site_id
 _symmetry_equiv_pos_as_xyz
  1  'x, y, z'
loop_
 _atom_site_type_symbol
 _atom_site_label
 _atom_site_symmetry_multiplicity
 _atom_site_fract_x
 _atom_site_fract_y
 _atom_site_fract_z
 _atom_site_occupancy
  Al  Al0  1  0.999988  0.000009  0.999978  1
  Al  Al1  1  0.500032  0.000015  0.000008  1
  Fe  Fe2  1  0.499721  0.999665  0.499801  1
  Fe  Fe3  1  0.500027  0.500047  0.499971  1
  Fe  Fe4  1  0.000273  0.500211  0.000340  1
  Fe  Fe5  1  0.000012  0.500067  0.499927  1
  S  S6  1  0.031696  0.752268  0.247793  1
  S  S7  1  0.506387  0.765245  0.747663  1
  S  S8  1  0.468126  0.752161  0.247532  1
  S  S9  1  0.006470  0.747586  0.765233  1
  S  S10  1  0.532204  0.247847  0.752459  1
  S  S11  1  0.493529  0.234639  0.252292  1
  S  S12  1  0.993639  0.252459  0.234886  1
  S  S13  1  0.967945  0.247749  0.752161  1
