# generated using pymatgen
data_ZnCu3(SbO3)4
_symmetry_space_group_name_H-M   'P 1'
_cell_length_a   6.77182014
_cell_length_b   6.77184529
_cell_length_c   6.77072417
_cell_angle_alpha   109.51100760
_cell_angle_beta   109.45779246
_cell_angle_gamma   109.46319963
_symmetry_Int_Tables_number   1
_chemical_formula_structural   ZnCu3(SbO3)4
_chemical_formula_sum   'Zn1 Cu3 Sb4 O12'
_cell_volume   238.96113001
_cell_formula_units_Z   1
loop_
 _symmetry_equiv_pos_site_id
 _symmetry_equiv_pos_as_xyz
  1  'x, y, z'
loop_
 _atom_site_type_symbol
 _atom_site_label
 _atom_site_symmetry_multiplicity
 _atom_site_fract_x
 _atom_site_fract_y
 _atom_site_fract_z
 _atom_site_occupancy
  Zn  Zn0  1  0.000000  0.000000  0.000000  1
  Cu  Cu1  1  0.500000  0.500000  0.000000  1
  Cu  Cu2  1  0.000000  0.500000  0.500000  1
  Cu  Cu3  1  0.500000  0.000000  0.500000  1
  Sb  Sb4  1  0.000000  0.000000  0.500000  1
  Sb  Sb5  1  0.000000  0.500000  0.000000  1
  Sb  Sb6  1  0.500000  0.499999  0.500000  1
  Sb  Sb7  1  0.500000  0.000000  0.000000  1
  O  O8  1  0.825375  0.301651  0.126988  1
  O  O9  1  0.174625  0.698350  0.873012  1
  O  O10  1  0.825286  0.698326  0.523762  1
  O  O11  1  0.301710  0.476314  0.174756  1
  O  O12  1  0.476328  0.174681  0.301882  1
  O  O13  1  0.127192  0.825458  0.301803  1
  O  O14  1  0.698371  0.873050  0.174686  1
  O  O15  1  0.523673  0.825319  0.698118  1
  O  O16  1  0.174714  0.301673  0.476238  1
  O  O17  1  0.698291  0.523686  0.825243  1
  O  O18  1  0.872809  0.174542  0.698198  1
  O  O19  1  0.301629  0.126950  0.825315  1
