# generated using pymatgen
data_CaTi4O8
_symmetry_space_group_name_H-M   'P 1'
_cell_length_a   3.02405010
_cell_length_b   7.36757089
_cell_length_c   7.45181482
_cell_angle_alpha   82.31459190
_cell_angle_beta   78.29512516
_cell_angle_gamma   78.16122340
_symmetry_Int_Tables_number   1
_chemical_formula_structural   CaTi4O8
_chemical_formula_sum   'Ca1 Ti4 O8'
_cell_volume   158.37852084
_cell_formula_units_Z   1
loop_
 _symmetry_equiv_pos_site_id
 _symmetry_equiv_pos_as_xyz
  1  'x, y, z'
loop_
 _atom_site_type_symbol
 _atom_site_label
 _atom_site_symmetry_multiplicity
 _atom_site_fract_x
 _atom_site_fract_y
 _atom_site_fract_z
 _atom_site_occupancy
  Ca  Ca0  1  0.377913  0.099433  0.144748  1
  Ti  Ti1  1  0.631205  0.176040  0.561647  1
  Ti  Ti2  1  0.140710  0.509274  0.209639  1
  Ti  Ti3  1  0.833799  0.491146  0.841736  1
  Ti  Ti4  1  0.343465  0.809532  0.503611  1
  O  O5  1  0.853615  0.666033  0.626625  1
  O  O6  1  0.455080  0.325041  0.764831  1
  O  O7  1  0.526775  0.656490  0.290267  1
  O  O8  1  0.146586  0.299009  0.408108  1
  O  O9  1  0.163279  0.010945  0.662582  1
  O  O10  1  0.781219  0.340218  0.097436  1
  O  O11  1  0.834230  0.970766  0.360845  1
  O  O12  1  0.209606  0.622182  0.958570  1
