# generated using pymatgen
data_Ca3Fe4(SbO4)6
_symmetry_space_group_name_H-M   'P 1'
_cell_length_a   6.92532465
_cell_length_b   8.73243359
_cell_length_c   10.77994199
_cell_angle_alpha   106.60127501
_cell_angle_beta   104.33630728
_cell_angle_gamma   112.02556462
_symmetry_Int_Tables_number   1
_chemical_formula_structural   Ca3Fe4(SbO4)6
_chemical_formula_sum   'Ca3 Fe4 Sb6 O24'
_cell_volume   530.96398457
_cell_formula_units_Z   1
loop_
 _symmetry_equiv_pos_site_id
 _symmetry_equiv_pos_as_xyz
  1  'x, y, z'
loop_
 _atom_site_type_symbol
 _atom_site_label
 _atom_site_symmetry_multiplicity
 _atom_site_fract_x
 _atom_site_fract_y
 _atom_site_fract_z
 _atom_site_occupancy
  Ca  Ca0  1  -0.000000  0.500000  0.500000  1
  Ca  Ca1  1  0.373276  0.346991  0.812216  1
  Ca  Ca2  1  0.626724  0.653009  0.187784  1
  Fe  Fe3  1  0.367633  0.960126  0.597854  1
  Fe  Fe4  1  0.632367  0.039874  0.402146  1
  Fe  Fe5  1  0.044785  0.193319  0.007185  1
  Fe  Fe6  1  0.955215  0.806681  0.992815  1
  Sb  Sb7  1  0.871583  0.369167  0.758289  1
  Sb  Sb8  1  0.128417  0.630833  0.241711  1
  Sb  Sb9  1  0.861516  0.883153  0.660224  1
  Sb  Sb10  1  0.438270  0.807566  0.885498  1
  Sb  Sb11  1  0.138484  0.116847  0.339776  1
  Sb  Sb12  1  0.561730  0.192434  0.114502  1
  O  O13  1  0.795557  0.642079  0.569406  1
  O  O14  1  0.204443  0.357921  0.430594  1
  O  O15  1  0.196474  0.547809  0.794048  1
  O  O16  1  0.803526  0.452190  0.205952  1
  O  O17  1  0.836594  0.278568  0.565881  1
  O  O18  1  0.163406  0.721432  0.434119  1
  O  O19  1  0.643406  0.939499  0.561148  1
  O  O20  1  0.356594  0.060501  0.438852  1
  O  O21  1  0.626068  0.729043  0.985039  1
  O  O22  1  0.373932  0.270957  0.014961  1
  O  O23  1  0.427987  0.791102  0.259011  1
  O  O24  1  0.572013  0.208898  0.740989  1
  O  O25  1  0.145533  0.032894  0.658112  1
  O  O26  1  0.103718  0.073013  0.143078  1
  O  O27  1  0.896282  0.926987  0.856922  1
  O  O28  1  0.622646  0.194130  0.296686  1
  O  O29  1  0.377354  0.805870  0.703314  1
  O  O30  1  0.180119  0.436485  0.147374  1
  O  O31  1  0.819881  0.563515  0.852626  1
  O  O32  1  0.018210  0.253167  0.843470  1
  O  O33  1  0.981790  0.746833  0.156530  1
  O  O34  1  0.301932  0.913537  0.001833  1
  O  O35  1  0.698068  0.086463  0.998167  1
  O  O36  1  0.854467  0.967106  0.341888  1
