# generated using pymatgen
data_Zn2MoWO6
_symmetry_space_group_name_H-M   'P 1'
_cell_length_a   5.64387896
_cell_length_b   5.63668017
_cell_length_c   7.88380373
_cell_angle_alpha   85.19119714
_cell_angle_beta   137.10541728
_cell_angle_gamma   123.54183015
_symmetry_Int_Tables_number   1
_chemical_formula_structural   Zn2MoWO6
_chemical_formula_sum   'Zn2 Mo1 W1 O6'
_cell_volume   117.32269656
_cell_formula_units_Z   1
loop_
 _symmetry_equiv_pos_site_id
 _symmetry_equiv_pos_as_xyz
  1  'x, y, z'
loop_
 _atom_site_type_symbol
 _atom_site_label
 _atom_site_symmetry_multiplicity
 _atom_site_fract_x
 _atom_site_fract_y
 _atom_site_fract_z
 _atom_site_occupancy
  Zn  Zn0  1  -0.000107  0.541260  0.268193  1
  Zn  Zn1  1  0.976222  0.535028  0.768845  1
  Mo  Mo2  1  0.993725  0.978383  0.493387  1
  W  W3  1  0.993278  0.979936  0.994238  1
  O  O4  1  0.268201  0.090563  0.372616  1
  O  O5  1  0.725203  0.817169  0.619301  1
  O  O6  1  0.352979  0.467103  0.094387  1
  O  O7  1  0.384746  0.840321  0.759379  1
  O  O8  1  0.601107  0.109588  0.218994  1
  O  O9  1  0.678096  0.497183  0.893845  1
