# generated using pymatgen
data_MgFeO2
_symmetry_space_group_name_H-M   'P 1'
_cell_length_a   2.97602603
_cell_length_b   8.42931166
_cell_length_c   8.53026043
_cell_angle_alpha   85.38826931
_cell_angle_beta   79.75005410
_cell_angle_gamma   79.84281916
_symmetry_Int_Tables_number   1
_chemical_formula_structural   MgFeO2
_chemical_formula_sum   'Mg4 Fe4 O8'
_cell_volume   207.00794909
_cell_formula_units_Z   4
loop_
 _symmetry_equiv_pos_site_id
 _symmetry_equiv_pos_as_xyz
  1  'x, y, z'
loop_
 _atom_site_type_symbol
 _atom_site_label
 _atom_site_symmetry_multiplicity
 _atom_site_fract_x
 _atom_site_fract_y
 _atom_site_fract_z
 _atom_site_occupancy
  Mg  Mg0  1  0.357656  0.063334  0.230768  1
  Mg  Mg1  1  0.637953  0.916744  0.796997  1
  Mg  Mg2  1  0.079958  0.706859  0.134981  1
  Mg  Mg3  1  0.916419  0.273959  0.892905  1
  Fe  Fe4  1  0.622854  0.184139  0.567709  1
  Fe  Fe5  1  0.202907  0.377952  0.215809  1
  Fe  Fe6  1  0.793703  0.602523  0.811229  1
  Fe  Fe7  1  0.375357  0.792867  0.458693  1
  O  O8  1  0.814846  0.755930  0.612958  1
  O  O9  1  0.365285  0.423867  0.846665  1
  O  O10  1  0.627862  0.558156  0.186486  1
  O  O11  1  0.182177  0.222325  0.414628  1
  O  O12  1  0.079443  0.096060  0.737574  1
  O  O13  1  0.847229  0.198159  0.117279  1
  O  O14  1  0.916644  0.884109  0.290147  1
  O  O15  1  0.147983  0.782355  0.910786  1
