# generated using pymatgen
data_SnS2
_symmetry_space_group_name_H-M   'P 1'
_cell_length_a   5.98881790
_cell_length_b   5.98881679
_cell_length_c   6.54670295
_cell_angle_alpha   117.21895766
_cell_angle_beta   117.21894371
_cell_angle_gamma   89.99998850
_symmetry_Int_Tables_number   1
_chemical_formula_structural   SnS2
_chemical_formula_sum   'Sn2 S4'
_cell_volume   179.06528188
_cell_formula_units_Z   2
loop_
 _symmetry_equiv_pos_site_id
 _symmetry_equiv_pos_as_xyz
  1  'x, y, z'
loop_
 _atom_site_type_symbol
 _atom_site_label
 _atom_site_symmetry_multiplicity
 _atom_site_fract_x
 _atom_site_fract_y
 _atom_site_fract_z
 _atom_site_occupancy
  Sn  Sn0  1  0.250000  0.750000  0.500000  1
  Sn  Sn1  1  0.000000  0.000000  0.000000  1
  S  S2  1  0.880775  0.875000  0.250000  1
  S  S3  1  0.625000  0.119225  0.750000  1
  S  S4  1  0.369225  0.375000  0.250000  1
  S  S5  1  0.125000  0.630775  0.750000  1
