# generated using pymatgen
data_Re(WO4)2
_symmetry_space_group_name_H-M   'P 1'
_cell_length_a   4.96724859
_cell_length_b   6.44511175
_cell_length_c   6.42484183
_cell_angle_alpha   114.52107607
_cell_angle_beta   116.40542093
_cell_angle_gamma   91.68664558
_symmetry_Int_Tables_number   1
_chemical_formula_structural   Re(WO4)2
_chemical_formula_sum   'Re1 W2 O8'
_cell_volume   161.72939384
_cell_formula_units_Z   1
loop_
 _symmetry_equiv_pos_site_id
 _symmetry_equiv_pos_as_xyz
  1  'x, y, z'
loop_
 _atom_site_type_symbol
 _atom_site_label
 _atom_site_symmetry_multiplicity
 _atom_site_fract_x
 _atom_site_fract_y
 _atom_site_fract_z
 _atom_site_occupancy
  Re  Re0  1  0.124533  0.223243  0.099582  1
  W  W1  1  0.882655  0.405890  0.624644  1
  W  W2  1  0.366710  0.040541  0.574581  1
  O  O3  1  0.134106  0.687909  0.807622  1
  O  O4  1  0.540944  0.429326  0.343795  1
  O  O5  1  0.161193  0.216859  0.802392  1
  O  O6  1  0.548185  0.032915  0.378917  1
  O  O7  1  0.708158  0.017113  0.855733  1
  O  O8  1  0.115086  0.758693  0.391531  1
  O  O9  1  0.088360  0.229689  0.397088  1
  O  O10  1  0.701728  0.413453  0.820728  1
