# generated using pymatgen
data_TaF5
_symmetry_space_group_name_H-M   'P 1'
_cell_length_a   3.64417929
_cell_length_b   5.84881401
_cell_length_c   8.40437914
_cell_angle_alpha   90.00000000
_cell_angle_beta   90.00000000
_cell_angle_gamma   108.15154288
_symmetry_Int_Tables_number   1
_chemical_formula_structural   TaF5
_chemical_formula_sum   'Ta2 F10'
_cell_volume   170.21765404
_cell_formula_units_Z   2
loop_
 _symmetry_equiv_pos_site_id
 _symmetry_equiv_pos_as_xyz
  1  'x, y, z'
loop_
 _atom_site_type_symbol
 _atom_site_label
 _atom_site_symmetry_multiplicity
 _atom_site_fract_x
 _atom_site_fract_y
 _atom_site_fract_z
 _atom_site_occupancy
  Ta  Ta0  1  0.500000  -0.000000  0.500000  1
  Ta  Ta1  1  0.500000  -0.000000  0.000000  1
  F  F2  1  0.484033  0.968064  0.250000  1
  F  F3  1  0.515967  0.031936  0.750000  1
  F  F4  1  0.071094  0.142188  0.590571  1
  F  F5  1  0.928906  0.857812  0.409429  1
  F  F6  1  0.338031  0.676063  0.930855  1
  F  F7  1  0.661969  0.323937  0.069145  1
  F  F8  1  0.661969  0.323937  0.430855  1
  F  F9  1  0.338031  0.676063  0.569145  1
  F  F10  1  0.071094  0.142188  0.909429  1
  F  F11  1  0.928906  0.857812  0.090571  1
