# generated using pymatgen
data_SbO2
_symmetry_space_group_name_H-M   'P 1'
_cell_length_a   6.53528095
_cell_length_b   5.94257770
_cell_length_c   12.29461888
_cell_angle_alpha   89.90185121
_cell_angle_beta   89.88356422
_cell_angle_gamma   90.00008445
_symmetry_Int_Tables_number   1
_chemical_formula_structural   SbO2
_chemical_formula_sum   'Sb8 O16'
_cell_volume   477.47723267
_cell_formula_units_Z   8
loop_
 _symmetry_equiv_pos_site_id
 _symmetry_equiv_pos_as_xyz
  1  'x, y, z'
loop_
 _atom_site_type_symbol
 _atom_site_label
 _atom_site_symmetry_multiplicity
 _atom_site_fract_x
 _atom_site_fract_y
 _atom_site_fract_z
 _atom_site_occupancy
  Sb  Sb0  1  0.535541  0.750273  0.424720  1
  Sb  Sb1  1  0.534627  0.749729  0.075325  1
  Sb  Sb2  1  0.464797  0.249720  0.575446  1
  Sb  Sb3  1  0.465152  0.250279  0.924615  1
  Sb  Sb4  1  0.000152  0.500075  0.500040  1
  Sb  Sb5  1  0.999868  -0.000075  0.999963  1
  Sb  Sb6  1  0.000150  -0.000076  0.500042  1
  Sb  Sb7  1  0.999864  0.500068  0.999960  1
  O  O8  1  0.954173  0.750396  0.392250  1
  O  O9  1  0.953030  0.749602  0.107762  1
  O  O10  1  0.046043  0.249620  0.607864  1
  O  O11  1  0.046674  0.250376  0.892185  1
  O  O12  1  0.032748  0.749619  0.605624  1
  O  O13  1  0.033140  0.750380  0.894350  1
  O  O14  1  0.967427  0.250391  0.394411  1
  O  O15  1  0.966570  0.249605  0.105588  1
  O  O16  1  0.683932  0.503110  0.521073  1
  O  O17  1  0.683821  0.996797  0.978908  1
  O  O18  1  0.316344  0.003448  0.479013  1
  O  O19  1  0.315919  0.496810  0.020937  1
  O  O20  1  0.316350  0.496682  0.479001  1
  O  O21  1  0.315924  0.003061  0.020952  1
  O  O22  1  0.683932  0.996761  0.521063  1
  O  O23  1  0.683820  0.503347  0.978910  1
