# generated using pymatgen
data_Bi5(TeO6)3
_symmetry_space_group_name_H-M   'P 1'
_cell_length_a   9.28119426
_cell_length_b   9.28119419
_cell_length_c   11.72963933
_cell_angle_alpha   83.37811192
_cell_angle_beta   83.37810878
_cell_angle_gamma   59.81295687
_symmetry_Int_Tables_number   1
_chemical_formula_structural   Bi5(TeO6)3
_chemical_formula_sum   'Bi10 Te6 O36'
_cell_volume   865.61357183
_cell_formula_units_Z   2
loop_
 _symmetry_equiv_pos_site_id
 _symmetry_equiv_pos_as_xyz
  1  'x, y, z'
loop_
 _atom_site_type_symbol
 _atom_site_label
 _atom_site_symmetry_multiplicity
 _atom_site_fract_x
 _atom_site_fract_y
 _atom_site_fract_z
 _atom_site_occupancy
  Bi  Bi0  1  0.830206  0.494543  0.994750  1
  Bi  Bi1  1  0.116199  0.213155  0.523131  1
  Bi  Bi2  1  0.365883  0.366298  0.284175  1
  Bi  Bi3  1  0.961322  0.785536  0.767674  1
  Bi  Bi4  1  0.633702  0.634117  0.715825  1
  Bi  Bi5  1  0.022385  0.977615  1.000000  1
  Bi  Bi6  1  0.616458  0.383542  0.500000  1
  Bi  Bi7  1  0.214464  0.038677  0.232326  1
  Bi  Bi8  1  0.786845  0.883801  0.476869  1
  Bi  Bi9  1  0.505457  0.169794  0.005250  1
  Te  Te10  1  0.487318  0.848629  0.958080  1
  Te  Te11  1  0.789641  0.202277  0.243276  1
  Te  Te12  1  0.797723  0.210359  0.756724  1
  Te  Te13  1  0.459731  0.860428  0.448165  1
  Te  Te14  1  0.139572  0.540269  0.551835  1
  Te  Te15  1  0.151371  0.512682  0.041920  1
  O  O16  1  0.434589  0.066236  0.881224  1
  O  O17  1  0.784618  0.397476  0.845564  1
  O  O18  1  0.541496  0.640575  0.530148  1
  O  O19  1  0.686350  0.130789  0.379213  1
  O  O20  1  0.602524  0.215382  0.154436  1
  O  O21  1  0.869211  0.313650  0.620787  1
  O  O22  1  0.374805  0.804039  0.329996  1
  O  O23  1  0.017903  0.047754  0.799576  1
  O  O24  1  0.581044  0.385794  0.711006  1
  O  O25  1  0.084901  0.448722  0.426711  1
  O  O26  1  0.574876  0.632322  0.050012  1
  O  O27  1  0.553965  0.929692  0.083478  1
  O  O28  1  0.803145  0.044459  0.664339  1
  O  O29  1  0.725198  0.730760  0.876488  1
  O  O30  1  0.367678  0.425124  0.949988  1
  O  O31  1  0.214368  0.582640  0.164956  1
  O  O32  1  0.061727  0.740896  0.445624  1
  O  O33  1  0.269240  0.274802  0.123512  1
  O  O34  1  0.359425  0.458504  0.469852  1
  O  O35  1  0.259104  0.938273  0.554376  1
  O  O36  1  0.673561  0.803663  0.365233  1
  O  O37  1  0.899866  0.662446  0.627980  1
  O  O38  1  0.952246  0.982097  0.200424  1
  O  O39  1  0.417360  0.785632  0.835044  1
  O  O40  1  0.080615  0.726954  0.956067  1
  O  O41  1  0.733844  0.114468  0.904621  1
  O  O42  1  0.070308  0.446035  0.916522  1
  O  O43  1  0.195961  0.625195  0.670004  1
  O  O44  1  0.955541  0.196855  0.335661  1
  O  O45  1  0.337554  0.100134  0.372020  1
  O  O46  1  0.196337  0.326439  0.634767  1
  O  O47  1  0.885532  0.266156  0.095379  1
  O  O48  1  0.614206  0.418956  0.288994  1
  O  O49  1  0.551278  0.915099  0.573289  1
  O  O50  1  0.273046  0.919385  0.043933  1
  O  O51  1  0.933764  0.565411  0.118776  1
