# generated using pymatgen
data_Ca2Sb3O8
_symmetry_space_group_name_H-M   'P 1'
_cell_length_a   5.47149136
_cell_length_b   6.78169052
_cell_length_c   6.65280147
_cell_angle_alpha   120.64297332
_cell_angle_beta   107.88670864
_cell_angle_gamma   89.99999637
_symmetry_Int_Tables_number   1
_chemical_formula_structural   Ca2Sb3O8
_chemical_formula_sum   'Ca2 Sb3 O8'
_cell_volume   198.39306427
_cell_formula_units_Z   1
loop_
 _symmetry_equiv_pos_site_id
 _symmetry_equiv_pos_as_xyz
  1  'x, y, z'
loop_
 _atom_site_type_symbol
 _atom_site_label
 _atom_site_symmetry_multiplicity
 _atom_site_fract_x
 _atom_site_fract_y
 _atom_site_fract_z
 _atom_site_occupancy
  Ca  Ca0  1  0.654708  0.719861  0.439722  1
  Ca  Ca1  1  0.345291  0.280140  0.560278  1
  Sb  Sb2  1  0.500000  0.999999  0.000000  1
  Sb  Sb3  1  0.999999  0.733462  -0.000000  1
  Sb  Sb4  1  0.999999  0.266538  1.000000  1
  O  O5  1  0.070218  0.395205  0.790411  1
  O  O6  1  0.929782  0.604794  0.209589  1
  O  O7  1  0.112171  0.892738  0.785475  1
  O  O8  1  0.887829  0.107262  0.214524  1
  O  O9  1  0.425106  0.320940  0.226856  1
  O  O10  1  0.425106  0.905917  0.226856  1
  O  O11  1  0.574895  0.094083  0.773144  1
  O  O12  1  0.574895  0.679060  0.773144  1
