# generated using pymatgen
data_CaCo2(CuO4)2
_symmetry_space_group_name_H-M   'P 1'
_cell_length_a   6.62276263
_cell_length_b   8.73329509
_cell_length_c   11.96545814
_cell_angle_alpha   90.00000000
_cell_angle_beta   86.53170230
_cell_angle_gamma   90.00000000
_symmetry_Int_Tables_number   1
_chemical_formula_structural   CaCo2(CuO4)2
_chemical_formula_sum   'Ca4 Co8 Cu8 O32'
_cell_volume   690.79706544
_cell_formula_units_Z   4
loop_
 _symmetry_equiv_pos_site_id
 _symmetry_equiv_pos_as_xyz
  1  'x, y, z'
loop_
 _atom_site_type_symbol
 _atom_site_label
 _atom_site_symmetry_multiplicity
 _atom_site_fract_x
 _atom_site_fract_y
 _atom_site_fract_z
 _atom_site_occupancy
  Ca  Ca0  1  0.136294  0.167071  0.036437  1
  Ca  Ca1  1  0.863706  0.832929  0.963563  1
  Ca  Ca2  1  0.863706  0.667071  0.463563  1
  Ca  Ca3  1  0.136294  0.332929  0.536437  1
  Co  Co4  1  0.095519  0.466180  0.841801  1
  Co  Co5  1  0.095519  0.033820  0.341801  1
  Co  Co6  1  0.602724  0.097881  0.133179  1
  Co  Co7  1  0.904481  0.966180  0.658199  1
  Co  Co8  1  0.397276  0.902119  0.866821  1
  Co  Co9  1  0.397276  0.597881  0.366821  1
  Co  Co10  1  0.602724  0.402119  0.633179  1
  Co  Co11  1  0.904481  0.533820  0.158199  1
  Cu  Cu12  1  0.741223  0.193420  0.874170  1
  Cu  Cu13  1  0.392609  0.044286  0.636756  1
  Cu  Cu14  1  0.607391  0.955714  0.363244  1
  Cu  Cu15  1  0.258777  0.806580  0.125830  1
  Cu  Cu16  1  0.741223  0.306580  0.374170  1
  Cu  Cu17  1  0.392609  0.455714  0.136756  1
  Cu  Cu18  1  0.258777  0.693420  0.625830  1
  Cu  Cu19  1  0.607391  0.544286  0.863244  1
  O  O20  1  0.007960  0.222611  0.378128  1
  O  O21  1  0.667619  0.996002  0.602197  1
  O  O22  1  0.201631  0.593660  0.482087  1
  O  O23  1  0.798369  0.093660  0.017913  1
  O  O24  1  0.007960  0.277389  0.878128  1
  O  O25  1  0.992040  0.777389  0.621872  1
  O  O26  1  0.114425  0.083891  0.617409  1
  O  O27  1  0.518857  0.903632  0.133840  1
  O  O28  1  0.518857  0.596368  0.633840  1
  O  O29  1  0.333307  0.862238  0.720649  1
  O  O30  1  0.666693  0.362238  0.779351  1
  O  O31  1  0.481143  0.096368  0.866160  1
  O  O32  1  0.885575  0.916109  0.382591  1
  O  O33  1  0.864227  0.504328  0.297130  1
  O  O34  1  0.438783  0.251064  0.598020  1
  O  O35  1  0.438783  0.248936  0.098020  1
  O  O36  1  0.135773  0.004328  0.202870  1
  O  O37  1  0.481143  0.403632  0.366160  1
  O  O38  1  0.135773  0.495672  0.702870  1
  O  O39  1  0.798369  0.406340  0.517913  1
  O  O40  1  0.667619  0.503998  0.102197  1
  O  O41  1  0.666693  0.137762  0.279351  1
  O  O42  1  0.992040  0.722611  0.121872  1
  O  O43  1  0.114425  0.416109  0.117409  1
  O  O44  1  0.201631  0.906340  0.982087  1
  O  O45  1  0.561217  0.751064  0.901980  1
  O  O46  1  0.332381  0.003998  0.397803  1
  O  O47  1  0.332381  0.496002  0.897803  1
  O  O48  1  0.885575  0.583891  0.882591  1
  O  O49  1  0.561217  0.748936  0.401980  1
  O  O50  1  0.333307  0.637762  0.220649  1
  O  O51  1  0.864227  0.995672  0.797130  1
