# generated using pymatgen
data_YAgO3
_symmetry_space_group_name_H-M   'P 1'
_cell_length_a   6.51376800
_cell_length_b   6.51376761
_cell_length_c   11.65372387
_cell_angle_alpha   90.00000000
_cell_angle_beta   90.00000000
_cell_angle_gamma   120.00000199
_symmetry_Int_Tables_number   1
_chemical_formula_structural   YAgO3
_chemical_formula_sum   'Y6 Ag6 O18'
_cell_volume   428.21304450
_cell_formula_units_Z   6
loop_
 _symmetry_equiv_pos_site_id
 _symmetry_equiv_pos_as_xyz
  1  'x, y, z'
loop_
 _atom_site_type_symbol
 _atom_site_label
 _atom_site_symmetry_multiplicity
 _atom_site_fract_x
 _atom_site_fract_y
 _atom_site_fract_z
 _atom_site_occupancy
  Y  Y0  1  0.666667  0.333333  0.232988  1
  Y  Y1  1  0.333333  0.666667  0.732988  1
  Y  Y2  1  0.666667  0.333333  0.732988  1
  Y  Y3  1  0.333333  0.666667  0.232988  1
  Y  Y4  1  0.000000  0.000000  0.772953  1
  Y  Y5  1  0.000000  0.000000  0.272953  1
  Ag  Ag6  1  0.667316  0.000000  0.501169  1
  Ag  Ag7  1  0.667316  0.667316  0.001169  1
  Ag  Ag8  1  0.000000  0.332684  0.001169  1
  Ag  Ag9  1  1.000000  0.667316  0.501169  1
  Ag  Ag10  1  0.332684  0.332684  0.501169  1
  Ag  Ag11  1  0.332684  0.000000  0.001169  1
  O  O12  1  0.666667  0.333333  0.027508  1
  O  O13  1  0.333333  0.666667  0.527508  1
  O  O14  1  0.666667  0.333333  0.527508  1
  O  O15  1  0.333333  0.666667  0.027508  1
  O  O16  1  0.000000  0.000000  0.971735  1
  O  O17  1  0.000000  0.000000  0.471735  1
  O  O18  1  0.356580  0.000000  0.827762  1
  O  O19  1  0.356580  0.356580  0.327762  1
  O  O20  1  0.000000  0.643420  0.327762  1
  O  O21  1  1.000000  0.356580  0.827762  1
  O  O22  1  0.643420  0.643420  0.827762  1
  O  O23  1  0.643420  0.000000  0.327762  1
  O  O24  1  0.310377  0.000000  0.174175  1
  O  O25  1  0.310377  0.310377  0.674175  1
  O  O26  1  1.000000  0.689623  0.674175  1
  O  O27  1  0.000000  0.310377  0.174175  1
  O  O28  1  0.689623  0.689623  0.174175  1
  O  O29  1  0.689623  0.000000  0.674175  1
