# generated using pymatgen
data_AlMo(WO4)2
_symmetry_space_group_name_H-M   'P 1'
_cell_length_a   5.20840203
_cell_length_b   5.68790669
_cell_length_c   9.25073265
_cell_angle_alpha   89.97254986
_cell_angle_beta   91.62696069
_cell_angle_gamma   89.97661151
_symmetry_Int_Tables_number   1
_chemical_formula_structural   AlMo(WO4)2
_chemical_formula_sum   'Al2 Mo2 W4 O16'
_cell_volume   273.94153752
_cell_formula_units_Z   2
loop_
 _symmetry_equiv_pos_site_id
 _symmetry_equiv_pos_as_xyz
  1  'x, y, z'
loop_
 _atom_site_type_symbol
 _atom_site_label
 _atom_site_symmetry_multiplicity
 _atom_site_fract_x
 _atom_site_fract_y
 _atom_site_fract_z
 _atom_site_occupancy
  Al  Al0  1  0.250226  0.663107  0.250107  1
  Al  Al1  1  0.749773  0.336892  0.749893  1
  Mo  Mo2  1  0.750220  0.361762  0.249943  1
  Mo  Mo3  1  0.249780  0.638237  0.750057  1
  W  W4  1  0.248554  0.159209  0.501224  1
  W  W5  1  0.251352  0.159241  0.998816  1
  W  W6  1  0.751446  0.840791  0.498776  1
  W  W7  1  0.748648  0.840759  0.001184  1
  O  O8  1  0.387098  0.386215  0.132283  1
  O  O9  1  0.113597  0.386951  0.367825  1
  O  O10  1  0.612902  0.613784  0.867717  1
  O  O11  1  0.886402  0.613048  0.632175  1
  O  O12  1  0.418268  0.891420  0.610040  1
  O  O13  1  0.081586  0.891278  0.889951  1
  O  O14  1  0.581732  0.108580  0.389960  1
  O  O15  1  0.918414  0.108722  0.110049  1
  O  O16  1  0.941881  0.633428  0.139561  1
  O  O17  1  0.558667  0.633044  0.360500  1
  O  O18  1  0.058119  0.366573  0.860439  1
  O  O19  1  0.441333  0.366957  0.639500  1
  O  O20  1  0.421496  0.877164  0.116109  1
  O  O21  1  0.578504  0.122837  0.883891  1
  O  O22  1  0.078469  0.877465  0.383941  1
  O  O23  1  0.921531  0.122536  0.616059  1
