# generated using pymatgen
data_CaMoF5
_symmetry_space_group_name_H-M   'P 1'
_cell_length_a   5.72396895
_cell_length_b   7.99452260
_cell_length_c   10.74768559
_cell_angle_alpha   90.00000000
_cell_angle_beta   90.00000000
_cell_angle_gamma   109.86212621
_symmetry_Int_Tables_number   1
_chemical_formula_structural   CaMoF5
_chemical_formula_sum   'Ca4 Mo4 F20'
_cell_volume   462.56154269
_cell_formula_units_Z   4
loop_
 _symmetry_equiv_pos_site_id
 _symmetry_equiv_pos_as_xyz
  1  'x, y, z'
loop_
 _atom_site_type_symbol
 _atom_site_label
 _atom_site_symmetry_multiplicity
 _atom_site_fract_x
 _atom_site_fract_y
 _atom_site_fract_z
 _atom_site_occupancy
  Ca  Ca0  1  0.474311  0.747283  0.016139  1
  Ca  Ca1  1  0.525689  0.752717  0.516139  1
  Ca  Ca2  1  0.525689  0.252717  0.983861  1
  Ca  Ca3  1  0.474311  0.247283  0.483861  1
  Mo  Mo4  1  0.890550  0.599417  0.754014  1
  Mo  Mo5  1  0.109450  0.900583  0.254014  1
  Mo  Mo6  1  0.109450  0.400583  0.245986  1
  Mo  Mo7  1  0.890550  0.099417  0.745986  1
  F  F8  1  0.601934  0.554507  0.887626  1
  F  F9  1  0.398066  0.945493  0.387626  1
  F  F10  1  0.398066  0.445493  0.112374  1
  F  F11  1  0.601934  0.054507  0.612374  1
  F  F12  1  0.635359  0.502903  0.606275  1
  F  F13  1  0.364641  0.997097  0.106275  1
  F  F14  1  0.364641  0.497097  0.393725  1
  F  F15  1  0.635359  0.002903  0.893725  1
  F  F16  1  0.865861  0.809516  0.400361  1
  F  F17  1  0.134139  0.690484  0.900361  1
  F  F18  1  0.134139  0.190484  0.599639  1
  F  F19  1  0.865861  0.309516  0.099639  1
  F  F20  1  0.815095  0.853745  0.132123  1
  F  F21  1  0.184905  0.646255  0.632123  1
  F  F22  1  0.184905  0.146255  0.867877  1
  F  F23  1  0.815095  0.353745  0.367877  1
  F  F24  1  0.853157  0.838939  0.687576  1
  F  F25  1  0.146843  0.661061  0.187576  1
  F  F26  1  0.146843  0.161061  0.312424  1
  F  F27  1  0.853157  0.338939  0.812424  1
