# generated using pymatgen
data_WF5
_symmetry_space_group_name_H-M   'P 1'
_cell_length_a   3.60042297
_cell_length_b   5.80583205
_cell_length_c   8.55637202
_cell_angle_alpha   90.00000000
_cell_angle_beta   90.00000000
_cell_angle_gamma   108.06341310
_symmetry_Int_Tables_number   1
_chemical_formula_structural   WF5
_chemical_formula_sum   'W2 F10'
_cell_volume   170.04250948
_cell_formula_units_Z   2
loop_
 _symmetry_equiv_pos_site_id
 _symmetry_equiv_pos_as_xyz
  1  'x, y, z'
loop_
 _atom_site_type_symbol
 _atom_site_label
 _atom_site_symmetry_multiplicity
 _atom_site_fract_x
 _atom_site_fract_y
 _atom_site_fract_z
 _atom_site_occupancy
  W  W0  1  0.500000  -0.000000  0.500000  1
  W  W1  1  0.500000  -0.000000  -0.000000  1
  F  F2  1  0.478375  0.956750  0.250000  1
  F  F3  1  0.521625  0.043250  0.750000  1
  F  F4  1  0.076264  0.152526  0.584853  1
  F  F5  1  0.923736  0.847474  0.415147  1
  F  F6  1  0.340554  0.681107  0.914251  1
  F  F7  1  0.659446  0.318893  0.085749  1
  F  F8  1  0.659446  0.318893  0.414251  1
  F  F9  1  0.340554  0.681107  0.585749  1
  F  F10  1  0.076264  0.152526  0.915147  1
  F  F11  1  0.923736  0.847474  0.084853  1
