# generated using pymatgen
data_ZnFeP2O7
_symmetry_space_group_name_H-M   'P 1'
_cell_length_a   6.60919776
_cell_length_b   6.37457916
_cell_length_c   6.77866418
_cell_angle_alpha   66.73238455
_cell_angle_beta   79.23944139
_cell_angle_gamma   79.70541234
_symmetry_Int_Tables_number   1
_chemical_formula_structural   ZnFeP2O7
_chemical_formula_sum   'Zn2 Fe2 P4 O14'
_cell_volume   256.00151143
_cell_formula_units_Z   2
loop_
 _symmetry_equiv_pos_site_id
 _symmetry_equiv_pos_as_xyz
  1  'x, y, z'
loop_
 _atom_site_type_symbol
 _atom_site_label
 _atom_site_symmetry_multiplicity
 _atom_site_fract_x
 _atom_site_fract_y
 _atom_site_fract_z
 _atom_site_occupancy
  Zn  Zn0  1  0.865006  0.289258  0.160798  1
  Zn  Zn1  1  0.134994  0.710742  0.839202  1
  Fe  Fe2  1  0.660648  0.102749  0.779289  1
  Fe  Fe3  1  0.339352  0.897251  0.220711  1
  P  P4  1  0.157017  0.217708  0.758243  1
  P  P5  1  0.842983  0.782292  0.241757  1
  P  P6  1  0.613304  0.639514  0.689073  1
  P  P7  1  0.386696  0.360486  0.310927  1
  O  O8  1  0.759149  0.610008  0.475839  1
  O  O9  1  0.240851  0.389992  0.524161  1
  O  O10  1  0.008276  0.065703  0.741595  1
  O  O11  1  0.991724  0.934297  0.258405  1
  O  O12  1  0.608446  0.268002  0.377090  1
  O  O13  1  0.391554  0.731998  0.622910  1
  O  O14  1  0.372201  0.608779  0.147696  1
  O  O15  1  0.627799  0.391221  0.852303  1
  O  O16  1  0.950586  0.612544  0.131255  1
  O  O17  1  0.049414  0.387456  0.868745  1
  O  O18  1  0.658728  0.936495  0.133868  1
  O  O19  1  0.341272  0.063505  0.866132  1
  O  O20  1  0.284284  0.201348  0.255384  1
  O  O21  1  0.715716  0.798652  0.744616  1
