# generated using pymatgen
data_Mn4Al(CuO4)3
_symmetry_space_group_name_H-M   'P 1'
_cell_length_a   6.31944068
_cell_length_b   6.31908588
_cell_length_c   6.31885028
_cell_angle_alpha   109.49660382
_cell_angle_beta   109.53807638
_cell_angle_gamma   109.38667109
_symmetry_Int_Tables_number   1
_chemical_formula_structural   Mn4Al(CuO4)3
_chemical_formula_sum   'Mn4 Al1 Cu3 O12'
_cell_volume   194.22594658
_cell_formula_units_Z   1
loop_
 _symmetry_equiv_pos_site_id
 _symmetry_equiv_pos_as_xyz
  1  'x, y, z'
loop_
 _atom_site_type_symbol
 _atom_site_label
 _atom_site_symmetry_multiplicity
 _atom_site_fract_x
 _atom_site_fract_y
 _atom_site_fract_z
 _atom_site_occupancy
  Mn  Mn0  1  0.499938  0.999978  -0.000032  1
  Mn  Mn1  1  0.000039  0.000002  0.500031  1
  Mn  Mn2  1  0.999999  0.500004  0.000008  1
  Mn  Mn3  1  0.500035  0.500068  0.500069  1
  Al  Al4  1  0.000016  -0.000002  0.999934  1
  Cu  Cu5  1  0.500023  0.999975  0.500018  1
  Cu  Cu6  1  0.499998  0.500005  0.000007  1
  Cu  Cu7  1  -0.000007  0.500019  0.499986  1
  O  O8  1  0.828895  0.293300  0.122269  1
  O  O9  1  0.171104  0.706710  0.877738  1
  O  O10  1  0.828836  0.706499  0.535323  1
  O  O11  1  0.292500  0.463521  0.171106  1
  O  O12  1  0.464965  0.171876  0.293055  1
  O  O13  1  0.121213  0.828106  0.293060  1
  O  O14  1  0.707524  0.878578  0.171150  1
  O  O15  1  0.535016  0.828074  0.706927  1
  O  O16  1  0.171154  0.293510  0.464681  1
  O  O17  1  0.707497  0.536486  0.828873  1
  O  O18  1  0.878794  0.171880  0.706945  1
  O  O19  1  0.292465  0.121409  0.828848  1
