# generated using pymatgen
data_ZnP2W2O9
_symmetry_space_group_name_H-M   'P 1'
_cell_length_a   6.69889169
_cell_length_b   7.33506825
_cell_length_c   14.98845847
_cell_angle_alpha   90.00112562
_cell_angle_beta   89.99994561
_cell_angle_gamma   90.00003707
_symmetry_Int_Tables_number   1
_chemical_formula_structural   ZnP2W2O9
_chemical_formula_sum   'Zn4 P8 W8 O36'
_cell_volume   736.48530196
_cell_formula_units_Z   4
loop_
 _symmetry_equiv_pos_site_id
 _symmetry_equiv_pos_as_xyz
  1  'x, y, z'
loop_
 _atom_site_type_symbol
 _atom_site_label
 _atom_site_symmetry_multiplicity
 _atom_site_fract_x
 _atom_site_fract_y
 _atom_site_fract_z
 _atom_site_occupancy
  Zn  Zn0  1  0.750001  0.945796  0.766573  1
  Zn  Zn1  1  0.749998  0.554187  0.266560  1
  Zn  Zn2  1  0.250002  0.445796  0.733434  1
  Zn  Zn3  1  0.250002  0.054221  0.233434  1
  P  P4  1  0.250000  0.376437  0.922421  1
  P  P5  1  0.750000  0.623573  0.077581  1
  P  P6  1  0.750000  0.876431  0.577583  1
  P  P7  1  0.250000  0.123565  0.422421  1
  P  P8  1  0.750000  0.400787  0.690391  1
  P  P9  1  0.750001  0.099240  0.190382  1
  P  P10  1  0.250000  0.900769  0.809613  1
  P  P11  1  0.250000  0.599204  0.309608  1
  W  W12  1  0.750000  0.372902  0.875250  1
  W  W13  1  0.250000  0.627106  0.124749  1
  W  W14  1  0.250001  0.872904  0.624750  1
  W  W15  1  0.750000  0.127090  0.375250  1
  W  W16  1  0.499999  0.000003  1.000000  1
  W  W17  1  0.500000  0.499997  0.500001  1
  W  W18  1  0.000001  0.499996  0.500001  1
  W  W19  1  0.000001  0.000003  1.000000  1
  O  O20  1  0.053229  0.600154  0.364772  1
  O  O21  1  0.553225  0.399826  0.635229  1
  O  O22  1  0.946769  0.100227  0.135217  1
  O  O23  1  0.446771  0.899791  0.864779  1
  O  O24  1  0.946774  0.399826  0.635228  1
  O  O25  1  0.446773  0.600154  0.364771  1
  O  O26  1  0.053229  0.899791  0.864779  1
  O  O27  1  0.553230  0.100226  0.135218  1
  O  O28  1  0.250000  0.314585  0.470858  1
  O  O29  1  0.750000  0.685399  0.529151  1
  O  O30  1  0.750000  0.814602  0.029152  1
  O  O31  1  0.250000  0.185407  0.970849  1
  O  O32  1  0.750000  0.116816  0.936268  1
  O  O33  1  0.250000  0.883192  0.063731  1
  O  O34  1  0.250000  0.616831  0.563719  1
  O  O35  1  0.750000  0.383159  0.436284  1
  O  O36  1  0.750000  0.223570  0.750961  1
  O  O37  1  0.250001  0.776431  0.249043  1
  O  O38  1  0.250000  0.723559  0.749034  1
  O  O39  1  0.750001  0.276443  0.250968  1
  O  O40  1  0.429029  0.113229  0.356644  1
  O  O41  1  0.929029  0.886775  0.643358  1
  O  O42  1  0.570971  0.613232  0.143355  1
  O  O43  1  0.070971  0.386771  0.856644  1
  O  O44  1  0.570971  0.886774  0.643358  1
  O  O45  1  0.070971  0.113228  0.356645  1
  O  O46  1  0.429031  0.386771  0.856644  1
  O  O47  1  0.929029  0.613232  0.143355  1
  O  O48  1  0.750000  0.474248  0.008542  1
  O  O49  1  0.250000  0.060566  0.741044  1
  O  O50  1  0.250000  0.439414  0.241024  1
  O  O51  1  0.750001  0.560583  0.758971  1
  O  O52  1  0.750000  0.025743  0.508543  1
  O  O53  1  0.250001  0.974235  0.491455  1
  O  O54  1  0.250001  0.525759  0.991454  1
  O  O55  1  0.750000  0.939437  0.258950  1
