# generated using pymatgen
data_CaV5O7
_symmetry_space_group_name_H-M   'P 1'
_cell_length_a   3.09697074
_cell_length_b   5.39420726
_cell_length_c   18.11935039
_cell_angle_alpha   90.00000000
_cell_angle_beta   90.00000000
_cell_angle_gamma   106.68229283
_symmetry_Int_Tables_number   1
_chemical_formula_structural   CaV5O7
_chemical_formula_sum   'Ca2 V10 O14'
_cell_volume   289.95635523
_cell_formula_units_Z   2
loop_
 _symmetry_equiv_pos_site_id
 _symmetry_equiv_pos_as_xyz
  1  'x, y, z'
loop_
 _atom_site_type_symbol
 _atom_site_label
 _atom_site_symmetry_multiplicity
 _atom_site_fract_x
 _atom_site_fract_y
 _atom_site_fract_z
 _atom_site_occupancy
  Ca  Ca0  1  0.790258  0.580513  0.750000  1
  Ca  Ca1  1  0.209743  0.419486  0.250000  1
  V  V2  1  0.273636  0.547270  0.575001  1
  V  V3  1  0.458279  0.916557  0.151883  1
  V  V4  1  -0.000000  -0.000000  0.500000  1
  V  V5  1  -0.000000  -0.000000  0.000000  1
  V  V6  1  0.541721  0.083442  0.848118  1
  V  V7  1  0.726364  0.452729  0.424999  1
  V  V8  1  0.726364  0.452729  0.075001  1
  V  V9  1  0.273636  0.547270  0.924999  1
  V  V10  1  0.541721  0.083442  0.651882  1
  V  V11  1  0.458279  0.916557  0.348118  1
  O  O12  1  0.633278  0.266556  0.960150  1
  O  O13  1  0.366723  0.733445  0.039850  1
  O  O14  1  0.366723  0.733445  0.460150  1
  O  O15  1  0.633278  0.266556  0.539850  1
  O  O16  1  0.167418  0.334838  0.827043  1
  O  O17  1  0.832582  0.665162  0.172957  1
  O  O18  1  0.832582  0.665162  0.327044  1
  O  O19  1  0.167418  0.334838  0.672957  1
  O  O20  1  0.916363  0.832726  0.889559  1
  O  O21  1  0.083637  0.167274  0.110441  1
  O  O22  1  0.083637  0.167274  0.389559  1
  O  O23  1  0.916363  0.832726  0.610441  1
  O  O24  1  0.459212  0.918425  0.750000  1
  O  O25  1  0.540789  0.081577  0.250000  1
