# generated using pymatgen
data_SbAsO5
_symmetry_space_group_name_H-M   'P 1'
_cell_length_a   7.75009340
_cell_length_b   6.28168393
_cell_length_c   8.37421755
_cell_angle_alpha   89.99654836
_cell_angle_beta   89.98615534
_cell_angle_gamma   89.99283470
_symmetry_Int_Tables_number   1
_chemical_formula_structural   SbAsO5
_chemical_formula_sum   'Sb4 As4 O20'
_cell_volume   407.68735305
_cell_formula_units_Z   4
loop_
 _symmetry_equiv_pos_site_id
 _symmetry_equiv_pos_as_xyz
  1  'x, y, z'
loop_
 _atom_site_type_symbol
 _atom_site_label
 _atom_site_symmetry_multiplicity
 _atom_site_fract_x
 _atom_site_fract_y
 _atom_site_fract_z
 _atom_site_occupancy
  Sb  Sb0  1  0.995271  0.497616  0.754535  1
  Sb  Sb1  1  0.504725  0.502295  0.254578  1
  Sb  Sb2  1  0.495233  0.001990  0.245407  1
  Sb  Sb3  1  0.004852  -0.001844  0.745391  1
  As  As4  1  0.608377  0.265596  0.919538  1
  As  As5  1  0.891513  0.734502  0.419656  1
  As  As6  1  0.108455  0.234272  0.080312  1
  As  As7  1  0.391624  0.765686  0.580392  1
  O  O8  1  0.881265  0.754573  0.837629  1
  O  O9  1  0.618739  0.245445  0.337485  1
  O  O10  1  0.381348  0.745520  0.162637  1
  O  O11  1  0.118612  0.254538  0.662491  1
  O  O12  1  0.827694  0.246307  0.826023  1
  O  O13  1  0.672315  0.753732  0.325993  1
  O  O14  1  0.327704  0.253786  0.174017  1
  O  O15  1  0.172282  0.746276  0.673972  1
  O  O16  1  0.458512  0.302137  0.785151  1
  O  O17  1  0.041476  0.697921  0.285308  1
  O  O18  1  0.958565  0.197375  0.214611  1
  O  O19  1  0.541466  0.802224  0.714837  1
  O  O20  1  0.611342  0.030003  0.032370  1
  O  O21  1  0.888423  0.969955  0.532557  1
  O  O22  1  0.111448  0.469888  0.967517  1
  O  O23  1  0.388689  0.530117  0.467674  1
  O  O24  1  0.644599  0.477747  0.052739  1
  O  O25  1  0.855220  0.522325  0.552885  1
  O  O26  1  0.144861  0.022188  0.947113  1
  O  O27  1  0.355329  0.977887  0.447285  1
