# generated using pymatgen
data_Ca3Co2(WO6)2
_symmetry_space_group_name_H-M   'P 1'
_cell_length_a   5.38825511
_cell_length_b   5.51132622
_cell_length_c   7.79898081
_cell_angle_alpha   89.38808430
_cell_angle_beta   90.41444778
_cell_angle_gamma   88.35739441
_symmetry_Int_Tables_number   1
_chemical_formula_structural   Ca3Co2(WO6)2
_chemical_formula_sum   'Ca3 Co2 W2 O12'
_cell_volume   231.48694156
_cell_formula_units_Z   1
loop_
 _symmetry_equiv_pos_site_id
 _symmetry_equiv_pos_as_xyz
  1  'x, y, z'
loop_
 _atom_site_type_symbol
 _atom_site_label
 _atom_site_symmetry_multiplicity
 _atom_site_fract_x
 _atom_site_fract_y
 _atom_site_fract_z
 _atom_site_occupancy
  Ca  Ca0  1  0.984125  0.054224  0.252085  1
  Ca  Ca1  1  0.503745  0.543826  0.250007  1
  Ca  Ca2  1  0.490655  0.453029  0.751390  1
  Co  Co3  1  0.992767  0.508928  0.501684  1
  Co  Co4  1  0.487179  0.007873  0.996700  1
  W  W5  1  0.492640  0.997660  0.509965  1
  W  W6  1  0.995971  0.518983  0.993564  1
  O  O7  1  0.705297  0.276628  0.457142  1
  O  O8  1  0.787162  0.791547  0.051399  1
  O  O9  1  0.315228  0.700765  0.532545  1
  O  O10  1  0.220871  0.218628  0.965301  1
  O  O11  1  0.215087  0.216865  0.533633  1
  O  O12  1  0.297995  0.691833  0.968781  1
  O  O13  1  0.791233  0.782246  0.448111  1
  O  O14  1  0.720203  0.301781  0.039954  1
  O  O15  1  0.078637  0.477630  0.241289  1
  O  O16  1  0.415595  0.981531  0.259201  1
  O  O17  1  0.920455  0.520609  0.756954  1
  O  O18  1  0.570810  0.011208  0.743929  1
