# generated using pymatgen
data_TiZnSb(PO4)3
_symmetry_space_group_name_H-M   'P 1'
_cell_length_a   8.40961788
_cell_length_b   8.40961794
_cell_length_c   8.40961837
_cell_angle_alpha   63.81499948
_cell_angle_beta   63.81499959
_cell_angle_gamma   63.81500119
_symmetry_Int_Tables_number   1
_chemical_formula_structural   TiZnSb(PO4)3
_chemical_formula_sum   'Ti2 Zn2 Sb2 P6 O24'
_cell_volume   455.93444376
_cell_formula_units_Z   2
loop_
 _symmetry_equiv_pos_site_id
 _symmetry_equiv_pos_as_xyz
  1  'x, y, z'
loop_
 _atom_site_type_symbol
 _atom_site_label
 _atom_site_symmetry_multiplicity
 _atom_site_fract_x
 _atom_site_fract_y
 _atom_site_fract_z
 _atom_site_occupancy
  Ti  Ti0  1  0.150613  0.150613  0.150613  1
  Ti  Ti1  1  0.650613  0.650613  0.650613  1
  Zn  Zn2  1  0.995762  0.995762  0.995762  1
  Zn  Zn3  1  0.495762  0.495762  0.495762  1
  Sb  Sb4  1  0.336133  0.336133  0.336133  1
  Sb  Sb5  1  0.836133  0.836133  0.836133  1
  P  P6  1  0.066571  0.432250  0.754288  1
  P  P7  1  0.432250  0.754288  0.066571  1
  P  P8  1  0.754288  0.066571  0.432250  1
  P  P9  1  0.254288  0.932250  0.566571  1
  P  P10  1  0.566571  0.254288  0.932250  1
  P  P11  1  0.932250  0.566571  0.254288  1
  O  O12  1  0.067322  0.569037  0.325896  1
  O  O13  1  0.325896  0.067322  0.569037  1
  O  O14  1  0.071673  0.239646  0.908222  1
  O  O15  1  0.569037  0.325896  0.067322  1
  O  O16  1  0.069037  0.567322  0.825896  1
  O  O17  1  0.245724  0.415831  0.583180  1
  O  O18  1  0.239646  0.908222  0.071673  1
  O  O19  1  0.415831  0.583180  0.245724  1
  O  O20  1  0.202769  0.003180  0.381898  1
  O  O21  1  0.583180  0.245724  0.415831  1
  O  O22  1  0.083180  0.915831  0.745724  1
  O  O23  1  0.381898  0.202769  0.003180  1
  O  O24  1  0.567322  0.825896  0.069037  1
  O  O25  1  0.908222  0.071673  0.239646  1
  O  O26  1  0.408222  0.739646  0.571673  1
  O  O27  1  0.825896  0.069037  0.567322  1
  O  O28  1  0.571673  0.408222  0.739646  1
  O  O29  1  0.745724  0.083180  0.915831  1
  O  O30  1  0.739646  0.571673  0.408222  1
  O  O31  1  0.003180  0.381898  0.202769  1
  O  O32  1  0.503180  0.702769  0.881898  1
  O  O33  1  0.915831  0.745724  0.083180  1
  O  O34  1  0.702769  0.881898  0.503180  1
  O  O35  1  0.881898  0.503180  0.702769  1
