# generated using pymatgen
data_Ba2ZnCuSb2F14
_symmetry_space_group_name_H-M   'P 1'
_cell_length_a   5.35322132
_cell_length_b   7.70771229
_cell_length_c   16.27210653
_cell_angle_alpha   90.16370917
_cell_angle_beta   89.89483632
_cell_angle_gamma   110.34927515
_symmetry_Int_Tables_number   1
_chemical_formula_structural   Ba2ZnCuSb2F14
_chemical_formula_sum   'Ba4 Zn2 Cu2 Sb4 F28'
_cell_volume   629.49979505
_cell_formula_units_Z   2
loop_
 _symmetry_equiv_pos_site_id
 _symmetry_equiv_pos_as_xyz
  1  'x, y, z'
loop_
 _atom_site_type_symbol
 _atom_site_label
 _atom_site_symmetry_multiplicity
 _atom_site_fract_x
 _atom_site_fract_y
 _atom_site_fract_z
 _atom_site_occupancy
  Ba  Ba0  1  0.090249  0.353000  0.626759  1
  Ba  Ba1  1  0.264864  0.354927  0.127055  1
  Ba  Ba2  1  0.910572  0.644557  0.372625  1
  Ba  Ba3  1  0.738340  0.643415  0.872805  1
  Zn  Zn4  1  0.449814  0.999337  0.748432  1
  Zn  Zn5  1  0.552429  0.999477  0.249634  1
  Cu  Cu6  1  0.502328  0.999511  0.000245  1
  Cu  Cu7  1  0.500579  0.998952  0.500042  1
  Sb  Sb8  1  0.070781  0.224140  0.876532  1
  Sb  Sb9  1  0.931230  0.773397  0.123119  1
  Sb  Sb10  1  0.156903  0.224898  0.376415  1
  Sb  Sb11  1  0.843645  0.771448  0.623386  1
  F  F12  1  0.821090  0.968551  0.328428  1
  F  F13  1  0.887402  0.299510  0.450265  1
  F  F14  1  0.115595  0.699503  0.549722  1
  F  F15  1  0.617600  0.493426  0.601897  1
  F  F16  1  0.653290  0.059842  0.607684  1
  F  F17  1  0.597562  0.935414  0.893913  1
  F  F18  1  0.415378  0.297869  0.949607  1
  F  F19  1  0.851326  0.030130  0.170286  1
  F  F20  1  0.338648  0.353403  0.784065  1
  F  F21  1  0.385733  0.501741  0.398171  1
  F  F22  1  0.773942  0.219909  0.763738  1
  F  F23  1  0.120090  0.500618  0.899282  1
  F  F24  1  0.446669  0.219700  0.263875  1
  F  F25  1  0.225616  0.779739  0.236296  1
  F  F26  1  0.407404  0.062667  0.107166  1
  F  F27  1  0.660365  0.646624  0.215152  1
  F  F28  1  0.131206  0.839458  0.988010  1
  F  F29  1  0.176740  0.028131  0.670408  1
  F  F30  1  0.873342  0.160431  0.011980  1
  F  F31  1  0.715585  0.841549  0.487590  1
  F  F32  1  0.587582  0.699463  0.049518  1
  F  F33  1  0.558463  0.779846  0.736996  1
  F  F34  1  0.015475  0.353455  0.284573  1
  F  F35  1  0.290195  0.159278  0.511967  1
  F  F36  1  0.346013  0.936756  0.393117  1
  F  F37  1  0.154121  0.968209  0.828848  1
  F  F38  1  0.989468  0.645313  0.714865  1
  F  F39  1  0.880022  0.495844  0.101939  1
