# generated using pymatgen
data_Ca(CoO2)2
_symmetry_space_group_name_H-M   'P 1'
_cell_length_a   6.18590536
_cell_length_b   6.02038630
_cell_length_c   23.91215671
_cell_angle_alpha   59.76539053
_cell_angle_beta   61.11054341
_cell_angle_gamma   60.88125160
_symmetry_Int_Tables_number   1
_chemical_formula_structural   Ca(CoO2)2
_chemical_formula_sum   'Ca8 Co16 O32'
_cell_volume   637.83116089
_cell_formula_units_Z   8
loop_
 _symmetry_equiv_pos_site_id
 _symmetry_equiv_pos_as_xyz
  1  'x, y, z'
loop_
 _atom_site_type_symbol
 _atom_site_label
 _atom_site_symmetry_multiplicity
 _atom_site_fract_x
 _atom_site_fract_y
 _atom_site_fract_z
 _atom_site_occupancy
  Ca  Ca0  1  0.139564  0.123507  0.028356  1
  Ca  Ca1  1  0.999073  0.499425  0.125519  1
  Ca  Ca2  1  0.122804  0.118256  0.285171  1
  Ca  Ca3  1  0.005967  0.497831  0.374593  1
  Ca  Ca4  1  0.000419  0.498780  0.625505  1
  Ca  Ca5  1  0.497884  0.509395  0.495832  1
  Ca  Ca6  1  0.993192  0.503277  0.875064  1
  Ca  Ca7  1  0.500531  0.493203  0.753265  1
  Co  Co8  1  0.501406  0.495057  0.125238  1
  Co  Co9  1  0.502259  0.499527  0.249672  1
  Co  Co10  1  0.501406  0.002585  0.125238  1
  Co  Co11  1  0.133208  0.111867  0.535765  1
  Co  Co12  1  0.496189  0.496412  0.373289  1
  Co  Co13  1  0.829214  0.890552  0.222421  1
  Co  Co14  1  0.140306  0.111956  0.783946  1
  Co  Co15  1  0.496189  0.014244  0.373289  1
  Co  Co16  1  0.499761  0.499528  0.624943  1
  Co  Co17  1  0.857408  0.886695  0.467300  1
  Co  Co18  1  0.499761  0.000939  0.624943  1
  Co  Co19  1  0.506420  0.988413  0.875491  1
  Co  Co20  1  0.506420  0.503202  0.875491  1
  Co  Co21  1  0.863122  0.887862  0.715288  1
  Co  Co22  1  0.500841  0.494219  0.002680  1
  Co  Co23  1  0.828486  0.891114  0.972321  1
  O  O24  1  0.316712  0.249720  0.061442  1
  O  O25  1  0.312005  0.242084  0.175956  1
  O  O26  1  0.316712  0.687801  0.061442  1
  O  O27  1  0.696164  0.264965  0.068477  1
  O  O28  1  0.294371  0.735590  0.183612  1
  O  O29  1  0.317144  0.259398  0.308468  1
  O  O30  1  0.697042  0.288727  0.190480  1
  O  O31  1  0.291064  0.234842  0.434813  1
  O  O32  1  0.317144  0.689586  0.308468  1
  O  O33  1  0.698846  0.758606  0.070985  1
  O  O34  1  0.684560  0.273851  0.316935  1
  O  O35  1  0.697042  0.752310  0.190480  1
  O  O36  1  0.275706  0.216771  0.567580  1
  O  O37  1  0.250413  0.779206  0.422793  1
  O  O38  1  0.733299  0.261897  0.427274  1
  O  O39  1  0.296466  0.234491  0.683638  1
  O  O40  1  0.275706  0.737201  0.567580  1
  O  O41  1  0.694036  0.760324  0.321329  1
  O  O42  1  0.736424  0.240658  0.570565  1
  O  O43  1  0.733299  0.795708  0.427274  1
  O  O44  1  0.262594  0.761166  0.678769  1
  O  O45  1  0.273931  0.203393  0.821211  1
  O  O46  1  0.724032  0.263491  0.681636  1
  O  O47  1  0.321879  0.248780  0.920140  1
  O  O48  1  0.273931  0.737828  0.821211  1
  O  O49  1  0.706067  0.765744  0.565612  1
  O  O50  1  0.760653  0.224236  0.822719  1
  O  O51  1  0.724032  0.785935  0.681636  1
  O  O52  1  0.299231  0.727798  0.936293  1
  O  O53  1  0.693093  0.289701  0.942766  1
  O  O54  1  0.711484  0.764207  0.815025  1
  O  O55  1  0.693093  0.746141  0.942766  1
