# generated using pymatgen
data_CaCuF5
_symmetry_space_group_name_H-M   'P 1'
_cell_length_a   5.55540236
_cell_length_b   5.54428834
_cell_length_c   7.75562856
_cell_angle_alpha   96.58195095
_cell_angle_beta   111.48103133
_cell_angle_gamma   108.84211212
_symmetry_Int_Tables_number   1
_chemical_formula_structural   CaCuF5
_chemical_formula_sum   'Ca2 Cu2 F10'
_cell_volume   202.88529625
_cell_formula_units_Z   2
loop_
 _symmetry_equiv_pos_site_id
 _symmetry_equiv_pos_as_xyz
  1  'x, y, z'
loop_
 _atom_site_type_symbol
 _atom_site_label
 _atom_site_symmetry_multiplicity
 _atom_site_fract_x
 _atom_site_fract_y
 _atom_site_fract_z
 _atom_site_occupancy
  Ca  Ca0  1  0.293101  0.541742  0.749641  1
  Ca  Ca1  1  0.704654  0.455100  0.253394  1
  Cu  Cu2  1  0.997987  0.002797  0.998068  1
  Cu  Cu3  1  0.497650  -0.000513  0.499451  1
  F  F4  1  0.316981  0.071608  0.254034  1
  F  F5  1  0.674083  0.932681  0.746210  1
  F  F6  1  0.585727  0.749998  0.378227  1
  F  F7  1  0.878133  0.214483  0.113790  1
  F  F8  1  0.735254  0.693908  0.022289  1
  F  F9  1  0.167328  0.712900  0.478169  1
  F  F10  1  0.267107  0.308043  0.975435  1
  F  F11  1  0.834995  0.280791  0.522778  1
  F  F12  1  0.120966  0.793188  0.882026  1
  F  F13  1  0.415069  0.253073  0.620660  1
