# generated using pymatgen
data_ZnSi2NiO6
_symmetry_space_group_name_H-M   'P 1'
_cell_length_a   5.28891746
_cell_length_b   9.05893691
_cell_length_c   18.50925816
_cell_angle_alpha   90.00000000
_cell_angle_beta   90.00000000
_cell_angle_gamma   90.00000000
_symmetry_Int_Tables_number   1
_chemical_formula_structural   ZnSi2NiO6
_chemical_formula_sum   'Zn8 Si16 Ni8 O48'
_cell_volume   886.81501414
_cell_formula_units_Z   8
loop_
 _symmetry_equiv_pos_site_id
 _symmetry_equiv_pos_as_xyz
  1  'x, y, z'
loop_
 _atom_site_type_symbol
 _atom_site_label
 _atom_site_symmetry_multiplicity
 _atom_site_fract_x
 _atom_site_fract_y
 _atom_site_fract_z
 _atom_site_occupancy
  Zn  Zn0  1  0.618223  0.147895  0.623455  1
  Zn  Zn1  1  0.381777  0.852105  0.376545  1
  Zn  Zn2  1  0.618223  0.647895  0.876545  1
  Zn  Zn3  1  0.118223  0.852105  0.876545  1
  Zn  Zn4  1  0.881777  0.147895  0.123455  1
  Zn  Zn5  1  0.381777  0.352105  0.123455  1
  Zn  Zn6  1  0.118223  0.352105  0.623455  1
  Zn  Zn7  1  0.881777  0.647895  0.376545  1
  Si  Si8  1  0.567002  0.659867  0.227636  1
  Si  Si9  1  0.717240  0.836204  0.525799  1
  Si  Si10  1  0.782760  0.836204  0.025799  1
  Si  Si11  1  0.932998  0.159867  0.772364  1
  Si  Si12  1  0.067002  0.340133  0.272364  1
  Si  Si13  1  0.432998  0.840133  0.727636  1
  Si  Si14  1  0.217240  0.663796  0.525799  1
  Si  Si15  1  0.717240  0.336204  0.974201  1
  Si  Si16  1  0.782760  0.336204  0.474201  1
  Si  Si17  1  0.932998  0.659867  0.727636  1
  Si  Si18  1  0.432998  0.340133  0.772364  1
  Si  Si19  1  0.567002  0.159867  0.272364  1
  Si  Si20  1  0.282760  0.163796  0.474201  1
  Si  Si21  1  0.067002  0.840133  0.227636  1
  Si  Si22  1  0.282760  0.663796  0.025799  1
  Si  Si23  1  0.217240  0.163796  0.974201  1
  Ni  Ni24  1  0.375864  0.997426  0.124822  1
  Ni  Ni25  1  0.624136  0.002574  0.875178  1
  Ni  Ni26  1  0.875864  0.002574  0.375178  1
  Ni  Ni27  1  0.124136  0.997426  0.624822  1
  Ni  Ni28  1  0.375864  0.497426  0.375178  1
  Ni  Ni29  1  0.624136  0.502574  0.624822  1
  Ni  Ni30  1  0.875864  0.502574  0.124822  1
  Ni  Ni31  1  0.124136  0.497426  0.875178  1
  O  O32  1  0.927291  0.499760  0.689047  1
  O  O33  1  0.309391  0.015880  0.933206  1
  O  O34  1  0.072709  0.500240  0.310953  1
  O  O35  1  0.715379  0.341974  0.063283  1
  O  O36  1  0.215379  0.158026  0.063283  1
  O  O37  1  0.921028  0.203980  0.949478  1
  O  O38  1  0.945863  0.658019  0.816193  1
  O  O39  1  0.054137  0.841981  0.316193  1
  O  O40  1  0.715379  0.841974  0.436717  1
  O  O41  1  0.945863  0.158019  0.683807  1
  O  O42  1  0.427291  0.500240  0.810953  1
  O  O43  1  0.784621  0.341974  0.563283  1
  O  O44  1  0.690609  0.984120  0.066794  1
  O  O45  1  0.445863  0.841981  0.816193  1
  O  O46  1  0.572709  -0.000240  0.310953  1
  O  O47  1  0.309391  0.515880  0.566794  1
  O  O48  1  0.427291  0.000240  0.689047  1
  O  O49  1  0.162244  0.768023  0.697929  1
  O  O50  1  0.337756  0.768023  0.197929  1
  O  O51  1  0.578972  0.703980  0.050522  1
  O  O52  1  0.784621  0.841974  0.936717  1
  O  O53  1  0.554137  0.658019  0.316193  1
  O  O54  1  0.809391  0.484120  0.933206  1
  O  O55  1  0.162244  0.268023  0.802071  1
  O  O56  1  0.284621  0.158026  0.563283  1
  O  O57  1  0.554137  0.158019  0.183807  1
  O  O58  1  0.690609  0.484120  0.433206  1
  O  O59  1  0.215379  0.658026  0.436717  1
  O  O60  1  0.190609  0.515880  0.066794  1
  O  O61  1  0.662244  0.731977  0.697929  1
  O  O62  1  0.072709  0.000240  0.189047  1
  O  O63  1  0.837756  0.731977  0.197929  1
  O  O64  1  0.837756  0.231977  0.302071  1
  O  O65  1  0.809391  0.984120  0.566794  1
  O  O66  1  0.284621  0.658026  0.936717  1
  O  O67  1  0.190609  0.015880  0.433206  1
  O  O68  1  0.337756  0.268023  0.302071  1
  O  O69  1  0.078972  0.796020  0.050522  1
  O  O70  1  0.421028  0.796020  0.550522  1
  O  O71  1  0.662244  0.231977  0.802071  1
  O  O72  1  0.421028  0.296020  0.949478  1
  O  O73  1  0.578972  0.203980  0.449478  1
  O  O74  1  0.078972  0.296020  0.449478  1
  O  O75  1  0.445863  0.341981  0.683807  1
  O  O76  1  0.572709  0.499760  0.189047  1
  O  O77  1  0.921028  0.703980  0.550522  1
  O  O78  1  0.054137  0.341981  0.183807  1
  O  O79  1  0.927291  -0.000240  0.810953  1
