# generated using pymatgen
data_Ca3Fe2(WO6)2
_symmetry_space_group_name_H-M   'P 1'
_cell_length_a   5.55516383
_cell_length_b   11.11098838
_cell_length_c   5.55516381
_cell_angle_alpha   60.00196725
_cell_angle_beta   59.99999433
_cell_angle_gamma   60.00196617
_symmetry_Int_Tables_number   1
_chemical_formula_structural   Ca3Fe2(WO6)2
_chemical_formula_sum   'Ca3 Fe2 W2 O12'
_cell_volume   242.46236001
_cell_formula_units_Z   1
loop_
 _symmetry_equiv_pos_site_id
 _symmetry_equiv_pos_as_xyz
  1  'x, y, z'
loop_
 _atom_site_type_symbol
 _atom_site_label
 _atom_site_symmetry_multiplicity
 _atom_site_fract_x
 _atom_site_fract_y
 _atom_site_fract_z
 _atom_site_occupancy
  Ca  Ca0  1  0.240685  0.138972  0.240686  1
  Ca  Ca1  1  0.741123  0.388314  0.741125  1
  Ca  Ca2  1  0.756532  0.865200  0.756534  1
  Fe  Fe3  1  0.496045  0.255933  0.496043  1
  Fe  Fe4  1  0.502912  0.745633  0.502910  1
  W  W5  1  0.003533  0.994701  0.003533  1
  W  W6  1  0.996511  0.505234  0.996511  1
  O  O7  1  0.246409  0.367615  0.771956  1
  O  O8  1  0.247071  0.882136  0.741588  1
  O  O9  1  0.246409  0.367615  0.246405  1
  O  O10  1  0.247071  0.882136  0.247068  1
  O  O11  1  0.754818  0.121484  0.754817  1
  O  O12  1  0.754205  0.622436  0.754204  1
  O  O13  1  0.247399  0.121484  0.754816  1
  O  O14  1  0.246721  0.622436  0.754203  1
  O  O15  1  0.754818  0.121484  0.247397  1
  O  O16  1  0.754205  0.622436  0.246719  1
  O  O17  1  0.771955  0.367615  0.246408  1
  O  O18  1  0.741587  0.882136  0.247070  1
