# generated using pymatgen
data_AlBi(WO4)2
_symmetry_space_group_name_H-M   'P 1'
_cell_length_a   5.13581182
_cell_length_b   6.31657211
_cell_length_c   9.71666345
_cell_angle_alpha   90.04884737
_cell_angle_beta   93.48389048
_cell_angle_gamma   90.01932911
_symmetry_Int_Tables_number   1
_chemical_formula_structural   AlBi(WO4)2
_chemical_formula_sum   'Al2 Bi2 W4 O16'
_cell_volume   314.63293242
_cell_formula_units_Z   2
loop_
 _symmetry_equiv_pos_site_id
 _symmetry_equiv_pos_as_xyz
  1  'x, y, z'
loop_
 _atom_site_type_symbol
 _atom_site_label
 _atom_site_symmetry_multiplicity
 _atom_site_fract_x
 _atom_site_fract_y
 _atom_site_fract_z
 _atom_site_occupancy
  Al  Al0  1  0.249965  0.783760  0.249883  1
  Al  Al1  1  0.750034  0.216239  0.750117  1
  Bi  Bi2  1  0.749951  0.375025  0.250157  1
  Bi  Bi3  1  0.250049  0.624974  0.749843  1
  W  W4  1  0.254893  0.151240  0.511575  1
  W  W5  1  0.245240  0.151321  0.988480  1
  W  W6  1  0.745107  0.848760  0.488425  1
  W  W7  1  0.754760  0.848679  0.011520  1
  O  O8  1  0.379808  0.366761  0.096798  1
  O  O9  1  0.120334  0.366882  0.403705  1
  O  O10  1  0.620192  0.633239  0.903202  1
  O  O11  1  0.879665  0.633117  0.596295  1
  O  O12  1  0.423839  0.886468  0.600703  1
  O  O13  1  0.076160  0.886522  0.899198  1
  O  O14  1  0.576161  0.113532  0.399297  1
  O  O15  1  0.923840  0.113478  0.100802  1
  O  O16  1  0.966853  0.671345  0.156579  1
  O  O17  1  0.532818  0.671447  0.343183  1
  O  O18  1  0.033148  0.328656  0.843421  1
  O  O19  1  0.467182  0.328554  0.656817  1
  O  O20  1  0.428080  0.919923  0.118847  1
  O  O21  1  0.571920  0.080078  0.881153  1
  O  O22  1  0.071809  0.920036  0.381000  1
  O  O23  1  0.928191  0.079965  0.619000  1
