# generated using pymatgen
data_YMn3Se2ClO8
_symmetry_space_group_name_H-M   'P 1'
_cell_length_a   6.54036936
_cell_length_b   7.40561171
_cell_length_c   9.83211173
_cell_angle_alpha   90.00000000
_cell_angle_beta   90.00000000
_cell_angle_gamma   90.00000000
_symmetry_Int_Tables_number   1
_chemical_formula_structural   YMn3Se2ClO8
_chemical_formula_sum   'Y2 Mn6 Se4 Cl2 O16'
_cell_volume   476.22261766
_cell_formula_units_Z   2
loop_
 _symmetry_equiv_pos_site_id
 _symmetry_equiv_pos_as_xyz
  1  'x, y, z'
loop_
 _atom_site_type_symbol
 _atom_site_label
 _atom_site_symmetry_multiplicity
 _atom_site_fract_x
 _atom_site_fract_y
 _atom_site_fract_z
 _atom_site_occupancy
  Y  Y0  1  0.250000  0.266111  0.250000  1
  Y  Y1  1  0.750000  0.733889  0.750000  1
  Mn  Mn2  1  0.500000  -0.000000  0.000000  1
  Mn  Mn3  1  0.500000  -0.000000  0.500000  1
  Mn  Mn4  1  -0.000000  -0.000000  0.000000  1
  Mn  Mn5  1  0.750000  0.206417  0.750000  1
  Mn  Mn6  1  0.250000  0.793583  0.250000  1
  Mn  Mn7  1  -0.000000  -0.000000  0.500000  1
  Se  Se8  1  0.750000  0.413942  0.063012  1
  Se  Se9  1  0.250000  0.586058  0.936988  1
  Se  Se10  1  0.750000  0.413942  0.436988  1
  Se  Se11  1  0.250000  0.586058  0.563012  1
  Cl  Cl12  1  0.250000  0.138954  0.750000  1
  Cl  Cl13  1  0.750000  0.861046  0.250000  1
  O  O14  1  0.250000  0.012697  0.116963  1
  O  O15  1  0.250000  0.572352  0.114148  1
  O  O16  1  0.750000  0.427648  0.614148  1
  O  O17  1  0.543346  0.270692  0.091064  1
  O  O18  1  0.456654  0.729308  0.591064  1
  O  O19  1  0.043346  0.729308  0.591064  1
  O  O20  1  0.750000  0.987303  0.883037  1
  O  O21  1  0.956654  0.270692  0.091064  1
  O  O22  1  0.956654  0.270692  0.408936  1
  O  O23  1  0.043346  0.729308  0.908936  1
  O  O24  1  0.250000  0.012697  0.383037  1
  O  O25  1  0.750000  0.987303  0.616963  1
  O  O26  1  0.456654  0.729308  0.908936  1
  O  O27  1  0.543346  0.270692  0.408936  1
  O  O28  1  0.750000  0.427648  0.885852  1
  O  O29  1  0.250000  0.572352  0.385852  1
