# generated using pymatgen
data_Mn2ZnO4
_symmetry_space_group_name_H-M   'P 1'
_cell_length_a   3.01639134
_cell_length_b   9.72080526
_cell_length_c   9.90275813
_cell_angle_alpha   89.99996873
_cell_angle_beta   90.00141711
_cell_angle_gamma   89.99737972
_symmetry_Int_Tables_number   1
_chemical_formula_structural   Mn2ZnO4
_chemical_formula_sum   'Mn8 Zn4 O16'
_cell_volume   290.36622577
_cell_formula_units_Z   4
loop_
 _symmetry_equiv_pos_site_id
 _symmetry_equiv_pos_as_xyz
  1  'x, y, z'
loop_
 _atom_site_type_symbol
 _atom_site_label
 _atom_site_symmetry_multiplicity
 _atom_site_fract_x
 _atom_site_fract_y
 _atom_site_fract_z
 _atom_site_occupancy
  Mn  Mn0  1  0.794734  0.570450  0.384214  1
  Mn  Mn1  1  0.794755  0.070455  0.115789  1
  Mn  Mn2  1  0.205248  0.070453  0.615783  1
  Mn  Mn3  1  0.794731  0.429556  0.115786  1
  Mn  Mn4  1  0.205268  0.429551  0.615784  1
  Mn  Mn5  1  0.794751  0.929540  0.384214  1
  Mn  Mn6  1  0.205264  0.929548  0.884213  1
  Mn  Mn7  1  0.205261  0.570450  0.884217  1
  Zn  Zn8  1  0.325018  0.750005  0.146084  1
  Zn  Zn9  1  0.325053  0.250001  0.353913  1
  Zn  Zn10  1  0.674942  0.749997  0.646089  1
  Zn  Zn11  1  0.674977  0.249997  0.853917  1
  O  O12  1  0.210832  0.887029  0.530432  1
  O  O13  1  0.789167  0.112964  0.469562  1
  O  O14  1  0.374885  0.999999  0.249995  1
  O  O15  1  0.789218  0.887034  0.030435  1
  O  O16  1  0.789164  0.612970  0.030433  1
  O  O17  1  0.822951  0.250001  0.207311  1
  O  O18  1  0.210800  0.112966  0.969565  1
  O  O19  1  0.177061  0.249998  0.707311  1
  O  O20  1  0.374881  0.500004  0.250000  1
  O  O21  1  0.625117  0.999995  0.750003  1
  O  O22  1  0.210814  0.612967  0.530433  1
  O  O23  1  0.177047  0.750000  0.792692  1
  O  O24  1  0.822933  0.749999  0.292688  1
  O  O25  1  0.625114  0.500001  0.750003  1
  O  O26  1  0.210814  0.387033  0.969566  1
  O  O27  1  0.789200  0.387037  0.469565  1
