# generated using pymatgen
data_LaZnFeSbO6
_symmetry_space_group_name_H-M   'P 1'
_cell_length_a   5.68776218
_cell_length_b   5.42362929
_cell_length_c   8.09528085
_cell_angle_alpha   89.47969232
_cell_angle_beta   90.00000000
_cell_angle_gamma   90.00000000
_symmetry_Int_Tables_number   1
_chemical_formula_structural   LaZnFeSbO6
_chemical_formula_sum   'La2 Zn2 Fe2 Sb2 O12'
_cell_volume   249.71546521
_cell_formula_units_Z   2
loop_
 _symmetry_equiv_pos_site_id
 _symmetry_equiv_pos_as_xyz
  1  'x, y, z'
loop_
 _atom_site_type_symbol
 _atom_site_label
 _atom_site_symmetry_multiplicity
 _atom_site_fract_x
 _atom_site_fract_y
 _atom_site_fract_z
 _atom_site_occupancy
  La  La0  1  0.046197  0.982393  0.250902  1
  La  La1  1  0.453803  0.482393  0.750902  1
  Zn  Zn2  1  0.537317  0.526704  0.249509  1
  Zn  Zn3  1  0.962683  0.026704  0.749509  1
  Fe  Fe4  1  0.501668  0.998743  0.996997  1
  Fe  Fe5  1  0.998332  0.498743  0.496997  1
  Sb  Sb6  1  0.510416  0.001227  0.498682  1
  Sb  Sb7  1  0.989584  0.501227  0.998682  1
  O  O8  1  0.030991  0.650920  0.767636  1
  O  O9  1  0.181891  0.199937  0.934694  1
  O  O10  1  0.206848  0.181665  0.565823  1
  O  O11  1  0.293152  0.681666  0.065823  1
  O  O12  1  0.318109  0.699937  0.434694  1
  O  O13  1  0.469009  0.150920  0.267635  1
  O  O14  1  0.551155  0.896010  0.736127  1
  O  O15  1  0.722143  0.273945  0.568019  1
  O  O16  1  0.721539  0.288454  0.931610  1
  O  O17  1  0.778461  0.788454  0.431610  1
  O  O18  1  0.777857  0.773945  0.068019  1
  O  O19  1  0.948845  0.396010  0.236127  1
