# generated using pymatgen
data_CaCo(SiO3)2
_symmetry_space_group_name_H-M   'P 1'
_cell_length_a   5.49954863
_cell_length_b   9.76045908
_cell_length_c   19.02736004
_cell_angle_alpha   90.00000000
_cell_angle_beta   90.00000000
_cell_angle_gamma   90.00000000
_symmetry_Int_Tables_number   1
_chemical_formula_structural   CaCo(SiO3)2
_chemical_formula_sum   'Ca8 Co8 Si16 O48'
_cell_volume   1021.35290336
_cell_formula_units_Z   8
loop_
 _symmetry_equiv_pos_site_id
 _symmetry_equiv_pos_as_xyz
  1  'x, y, z'
loop_
 _atom_site_type_symbol
 _atom_site_label
 _atom_site_symmetry_multiplicity
 _atom_site_fract_x
 _atom_site_fract_y
 _atom_site_fract_z
 _atom_site_occupancy
  Ca  Ca0  1  0.592391  0.144663  0.621799  1
  Ca  Ca1  1  0.407609  0.855337  0.378201  1
  Ca  Ca2  1  0.592391  0.644663  0.878201  1
  Ca  Ca3  1  0.092391  0.855337  0.878201  1
  Ca  Ca4  1  0.907609  0.144663  0.121799  1
  Ca  Ca5  1  0.407609  0.355337  0.121799  1
  Ca  Ca6  1  0.092391  0.355337  0.621799  1
  Ca  Ca7  1  0.907609  0.644663  0.378201  1
  Co  Co8  1  0.406802  0.998466  0.130024  1
  Co  Co9  1  0.593198  0.001534  0.869976  1
  Co  Co10  1  0.906802  0.001534  0.369976  1
  Co  Co11  1  0.093198  0.998466  0.630024  1
  Co  Co12  1  0.406802  0.498466  0.369976  1
  Co  Co13  1  0.593198  0.501534  0.630024  1
  Co  Co14  1  0.906802  0.501534  0.130024  1
  Co  Co15  1  0.093198  0.498466  0.869976  1
  Si  Si16  1  0.575796  0.666629  0.224572  1
  Si  Si17  1  0.775236  0.833613  0.523687  1
  Si  Si18  1  0.724764  0.833613  0.023687  1
  Si  Si19  1  0.924204  0.166629  0.775428  1
  Si  Si20  1  0.075796  0.333371  0.275428  1
  Si  Si21  1  0.424204  0.833371  0.724572  1
  Si  Si22  1  0.275236  0.666387  0.523687  1
  Si  Si23  1  0.775236  0.333613  0.976313  1
  Si  Si24  1  0.724764  0.333613  0.476313  1
  Si  Si25  1  0.924204  0.666629  0.724572  1
  Si  Si26  1  0.424204  0.333371  0.775428  1
  Si  Si27  1  0.575796  0.166629  0.275428  1
  Si  Si28  1  0.224764  0.166387  0.476313  1
  Si  Si29  1  0.075796  0.833371  0.224572  1
  Si  Si30  1  0.224764  0.666387  0.023687  1
  Si  Si31  1  0.275236  0.166387  0.976313  1
  O  O32  1  0.894878  0.520265  0.684470  1
  O  O33  1  0.312864  0.026234  0.931774  1
  O  O34  1  0.105122  0.479735  0.315530  1
  O  O35  1  0.769901  0.348251  0.062146  1
  O  O36  1  0.269901  0.151749  0.062146  1
  O  O37  1  0.004818  0.230917  0.954747  1
  O  O38  1  0.936356  0.655933  0.810309  1
  O  O39  1  0.063644  0.844067  0.310309  1
  O  O40  1  0.769901  0.848251  0.437854  1
  O  O41  1  0.936356  0.155933  0.689691  1
  O  O42  1  0.394878  0.479735  0.815530  1
  O  O43  1  0.730099  0.348251  0.562146  1
  O  O44  1  0.687136  0.973766  0.068226  1
  O  O45  1  0.436356  0.844067  0.810309  1
  O  O46  1  0.605122  0.020265  0.315530  1
  O  O47  1  0.312864  0.526234  0.568226  1
  O  O48  1  0.394878  0.979735  0.684470  1
  O  O49  1  0.173077  0.749594  0.699448  1
  O  O50  1  0.326923  0.749594  0.199448  1
  O  O51  1  0.495182  0.730917  0.045254  1
  O  O52  1  0.730099  0.848251  0.937854  1
  O  O53  1  0.563644  0.655933  0.310309  1
  O  O54  1  0.812864  0.473766  0.931774  1
  O  O55  1  0.173077  0.249594  0.800552  1
  O  O56  1  0.230099  0.151749  0.562146  1
  O  O57  1  0.563644  0.155933  0.189691  1
  O  O58  1  0.687136  0.473766  0.431774  1
  O  O59  1  0.269901  0.651749  0.437854  1
  O  O60  1  0.187136  0.526234  0.068226  1
  O  O61  1  0.673077  0.750406  0.699448  1
  O  O62  1  0.105122  0.979735  0.184470  1
  O  O63  1  0.826923  0.750406  0.199448  1
  O  O64  1  0.826923  0.250406  0.300552  1
  O  O65  1  0.812864  0.973766  0.568226  1
  O  O66  1  0.230099  0.651749  0.937854  1
  O  O67  1  0.187136  0.026234  0.431774  1
  O  O68  1  0.326923  0.249594  0.300552  1
  O  O69  1  0.995182  0.769083  0.045254  1
  O  O70  1  0.504818  0.769083  0.545253  1
  O  O71  1  0.673077  0.250406  0.800552  1
  O  O72  1  0.504818  0.269083  0.954747  1
  O  O73  1  0.495182  0.230917  0.454746  1
  O  O74  1  0.995182  0.269083  0.454746  1
  O  O75  1  0.436356  0.344068  0.689691  1
  O  O76  1  0.605122  0.520265  0.184470  1
  O  O77  1  0.004818  0.730917  0.545253  1
  O  O78  1  0.063644  0.344068  0.189691  1
  O  O79  1  0.894878  0.020265  0.815530  1
