# generated using pymatgen
data_Al5(CuO4)3
_symmetry_space_group_name_H-M   'P 1'
_cell_length_a   5.76061566
_cell_length_b   5.76061562
_cell_length_c   17.34816721
_cell_angle_alpha   59.94028089
_cell_angle_beta   59.94028073
_cell_angle_gamma   60.07597777
_symmetry_Int_Tables_number   1
_chemical_formula_structural   Al5(CuO4)3
_chemical_formula_sum   'Al10 Cu6 O24'
_cell_volume   406.94160315
_cell_formula_units_Z   2
loop_
 _symmetry_equiv_pos_site_id
 _symmetry_equiv_pos_as_xyz
  1  'x, y, z'
loop_
 _atom_site_type_symbol
 _atom_site_label
 _atom_site_symmetry_multiplicity
 _atom_site_fract_x
 _atom_site_fract_y
 _atom_site_fract_z
 _atom_site_occupancy
  Al  Al0  1  0.499511  0.499511  0.167999  1
  Al  Al1  1  0.498435  0.995188  0.169034  1
  Al  Al2  1  0.502909  0.502909  0.499136  1
  Al  Al3  1  0.995188  0.498435  0.169034  1
  Al  Al4  1  0.501886  0.501886  0.668649  1
  Al  Al5  1  0.503268  0.996005  0.498720  1
  Al  Al6  1  0.996005  0.503267  0.498720  1
  Al  Al7  1  0.497787  0.997841  0.835016  1
  Al  Al8  1  0.997841  0.497787  0.835016  1
  Al  Al9  1  0.880325  0.880325  0.957211  1
  Cu  Cu10  1  0.131628  0.131628  0.037055  1
  Cu  Cu11  1  0.495509  0.495509  0.000306  1
  Cu  Cu12  1  0.127064  0.127064  0.372660  1
  Cu  Cu13  1  0.119847  0.119846  0.711804  1
  Cu  Cu14  1  0.502999  0.502999  0.330148  1
  Cu  Cu15  1  0.865459  0.865459  0.632535  1
  O  O16  1  0.249286  0.249286  0.094329  1
  O  O17  1  0.265050  0.265050  0.234648  1
  O  O18  1  0.256541  0.711407  0.090937  1
  O  O19  1  0.711407  0.256541  0.090937  1
  O  O20  1  0.258637  0.258637  0.423324  1
  O  O21  1  0.300342  0.737241  0.240992  1
  O  O22  1  0.746233  0.746233  0.085359  1
  O  O23  1  0.264677  0.264676  0.568208  1
  O  O24  1  0.259116  0.711846  0.423308  1
  O  O25  1  0.737241  0.300342  0.240992  1
  O  O26  1  0.711846  0.259116  0.423308  1
  O  O27  1  0.738912  0.738912  0.240646  1
  O  O28  1  0.287751  0.735600  0.579526  1
  O  O29  1  0.263397  0.263397  0.753657  1
  O  O30  1  0.729065  0.729066  0.437247  1
  O  O31  1  0.735600  0.287751  0.579526  1
  O  O32  1  0.248938  0.248938  0.905676  1
  O  O33  1  0.245117  0.720279  0.747897  1
  O  O34  1  0.720279  0.245117  0.747897  1
  O  O35  1  0.738480  0.738479  0.578919  1
  O  O36  1  0.262207  0.768203  0.917230  1
  O  O37  1  0.753515  0.753515  0.763346  1
  O  O38  1  0.768203  0.262207  0.917230  1
  O  O39  1  0.754383  0.754383  0.911107  1
