# generated using pymatgen
data_ZnCrAsO5
_symmetry_space_group_name_H-M   'P 1'
_cell_length_a   7.94127155
_cell_length_b   6.19222986
_cell_length_c   8.32714659
_cell_angle_alpha   89.99992144
_cell_angle_beta   90.00083834
_cell_angle_gamma   89.99721111
_symmetry_Int_Tables_number   1
_chemical_formula_structural   ZnCrAsO5
_chemical_formula_sum   'Zn4 Cr4 As4 O20'
_cell_volume   409.48059522
_cell_formula_units_Z   4
loop_
 _symmetry_equiv_pos_site_id
 _symmetry_equiv_pos_as_xyz
  1  'x, y, z'
loop_
 _atom_site_type_symbol
 _atom_site_label
 _atom_site_symmetry_multiplicity
 _atom_site_fract_x
 _atom_site_fract_y
 _atom_site_fract_z
 _atom_site_occupancy
  Zn  Zn0  1  0.949912  0.722704  0.061928  1
  Zn  Zn1  1  0.550002  0.277295  0.561919  1
  Zn  Zn2  1  0.449927  0.777313  0.938094  1
  Zn  Zn3  1  0.050052  0.222686  0.438078  1
  Cr  Cr4  1  0.998116  0.495580  0.749064  1
  Cr  Cr5  1  0.501955  0.504345  0.249065  1
  Cr  Cr6  1  0.497999  0.004342  0.250922  1
  Cr  Cr7  1  0.002079  0.995692  0.750855  1
  As  As8  1  0.655121  0.260534  0.928400  1
  As  As9  1  0.844912  0.739414  0.428449  1
  As  As10  1  0.155006  0.239391  0.071601  1
  As  As11  1  0.344994  0.760547  0.571529  1
  O  O12  1  0.851945  0.245942  0.836657  1
  O  O13  1  0.648032  0.754059  0.336704  1
  O  O14  1  0.351880  0.254060  0.163418  1
  O  O15  1  0.148115  0.745927  0.663356  1
  O  O16  1  0.505985  0.287651  0.781515  1
  O  O17  1  0.993965  0.712402  0.281506  1
  O  O18  1  0.005968  0.212389  0.218440  1
  O  O19  1  0.494026  0.787660  0.718508  1
  O  O20  1  0.623492  0.023562  0.033998  1
  O  O21  1  0.876467  0.976458  0.533991  1
  O  O22  1  0.123520  0.476492  0.966049  1
  O  O23  1  0.376457  0.523551  0.466011  1
  O  O24  1  0.647079  0.487980  0.047616  1
  O  O25  1  0.852918  0.512041  0.547656  1
  O  O26  1  0.147121  0.012072  0.952364  1
  O  O27  1  0.352859  0.987937  0.452370  1
  O  O28  1  0.885057  0.748112  0.847115  1
  O  O29  1  0.614993  0.251872  0.347147  1
  O  O30  1  0.384929  0.751887  0.152844  1
  O  O31  1  0.115115  0.248105  0.652830  1
