# generated using pymatgen
data_ZnCu3(WO3)4
_symmetry_space_group_name_H-M   'P 1'
_cell_length_a   6.66849743
_cell_length_b   6.71178480
_cell_length_c   6.67598697
_cell_angle_alpha   109.31118582
_cell_angle_beta   109.45458818
_cell_angle_gamma   109.79097590
_symmetry_Int_Tables_number   1
_chemical_formula_structural   ZnCu3(WO3)4
_chemical_formula_sum   'Zn1 Cu3 W4 O12'
_cell_volume   229.60655684
_cell_formula_units_Z   1
loop_
 _symmetry_equiv_pos_site_id
 _symmetry_equiv_pos_as_xyz
  1  'x, y, z'
loop_
 _atom_site_type_symbol
 _atom_site_label
 _atom_site_symmetry_multiplicity
 _atom_site_fract_x
 _atom_site_fract_y
 _atom_site_fract_z
 _atom_site_occupancy
  Zn  Zn0  1  0.000001  0.000000  0.000000  1
  Cu  Cu1  1  0.499996  0.499997  0.000000  1
  Cu  Cu2  1  0.999996  0.499997  0.499998  1
  Cu  Cu3  1  0.499999  0.000005  0.500002  1
  W  W4  1  0.000002  0.000000  0.500000  1
  W  W5  1  0.000001  0.500001  0.000000  1
  W  W6  1  0.500001  0.500000  0.500000  1
  W  W7  1  0.500000  0.000000  -0.000000  1
  O  O8  1  0.824572  0.305185  0.130387  1
  O  O9  1  0.175430  0.694815  0.869613  1
  O  O10  1  0.817399  0.712282  0.513833  1
  O  O11  1  0.289302  0.479428  0.167749  1
  O  O12  1  0.481151  0.182569  0.300401  1
  O  O13  1  0.120422  0.820311  0.301658  1
  O  O14  1  0.697240  0.889375  0.178303  1
  O  O15  1  0.518851  0.817430  0.699600  1
  O  O16  1  0.182602  0.287718  0.486166  1
  O  O17  1  0.710698  0.520572  0.832251  1
  O  O18  1  0.879579  0.179688  0.698342  1
  O  O19  1  0.302760  0.110625  0.821697  1
