# generated using pymatgen
data_MgSb2O5
_symmetry_space_group_name_H-M   'P 1'
_cell_length_a   3.58278322
_cell_length_b   5.29055152
_cell_length_c   13.36360541
_cell_angle_alpha   97.42742484
_cell_angle_beta   93.96164220
_cell_angle_gamma   99.61350468
_symmetry_Int_Tables_number   1
_chemical_formula_structural   MgSb2O5
_chemical_formula_sum   'Mg2 Sb4 O10'
_cell_volume   246.58555622
_cell_formula_units_Z   2
loop_
 _symmetry_equiv_pos_site_id
 _symmetry_equiv_pos_as_xyz
  1  'x, y, z'
loop_
 _atom_site_type_symbol
 _atom_site_label
 _atom_site_symmetry_multiplicity
 _atom_site_fract_x
 _atom_site_fract_y
 _atom_site_fract_z
 _atom_site_occupancy
  Mg  Mg0  1  0.884381  0.886188  0.215034  1
  Mg  Mg1  1  0.142139  0.112153  0.781046  1
  Sb  Sb2  1  0.255075  0.352199  0.106584  1
  Sb  Sb3  1  0.756834  0.645223  0.890630  1
  Sb  Sb4  1  0.796090  0.572020  0.614436  1
  Sb  Sb5  1  0.198946  0.424005  0.382801  1
  O  O6  1  0.746689  0.415889  0.738741  1
  O  O7  1  0.247161  0.578695  0.258221  1
  O  O8  1  0.734547  0.593029  0.100383  1
  O  O9  1  0.272856  0.407835  0.895120  1
  O  O10  1  0.745391  0.558608  0.441424  1
  O  O11  1  0.249144  0.434893  0.556553  1
  O  O12  1  0.008655  0.069216  0.357004  1
  O  O13  1  0.993776  0.925076  0.640385  1
  O  O14  1  0.603364  0.934693  0.825088  1
  O  O15  1  0.419496  0.066895  0.173040  1
