# generated using pymatgen
data_Mg(SnO2)4
_symmetry_space_group_name_H-M   'P 1'
_cell_length_a   3.24402728
_cell_length_b   7.73201598
_cell_length_c   8.01062477
_cell_angle_alpha   82.04527333
_cell_angle_beta   78.31354074
_cell_angle_gamma   77.88985643
_symmetry_Int_Tables_number   1
_chemical_formula_structural   Mg(SnO2)4
_chemical_formula_sum   'Mg1 Sn4 O8'
_cell_volume   191.41822800
_cell_formula_units_Z   1
loop_
 _symmetry_equiv_pos_site_id
 _symmetry_equiv_pos_as_xyz
  1  'x, y, z'
loop_
 _atom_site_type_symbol
 _atom_site_label
 _atom_site_symmetry_multiplicity
 _atom_site_fract_x
 _atom_site_fract_y
 _atom_site_fract_z
 _atom_site_occupancy
  Mg  Mg0  1  0.433273  0.062690  0.071621  1
  Sn  Sn1  1  0.630013  0.177533  0.562457  1
  Sn  Sn2  1  0.144546  0.496471  0.214616  1
  Sn  Sn3  1  0.828847  0.496009  0.846382  1
  Sn  Sn4  1  0.345065  0.810969  0.499047  1
  O  O5  1  0.852100  0.672652  0.623281  1
  O  O6  1  0.447329  0.336613  0.768757  1
  O  O7  1  0.529286  0.645621  0.296024  1
  O  O8  1  0.124991  0.315147  0.434816  1
  O  O9  1  0.156983  0.020585  0.665429  1
  O  O10  1  0.774092  0.347645  0.104270  1
  O  O11  1  0.821842  0.971312  0.384939  1
  O  O12  1  0.209114  0.622860  0.959007  1
