# generated using pymatgen
data_Ba2Tl2Bi3O10
_symmetry_space_group_name_H-M   'P 1'
_cell_length_a   3.98828941
_cell_length_b   3.88149710
_cell_length_c   21.37539001
_cell_angle_alpha   92.85667576
_cell_angle_beta   94.48580125
_cell_angle_gamma   90.01050501
_symmetry_Int_Tables_number   1
_chemical_formula_structural   Ba2Tl2Bi3O10
_chemical_formula_sum   'Ba2 Tl2 Bi3 O10'
_cell_volume   329.47609757
_cell_formula_units_Z   1
loop_
 _symmetry_equiv_pos_site_id
 _symmetry_equiv_pos_as_xyz
  1  'x, y, z'
loop_
 _atom_site_type_symbol
 _atom_site_label
 _atom_site_symmetry_multiplicity
 _atom_site_fract_x
 _atom_site_fract_y
 _atom_site_fract_z
 _atom_site_occupancy
  Ba  Ba0  1  0.116112  0.180936  0.306249  1
  Ba  Ba1  1  0.784450  0.807037  0.694291  1
  Tl  Tl2  1  0.658762  0.728445  0.445592  1
  Tl  Tl3  1  0.205521  0.263362  0.554231  1
  Bi  Bi4  1  0.341294  0.335745  0.828958  1
  Bi  Bi5  1  0.565385  0.641744  0.171820  1
  Bi  Bi6  1  0.390518  0.539703  0.999646  1
  O  O7  1  0.321130  0.831649  0.780340  1
  O  O8  1  0.263781  0.295348  0.649598  1
  O  O9  1  0.823028  0.331451  0.784318  1
  O  O10  1  0.820349  0.758636  0.541016  1
  O  O11  1  0.909684  0.541110  0.041530  1
  O  O12  1  0.079156  0.654877  0.217089  1
  O  O13  1  0.632054  0.695732  0.350394  1
  O  O14  1  0.580921  0.155885  0.220297  1
  O  O15  1  0.284809  0.232870  0.458804  1
  O  O16  1  0.373514  0.024176  0.948882  1
