# generated using pymatgen
data_CaMnF4
_symmetry_space_group_name_H-M   'P 1'
_cell_length_a   5.44911524
_cell_length_b   5.44792341
_cell_length_c   6.65728751
_cell_angle_alpha   114.11631992
_cell_angle_beta   114.27075006
_cell_angle_gamma   90.00035231
_symmetry_Int_Tables_number   1
_chemical_formula_structural   CaMnF4
_chemical_formula_sum   'Ca2 Mn2 F8'
_cell_volume   161.05266824
_cell_formula_units_Z   2
loop_
 _symmetry_equiv_pos_site_id
 _symmetry_equiv_pos_as_xyz
  1  'x, y, z'
loop_
 _atom_site_type_symbol
 _atom_site_label
 _atom_site_symmetry_multiplicity
 _atom_site_fract_x
 _atom_site_fract_y
 _atom_site_fract_z
 _atom_site_occupancy
  Ca  Ca0  1  0.249784  0.251052  0.500201  1
  Ca  Ca1  1  0.749689  0.751053  0.500568  1
  Mn  Mn2  1  0.996703  0.502594  0.999002  1
  Mn  Mn3  1  0.501438  0.002502  0.002926  1
  F  F4  1  0.910396  0.412360  0.247943  1
  F  F5  1  0.663027  0.161896  0.748224  1
  F  F6  1  0.083244  0.583572  0.746262  1
  F  F7  1  0.165276  0.086383  0.750464  1
  F  F8  1  0.336625  0.838466  0.247119  1
  F  F9  1  0.413065  0.339455  0.252217  1
  F  F10  1  0.838557  0.913033  0.251578  1
  F  F11  1  0.588696  0.664046  0.753366  1
