# generated using pymatgen
data_Ca(MoO2)2
_symmetry_space_group_name_H-M   'P 1'
_cell_length_a   6.53818578
_cell_length_b   6.63444294
_cell_length_c   19.73527099
_cell_angle_alpha   59.01375457
_cell_angle_beta   60.71829405
_cell_angle_gamma   60.08510494
_symmetry_Int_Tables_number   1
_chemical_formula_structural   Ca(MoO2)2
_chemical_formula_sum   'Ca6 Mo12 O24'
_cell_volume   604.21711858
_cell_formula_units_Z   6
loop_
 _symmetry_equiv_pos_site_id
 _symmetry_equiv_pos_as_xyz
  1  'x, y, z'
loop_
 _atom_site_type_symbol
 _atom_site_label
 _atom_site_symmetry_multiplicity
 _atom_site_fract_x
 _atom_site_fract_y
 _atom_site_fract_z
 _atom_site_occupancy
  Ca  Ca0  1  0.118810  0.124249  0.044676  1
  Ca  Ca1  1  0.126259  0.123337  0.375659  1
  Ca  Ca2  1  0.493731  0.500048  0.002219  1
  Ca  Ca3  1  0.126053  0.121758  0.709678  1
  Ca  Ca4  1  0.877398  0.876719  0.289113  1
  Ca  Ca5  1  0.877855  0.876097  0.624358  1
  Mo  Mo6  1  0.997181  0.502283  0.166838  1
  Mo  Mo7  1  0.495480  0.501145  0.166851  1
  Mo  Mo8  1  0.002009  0.499957  0.499979  1
  Mo  Mo9  1  0.493452  0.006061  0.167508  1
  Mo  Mo10  1  0.501212  0.499148  0.333040  1
  Mo  Mo11  1  0.502553  0.499926  0.499813  1
  Mo  Mo12  1  0.006629  0.495094  0.832440  1
  Mo  Mo13  1  0.502202  -0.000202  0.500034  1
  Mo  Mo14  1  0.501489  0.000324  0.832334  1
  Mo  Mo15  1  0.503083  0.500034  0.665720  1
  Mo  Mo16  1  0.501755  0.495505  0.832452  1
  Mo  Mo17  1  0.876869  0.871427  0.957065  1
  O  O18  1  0.240366  0.263708  0.094725  1
  O  O19  1  0.265674  0.263684  0.235400  1
  O  O20  1  0.248815  0.713526  0.092210  1
  O  O21  1  0.707305  0.256219  0.096798  1
  O  O22  1  0.296435  0.732688  0.243716  1
  O  O23  1  0.258368  0.269534  0.423045  1
  O  O24  1  0.731401  0.297794  0.247178  1
  O  O25  1  0.723450  0.767438  0.090334  1
  O  O26  1  0.267367  0.702731  0.420037  1
  O  O27  1  0.273228  0.257442  0.569055  1
  O  O28  1  0.736904  0.728486  0.245399  1
  O  O29  1  0.706411  0.263993  0.424711  1
  O  O30  1  0.296969  0.734518  0.576332  1
  O  O31  1  0.262664  0.269462  0.754954  1
  O  O32  1  0.736338  0.295561  0.580923  1
  O  O33  1  0.730541  0.742111  0.431549  1
  O  O34  1  0.274529  0.255144  0.900865  1
  O  O35  1  0.267214  0.700303  0.753070  1
  O  O36  1  0.743609  0.727866  0.578726  1
  O  O37  1  0.705767  0.261332  0.757442  1
  O  O38  1  0.270057  0.754013  0.900242  1
  O  O39  1  0.729199  0.736633  0.766617  1
  O  O40  1  0.750470  0.268841  0.912543  1
  O  O41  1  0.772896  0.744062  0.904353  1
