# generated using pymatgen
data_MgAsWO5
_symmetry_space_group_name_H-M   'P 1'
_cell_length_a   7.97665039
_cell_length_b   6.08182118
_cell_length_c   9.24580699
_cell_angle_alpha   89.81786526
_cell_angle_beta   89.97539349
_cell_angle_gamma   89.99973706
_symmetry_Int_Tables_number   1
_chemical_formula_structural   MgAsWO5
_chemical_formula_sum   'Mg4 As4 W4 O20'
_cell_volume   448.53547066
_cell_formula_units_Z   4
loop_
 _symmetry_equiv_pos_site_id
 _symmetry_equiv_pos_as_xyz
  1  'x, y, z'
loop_
 _atom_site_type_symbol
 _atom_site_label
 _atom_site_symmetry_multiplicity
 _atom_site_fract_x
 _atom_site_fract_y
 _atom_site_fract_z
 _atom_site_occupancy
  Mg  Mg0  1  0.900096  0.760652  0.121947  1
  Mg  Mg1  1  0.598792  0.238691  0.622376  1
  Mg  Mg2  1  0.400095  0.739377  0.877996  1
  Mg  Mg3  1  0.098639  0.261308  0.377699  1
  As  As4  1  0.576435  0.314687  0.944248  1
  As  As5  1  0.924029  0.687316  0.443902  1
  As  As6  1  0.076609  0.185551  0.055804  1
  As  As7  1  0.424177  0.813000  0.556104  1
  W  W8  1  0.994250  0.479313  0.772573  1
  W  W9  1  0.505697  0.520138  0.272764  1
  W  W10  1  0.494116  0.020490  0.227339  1
  W  W11  1  0.005780  0.979690  0.727311  1
  O  O12  1  0.833383  0.227071  0.713289  1
  O  O13  1  0.666261  0.773105  0.213256  1
  O  O14  1  0.333332  0.272681  0.286941  1
  O  O15  1  0.166442  0.726648  0.786473  1
  O  O16  1  0.497445  0.420951  0.782860  1
  O  O17  1  0.001519  0.579123  0.282936  1
  O  O18  1  0.997313  0.079459  0.217154  1
  O  O19  1  0.501581  0.921261  0.717048  1
  O  O20  1  0.442063  0.023070  0.025290  1
  O  O21  1  0.059438  0.980362  0.525664  1
  O  O22  1  0.942257  0.476667  0.974740  1
  O  O23  1  0.559512  0.519362  0.474273  1
  O  O24  1  0.460158  0.520811  0.045518  1
  O  O25  1  0.039991  0.481207  0.545636  1
  O  O26  1  0.960606  0.979192  0.954554  1
  O  O27  1  0.540307  0.018866  0.454280  1
  O  O28  1  0.843449  0.732696  0.721751  1
  O  O29  1  0.656276  0.267747  0.220789  1
  O  O30  1  0.343448  0.767287  0.278895  1
  O  O31  1  0.156500  0.232222  0.778595  1
