# generated using pymatgen
data_Mg(W2O3)2
_symmetry_space_group_name_H-M   'P 1'
_cell_length_a   3.23164946
_cell_length_b   5.63674785
_cell_length_c   16.72175633
_cell_angle_alpha   90.00000000
_cell_angle_beta   90.00000000
_cell_angle_gamma   106.65804295
_symmetry_Int_Tables_number   1
_chemical_formula_structural   Mg(W2O3)2
_chemical_formula_sum   'Mg2 W8 O12'
_cell_volume   291.82000718
_cell_formula_units_Z   2
loop_
 _symmetry_equiv_pos_site_id
 _symmetry_equiv_pos_as_xyz
  1  'x, y, z'
loop_
 _atom_site_type_symbol
 _atom_site_label
 _atom_site_symmetry_multiplicity
 _atom_site_fract_x
 _atom_site_fract_y
 _atom_site_fract_z
 _atom_site_occupancy
  Mg  Mg0  1  0.671744  0.343490  0.750000  1
  Mg  Mg1  1  0.328256  0.656510  0.250000  1
  W  W2  1  0.871562  0.743126  0.053213  1
  W  W3  1  0.374330  0.748659  0.637727  1
  W  W4  1  0.128436  0.256873  0.946787  1
  W  W5  1  0.625670  0.251341  0.362274  1
  W  W6  1  0.871562  0.743126  0.446787  1
  W  W7  1  0.128436  0.256873  0.553213  1
  W  W8  1  0.625670  0.251341  0.137726  1
  W  W9  1  0.374330  0.748659  0.862273  1
  O  O10  1  0.499999  -0.000000  0.500000  1
  O  O11  1  0.499999  -0.000000  -0.000000  1
  O  O12  1  0.001071  0.002140  0.847036  1
  O  O13  1  0.998929  0.997860  0.152965  1
  O  O14  1  0.998929  0.997860  0.347035  1
  O  O15  1  0.001071  0.002140  0.652965  1
  O  O16  1  0.720170  0.440344  0.873583  1
  O  O17  1  0.279829  0.559657  0.126417  1
  O  O18  1  0.279829  0.559657  0.373583  1
  O  O19  1  0.720170  0.440344  0.626417  1
  O  O20  1  0.284568  0.569137  0.750000  1
  O  O21  1  0.715430  0.430862  0.250000  1
