# generated using pymatgen
data_MgTiP3WO12
_symmetry_space_group_name_H-M   'P 1'
_cell_length_a   8.67690334
_cell_length_b   8.67690060
_cell_length_c   8.67690559
_cell_angle_alpha   60.70287138
_cell_angle_beta   60.70290767
_cell_angle_gamma   60.70287259
_symmetry_Int_Tables_number   1
_chemical_formula_structural   MgTiP3WO12
_chemical_formula_sum   'Mg2 Ti2 P6 W2 O24'
_cell_volume   469.26135157
_cell_formula_units_Z   2
loop_
 _symmetry_equiv_pos_site_id
 _symmetry_equiv_pos_as_xyz
  1  'x, y, z'
loop_
 _atom_site_type_symbol
 _atom_site_label
 _atom_site_symmetry_multiplicity
 _atom_site_fract_x
 _atom_site_fract_y
 _atom_site_fract_z
 _atom_site_occupancy
  Mg  Mg0  1  0.001533  0.001529  0.001530  1
  Mg  Mg1  1  0.501524  0.501525  0.501530  1
  Ti  Ti2  1  0.146578  0.146577  0.146577  1
  Ti  Ti3  1  0.646577  0.646578  0.646577  1
  P  P4  1  0.042319  0.447503  0.759620  1
  P  P5  1  0.447504  0.759620  0.042320  1
  P  P6  1  0.759621  0.042320  0.447503  1
  P  P7  1  0.259620  0.947505  0.542318  1
  P  P8  1  0.542318  0.259620  0.947506  1
  P  P9  1  0.947505  0.542319  0.259619  1
  W  W10  1  0.358011  0.358011  0.358010  1
  W  W11  1  0.858011  0.858011  0.858010  1
  O  O12  1  0.093141  0.501920  0.332915  1
  O  O13  1  0.332914  0.093140  0.501919  1
  O  O14  1  0.051818  0.252501  0.915911  1
  O  O15  1  0.501919  0.332916  0.093141  1
  O  O16  1  0.001920  0.593140  0.832916  1
  O  O17  1  0.236472  0.433785  0.603798  1
  O  O18  1  0.252501  0.915910  0.051817  1
  O  O19  1  0.433785  0.603799  0.236472  1
  O  O20  1  0.192435  0.002168  0.377575  1
  O  O21  1  0.603798  0.236472  0.433785  1
  O  O22  1  0.103796  0.933785  0.736474  1
  O  O23  1  0.377573  0.192434  0.002169  1
  O  O24  1  0.593141  0.832916  0.001920  1
  O  O25  1  0.915911  0.051819  0.252501  1
  O  O26  1  0.415910  0.752501  0.551818  1
  O  O27  1  0.832916  0.001920  0.593139  1
  O  O28  1  0.551818  0.415909  0.752502  1
  O  O29  1  0.736472  0.103798  0.933784  1
  O  O30  1  0.752500  0.551818  0.415910  1
  O  O31  1  0.002169  0.377574  0.192435  1
  O  O32  1  0.502169  0.692435  0.877573  1
  O  O33  1  0.933785  0.736472  0.103797  1
  O  O34  1  0.692435  0.877574  0.502169  1
  O  O35  1  0.877574  0.502169  0.692434  1
