# generated using pymatgen
data_Al2(BiO3)3
_symmetry_space_group_name_H-M   'P 1'
_cell_length_a   5.75529702
_cell_length_b   17.79884833
_cell_length_c   5.75226700
_cell_angle_alpha   56.21914898
_cell_angle_beta   54.43799718
_cell_angle_gamma   56.21632611
_symmetry_Int_Tables_number   1
_chemical_formula_structural   Al2(BiO3)3
_chemical_formula_sum   'Al4 Bi6 O18'
_cell_volume   374.08233514
_cell_formula_units_Z   2
loop_
 _symmetry_equiv_pos_site_id
 _symmetry_equiv_pos_as_xyz
  1  'x, y, z'
loop_
 _atom_site_type_symbol
 _atom_site_label
 _atom_site_symmetry_multiplicity
 _atom_site_fract_x
 _atom_site_fract_y
 _atom_site_fract_z
 _atom_site_occupancy
  Al  Al0  1  0.727859  0.243172  0.707158  1
  Al  Al1  1  0.733122  0.892379  0.727359  1
  Al  Al2  1  0.227715  0.392380  0.232107  1
  Al  Al3  1  0.207119  0.743085  0.228469  1
  Bi  Bi4  1  0.999156  0.349141  0.989927  1
  Bi  Bi5  1  0.013307  0.652997  0.043733  1
  Bi  Bi6  1  0.006089  0.013755  0.012332  1
  Bi  Bi7  1  0.543384  0.152915  0.513841  1
  Bi  Bi8  1  0.512870  0.513708  0.505785  1
  Bi  Bi9  1  0.490081  0.849168  0.499441  1
  O  O10  1  0.435306  0.287809  0.048224  1
  O  O11  1  0.393197  0.632846  0.106528  1
  O  O12  1  0.474337  0.935827  0.059566  1
  O  O13  1  0.896192  0.224076  0.332327  1
  O  O14  1  0.981334  0.499295  0.358340  1
  O  O15  1  0.947065  0.854692  0.359600  1
  O  O16  1  0.051598  0.154674  0.833362  1
  O  O17  1  0.092331  0.468054  0.892102  1
  O  O18  1  0.084060  0.814098  0.829384  1
  O  O19  1  0.605617  0.133050  0.893779  1
  O  O20  1  0.559657  0.435849  0.974114  1
  O  O21  1  0.548021  0.787710  0.935950  1
  O  O22  1  0.328774  0.314043  0.583741  1
  O  O23  1  0.333819  0.654526  0.552084  1
  O  O24  1  0.393507  0.968049  0.591887  1
  O  O25  1  0.858673  0.354879  0.447137  1
  O  O26  1  0.832276  0.724022  0.396931  1
  O  O27  1  0.859757  0.999207  0.481003  1
