# generated using pymatgen
data_Ba2Mg3Tl2(CoO3)4
_symmetry_space_group_name_H-M   'P 1'
_cell_length_a   3.79021292
_cell_length_b   3.79021302
_cell_length_c   21.18790568
_cell_angle_alpha   95.13155219
_cell_angle_beta   95.13155194
_cell_angle_gamma   89.99999927
_symmetry_Int_Tables_number   1
_chemical_formula_structural   Ba2Mg3Tl2(CoO3)4
_chemical_formula_sum   'Ba2 Mg3 Tl2 Co4 O12'
_cell_volume   301.93454264
_cell_formula_units_Z   1
loop_
 _symmetry_equiv_pos_site_id
 _symmetry_equiv_pos_as_xyz
  1  'x, y, z'
loop_
 _atom_site_type_symbol
 _atom_site_label
 _atom_site_symmetry_multiplicity
 _atom_site_fract_x
 _atom_site_fract_y
 _atom_site_fract_z
 _atom_site_occupancy
  Ba  Ba0  1  0.155014  0.155014  0.310027  1
  Ba  Ba1  1  0.844986  0.844986  0.689973  1
  Mg  Mg2  1  0.073128  0.073128  0.146255  1
  Mg  Mg3  1  0.926872  0.926872  0.853745  1
  Mg  Mg4  1  0.000000  -0.000000  0.000000  1
  Tl  Tl5  1  0.721831  0.721831  0.443661  1
  Tl  Tl6  1  0.278169  0.278169  0.556339  1
  Co  Co7  1  0.534697  0.534697  0.069394  1
  Co  Co8  1  0.398238  0.398238  0.796476  1
  Co  Co9  1  0.601762  0.601762  0.203524  1
  Co  Co10  1  0.465303  0.465303  0.930606  1
  O  O11  1  0.398391  0.898391  0.796783  1
  O  O12  1  0.533839  0.033839  0.067679  1
  O  O13  1  0.225733  0.225733  0.451465  1
  O  O14  1  0.966161  0.466161  0.932321  1
  O  O15  1  0.774267  0.774267  0.548535  1
  O  O16  1  0.101609  0.601609  0.203217  1
  O  O17  1  0.601609  0.101609  0.203217  1
  O  O18  1  0.329441  0.329441  0.658883  1
  O  O19  1  0.898391  0.398391  0.796783  1
  O  O20  1  0.033839  0.533839  0.067679  1
  O  O21  1  0.466161  0.966161  0.932321  1
  O  O22  1  0.670559  0.670559  0.341117  1
