# generated using pymatgen
data_Ba2YSn3O8
_symmetry_space_group_name_H-M   'P 1'
_cell_length_a   4.30367613
_cell_length_b   4.30367613
_cell_length_c   11.72668155
_cell_angle_alpha   90.00000000
_cell_angle_beta   90.00000000
_cell_angle_gamma   90.00000000
_symmetry_Int_Tables_number   1
_chemical_formula_structural   Ba2YSn3O8
_chemical_formula_sum   'Ba2 Y1 Sn3 O8'
_cell_volume   217.19723606
_cell_formula_units_Z   1
loop_
 _symmetry_equiv_pos_site_id
 _symmetry_equiv_pos_as_xyz
  1  'x, y, z'
loop_
 _atom_site_type_symbol
 _atom_site_label
 _atom_site_symmetry_multiplicity
 _atom_site_fract_x
 _atom_site_fract_y
 _atom_site_fract_z
 _atom_site_occupancy
  Ba  Ba0  1  0.500000  0.500000  0.170155  1
  Ba  Ba1  1  0.500000  0.500000  0.829845  1
  Y  Y2  1  0.500000  0.500000  0.500000  1
  Sn  Sn3  1  0.000000  -0.000000  0.365802  1
  Sn  Sn4  1  -0.000000  0.000000  -0.000000  1
  Sn  Sn5  1  0.000000  0.000000  0.634198  1
  O  O6  1  -0.000000  0.500000  0.374262  1
  O  O7  1  0.500000  0.000000  0.374262  1
  O  O8  1  0.500000  0.000000  -0.000000  1
  O  O9  1  -0.000000  -0.000000  0.185910  1
  O  O10  1  -0.000000  0.500000  0.625738  1
  O  O11  1  0.500000  -0.000000  0.625738  1
  O  O12  1  0.000000  0.000000  0.814090  1
  O  O13  1  -0.000000  0.500000  -0.000000  1
