# generated using pymatgen
data_Zn2TeWO6
_symmetry_space_group_name_H-M   'P 1'
_cell_length_a   5.13416049
_cell_length_b   5.22188613
_cell_length_c   9.49196804
_cell_angle_alpha   90.00000000
_cell_angle_beta   84.41874206
_cell_angle_gamma   90.00000000
_symmetry_Int_Tables_number   1
_chemical_formula_structural   Zn2TeWO6
_chemical_formula_sum   'Zn4 Te2 W2 O12'
_cell_volume   253.27325646
_cell_formula_units_Z   2
loop_
 _symmetry_equiv_pos_site_id
 _symmetry_equiv_pos_as_xyz
  1  'x, y, z'
loop_
 _atom_site_type_symbol
 _atom_site_label
 _atom_site_symmetry_multiplicity
 _atom_site_fract_x
 _atom_site_fract_y
 _atom_site_fract_z
 _atom_site_occupancy
  Zn  Zn0  1  0.042953  0.010359  0.241387  1
  Zn  Zn1  1  0.457047  0.510360  0.258613  1
  Zn  Zn2  1  0.957048  0.989642  0.758613  1
  Zn  Zn3  1  0.542952  0.489641  0.741387  1
  Te  Te4  1  0.500000  0.000000  0.000000  1
  Te  Te5  1  0.000001  0.499999  0.500000  1
  W  W6  1  0.500000  0.000000  0.499999  1
  W  W7  1  0.000000  0.499999  0.000000  1
  O  O8  1  0.636139  0.316147  0.404122  1
  O  O9  1  0.863861  0.816148  0.095878  1
  O  O10  1  0.363860  0.683853  0.595878  1
  O  O11  1  0.136140  0.183852  0.904122  1
  O  O12  1  0.168227  0.152944  0.577560  1
  O  O13  1  0.331773  0.652943  0.922440  1
  O  O14  1  0.831774  0.847056  0.422440  1
  O  O15  1  0.668226  0.347057  0.077560  1
  O  O16  1  0.142345  0.375235  0.169590  1
  O  O17  1  0.357656  0.875236  0.330409  1
  O  O18  1  0.642345  0.124764  0.669591  1
  O  O19  1  0.857656  0.624765  0.830410  1
