# generated using pymatgen
data_ZnCoP2O7
_symmetry_space_group_name_H-M   'P 1'
_cell_length_a   6.48903166
_cell_length_b   6.34193813
_cell_length_c   6.76424703
_cell_angle_alpha   66.71785645
_cell_angle_beta   79.90405939
_cell_angle_gamma   80.13195442
_symmetry_Int_Tables_number   1
_chemical_formula_structural   ZnCoP2O7
_chemical_formula_sum   'Zn2 Co2 P4 O14'
_cell_volume   250.13293068
_cell_formula_units_Z   2
loop_
 _symmetry_equiv_pos_site_id
 _symmetry_equiv_pos_as_xyz
  1  'x, y, z'
loop_
 _atom_site_type_symbol
 _atom_site_label
 _atom_site_symmetry_multiplicity
 _atom_site_fract_x
 _atom_site_fract_y
 _atom_site_fract_z
 _atom_site_occupancy
  Zn  Zn0  1  0.865114  0.289288  0.159853  1
  Zn  Zn1  1  0.134886  0.710712  0.840147  1
  Co  Co2  1  0.660643  0.099400  0.783580  1
  Co  Co3  1  0.339357  0.900600  0.216420  1
  P  P4  1  0.157059  0.220262  0.758038  1
  P  P5  1  0.842941  0.779738  0.241962  1
  P  P6  1  0.612802  0.639618  0.689354  1
  P  P7  1  0.387198  0.360382  0.310646  1
  O  O8  1  0.759151  0.609936  0.476628  1
  O  O9  1  0.240849  0.390064  0.523372  1
  O  O10  1  0.003378  0.066285  0.745129  1
  O  O11  1  0.996622  0.933715  0.254871  1
  O  O12  1  0.611363  0.264685  0.379980  1
  O  O13  1  0.388637  0.735315  0.620020  1
  O  O14  1  0.373303  0.610492  0.147190  1
  O  O15  1  0.626697  0.389508  0.852809  1
  O  O16  1  0.949649  0.610486  0.132051  1
  O  O17  1  0.050351  0.389514  0.867949  1
  O  O18  1  0.654463  0.934685  0.133215  1
  O  O19  1  0.345537  0.065315  0.866785  1
  O  O20  1  0.280864  0.201798  0.253272  1
  O  O21  1  0.719136  0.798202  0.746728  1
