# generated using pymatgen
data_Ba2Sn3O7
_symmetry_space_group_name_H-M   'P 1'
_cell_length_a   3.88406496
_cell_length_b   4.05429300
_cell_length_c   13.72763862
_cell_angle_alpha   90.09503110
_cell_angle_beta   89.92438494
_cell_angle_gamma   89.99866574
_symmetry_Int_Tables_number   1
_chemical_formula_structural   Ba2Sn3O7
_chemical_formula_sum   'Ba2 Sn3 O7'
_cell_volume   216.17052557
_cell_formula_units_Z   1
loop_
 _symmetry_equiv_pos_site_id
 _symmetry_equiv_pos_as_xyz
  1  'x, y, z'
loop_
 _atom_site_type_symbol
 _atom_site_label
 _atom_site_symmetry_multiplicity
 _atom_site_fract_x
 _atom_site_fract_y
 _atom_site_fract_z
 _atom_site_occupancy
  Ba  Ba0  1  0.498418  0.496907  0.790786  1
  Ba  Ba1  1  0.497503  0.503091  0.209363  1
  Sn  Sn2  1  0.999665  0.995005  0.604569  1
  Sn  Sn3  1  0.996505  0.003501  0.395458  1
  Sn  Sn4  1  0.997498  0.001419  0.000327  1
  O  O5  1  0.997622  0.501421  0.000541  1
  O  O6  1  0.499374  0.994918  0.661400  1
  O  O7  1  0.496916  0.003752  0.338690  1
  O  O8  1  0.999727  0.495479  0.652994  1
  O  O9  1  0.996826  0.503103  0.347177  1
  O  O10  1  0.996702  0.999813  0.856734  1
  O  O11  1  0.997576  0.002971  0.144013  1
