# generated using pymatgen
data_Ba2Mn4Tl2Zn3O12
_symmetry_space_group_name_H-M   'P 1'
_cell_length_a   3.84905996
_cell_length_b   3.84905997
_cell_length_c   23.14718210
_cell_angle_alpha   94.76924837
_cell_angle_beta   94.76924829
_cell_angle_gamma   89.99999158
_symmetry_Int_Tables_number   1
_chemical_formula_structural   Ba2Mn4Tl2Zn3O12
_chemical_formula_sum   'Ba2 Mn4 Tl2 Zn3 O12'
_cell_volume   340.55272808
_cell_formula_units_Z   1
loop_
 _symmetry_equiv_pos_site_id
 _symmetry_equiv_pos_as_xyz
  1  'x, y, z'
loop_
 _atom_site_type_symbol
 _atom_site_label
 _atom_site_symmetry_multiplicity
 _atom_site_fract_x
 _atom_site_fract_y
 _atom_site_fract_z
 _atom_site_occupancy
  Ba  Ba0  1  0.164021  0.164021  0.328042  1
  Ba  Ba1  1  0.835979  0.835979  0.671958  1
  Mn  Mn2  1  0.535959  0.535959  0.071917  1
  Mn  Mn3  1  0.390490  0.390490  0.780980  1
  Mn  Mn4  1  0.609510  0.609510  0.219020  1
  Mn  Mn5  1  0.464041  0.464041  0.928083  1
  Tl  Tl6  1  0.724860  0.724860  0.449719  1
  Tl  Tl7  1  0.275140  0.275140  0.550281  1
  Zn  Zn8  1  0.079225  0.079225  0.158452  1
  Zn  Zn9  1  0.920775  0.920775  0.841548  1
  Zn  Zn10  1  0.000000  0.000000  0.000000  1
  O  O11  1  0.403241  0.903241  0.806483  1
  O  O12  1  0.530331  0.030331  0.060662  1
  O  O13  1  0.221399  0.221399  0.442798  1
  O  O14  1  0.969669  0.469669  0.939338  1
  O  O15  1  0.778601  0.778601  0.557202  1
  O  O16  1  0.096759  0.596759  0.193517  1
  O  O17  1  0.596759  0.096759  0.193517  1
  O  O18  1  0.345892  0.345892  0.691783  1
  O  O19  1  0.903241  0.403241  0.806483  1
  O  O20  1  0.030331  0.530331  0.060662  1
  O  O21  1  0.469669  0.969669  0.939338  1
  O  O22  1  0.654108  0.654108  0.308217  1
