# generated using pymatgen
data_La2MgFeO6
_symmetry_space_group_name_H-M   'P 1'
_cell_length_a   5.47069674
_cell_length_b   5.47069640
_cell_length_c   5.47069695
_cell_angle_alpha   61.28939059
_cell_angle_beta   61.28939168
_cell_angle_gamma   61.28939448
_symmetry_Int_Tables_number   1
_chemical_formula_structural   La2MgFeO6
_chemical_formula_sum   'La2 Mg1 Fe1 O6'
_cell_volume   119.13033849
_cell_formula_units_Z   1
loop_
 _symmetry_equiv_pos_site_id
 _symmetry_equiv_pos_as_xyz
  1  'x, y, z'
loop_
 _atom_site_type_symbol
 _atom_site_label
 _atom_site_symmetry_multiplicity
 _atom_site_fract_x
 _atom_site_fract_y
 _atom_site_fract_z
 _atom_site_occupancy
  La  La0  1  0.751306  0.751306  0.751306  1
  La  La1  1  0.248694  0.248694  0.248694  1
  Mg  Mg2  1  0.500000  0.500000  0.500000  1
  Fe  Fe3  1  0.000000  0.000000  0.000000  1
  O  O4  1  0.306686  0.762054  0.175230  1
  O  O5  1  0.762054  0.175230  0.306686  1
  O  O6  1  0.175230  0.306686  0.762054  1
  O  O7  1  0.693314  0.237946  0.824770  1
  O  O8  1  0.824770  0.693314  0.237946  1
  O  O9  1  0.237946  0.824770  0.693314  1
