# generated using pymatgen
data_ZnCrSF5
_symmetry_space_group_name_H-M   'P 1'
_cell_length_a   6.17909334
_cell_length_b   7.34068756
_cell_length_c   12.14010965
_cell_angle_alpha   86.62588519
_cell_angle_beta   28.39976429
_cell_angle_gamma   78.70673838
_symmetry_Int_Tables_number   1
_chemical_formula_structural   ZnCrSF5
_chemical_formula_sum   'Zn2 Cr2 S2 F10'
_cell_volume   249.12663822
_cell_formula_units_Z   2
loop_
 _symmetry_equiv_pos_site_id
 _symmetry_equiv_pos_as_xyz
  1  'x, y, z'
loop_
 _atom_site_type_symbol
 _atom_site_label
 _atom_site_symmetry_multiplicity
 _atom_site_fract_x
 _atom_site_fract_y
 _atom_site_fract_z
 _atom_site_occupancy
  Zn  Zn0  1  0.582777  0.156765  0.546291  1
  Zn  Zn1  1  0.479958  0.670767  0.259946  1
  Cr  Cr2  1  0.498071  0.510758  0.007056  1
  Cr  Cr3  1  0.545728  0.998967  0.984079  1
  S  S4  1  0.019202  0.293943  0.471412  1
  S  S5  1  0.769976  0.567777  0.566615  1
  F  F6  1  0.394085  0.923059  0.218671  1
  F  F7  1  0.797805  0.456109  0.016996  1
  F  F8  1  0.676804  0.028153  0.776272  1
  F  F9  1  0.113715  0.607467  0.044026  1
  F  F10  1  0.920563  0.657524  0.340261  1
  F  F11  1  0.180237  0.991915  0.754757  1
  F  F12  1  0.087360  0.364211  0.680417  1
  F  F13  1  0.865605  0.034865  0.278723  1
  F  F14  1  0.753966  0.724556  0.875813  1
  F  F15  1  0.300879  0.280297  0.110681  1
