# generated using pymatgen
data_BaYTi4O7
_symmetry_space_group_name_H-M   'P 1'
_cell_length_a   6.38298454
_cell_length_b   6.38298432
_cell_length_c   10.69684620
_cell_angle_alpha   90.00000000
_cell_angle_beta   90.00000000
_cell_angle_gamma   120.00000575
_symmetry_Int_Tables_number   1
_chemical_formula_structural   BaYTi4O7
_chemical_formula_sum   'Ba2 Y2 Ti8 O14'
_cell_volume   377.42783681
_cell_formula_units_Z   2
loop_
 _symmetry_equiv_pos_site_id
 _symmetry_equiv_pos_as_xyz
  1  'x, y, z'
loop_
 _atom_site_type_symbol
 _atom_site_label
 _atom_site_symmetry_multiplicity
 _atom_site_fract_x
 _atom_site_fract_y
 _atom_site_fract_z
 _atom_site_occupancy
  Ba  Ba0  1  0.666667  0.333333  0.503927  1
  Ba  Ba1  1  0.333333  0.666667  0.003927  1
  Y  Y2  1  0.666667  0.333333  0.863798  1
  Y  Y3  1  0.333333  0.666667  0.363798  1
  Ti  Ti4  1  0.848738  0.151263  0.184073  1
  Ti  Ti5  1  0.697475  0.848737  0.684074  1
  Ti  Ti6  1  0.151263  0.302525  0.684074  1
  Ti  Ti7  1  0.848738  0.697475  0.184073  1
  Ti  Ti8  1  0.302524  0.151263  0.184073  1
  Ti  Ti9  1  0.151263  0.848737  0.684074  1
  Ti  Ti10  1  0.000000  0.000000  0.488284  1
  Ti  Ti11  1  0.000000  0.000000  0.988284  1
  O  O12  1  0.823607  0.176394  0.001227  1
  O  O13  1  0.647213  0.823606  0.501226  1
  O  O14  1  0.176393  0.352786  0.501226  1
  O  O15  1  0.823608  0.647214  0.001227  1
  O  O16  1  0.352786  0.176394  0.001227  1
  O  O17  1  0.176393  0.823606  0.501226  1
  O  O18  1  0.000000  0.000000  0.792068  1
  O  O19  1  0.000000  0.000000  0.292069  1
  O  O20  1  0.506137  0.493865  0.243340  1
  O  O21  1  0.012273  0.506137  0.743340  1
  O  O22  1  0.493864  0.987727  0.743340  1
  O  O23  1  0.506137  0.012273  0.243340  1
  O  O24  1  0.493865  0.506137  0.743340  1
  O  O25  1  0.987727  0.493865  0.243340  1
