# generated using pymatgen
data_Ba2Tl2Zn3Cr4O12
_symmetry_space_group_name_H-M   'P 1'
_cell_length_a   3.88377379
_cell_length_b   3.88377373
_cell_length_c   22.57475064
_cell_angle_alpha   94.93469495
_cell_angle_beta   94.93469561
_cell_angle_gamma   89.99999527
_symmetry_Int_Tables_number   1
_chemical_formula_structural   Ba2Tl2Zn3Cr4O12
_chemical_formula_sum   'Ba2 Tl2 Zn3 Cr4 O12'
_cell_volume   337.98174076
_cell_formula_units_Z   1
loop_
 _symmetry_equiv_pos_site_id
 _symmetry_equiv_pos_as_xyz
  1  'x, y, z'
loop_
 _atom_site_type_symbol
 _atom_site_label
 _atom_site_symmetry_multiplicity
 _atom_site_fract_x
 _atom_site_fract_y
 _atom_site_fract_z
 _atom_site_occupancy
  Ba  Ba0  1  0.162594  0.162594  0.325186  1
  Ba  Ba1  1  0.837406  0.837406  0.674814  1
  Tl  Tl2  1  0.724707  0.724707  0.449414  1
  Tl  Tl3  1  0.275293  0.275293  0.550586  1
  Zn  Zn4  1  0.079103  0.079103  0.158206  1
  Zn  Zn5  1  0.920897  0.920897  0.841794  1
  Zn  Zn6  1  0.000000  0.000000  0.000000  1
  Cr  Cr7  1  0.535499  0.535499  0.070997  1
  Cr  Cr8  1  0.390737  0.390737  0.781474  1
  Cr  Cr9  1  0.609263  0.609263  0.218526  1
  Cr  Cr10  1  0.464501  0.464501  0.929003  1
  O  O11  1  0.400398  0.900398  0.800796  1
  O  O12  1  0.531394  0.031394  0.062789  1
  O  O13  1  0.220838  0.220838  0.441676  1
  O  O14  1  0.968606  0.468606  0.937211  1
  O  O15  1  0.779162  0.779162  0.558324  1
  O  O16  1  0.099602  0.599602  0.199204  1
  O  O17  1  0.599602  0.099602  0.199204  1
  O  O18  1  0.347888  0.347888  0.695775  1
  O  O19  1  0.900398  0.400398  0.800796  1
  O  O20  1  0.031394  0.531394  0.062789  1
  O  O21  1  0.468606  0.968606  0.937211  1
  O  O22  1  0.652112  0.652112  0.304225  1
