# generated using pymatgen
data_YCr3F15
_symmetry_space_group_name_H-M   'P 1'
_cell_length_a   9.03547365
_cell_length_b   6.40176570
_cell_length_c   12.10914960
_cell_angle_alpha   90.00000000
_cell_angle_beta   90.00000000
_cell_angle_gamma   104.88507382
_symmetry_Int_Tables_number   1
_chemical_formula_structural   YCr3F15
_chemical_formula_sum   'Y2 Cr6 F30'
_cell_volume   676.92507650
_cell_formula_units_Z   2
loop_
 _symmetry_equiv_pos_site_id
 _symmetry_equiv_pos_as_xyz
  1  'x, y, z'
loop_
 _atom_site_type_symbol
 _atom_site_label
 _atom_site_symmetry_multiplicity
 _atom_site_fract_x
 _atom_site_fract_y
 _atom_site_fract_z
 _atom_site_occupancy
  Y  Y0  1  0.904996  0.441389  0.250000  1
  Y  Y1  1  0.428337  0.558611  0.750000  1
  Cr  Cr2  1  0.166667  -0.000000  0.500000  1
  Cr  Cr3  1  0.502677  0.009090  0.501144  1
  Cr  Cr4  1  0.830656  0.990910  0.498856  1
  Cr  Cr5  1  0.166667  -0.000000  0.000000  1
  Cr  Cr6  1  0.502677  0.009090  0.998856  1
  Cr  Cr7  1  0.830656  0.990910  0.001144  1
  F  F8  1  0.120033  0.632098  0.250000  1
  F  F9  1  0.444078  0.634491  0.250000  1
  F  F10  1  0.762986  0.640370  0.250000  1
  F  F11  1  0.213300  0.367902  0.750000  1
  F  F12  1  0.570348  0.359630  0.750000  1
  F  F13  1  0.889255  0.365509  0.750000  1
  F  F14  1  0.017900  0.112382  0.579685  1
  F  F15  1  0.350412  0.120275  0.585576  1
  F  F16  1  0.691618  0.114340  0.583119  1
  F  F17  1  0.315434  0.887618  0.420315  1
  F  F18  1  0.641715  0.885660  0.416881  1
  F  F19  1  0.982921  0.879725  0.414424  1
  F  F20  1  0.127331  0.764684  0.916414  1
  F  F21  1  0.457499  0.764925  0.897970  1
  F  F22  1  0.786870  0.751692  0.918874  1
  F  F23  1  0.206003  0.235316  0.083586  1
  F  F24  1  0.546463  0.248308  0.081126  1
  F  F25  1  0.875834  0.235075  0.102030  1
  F  F26  1  0.206003  0.235316  0.416414  1
  F  F27  1  0.546463  0.248308  0.418874  1
  F  F28  1  0.875834  0.235075  0.397970  1
  F  F29  1  0.127331  0.764684  0.583586  1
  F  F30  1  0.457499  0.764925  0.602030  1
  F  F31  1  0.786870  0.751692  0.581126  1
  F  F32  1  0.017900  0.112382  0.920315  1
  F  F33  1  0.350412  0.120275  0.914424  1
  F  F34  1  0.691618  0.114340  0.916881  1
  F  F35  1  0.315434  0.887618  0.079685  1
  F  F36  1  0.641715  0.885660  0.083119  1
  F  F37  1  0.982921  0.879725  0.085576  1
