# generated using pymatgen
data_Zn2NiIrO6
_symmetry_space_group_name_H-M   'P 1'
_cell_length_a   5.22669389
_cell_length_b   5.20817789
_cell_length_c   7.72657943
_cell_angle_alpha   90.00000000
_cell_angle_beta   89.03506637
_cell_angle_gamma   90.00000000
_symmetry_Int_Tables_number   1
_chemical_formula_structural   Zn2NiIrO6
_chemical_formula_sum   'Zn4 Ni2 Ir2 O12'
_cell_volume   210.29965355
_cell_formula_units_Z   2
loop_
 _symmetry_equiv_pos_site_id
 _symmetry_equiv_pos_as_xyz
  1  'x, y, z'
loop_
 _atom_site_type_symbol
 _atom_site_label
 _atom_site_symmetry_multiplicity
 _atom_site_fract_x
 _atom_site_fract_y
 _atom_site_fract_z
 _atom_site_occupancy
  Zn  Zn0  1  0.985029  0.967752  0.243466  1
  Zn  Zn1  1  0.514971  0.467752  0.256534  1
  Zn  Zn2  1  0.485029  0.532248  0.743466  1
  Zn  Zn3  1  0.014971  0.032248  0.756534  1
  Ni  Ni4  1  -0.000000  0.500000  0.000000  1
  Ni  Ni5  1  0.500000  0.000000  0.500000  1
  Ir  Ir6  1  -0.000000  0.500000  0.500000  1
  Ir  Ir7  1  0.500000  0.000000  0.000000  1
  O  O8  1  0.113534  0.410761  0.738757  1
  O  O9  1  0.176325  0.164359  0.056436  1
  O  O10  1  0.156389  0.179352  0.426196  1
  O  O11  1  0.343611  0.679352  0.073804  1
  O  O12  1  0.323675  0.664359  0.443564  1
  O  O13  1  0.386466  0.910761  0.761243  1
  O  O14  1  0.613534  0.089239  0.238757  1
  O  O15  1  0.676325  0.335641  0.556436  1
  O  O16  1  0.656389  0.320648  0.926196  1
  O  O17  1  0.823675  0.835641  0.943564  1
  O  O18  1  0.843611  0.820648  0.573804  1
  O  O19  1  0.886466  0.589239  0.261243  1
