# generated using pymatgen
data_MgCr2(SiO4)3
_symmetry_space_group_name_H-M   'P 1'
_cell_length_a   10.13471909
_cell_length_b   10.13471922
_cell_length_c   10.13471934
_cell_angle_alpha   108.80477739
_cell_angle_beta   109.80546713
_cell_angle_gamma   109.80546585
_symmetry_Int_Tables_number   1
_chemical_formula_structural   MgCr2(SiO4)3
_chemical_formula_sum   'Mg4 Cr8 Si12 O48'
_cell_volume   801.25225144
_cell_formula_units_Z   4
loop_
 _symmetry_equiv_pos_site_id
 _symmetry_equiv_pos_as_xyz
  1  'x, y, z'
loop_
 _atom_site_type_symbol
 _atom_site_label
 _atom_site_symmetry_multiplicity
 _atom_site_fract_x
 _atom_site_fract_y
 _atom_site_fract_z
 _atom_site_occupancy
  Mg  Mg0  1  0.250000  0.375000  0.125000  1
  Mg  Mg1  1  0.750000  0.125000  0.375000  1
  Mg  Mg2  1  0.750000  0.625000  0.875000  1
  Mg  Mg3  1  0.250000  0.875000  0.625000  1
  Cr  Cr4  1  0.500000  0.500000  0.500000  1
  Cr  Cr5  1  0.500000  0.500000  0.000000  1
  Cr  Cr6  1  0.500000  0.000000  0.500000  1
  Cr  Cr7  1  0.500000  0.000000  0.000000  1
  Cr  Cr8  1  0.000000  0.000000  0.500000  1
  Cr  Cr9  1  0.000000  0.500000  0.000000  1
  Cr  Cr10  1  0.000000  0.000000  0.000000  1
  Cr  Cr11  1  0.000000  0.500000  0.500000  1
  Si  Si12  1  0.750000  0.875000  0.125000  1
  Si  Si13  1  0.375341  0.250000  0.625341  1
  Si  Si14  1  0.624659  0.374659  0.250000  1
  Si  Si15  1  0.124659  0.750000  0.874659  1
  Si  Si16  1  0.124659  0.874659  0.250000  1
  Si  Si17  1  0.875341  0.125341  0.750000  1
  Si  Si18  1  0.750000  0.375000  0.625000  1
  Si  Si19  1  0.375341  0.625341  0.750000  1
  Si  Si20  1  0.250000  0.625000  0.375000  1
  Si  Si21  1  0.624659  0.750000  0.374659  1
  Si  Si22  1  0.875341  0.250000  0.125341  1
  Si  Si23  1  0.250000  0.125000  0.875000  1
  O  O24  1  0.700283  0.686836  0.077749  1
  O  O25  1  0.686928  0.101108  0.994031  1
  O  O26  1  0.607078  0.692897  0.505969  1
  O  O27  1  0.512942  0.610093  0.703927  1
  O  O28  1  0.093835  0.889907  0.402850  1
  O  O29  1  0.390913  0.077749  0.877464  1
  O  O30  1  0.109087  0.986552  0.686836  1
  O  O31  1  0.607078  0.414180  0.101108  1
  O  O32  1  0.512942  0.402850  0.809015  1
  O  O33  1  0.892922  0.994031  0.807103  1
  O  O34  1  0.406165  0.097150  0.610093  1
  O  O35  1  0.813072  0.505969  0.398892  1
  O  O36  1  0.987058  0.796073  0.889907  1
  O  O37  1  0.093835  0.703927  0.690985  1
  O  O38  1  0.686928  0.085820  0.692897  1
  O  O39  1  0.109087  0.622536  0.422251  1
  O  O40  1  0.813072  0.807103  0.414180  1
  O  O41  1  0.390913  0.813164  0.513448  1
  O  O42  1  0.406165  0.809015  0.796073  1
  O  O43  1  0.799717  0.877464  0.986552  1
  O  O44  1  0.799717  0.422251  0.813164  1
  O  O45  1  0.892922  0.398892  0.085820  1
  O  O46  1  0.987058  0.690985  0.097150  1
  O  O47  1  0.700283  0.513448  0.622536  1
  O  O48  1  0.299717  0.313164  0.922251  1
  O  O49  1  0.313072  0.898892  0.005969  1
  O  O50  1  0.392922  0.307103  0.494031  1
  O  O51  1  0.487058  0.389907  0.296073  1
  O  O52  1  0.906165  0.110093  0.597150  1
  O  O53  1  0.609087  0.922251  0.122536  1
  O  O54  1  0.890913  0.013448  0.313164  1
  O  O55  1  0.392922  0.585820  0.898892  1
  O  O56  1  0.487058  0.597150  0.190985  1
  O  O57  1  0.107078  0.005969  0.192897  1
  O  O58  1  0.593835  0.902850  0.389907  1
  O  O59  1  0.186928  0.494031  0.601108  1
  O  O60  1  0.012942  0.203927  0.110093  1
  O  O61  1  0.906165  0.296073  0.309015  1
  O  O62  1  0.313072  0.914180  0.307103  1
  O  O63  1  0.890913  0.377464  0.577749  1
  O  O64  1  0.186928  0.192897  0.585820  1
  O  O65  1  0.609087  0.186836  0.486552  1
  O  O66  1  0.593835  0.190985  0.203927  1
  O  O67  1  0.200283  0.122536  0.013448  1
  O  O68  1  0.200283  0.577749  0.186836  1
  O  O69  1  0.107078  0.601108  0.914180  1
  O  O70  1  0.012942  0.309015  0.902850  1
  O  O71  1  0.299717  0.486552  0.377464  1
