# generated using pymatgen
data_MnZnO2
_symmetry_space_group_name_H-M   'P 1'
_cell_length_a   3.04930014
_cell_length_b   8.33019117
_cell_length_c   8.51744198
_cell_angle_alpha   89.72951101
_cell_angle_beta   79.63021342
_cell_angle_gamma   79.55711581
_symmetry_Int_Tables_number   1
_chemical_formula_structural   MnZnO2
_chemical_formula_sum   'Mn4 Zn4 O8'
_cell_volume   209.20766437
_cell_formula_units_Z   4
loop_
 _symmetry_equiv_pos_site_id
 _symmetry_equiv_pos_as_xyz
  1  'x, y, z'
loop_
 _atom_site_type_symbol
 _atom_site_label
 _atom_site_symmetry_multiplicity
 _atom_site_fract_x
 _atom_site_fract_y
 _atom_site_fract_z
 _atom_site_occupancy
  Mn  Mn0  1  0.598935  0.215802  0.587061  1
  Mn  Mn1  1  0.185600  0.396029  0.232018  1
  Mn  Mn2  1  0.810393  0.583886  0.796183  1
  Mn  Mn3  1  0.397116  0.764047  0.441156  1
  Zn  Zn4  1  0.343838  0.070419  0.247993  1
  Zn  Zn5  1  0.652306  0.909545  0.780155  1
  Zn  Zn6  1  0.073268  0.726992  0.128025  1
  Zn  Zn7  1  0.922802  0.252938  0.900196  1
  O  O8  1  0.832017  0.733867  0.600233  1
  O  O9  1  0.404600  0.390072  0.800551  1
  O  O10  1  0.591402  0.589819  0.227618  1
  O  O11  1  0.164031  0.246032  0.427966  1
  O  O12  1  0.094193  0.071566  0.736016  1
  O  O13  1  0.824933  0.221967  0.127555  1
  O  O14  1  0.901920  0.908328  0.292229  1
  O  O15  1  0.170919  0.758029  0.900660  1
