# generated using pymatgen
data_ZnSb2O5
_symmetry_space_group_name_H-M   'P 1'
_cell_length_a   3.98101071
_cell_length_b   5.47202512
_cell_length_c   13.29531351
_cell_angle_alpha   90.00000000
_cell_angle_beta   90.00000000
_cell_angle_gamma   111.33129921
_symmetry_Int_Tables_number   1
_chemical_formula_structural   ZnSb2O5
_chemical_formula_sum   'Zn2 Sb4 O10'
_cell_volume   269.78602240
_cell_formula_units_Z   2
loop_
 _symmetry_equiv_pos_site_id
 _symmetry_equiv_pos_as_xyz
  1  'x, y, z'
loop_
 _atom_site_type_symbol
 _atom_site_label
 _atom_site_symmetry_multiplicity
 _atom_site_fract_x
 _atom_site_fract_y
 _atom_site_fract_z
 _atom_site_occupancy
  Zn  Zn0  1  0.916642  0.833284  0.750000  1
  Zn  Zn1  1  0.083359  0.166717  0.250000  1
  Sb  Sb2  1  0.206809  0.413618  0.607256  1
  Sb  Sb3  1  0.793192  0.586383  0.392743  1
  Sb  Sb4  1  0.793192  0.586383  0.107257  1
  Sb  Sb5  1  0.206809  0.413618  0.892744  1
  O  O6  1  0.697412  0.394823  0.250000  1
  O  O7  1  0.302589  0.605178  0.750000  1
  O  O8  1  0.247551  0.495102  0.083779  1
  O  O9  1  0.752451  0.504899  0.916221  1
  O  O10  1  0.752451  0.504899  0.583779  1
  O  O11  1  0.247551  0.495102  0.416220  1
  O  O12  1  0.024901  0.049800  0.632114  1
  O  O13  1  0.975099  0.950199  0.367886  1
  O  O14  1  0.024901  0.049800  0.867886  1
  O  O15  1  0.975099  0.950199  0.132115  1
