# generated using pymatgen
data_Ca3(TiS2)4
_symmetry_space_group_name_H-M   'P 1'
_cell_length_a   7.12026454
_cell_length_b   7.55442690
_cell_length_c   13.30689626
_cell_angle_alpha   28.26886311
_cell_angle_beta   90.49025245
_cell_angle_gamma   104.21252274
_symmetry_Int_Tables_number   1
_chemical_formula_structural   Ca3(TiS2)4
_chemical_formula_sum   'Ca3 Ti4 S8'
_cell_volume   293.07642315
_cell_formula_units_Z   1
loop_
 _symmetry_equiv_pos_site_id
 _symmetry_equiv_pos_as_xyz
  1  'x, y, z'
loop_
 _atom_site_type_symbol
 _atom_site_label
 _atom_site_symmetry_multiplicity
 _atom_site_fract_x
 _atom_site_fract_y
 _atom_site_fract_z
 _atom_site_occupancy
  Ca  Ca0  1  -0.000000  0.000000  0.250000  1
  Ca  Ca1  1  -0.000000  0.000000  0.750000  1
  Ca  Ca2  1  0.500000  0.000000  0.250000  1
  Ti  Ti3  1  0.000000  0.057423  0.971288  1
  Ti  Ti4  1  1.000000  0.942577  0.528712  1
  Ti  Ti5  1  0.515741  0.015741  0.989304  1
  Ti  Ti6  1  0.484259  0.984259  0.510696  1
  S  S7  1  0.332119  0.326872  0.229220  1
  S  S8  1  0.332119  0.337367  0.723972  1
  S  S9  1  0.834274  0.334274  0.228314  1
  S  S10  1  0.826833  0.326833  0.720028  1
  S  S11  1  0.173167  0.673167  0.779972  1
  S  S12  1  0.165726  0.665726  0.271686  1
  S  S13  1  0.667881  0.662633  0.776028  1
  S  S14  1  0.667881  0.673128  0.270780  1
