# generated using pymatgen
data_Mg(WO2)2
_symmetry_space_group_name_H-M   'P 1'
_cell_length_a   6.35213907
_cell_length_b   6.35213917
_cell_length_c   6.23666348
_cell_angle_alpha   60.59954908
_cell_angle_beta   60.59955184
_cell_angle_gamma   62.10630209
_symmetry_Int_Tables_number   1
_chemical_formula_structural   Mg(WO2)2
_chemical_formula_sum   'Mg2 W4 O8'
_cell_volume   182.27244798
_cell_formula_units_Z   2
loop_
 _symmetry_equiv_pos_site_id
 _symmetry_equiv_pos_as_xyz
  1  'x, y, z'
loop_
 _atom_site_type_symbol
 _atom_site_label
 _atom_site_symmetry_multiplicity
 _atom_site_fract_x
 _atom_site_fract_y
 _atom_site_fract_z
 _atom_site_occupancy
  Mg  Mg0  1  0.125000  0.625000  0.625000  1
  Mg  Mg1  1  0.625000  0.125000  0.625000  1
  W  W2  1  0.024767  0.024767  0.975233  1
  W  W3  1  0.225233  0.225233  0.274767  1
  W  W4  1  0.625000  0.625000  0.125000  1
  W  W5  1  0.625000  0.625000  0.625000  1
  O  O6  1  0.380488  0.380488  0.382258  1
  O  O7  1  0.383059  0.836955  0.389993  1
  O  O8  1  0.380488  0.380488  0.856768  1
  O  O9  1  0.836955  0.383059  0.389993  1
  O  O10  1  0.413045  0.866941  0.860007  1
  O  O11  1  0.866941  0.413045  0.860007  1
  O  O12  1  0.869512  0.869512  0.393232  1
  O  O13  1  0.869512  0.869512  0.867742  1
