# generated using pymatgen
data_CaFeWO6
_symmetry_space_group_name_H-M   'P 1'
_cell_length_a   5.54338022
_cell_length_b   5.54366906
_cell_length_c   7.84377876
_cell_angle_alpha   90.00169091
_cell_angle_beta   90.00000000
_cell_angle_gamma   90.00000000
_symmetry_Int_Tables_number   1
_chemical_formula_structural   CaFeWO6
_chemical_formula_sum   'Ca2 Fe2 W2 O12'
_cell_volume   241.04454078
_cell_formula_units_Z   2
loop_
 _symmetry_equiv_pos_site_id
 _symmetry_equiv_pos_as_xyz
  1  'x, y, z'
loop_
 _atom_site_type_symbol
 _atom_site_label
 _atom_site_symmetry_multiplicity
 _atom_site_fract_x
 _atom_site_fract_y
 _atom_site_fract_z
 _atom_site_occupancy
  Ca  Ca0  1  0.000000  0.484796  0.751334  1
  Ca  Ca1  1  0.500000  0.982533  0.251059  1
  Fe  Fe2  1  0.500000  0.475522  0.000026  1
  Fe  Fe3  1  0.000000  0.974227  0.499950  1
  W  W4  1  0.000000  0.976267  0.000061  1
  W  W5  1  0.500000  0.474443  0.500138  1
  O  O6  1  0.500000  0.467035  0.746058  1
  O  O7  1  0.500000  0.480545  0.253763  1
  O  O8  1  0.000000  0.979988  0.753521  1
  O  O9  1  0.000000  0.967280  0.246151  1
  O  O10  1  0.748197  0.717812  0.504136  1
  O  O11  1  0.251803  0.717812  0.504136  1
  O  O12  1  0.744379  0.224552  0.495078  1
  O  O13  1  0.255622  0.224552  0.495078  1
  O  O14  1  0.247477  0.220000  0.003821  1
  O  O15  1  0.752524  0.220000  0.003821  1
  O  O16  1  0.245090  0.726864  0.995537  1
  O  O17  1  0.754911  0.726864  0.995537  1
