# generated using pymatgen
data_PrZn(NiO3)2
_symmetry_space_group_name_H-M   'P 1'
_cell_length_a   5.22096801
_cell_length_b   5.42266130
_cell_length_c   7.58475584
_cell_angle_alpha   90.00384902
_cell_angle_beta   89.99525764
_cell_angle_gamma   90.00204137
_symmetry_Int_Tables_number   1
_chemical_formula_structural   PrZn(NiO3)2
_chemical_formula_sum   'Pr2 Zn2 Ni4 O12'
_cell_volume   214.73612591
_cell_formula_units_Z   2
loop_
 _symmetry_equiv_pos_site_id
 _symmetry_equiv_pos_as_xyz
  1  'x, y, z'
loop_
 _atom_site_type_symbol
 _atom_site_label
 _atom_site_symmetry_multiplicity
 _atom_site_fract_x
 _atom_site_fract_y
 _atom_site_fract_z
 _atom_site_occupancy
  Pr  Pr0  1  0.011018  0.956633  0.750053  1
  Pr  Pr1  1  0.511004  0.543349  0.249958  1
  Zn  Zn2  1  0.473181  0.448709  0.749960  1
  Zn  Zn3  1  0.973168  0.051329  0.250039  1
  Ni  Ni4  1  0.998084  0.497881  0.998453  1
  Ni  Ni5  1  0.998001  0.497837  0.501548  1
  Ni  Ni6  1  0.498082  0.002096  0.498460  1
  Ni  Ni7  1  0.498035  0.002144  0.001524  1
  O  O8  1  0.074436  0.449219  0.250012  1
  O  O9  1  0.235547  0.239414  0.939409  1
  O  O10  1  0.235369  0.239296  0.560558  1
  O  O11  1  0.305913  0.698764  0.557638  1
  O  O12  1  0.305883  0.698864  0.942350  1
  O  O13  1  0.362556  0.980758  0.249937  1
  O  O14  1  0.574459  0.050820  0.750070  1
  O  O15  1  0.735483  0.260623  0.060582  1
  O  O16  1  0.735433  0.260710  0.439397  1
  O  O17  1  0.805859  0.801172  0.057659  1
  O  O18  1  0.805910  0.801140  0.442376  1
  O  O19  1  0.862578  0.519242  0.750015  1
