# generated using pymatgen
data_TiZn2IrO6
_symmetry_space_group_name_H-M   'P 1'
_cell_length_a   5.22239909
_cell_length_b   5.24089092
_cell_length_c   7.64748905
_cell_angle_alpha   90.00000000
_cell_angle_beta   90.30847989
_cell_angle_gamma   90.00000000
_symmetry_Int_Tables_number   1
_chemical_formula_structural   TiZn2IrO6
_chemical_formula_sum   'Ti2 Zn4 Ir2 O12'
_cell_volume   209.30892486
_cell_formula_units_Z   2
loop_
 _symmetry_equiv_pos_site_id
 _symmetry_equiv_pos_as_xyz
  1  'x, y, z'
loop_
 _atom_site_type_symbol
 _atom_site_label
 _atom_site_symmetry_multiplicity
 _atom_site_fract_x
 _atom_site_fract_y
 _atom_site_fract_z
 _atom_site_occupancy
  Ti  Ti0  1  0.000000  0.500000  0.000000  1
  Ti  Ti1  1  0.500000  0.000000  0.500000  1
  Zn  Zn2  1  0.993510  0.967698  0.248675  1
  Zn  Zn3  1  0.506490  0.467698  0.251325  1
  Zn  Zn4  1  0.493510  0.532302  0.748675  1
  Zn  Zn5  1  0.006490  0.032302  0.751325  1
  Ir  Ir6  1  0.000000  0.500000  0.500000  1
  Ir  Ir7  1  0.500000  0.000000  0.000000  1
  O  O8  1  0.117192  0.421195  0.750261  1
  O  O9  1  0.173047  0.182211  0.064198  1
  O  O10  1  0.178045  0.175199  0.437461  1
  O  O11  1  0.321955  0.675199  0.062539  1
  O  O12  1  0.326953  0.682211  0.435802  1
  O  O13  1  0.382808  0.921195  0.749739  1
  O  O14  1  0.617192  0.078805  0.250261  1
  O  O15  1  0.673047  0.317789  0.564198  1
  O  O16  1  0.678045  0.324801  0.937461  1
  O  O17  1  0.826953  0.817789  0.935802  1
  O  O18  1  0.821955  0.824801  0.562539  1
  O  O19  1  0.882808  0.578805  0.249739  1
