# generated using pymatgen
data_AlSbO3
_symmetry_space_group_name_H-M   'P 1'
_cell_length_a   5.25939589
_cell_length_b   5.35129883
_cell_length_c   9.21267083
_cell_angle_alpha   90.00004274
_cell_angle_beta   90.00001619
_cell_angle_gamma   89.99955455
_symmetry_Int_Tables_number   1
_chemical_formula_structural   AlSbO3
_chemical_formula_sum   'Al4 Sb4 O12'
_cell_volume   259.28692689
_cell_formula_units_Z   4
loop_
 _symmetry_equiv_pos_site_id
 _symmetry_equiv_pos_as_xyz
  1  'x, y, z'
loop_
 _atom_site_type_symbol
 _atom_site_label
 _atom_site_symmetry_multiplicity
 _atom_site_fract_x
 _atom_site_fract_y
 _atom_site_fract_z
 _atom_site_occupancy
  Al  Al0  1  -0.040656  0.035112  0.750005  1
  Al  Al1  1  0.459352  0.464885  0.250003  1
  Al  Al2  1  0.540657  0.535121  0.750003  1
  Al  Al3  1  0.040657  -0.035117  0.250005  1
  Sb  Sb4  1  -0.000005  0.499960  0.499989  1
  Sb  Sb5  1  0.500022  -0.000042  0.499980  1
  Sb  Sb6  1  0.499940  0.000018  -0.000035  1
  Sb  Sb7  1  -0.000039  0.500038  0.000006  1
  O  O8  1  0.632412  0.355618  0.401764  1
  O  O9  1  0.132348  0.144411  0.598222  1
  O  O10  1  0.867653  0.855582  0.098224  1
  O  O11  1  0.367621  0.644407  0.901766  1
  O  O12  1  0.367648  0.644396  0.598226  1
  O  O13  1  0.867577  0.855625  0.401768  1
  O  O14  1  0.132424  0.144367  0.901770  1
  O  O15  1  0.632384  0.355629  0.098228  1
  O  O16  1  0.160289  0.285193  0.250013  1
  O  O17  1  0.660279  0.214806  0.750025  1
  O  O18  1  0.339717  0.785188  0.250025  1
  O  O19  1  0.839721  0.714803  0.750013  1
