# generated using pymatgen
data_CaSnO2
_symmetry_space_group_name_H-M   'P 1'
_cell_length_a   3.29428825
_cell_length_b   9.17717571
_cell_length_c   9.47453893
_cell_angle_alpha   78.22440021
_cell_angle_beta   79.53122327
_cell_angle_gamma   78.33129822
_symmetry_Int_Tables_number   1
_chemical_formula_structural   CaSnO2
_chemical_formula_sum   'Ca4 Sn4 O8'
_cell_volume   271.65175073
_cell_formula_units_Z   4
loop_
 _symmetry_equiv_pos_site_id
 _symmetry_equiv_pos_as_xyz
  1  'x, y, z'
loop_
 _atom_site_type_symbol
 _atom_site_label
 _atom_site_symmetry_multiplicity
 _atom_site_fract_x
 _atom_site_fract_y
 _atom_site_fract_z
 _atom_site_occupancy
  Ca  Ca0  1  0.661175  0.056861  0.277801  1
  Ca  Ca1  1  0.334933  0.923026  0.750637  1
  Ca  Ca2  1  0.283530  0.753170  0.114638  1
  Ca  Ca3  1  0.711503  0.226616  0.913582  1
  Sn  Sn4  1  0.523582  0.301727  0.565442  1
  Sn  Sn5  1  0.097940  0.378235  0.188490  1
  Sn  Sn6  1  0.898672  0.601736  0.839475  1
  Sn  Sn7  1  0.473107  0.678292  0.462716  1
  O  O8  1  0.989456  0.760695  0.646410  1
  O  O9  1  0.201767  0.390216  0.791333  1
  O  O10  1  0.793044  0.589503  0.236787  1
  O  O11  1  0.008726  0.219360  0.381862  1
  O  O12  1  0.750746  0.113172  0.707755  1
  O  O13  1  0.158716  0.153649  0.089788  1
  O  O14  1  0.245083  0.866768  0.320341  1
  O  O15  1  0.836295  0.826311  0.938558  1
