# generated using pymatgen
data_Ba2YMn3O8
_symmetry_space_group_name_H-M   'P 1'
_cell_length_a   3.98233527
_cell_length_b   3.98239206
_cell_length_c   11.86940710
_cell_angle_alpha   90.00001188
_cell_angle_beta   90.00053287
_cell_angle_gamma   89.99651739
_symmetry_Int_Tables_number   1
_chemical_formula_structural   Ba2YMn3O8
_chemical_formula_sum   'Ba2 Y1 Mn3 O8'
_cell_volume   188.23954256
_cell_formula_units_Z   1
loop_
 _symmetry_equiv_pos_site_id
 _symmetry_equiv_pos_as_xyz
  1  'x, y, z'
loop_
 _atom_site_type_symbol
 _atom_site_label
 _atom_site_symmetry_multiplicity
 _atom_site_fract_x
 _atom_site_fract_y
 _atom_site_fract_z
 _atom_site_occupancy
  Ba  Ba0  1  0.499994  0.500005  0.164186  1
  Ba  Ba1  1  0.499992  0.499997  0.835864  1
  Y  Y2  1  0.500008  0.500002  0.499988  1
  Mn  Mn3  1  0.000010  0.999973  0.342744  1
  Mn  Mn4  1  -0.000025  -0.000018  0.000085  1
  Mn  Mn5  1  0.000009  0.000021  0.657200  1
  O  O6  1  0.000018  0.500003  0.381612  1
  O  O7  1  0.500009  0.000009  0.381612  1
  O  O8  1  0.500012  0.999991  -0.000008  1
  O  O9  1  0.999994  0.000003  0.171795  1
  O  O10  1  0.999987  0.499998  0.618365  1
  O  O11  1  0.500002  0.000001  0.618367  1
  O  O12  1  0.999993  1.000000  0.828199  1
  O  O13  1  0.999997  0.500015  -0.000008  1
