# generated using pymatgen
data_Ca2YVO5
_symmetry_space_group_name_H-M   'P 1'
_cell_length_a   5.49842648
_cell_length_b   5.71791763
_cell_length_c   8.93347357
_cell_angle_alpha   108.66911074
_cell_angle_beta   107.88435441
_cell_angle_gamma   89.99923297
_symmetry_Int_Tables_number   1
_chemical_formula_structural   Ca2YVO5
_chemical_formula_sum   'Ca4 Y2 V2 O10'
_cell_volume   251.71917135
_cell_formula_units_Z   2
loop_
 _symmetry_equiv_pos_site_id
 _symmetry_equiv_pos_as_xyz
  1  'x, y, z'
loop_
 _atom_site_type_symbol
 _atom_site_label
 _atom_site_symmetry_multiplicity
 _atom_site_fract_x
 _atom_site_fract_y
 _atom_site_fract_z
 _atom_site_occupancy
  Ca  Ca0  1  0.108082  0.629124  0.199386  1
  Ca  Ca1  1  0.407135  0.930366  0.801701  1
  Ca  Ca2  1  0.907172  0.371109  0.801674  1
  Ca  Ca3  1  0.608039  0.070062  0.199404  1
  Y  Y4  1  0.292123  0.295153  0.500450  1
  Y  Y5  1  0.792145  0.705089  0.500470  1
  V  V6  1  0.483283  0.500337  0.000481  1
  V  V7  1  0.983398  -0.000058  0.000529  1
  O  O8  1  0.694034  0.333180  0.500541  1
  O  O9  1  0.194034  0.667142  0.500526  1
  O  O10  1  0.580786  0.711077  0.259299  1
  O  O11  1  0.323946  0.289619  0.741869  1
  O  O12  1  0.080824  0.048044  0.259282  1
  O  O13  1  0.823995  0.951994  0.741897  1
  O  O14  1  0.214936  0.732587  0.962690  1
  O  O15  1  0.256967  0.263909  0.038494  1
  O  O16  1  0.756978  0.274415  0.038525  1
  O  O17  1  0.714963  0.729936  0.962683  1
