# generated using pymatgen
data_Mg(AgO2)2
_symmetry_space_group_name_H-M   'P 1'
_cell_length_a   6.37166788
_cell_length_b   6.37166969
_cell_length_c   6.39076675
_cell_angle_alpha   119.90119988
_cell_angle_beta   119.90119722
_cell_angle_gamma   89.99999487
_symmetry_Int_Tables_number   1
_chemical_formula_structural   Mg(AgO2)2
_chemical_formula_sum   'Mg2 Ag4 O8'
_cell_volume   184.00785526
_cell_formula_units_Z   2
loop_
 _symmetry_equiv_pos_site_id
 _symmetry_equiv_pos_as_xyz
  1  'x, y, z'
loop_
 _atom_site_type_symbol
 _atom_site_label
 _atom_site_symmetry_multiplicity
 _atom_site_fract_x
 _atom_site_fract_y
 _atom_site_fract_z
 _atom_site_occupancy
  Mg  Mg0  1  0.375000  0.625000  0.750000  1
  Mg  Mg1  1  0.625000  0.375000  0.250000  1
  Ag  Ag2  1  0.000000  0.000000  0.500000  1
  Ag  Ag3  1  0.000000  0.500000  0.000000  1
  Ag  Ag4  1  0.500000  0.000000  0.500000  1
  Ag  Ag5  1  0.000000  0.000000  0.000000  1
  O  O6  1  0.753820  0.761851  0.507640  1
  O  O7  1  0.754212  0.246180  0.992360  1
  O  O8  1  0.238149  0.246180  0.992360  1
  O  O9  1  0.246180  0.238149  0.492360  1
  O  O10  1  0.246180  0.754212  0.492360  1
  O  O11  1  0.245788  0.753820  0.007640  1
  O  O12  1  0.753820  0.245788  0.507640  1
  O  O13  1  0.761851  0.753820  0.007640  1
