# generated using pymatgen
data_ZnNiSnP2O9
_symmetry_space_group_name_H-M   'P 1'
_cell_length_a   6.37696336
_cell_length_b   7.69165646
_cell_length_c   14.64049349
_cell_angle_alpha   89.96135246
_cell_angle_beta   89.98763914
_cell_angle_gamma   90.00520697
_symmetry_Int_Tables_number   1
_chemical_formula_structural   ZnNiSnP2O9
_chemical_formula_sum   'Zn4 Ni4 Sn4 P8 O36'
_cell_volume   718.10740602
_cell_formula_units_Z   4
loop_
 _symmetry_equiv_pos_site_id
 _symmetry_equiv_pos_as_xyz
  1  'x, y, z'
loop_
 _atom_site_type_symbol
 _atom_site_label
 _atom_site_symmetry_multiplicity
 _atom_site_fract_x
 _atom_site_fract_y
 _atom_site_fract_z
 _atom_site_occupancy
  Zn  Zn0  1  0.750039  0.971552  0.819789  1
  Zn  Zn1  1  0.749908  0.528336  0.319629  1
  Zn  Zn2  1  0.249964  0.028435  0.180219  1
  Zn  Zn3  1  0.250086  0.471673  0.680374  1
  Ni  Ni4  1  0.500048  0.000079  -0.000018  1
  Ni  Ni5  1  0.499978  0.499959  0.500019  1
  Ni  Ni6  1  0.000013  0.499980  0.500001  1
  Ni  Ni7  1  -0.000063  0.000048  -0.000022  1
  Sn  Sn8  1  0.749952  0.360758  0.883121  1
  Sn  Sn9  1  0.250048  0.639228  0.116874  1
  Sn  Sn10  1  0.250040  0.860732  0.616907  1
  Sn  Sn11  1  0.749958  0.139276  0.383091  1
  P  P12  1  0.249870  0.353034  0.930181  1
  P  P13  1  0.750130  0.646972  0.069854  1
  P  P14  1  0.750100  0.853417  0.569863  1
  P  P15  1  0.249900  0.146593  0.430109  1
  P  P16  1  0.750035  0.377133  0.692658  1
  P  P17  1  0.249968  0.622870  0.307330  1
  P  P18  1  0.250025  0.877361  0.807029  1
  P  P19  1  0.749978  0.122633  0.192980  1
  O  O20  1  0.046129  0.610209  0.365914  1
  O  O21  1  0.546446  0.389894  0.634011  1
  O  O22  1  0.953975  0.109917  0.134252  1
  O  O23  1  0.453848  0.890126  0.865790  1
  O  O24  1  0.953862  0.389795  0.634101  1
  O  O25  1  0.453558  0.610109  0.366006  1
  O  O26  1  0.046031  0.890076  0.865744  1
  O  O27  1  0.546156  0.109862  0.134203  1
  O  O28  1  0.249672  0.325793  0.476649  1
  O  O29  1  0.750330  0.674215  0.523368  1
  O  O30  1  0.750460  0.826879  0.023769  1
  O  O31  1  0.249560  0.173122  0.976213  1
  O  O32  1  0.749790  0.120276  0.937314  1
  O  O33  1  0.250231  0.879724  0.062683  1
  O  O34  1  0.250307  0.620196  0.563044  1
  O  O35  1  0.749694  0.379821  0.436963  1
  O  O36  1  0.749927  0.205520  0.751526  1
  O  O37  1  0.250068  0.794470  0.248483  1
  O  O38  1  0.250038  0.705754  0.748614  1
  O  O39  1  0.749956  0.294242  0.251389  1
  O  O40  1  0.436322  0.124976  0.363851  1
  O  O41  1  0.936412  0.875018  0.636183  1
  O  O42  1  0.563725  0.624818  0.135970  1
  O  O43  1  0.063603  0.375255  0.863957  1
  O  O44  1  0.563652  0.875034  0.636159  1
  O  O45  1  0.063609  0.124993  0.363828  1
  O  O46  1  0.436302  0.375170  0.864010  1
  O  O47  1  0.936367  0.624725  0.136026  1
  O  O48  1  0.749962  0.977262  0.267892  1
  O  O49  1  0.250036  0.022740  0.732108  1
  O  O50  1  0.250017  0.477487  0.232312  1
  O  O51  1  0.749981  0.522520  0.767701  1
  O  O52  1  0.750017  0.002270  0.500013  1
  O  O53  1  0.249979  0.997706  0.500006  1
  O  O54  1  0.249993  0.500570  0.000599  1
  O  O55  1  0.750002  0.499385  0.999361  1
