# generated using pymatgen
data_Zn3Co2(GeO4)3
_symmetry_space_group_name_H-M   'P 1'
_cell_length_a   10.31820233
_cell_length_b   10.31820183
_cell_length_c   10.31820195
_cell_angle_alpha   109.47122088
_cell_angle_beta   109.47121990
_cell_angle_gamma   109.47121997
_symmetry_Int_Tables_number   1
_chemical_formula_structural   Zn3Co2(GeO4)3
_chemical_formula_sum   'Zn12 Co8 Ge12 O48'
_cell_volume   845.64911220
_cell_formula_units_Z   4
loop_
 _symmetry_equiv_pos_site_id
 _symmetry_equiv_pos_as_xyz
  1  'x, y, z'
loop_
 _atom_site_type_symbol
 _atom_site_label
 _atom_site_symmetry_multiplicity
 _atom_site_fract_x
 _atom_site_fract_y
 _atom_site_fract_z
 _atom_site_occupancy
  Zn  Zn0  1  0.625000  0.250000  0.875000  1
  Zn  Zn1  1  0.875000  0.750000  0.625000  1
  Zn  Zn2  1  0.750000  0.625000  0.875000  1
  Zn  Zn3  1  0.250000  0.875000  0.625000  1
  Zn  Zn4  1  0.875000  0.625000  0.250000  1
  Zn  Zn5  1  0.625000  0.875000  0.750000  1
  Zn  Zn6  1  0.375000  0.750000  0.125000  1
  Zn  Zn7  1  0.125000  0.250000  0.375000  1
  Zn  Zn8  1  0.250000  0.375000  0.125000  1
  Zn  Zn9  1  0.750000  0.125000  0.375000  1
  Zn  Zn10  1  0.125000  0.375000  0.750000  1
  Zn  Zn11  1  0.375000  0.125000  0.250000  1
  Co  Co12  1  0.500000  0.500000  0.500000  1
  Co  Co13  1  0.500000  0.500000  0.000000  1
  Co  Co14  1  0.500000  0.000000  0.500000  1
  Co  Co15  1  0.000000  0.500000  0.500000  1
  Co  Co16  1  0.500000  0.000000  0.000000  1
  Co  Co17  1  0.000000  0.000000  0.500000  1
  Co  Co18  1  0.000000  0.500000  0.000000  1
  Co  Co19  1  0.000000  0.000000  0.000000  1
  Ge  Ge20  1  0.875000  0.125000  0.750000  1
  Ge  Ge21  1  0.125000  0.875000  0.250000  1
  Ge  Ge22  1  0.250000  0.625000  0.375000  1
  Ge  Ge23  1  0.125000  0.750000  0.875000  1
  Ge  Ge24  1  0.750000  0.875000  0.125000  1
  Ge  Ge25  1  0.375000  0.250000  0.625000  1
  Ge  Ge26  1  0.625000  0.750000  0.375000  1
  Ge  Ge27  1  0.875000  0.250000  0.125000  1
  Ge  Ge28  1  0.250000  0.125000  0.875000  1
  Ge  Ge29  1  0.750000  0.375000  0.625000  1
  Ge  Ge30  1  0.375000  0.625000  0.750000  1
  Ge  Ge31  1  0.625000  0.375000  0.250000  1
  O  O32  1  0.798239  0.423405  0.823575  1
  O  O33  1  0.076595  0.874834  0.400169  1
  O  O34  1  0.676425  0.099831  0.974663  1
  O  O35  1  0.701761  0.525337  0.625166  1
  O  O36  1  0.701761  0.676425  0.076595  1
  O  O37  1  0.525337  0.625166  0.701761  1
  O  O38  1  0.099831  0.625166  0.423405  1
  O  O39  1  0.625166  0.701761  0.525337  1
  O  O40  1  0.400169  0.823575  0.525337  1
  O  O41  1  0.874834  0.974663  0.798239  1
  O  O42  1  0.974663  0.798239  0.874834  1
  O  O43  1  0.076595  0.701761  0.676425  1
  O  O44  1  0.625166  0.423405  0.099831  1
  O  O45  1  0.525337  0.400169  0.823575  1
  O  O46  1  0.676425  0.076595  0.701761  1
  O  O47  1  0.423405  0.099831  0.625166  1
  O  O48  1  0.823575  0.525337  0.400169  1
  O  O49  1  0.400169  0.076595  0.874834  1
  O  O50  1  0.099831  0.974663  0.676425  1
  O  O51  1  0.599831  0.176425  0.474663  1
  O  O52  1  0.974663  0.676425  0.099831  1
  O  O53  1  0.823575  0.798239  0.423405  1
  O  O54  1  0.874834  0.400169  0.076595  1
  O  O55  1  0.798239  0.874834  0.974663  1
  O  O56  1  0.201761  0.576595  0.176425  1
  O  O57  1  0.923405  0.125166  0.599831  1
  O  O58  1  0.323575  0.900169  0.025337  1
  O  O59  1  0.298239  0.474663  0.374834  1
  O  O60  1  0.298239  0.323575  0.923405  1
  O  O61  1  0.474663  0.374834  0.298239  1
  O  O62  1  0.900169  0.374834  0.576595  1
  O  O63  1  0.374834  0.298239  0.474663  1
  O  O64  1  0.201761  0.125166  0.025337  1
  O  O65  1  0.125166  0.599831  0.923405  1
  O  O66  1  0.176425  0.201761  0.576595  1
  O  O67  1  0.576595  0.176425  0.201761  1
  O  O68  1  0.025337  0.323575  0.900169  1
  O  O69  1  0.900169  0.025337  0.323575  1
  O  O70  1  0.599831  0.923405  0.125166  1
  O  O71  1  0.176425  0.474663  0.599831  1
  O  O72  1  0.576595  0.900169  0.374834  1
  O  O73  1  0.323575  0.923405  0.298239  1
  O  O74  1  0.474663  0.599831  0.176425  1
  O  O75  1  0.374834  0.576595  0.900169  1
  O  O76  1  0.923405  0.298239  0.323575  1
  O  O77  1  0.025337  0.201761  0.125166  1
  O  O78  1  0.125166  0.025337  0.201761  1
  O  O79  1  0.423405  0.823575  0.798239  1
