# generated using pymatgen
data_CaLa2BiO6
_symmetry_space_group_name_H-M   'P 1'
_cell_length_a   6.24982666
_cell_length_b   6.24982620
_cell_length_c   6.24982697
_cell_angle_alpha   58.88393735
_cell_angle_beta   58.88393850
_cell_angle_gamma   58.88394175
_symmetry_Int_Tables_number   1
_chemical_formula_structural   CaLa2BiO6
_chemical_formula_sum   'Ca1 La2 Bi1 O6'
_cell_volume   168.22164365
_cell_formula_units_Z   1
loop_
 _symmetry_equiv_pos_site_id
 _symmetry_equiv_pos_as_xyz
  1  'x, y, z'
loop_
 _atom_site_type_symbol
 _atom_site_label
 _atom_site_symmetry_multiplicity
 _atom_site_fract_x
 _atom_site_fract_y
 _atom_site_fract_z
 _atom_site_occupancy
  Ca  Ca0  1  0.500000  0.500000  0.500000  1
  La  La1  1  0.782206  0.782206  0.782206  1
  La  La2  1  0.217794  0.217794  0.217794  1
  Bi  Bi3  1  0.000000  0.000000  0.000000  1
  O  O4  1  0.365318  0.793846  0.121951  1
  O  O5  1  0.793846  0.121951  0.365318  1
  O  O6  1  0.121951  0.365318  0.793846  1
  O  O7  1  0.634682  0.206154  0.878049  1
  O  O8  1  0.878049  0.634682  0.206154  1
  O  O9  1  0.206154  0.878049  0.634682  1
