# generated using pymatgen
data_Ba2Mg3Tl2(FeO3)4
_symmetry_space_group_name_H-M   'P 1'
_cell_length_a   3.89148407
_cell_length_b   3.89148435
_cell_length_c   21.34036351
_cell_angle_alpha   95.23129819
_cell_angle_beta   95.23129867
_cell_angle_gamma   89.99999958
_symmetry_Int_Tables_number   1
_chemical_formula_structural   Ba2Mg3Tl2(FeO3)4
_chemical_formula_sum   'Ba2 Mg3 Tl2 Fe4 O12'
_cell_volume   320.47314700
_cell_formula_units_Z   1
loop_
 _symmetry_equiv_pos_site_id
 _symmetry_equiv_pos_as_xyz
  1  'x, y, z'
loop_
 _atom_site_type_symbol
 _atom_site_label
 _atom_site_symmetry_multiplicity
 _atom_site_fract_x
 _atom_site_fract_y
 _atom_site_fract_z
 _atom_site_occupancy
  Ba  Ba0  1  0.157664  0.157664  0.315327  1
  Ba  Ba1  1  0.842336  0.842336  0.684673  1
  Mg  Mg2  1  0.074789  0.074789  0.149577  1
  Mg  Mg3  1  0.925211  0.925211  0.850423  1
  Mg  Mg4  1  0.000000  -0.000000  0.000000  1
  Tl  Tl5  1  0.722592  0.722592  0.445183  1
  Tl  Tl6  1  0.277408  0.277408  0.554817  1
  Fe  Fe7  1  0.534724  0.534724  0.069448  1
  Fe  Fe8  1  0.395519  0.395519  0.791036  1
  Fe  Fe9  1  0.604481  0.604481  0.208964  1
  Fe  Fe10  1  0.465276  0.465276  0.930552  1
  O  O11  1  0.397431  0.897431  0.794861  1
  O  O12  1  0.533823  0.033823  0.067646  1
  O  O13  1  0.225461  0.225461  0.450921  1
  O  O14  1  0.966177  0.466177  0.932354  1
  O  O15  1  0.774539  0.774539  0.549079  1
  O  O16  1  0.102569  0.602569  0.205139  1
  O  O17  1  0.602569  0.102569  0.205139  1
  O  O18  1  0.328809  0.328809  0.657618  1
  O  O19  1  0.897431  0.397431  0.794861  1
  O  O20  1  0.033823  0.533823  0.067646  1
  O  O21  1  0.466177  0.966177  0.932354  1
  O  O22  1  0.671191  0.671191  0.342382  1
