# generated using pymatgen
data_CaMoF5
_symmetry_space_group_name_H-M   'P 1'
_cell_length_a   5.83168797
_cell_length_b   5.85271086
_cell_length_c   8.12233494
_cell_angle_alpha   96.55720201
_cell_angle_beta   112.56847799
_cell_angle_gamma   107.86870983
_symmetry_Int_Tables_number   1
_chemical_formula_structural   CaMoF5
_chemical_formula_sum   'Ca2 Mo2 F10'
_cell_volume   235.00801934
_cell_formula_units_Z   2
loop_
 _symmetry_equiv_pos_site_id
 _symmetry_equiv_pos_as_xyz
  1  'x, y, z'
loop_
 _atom_site_type_symbol
 _atom_site_label
 _atom_site_symmetry_multiplicity
 _atom_site_fract_x
 _atom_site_fract_y
 _atom_site_fract_z
 _atom_site_occupancy
  Ca  Ca0  1  0.285813  0.535687  0.749831  1
  Ca  Ca1  1  0.714670  0.463170  0.249792  1
  Mo  Mo2  1  0.002338  0.999850  0.000754  1
  Mo  Mo3  1  0.500712  0.999445  0.500830  1
  F  F4  1  0.356863  0.101235  0.249888  1
  F  F5  1  0.648120  0.896390  0.750885  1
  F  F6  1  0.591869  0.736051  0.372573  1
  F  F7  1  0.869672  0.223199  0.127958  1
  F  F8  1  0.740200  0.687637  0.033421  1
  F  F9  1  0.153900  0.708001  0.470229  1
  F  F10  1  0.264246  0.311008  0.966922  1
  F  F11  1  0.845450  0.293481  0.531572  1
  F  F12  1  0.140723  0.781039  0.875476  1
  F  F13  1  0.410420  0.263137  0.629459  1
