# generated using pymatgen
data_Mn2Zn3(SiO4)3
_symmetry_space_group_name_H-M   'P 1'
_cell_length_a   10.28019804
_cell_length_b   10.28019832
_cell_length_c   10.28019799
_cell_angle_alpha   109.47122180
_cell_angle_beta   109.47122234
_cell_angle_gamma   109.47121844
_symmetry_Int_Tables_number   1
_chemical_formula_structural   Mn2Zn3(SiO4)3
_chemical_formula_sum   'Mn8 Zn12 Si12 O48'
_cell_volume   836.33940331
_cell_formula_units_Z   4
loop_
 _symmetry_equiv_pos_site_id
 _symmetry_equiv_pos_as_xyz
  1  'x, y, z'
loop_
 _atom_site_type_symbol
 _atom_site_label
 _atom_site_symmetry_multiplicity
 _atom_site_fract_x
 _atom_site_fract_y
 _atom_site_fract_z
 _atom_site_occupancy
  Mn  Mn0  1  0.000000  0.000000  0.000000  1
  Mn  Mn1  1  0.000000  0.500000  0.000000  1
  Mn  Mn2  1  0.000000  0.000000  0.500000  1
  Mn  Mn3  1  0.000000  0.500000  0.500000  1
  Mn  Mn4  1  0.500000  0.000000  0.500000  1
  Mn  Mn5  1  0.500000  0.500000  0.000000  1
  Mn  Mn6  1  0.500000  0.500000  0.500000  1
  Mn  Mn7  1  0.500000  0.000000  0.000000  1
  Zn  Zn8  1  0.375000  0.750000  0.125000  1
  Zn  Zn9  1  0.125000  0.250000  0.375000  1
  Zn  Zn10  1  0.375000  0.125000  0.250000  1
  Zn  Zn11  1  0.125000  0.375000  0.750000  1
  Zn  Zn12  1  0.875000  0.750000  0.625000  1
  Zn  Zn13  1  0.750000  0.125000  0.375000  1
  Zn  Zn14  1  0.750000  0.625000  0.875000  1
  Zn  Zn15  1  0.625000  0.250000  0.875000  1
  Zn  Zn16  1  0.250000  0.875000  0.625000  1
  Zn  Zn17  1  0.875000  0.625000  0.250000  1
  Zn  Zn18  1  0.625000  0.875000  0.750000  1
  Zn  Zn19  1  0.250000  0.375000  0.125000  1
  Si  Si20  1  0.250000  0.125000  0.875000  1
  Si  Si21  1  0.750000  0.875000  0.125000  1
  Si  Si22  1  0.375000  0.250000  0.625000  1
  Si  Si23  1  0.625000  0.375000  0.250000  1
  Si  Si24  1  0.125000  0.750000  0.875000  1
  Si  Si25  1  0.875000  0.125000  0.750000  1
  Si  Si26  1  0.750000  0.375000  0.625000  1
  Si  Si27  1  0.375000  0.625000  0.750000  1
  Si  Si28  1  0.125000  0.875000  0.250000  1
  Si  Si29  1  0.875000  0.250000  0.125000  1
  Si  Si30  1  0.625000  0.750000  0.375000  1
  Si  Si31  1  0.250000  0.625000  0.375000  1
  O  O32  1  0.288129  0.480304  0.375386  1
  O  O33  1  0.019696  0.307826  0.895083  1
  O  O34  1  0.124614  0.604917  0.912743  1
  O  O35  1  0.211871  0.587257  0.192174  1
  O  O36  1  0.211871  0.124614  0.019696  1
  O  O37  1  0.587257  0.192174  0.211871  1
  O  O38  1  0.604917  0.192174  0.480304  1
  O  O39  1  0.192174  0.211871  0.587257  1
  O  O40  1  0.895083  0.375386  0.587257  1
  O  O41  1  0.307826  0.912743  0.288129  1
  O  O42  1  0.912743  0.288129  0.307826  1
  O  O43  1  0.019696  0.211871  0.124614  1
  O  O44  1  0.192174  0.480304  0.604917  1
  O  O45  1  0.587257  0.895083  0.375386  1
  O  O46  1  0.124614  0.019696  0.211871  1
  O  O47  1  0.480304  0.604917  0.192174  1
  O  O48  1  0.375386  0.587257  0.895083  1
  O  O49  1  0.895083  0.019696  0.307826  1
  O  O50  1  0.604917  0.912743  0.124614  1
  O  O51  1  0.104917  0.624614  0.412743  1
  O  O52  1  0.912743  0.124614  0.604917  1
  O  O53  1  0.375386  0.288129  0.480304  1
  O  O54  1  0.307826  0.895083  0.019696  1
  O  O55  1  0.288129  0.307826  0.912743  1
  O  O56  1  0.711871  0.519696  0.624614  1
  O  O57  1  0.980304  0.692174  0.104917  1
  O  O58  1  0.875386  0.395083  0.087257  1
  O  O59  1  0.788129  0.412743  0.807826  1
  O  O60  1  0.788129  0.875386  0.980304  1
  O  O61  1  0.412743  0.807826  0.788129  1
  O  O62  1  0.395083  0.807826  0.519696  1
  O  O63  1  0.807826  0.788129  0.412743  1
  O  O64  1  0.711871  0.692174  0.087257  1
  O  O65  1  0.692174  0.104917  0.980304  1
  O  O66  1  0.624614  0.711871  0.519696  1
  O  O67  1  0.519696  0.624614  0.711871  1
  O  O68  1  0.087257  0.875386  0.395083  1
  O  O69  1  0.395083  0.087257  0.875386  1
  O  O70  1  0.104917  0.980304  0.692174  1
  O  O71  1  0.624614  0.412743  0.104917  1
  O  O72  1  0.519696  0.395083  0.807826  1
  O  O73  1  0.875386  0.980304  0.788129  1
  O  O74  1  0.412743  0.104917  0.624614  1
  O  O75  1  0.807826  0.519696  0.395083  1
  O  O76  1  0.980304  0.788129  0.875386  1
  O  O77  1  0.087257  0.711871  0.692174  1
  O  O78  1  0.692174  0.087257  0.711871  1
  O  O79  1  0.480304  0.375386  0.288129  1
