# generated using pymatgen
data_CaPr(CoO3)2
_symmetry_space_group_name_H-M   'P 1'
_cell_length_a   5.43840033
_cell_length_b   5.48246795
_cell_length_c   7.59391260
_cell_angle_alpha   89.74020550
_cell_angle_beta   89.37467707
_cell_angle_gamma   90.54150787
_symmetry_Int_Tables_number   1
_chemical_formula_structural   CaPr(CoO3)2
_chemical_formula_sum   'Ca2 Pr2 Co4 O12'
_cell_volume   226.39296972
_cell_formula_units_Z   2
loop_
 _symmetry_equiv_pos_site_id
 _symmetry_equiv_pos_as_xyz
  1  'x, y, z'
loop_
 _atom_site_type_symbol
 _atom_site_label
 _atom_site_symmetry_multiplicity
 _atom_site_fract_x
 _atom_site_fract_y
 _atom_site_fract_z
 _atom_site_occupancy
  Ca  Ca0  1  0.487151  0.456764  0.751532  1
  Ca  Ca1  1  0.992775  0.043521  0.247680  1
  Pr  Pr2  1  0.007237  0.960287  0.752629  1
  Pr  Pr3  1  0.511979  0.539738  0.247755  1
  Co  Co4  1  0.000477  0.499126  -0.000213  1
  Co  Co5  1  0.000677  0.498342  0.500282  1
  Co  Co6  1  0.500565  0.001608  0.500123  1
  Co  Co7  1  0.498825  0.003471  0.000582  1
  O  O8  1  0.070295  0.483674  0.253871  1
  O  O9  1  0.206549  0.225799  0.961082  1
  O  O10  1  0.214880  0.215931  0.537229  1
  O  O11  1  0.297172  0.721650  0.539039  1
  O  O12  1  0.277960  0.707249  0.956818  1
  O  O13  1  0.425919  0.985469  0.238968  1
  O  O14  1  0.568312  0.016311  0.761475  1
  O  O15  1  0.725298  0.289938  0.039832  1
  O  O16  1  0.705859  0.275235  0.464500  1
  O  O17  1  0.796701  0.777400  0.041858  1
  O  O18  1  0.788058  0.785496  0.458959  1
  O  O19  1  0.923306  0.512992  0.746000  1
