# generated using pymatgen
data_Ba2ZnFe2F14
_symmetry_space_group_name_H-M   'P 1'
_cell_length_a   5.73742988
_cell_length_b   9.54175761
_cell_length_c   10.12251728
_cell_angle_alpha   90.00000000
_cell_angle_beta   90.00000000
_cell_angle_gamma   94.19785084
_symmetry_Int_Tables_number   1
_chemical_formula_structural   Ba2ZnFe2F14
_chemical_formula_sum   'Ba4 Zn2 Fe4 F28'
_cell_volume   552.67219718
_cell_formula_units_Z   2
loop_
 _symmetry_equiv_pos_site_id
 _symmetry_equiv_pos_as_xyz
  1  'x, y, z'
loop_
 _atom_site_type_symbol
 _atom_site_label
 _atom_site_symmetry_multiplicity
 _atom_site_fract_x
 _atom_site_fract_y
 _atom_site_fract_z
 _atom_site_occupancy
  Ba  Ba0  1  0.264739  0.497103  0.292202  1
  Ba  Ba1  1  0.755876  0.005259  0.799557  1
  Ba  Ba2  1  0.755876  0.505259  0.700443  1
  Ba  Ba3  1  0.264739  0.997103  0.207798  1
  Zn  Zn4  1  0.309323  0.694630  0.893266  1
  Zn  Zn5  1  0.309323  0.194630  0.606734  1
  Fe  Fe6  1  0.191189  0.811630  0.600027  1
  Fe  Fe7  1  0.803509  0.192831  0.381176  1
  Fe  Fe8  1  0.191189  0.311630  0.899973  1
  Fe  Fe9  1  0.803509  0.692831  0.118824  1
  F  F10  1  0.102259  0.131918  0.457453  1
  F  F11  1  0.337781  0.367868  0.057821  1
  F  F12  1  0.467875  0.752801  0.713025  1
  F  F13  1  0.517197  0.241975  0.305767  1
  F  F14  1  0.879580  0.366493  0.448751  1
  F  F15  1  0.286004  0.501194  0.814340  1
  F  F16  1  0.034533  0.753080  0.783797  1
  F  F17  1  0.099747  0.124400  0.955833  1
  F  F18  1  0.337781  0.867868  0.442179  1
  F  F19  1  0.517197  0.741975  0.194233  1
  F  F20  1  0.102259  0.631918  0.042547  1
  F  F21  1  0.893808  0.880032  0.577141  1
  F  F22  1  0.995258  0.742613  0.264016  1
  F  F23  1  0.392088  0.885890  0.958670  1
  F  F24  1  0.099747  0.624400  0.544167  1
  F  F25  1  0.879580  0.866493  0.051249  1
  F  F26  1  0.995258  0.242613  0.235984  1
  F  F27  1  0.893808  0.380032  0.922859  1
  F  F28  1  0.580270  0.579353  0.469852  1
  F  F29  1  0.636330  0.641981  0.956852  1
  F  F30  1  0.580270  0.079353  0.030148  1
  F  F31  1  0.034533  0.253080  0.716203  1
  F  F32  1  0.392088  0.385890  0.541330  1
  F  F33  1  0.752090  0.018368  0.311906  1
  F  F34  1  0.752090  0.518368  0.188094  1
  F  F35  1  0.286004  0.001194  0.685660  1
  F  F36  1  0.636330  0.141981  0.543148  1
  F  F37  1  0.467875  0.252801  0.786975  1
