# generated using pymatgen
data_CaLaFeSnO6
_symmetry_space_group_name_H-M   'P 1'
_cell_length_a   5.71182012
_cell_length_b   5.61802255
_cell_length_c   8.00045599
_cell_angle_alpha   89.76471992
_cell_angle_beta   90.00000000
_cell_angle_gamma   90.00000000
_symmetry_Int_Tables_number   1
_chemical_formula_structural   CaLaFeSnO6
_chemical_formula_sum   'Ca2 La2 Fe2 Sn2 O12'
_cell_volume   256.72554164
_cell_formula_units_Z   2
loop_
 _symmetry_equiv_pos_site_id
 _symmetry_equiv_pos_as_xyz
  1  'x, y, z'
loop_
 _atom_site_type_symbol
 _atom_site_label
 _atom_site_symmetry_multiplicity
 _atom_site_fract_x
 _atom_site_fract_y
 _atom_site_fract_z
 _atom_site_occupancy
  Ca  Ca0  1  0.545146  0.514148  0.250554  1
  Ca  Ca1  1  0.954854  0.014148  0.750554  1
  La  La2  1  0.039312  0.988442  0.249748  1
  La  La3  1  0.460688  0.488442  0.749748  1
  Fe  Fe4  1  0.500614  0.999554  0.001066  1
  Fe  Fe5  1  0.999386  0.499554  0.501066  1
  Sn  Sn6  1  0.500231  0.999576  0.498877  1
  Sn  Sn7  1  0.999769  0.499576  0.998877  1
  O  O8  1  0.028128  0.599656  0.747231  1
  O  O9  1  0.211856  0.204510  0.947338  1
  O  O10  1  0.206193  0.210035  0.552554  1
  O  O11  1  0.293807  0.710035  0.052554  1
  O  O12  1  0.288144  0.704510  0.447338  1
  O  O13  1  0.471872  0.099656  0.247230  1
  O  O14  1  0.531372  0.906892  0.752544  1
  O  O15  1  0.714820  0.291506  0.550978  1
  O  O16  1  0.709534  0.285680  0.949109  1
  O  O17  1  0.790466  0.785680  0.449109  1
  O  O18  1  0.785180  0.791506  0.050978  1
  O  O19  1  0.968628  0.406892  0.252544  1
