# generated using pymatgen
data_BaYCuBiO5
_symmetry_space_group_name_H-M   'P 1'
_cell_length_a   3.93959478
_cell_length_b   3.93956521
_cell_length_c   9.21615093
_cell_angle_alpha   90.00085025
_cell_angle_beta   89.99705368
_cell_angle_gamma   90.02001393
_symmetry_Int_Tables_number   1
_chemical_formula_structural   BaYCuBiO5
_chemical_formula_sum   'Ba1 Y1 Cu1 Bi1 O5'
_cell_volume   143.03733124
_cell_formula_units_Z   1
loop_
 _symmetry_equiv_pos_site_id
 _symmetry_equiv_pos_as_xyz
  1  'x, y, z'
loop_
 _atom_site_type_symbol
 _atom_site_label
 _atom_site_symmetry_multiplicity
 _atom_site_fract_x
 _atom_site_fract_y
 _atom_site_fract_z
 _atom_site_occupancy
  Ba  Ba0  1  0.000028  0.999970  0.051888  1
  Y  Y1  1  0.999984  0.000002  0.446196  1
  Cu  Cu2  1  0.500025  0.499965  0.261273  1
  Bi  Bi3  1  0.499963  0.500010  0.712603  1
  O  O4  1  0.999950  0.499997  0.589710  1
  O  O5  1  0.499965  0.000020  0.589710  1
  O  O6  1  0.000008  0.499989  0.281489  1
  O  O7  1  0.500014  0.000034  0.281489  1
  O  O8  1  0.500055  0.500008  0.973557  1
