# generated using pymatgen
data_MgCu2P2O9
_symmetry_space_group_name_H-M   'P 1'
_cell_length_a   6.23485356
_cell_length_b   7.14181703
_cell_length_c   14.29443874
_cell_angle_alpha   90.14855280
_cell_angle_beta   89.88022907
_cell_angle_gamma   90.00702708
_symmetry_Int_Tables_number   1
_chemical_formula_structural   MgCu2P2O9
_chemical_formula_sum   'Mg4 Cu8 P8 O36'
_cell_volume   636.50185415
_cell_formula_units_Z   4
loop_
 _symmetry_equiv_pos_site_id
 _symmetry_equiv_pos_as_xyz
  1  'x, y, z'
loop_
 _atom_site_type_symbol
 _atom_site_label
 _atom_site_symmetry_multiplicity
 _atom_site_fract_x
 _atom_site_fract_y
 _atom_site_fract_z
 _atom_site_occupancy
  Mg  Mg0  1  0.750052  0.896052  0.776634  1
  Mg  Mg1  1  0.750081  0.603408  0.276538  1
  Mg  Mg2  1  0.249922  0.396377  0.723501  1
  Mg  Mg3  1  0.249954  0.104047  0.223402  1
  Cu  Cu4  1  0.749510  0.352565  0.879444  1
  Cu  Cu5  1  0.250477  0.647400  0.120541  1
  Cu  Cu6  1  0.250345  0.852943  0.620541  1
  Cu  Cu7  1  0.749653  0.147247  0.379475  1
  Cu  Cu8  1  0.500002  0.000024  0.000011  1
  Cu  Cu9  1  0.500003  0.499906  0.500011  1
  Cu  Cu10  1  0.000012  0.499897  0.500005  1
  Cu  Cu11  1  -0.000000  0.000020  0.000018  1
  P  P12  1  0.249763  0.366507  0.929424  1
  P  P13  1  0.750228  0.633482  0.070616  1
  P  P14  1  0.750022  0.866672  0.570617  1
  P  P15  1  0.249978  0.133271  0.429342  1
  P  P16  1  0.750027  0.386283  0.697692  1
  P  P17  1  0.749755  0.113691  0.197785  1
  P  P18  1  0.250249  0.886372  0.802194  1
  P  P19  1  0.249975  0.613632  0.302260  1
  O  O20  1  0.038556  0.610904  0.359874  1
  O  O21  1  0.538433  0.388854  0.640631  1
  O  O22  1  0.961523  0.110732  0.140211  1
  O  O23  1  0.461384  0.888972  0.859140  1
  O  O24  1  0.961469  0.389064  0.640080  1
  O  O25  1  0.461544  0.611117  0.359322  1
  O  O26  1  0.038488  0.889240  0.859758  1
  O  O27  1  0.538578  0.110958  0.140844  1
  O  O28  1  0.250159  0.329020  0.479730  1
  O  O29  1  0.749854  0.670810  0.520272  1
  O  O30  1  0.750193  0.828754  0.020274  1
  O  O31  1  0.249808  0.171273  0.979772  1
  O  O32  1  0.749186  0.125224  0.949115  1
  O  O33  1  0.250810  0.874857  0.050933  1
  O  O34  1  0.250921  0.625682  0.550635  1
  O  O35  1  0.749080  0.374412  0.449317  1
  O  O36  1  0.750502  0.202813  0.758659  1
  O  O37  1  0.249489  0.797177  0.241331  1
  O  O38  1  0.249466  0.702575  0.741007  1
  O  O39  1  0.750575  0.297638  0.258875  1
  O  O40  1  0.436330  0.128390  0.357483  1
  O  O41  1  0.936356  0.871387  0.642228  1
  O  O42  1  0.563769  0.628893  0.142619  1
  O  O43  1  0.063377  0.371444  0.857747  1
  O  O44  1  0.563698  0.871519  0.642561  1
  O  O45  1  0.063615  0.128529  0.357819  1
  O  O46  1  0.436267  0.371214  0.857422  1
  O  O47  1  0.936557  0.628656  0.142295  1
  O  O48  1  0.750001  0.477523  0.000443  1
  O  O49  1  0.249560  0.049019  0.729252  1
  O  O50  1  0.249815  0.450999  0.228806  1
  O  O51  1  0.750181  0.548992  0.771153  1
  O  O52  1  0.749975  0.022189  0.500462  1
  O  O53  1  0.250049  0.977664  0.499499  1
  O  O54  1  0.250000  0.522466  0.999624  1
  O  O55  1  0.750441  0.951237  0.270756  1
