# generated using pymatgen
data_Mn2ZnO5
_symmetry_space_group_name_H-M   'P 1'
_cell_length_a   3.67912568
_cell_length_b   5.18505934
_cell_length_c   11.64500267
_cell_angle_alpha   90.00000000
_cell_angle_beta   90.00000000
_cell_angle_gamma   110.78004262
_symmetry_Int_Tables_number   1
_chemical_formula_structural   Mn2ZnO5
_chemical_formula_sum   'Mn4 Zn2 O10'
_cell_volume   207.69498627
_cell_formula_units_Z   2
loop_
 _symmetry_equiv_pos_site_id
 _symmetry_equiv_pos_as_xyz
  1  'x, y, z'
loop_
 _atom_site_type_symbol
 _atom_site_label
 _atom_site_symmetry_multiplicity
 _atom_site_fract_x
 _atom_site_fract_y
 _atom_site_fract_z
 _atom_site_occupancy
  Mn  Mn0  1  0.219094  0.438187  0.598379  1
  Mn  Mn1  1  0.780907  0.561814  0.401620  1
  Mn  Mn2  1  0.780907  0.561814  0.098380  1
  Mn  Mn3  1  0.219094  0.438187  0.901621  1
  Zn  Zn4  1  0.918007  0.836011  0.750000  1
  Zn  Zn5  1  0.081994  0.163990  0.250000  1
  O  O6  1  0.697687  0.395374  0.250000  1
  O  O7  1  0.302314  0.604627  0.750000  1
  O  O8  1  0.235125  0.470250  0.074924  1
  O  O9  1  0.764877  0.529751  0.925076  1
  O  O10  1  0.764877  0.529751  0.574924  1
  O  O11  1  0.235125  0.470250  0.425075  1
  O  O12  1  0.041248  0.082495  0.618320  1
  O  O13  1  0.958752  0.917504  0.381680  1
  O  O14  1  0.041248  0.082495  0.881680  1
  O  O15  1  0.958752  0.917504  0.118321  1
