# generated using pymatgen
data_CaMo2O7
_symmetry_space_group_name_H-M   'P 1'
_cell_length_a   7.10706926
_cell_length_b   6.89826981
_cell_length_c   9.37765424
_cell_angle_alpha   118.23348011
_cell_angle_beta   90.00000000
_cell_angle_gamma   90.00000000
_symmetry_Int_Tables_number   1
_chemical_formula_structural   CaMo2O7
_chemical_formula_sum   'Ca2 Mo4 O14'
_cell_volume   405.05522946
_cell_formula_units_Z   2
loop_
 _symmetry_equiv_pos_site_id
 _symmetry_equiv_pos_as_xyz
  1  'x, y, z'
loop_
 _atom_site_type_symbol
 _atom_site_label
 _atom_site_symmetry_multiplicity
 _atom_site_fract_x
 _atom_site_fract_y
 _atom_site_fract_z
 _atom_site_occupancy
  Ca  Ca0  1  0.876022  0.522396  0.640923  1
  Ca  Ca1  1  0.376022  0.477604  0.359076  1
  Mo  Mo2  1  0.851921  0.313467  0.208548  1
  Mo  Mo3  1  0.351921  0.686533  0.791452  1
  Mo  Mo4  1  0.319551  0.873314  0.205979  1
  Mo  Mo5  1  0.819551  0.126686  0.794021  1
  O  O6  1  0.642269  0.035516  0.651208  1
  O  O7  1  0.142268  0.964484  0.348792  1
  O  O8  1  0.219391  0.547207  0.602326  1
  O  O9  1  0.719391  0.452793  0.397674  1
  O  O10  1  0.968353  0.295501  0.746374  1
  O  O11  1  0.468353  0.704499  0.253626  1
  O  O12  1  0.577896  0.560622  0.752686  1
  O  O13  1  0.077896  0.439378  0.247314  1
  O  O14  1  0.941014  0.890825  0.778998  1
  O  O15  1  0.441014  0.109175  0.221002  1
  O  O16  1  0.739985  0.299192  0.018490  1
  O  O17  1  0.239985  0.700808  0.981510  1
  O  O18  1  0.888653  0.047161  0.168992  1
  O  O19  1  0.388653  0.952839  0.831008  1
