# generated using pymatgen
data_Ba2Sb3O7
_symmetry_space_group_name_H-M   'P 1'
_cell_length_a   4.15561637
_cell_length_b   4.16767612
_cell_length_c   11.71227757
_cell_angle_alpha   89.95295186
_cell_angle_beta   89.96854367
_cell_angle_gamma   89.99866291
_symmetry_Int_Tables_number   1
_chemical_formula_structural   Ba2Sb3O7
_chemical_formula_sum   'Ba2 Sb3 O7'
_cell_volume   202.84791769
_cell_formula_units_Z   1
loop_
 _symmetry_equiv_pos_site_id
 _symmetry_equiv_pos_as_xyz
  1  'x, y, z'
loop_
 _atom_site_type_symbol
 _atom_site_label
 _atom_site_symmetry_multiplicity
 _atom_site_fract_x
 _atom_site_fract_y
 _atom_site_fract_z
 _atom_site_occupancy
  Ba  Ba0  1  0.509990  0.501181  0.803482  1
  Ba  Ba1  1  0.507728  0.499751  0.196361  1
  Sb  Sb2  1  0.999724  0.001813  0.629475  1
  Sb  Sb3  1  0.996912  0.999511  0.370196  1
  Sb  Sb4  1  0.062191  0.000717  0.999936  1
  O  O5  1  0.922301  0.500495  0.999992  1
  O  O6  1  0.497896  0.001992  0.652963  1
  O  O7  1  0.495264  0.999193  0.346986  1
  O  O8  1  0.999854  0.501667  0.651518  1
  O  O9  1  0.996614  0.499597  0.348507  1
  O  O10  1  0.991374  0.001415  0.816377  1
  O  O11  1  0.989104  0.000003  0.183747  1
