# generated using pymatgen
data_VZn(SiO3)2
_symmetry_space_group_name_H-M   'P 1'
_cell_length_a   5.35872673
_cell_length_b   6.82122934
_cell_length_c   6.82122959
_cell_angle_alpha   86.95019938
_cell_angle_beta   75.82244872
_cell_angle_gamma   75.82245311
_symmetry_Int_Tables_number   1
_chemical_formula_structural   VZn(SiO3)2
_chemical_formula_sum   'V2 Zn2 Si4 O12'
_cell_volume   234.37340432
_cell_formula_units_Z   2
loop_
 _symmetry_equiv_pos_site_id
 _symmetry_equiv_pos_as_xyz
  1  'x, y, z'
loop_
 _atom_site_type_symbol
 _atom_site_label
 _atom_site_symmetry_multiplicity
 _atom_site_fract_x
 _atom_site_fract_y
 _atom_site_fract_z
 _atom_site_occupancy
  V  V0  1  0.249999  0.097943  0.902057  1
  V  V1  1  0.749999  0.902058  0.097942  1
  Zn  Zn2  1  0.749997  0.243388  0.756608  1
  Zn  Zn3  1  0.249998  0.756608  0.243389  1
  Si  Si4  1  0.226212  0.218050  0.386799  1
  Si  Si5  1  0.273792  0.613197  0.781950  1
  Si  Si6  1  0.726212  0.386799  0.218050  1
  Si  Si7  1  0.773793  0.781950  0.613197  1
  O  O8  1  0.475681  0.323148  0.381236  1
  O  O9  1  0.024324  0.618770  0.676847  1
  O  O10  1  0.524325  0.676847  0.618771  1
  O  O11  1  0.975680  0.381237  0.323147  1
  O  O12  1  0.120082  0.148122  0.617594  1
  O  O13  1  0.379912  0.382408  0.851881  1
  O  O14  1  0.879912  0.851882  0.382409  1
  O  O15  1  0.620081  0.617594  0.148123  1
  O  O16  1  0.837601  0.212829  0.037982  1
  O  O17  1  0.662396  0.962018  0.787171  1
  O  O18  1  0.337600  0.037982  0.212830  1
  O  O19  1  0.162397  0.787172  0.962018  1
