# generated using pymatgen
data_Zn2Ag2O5
_symmetry_space_group_name_H-M   'P 1'
_cell_length_a   3.67748915
_cell_length_b   6.33255677
_cell_length_c   10.93302195
_cell_angle_alpha   90.14210641
_cell_angle_beta   90.00219317
_cell_angle_gamma   90.00925164
_symmetry_Int_Tables_number   1
_chemical_formula_structural   Zn2Ag2O5
_chemical_formula_sum   'Zn4 Ag4 O10'
_cell_volume   254.60643156
_cell_formula_units_Z   2
loop_
 _symmetry_equiv_pos_site_id
 _symmetry_equiv_pos_as_xyz
  1  'x, y, z'
loop_
 _atom_site_type_symbol
 _atom_site_label
 _atom_site_symmetry_multiplicity
 _atom_site_fract_x
 _atom_site_fract_y
 _atom_site_fract_z
 _atom_site_occupancy
  Zn  Zn0  1  0.500100  0.325841  0.891503  1
  Zn  Zn1  1  0.499948  0.644265  0.068405  1
  Zn  Zn2  1  0.500141  0.828676  0.608449  1
  Zn  Zn3  1  0.499874  0.146469  0.430981  1
  Ag  Ag4  1  0.000007  0.347326  0.653435  1
  Ag  Ag5  1  -0.000064  0.739760  0.336255  1
  Ag  Ag6  1  -0.000026  0.239339  0.163519  1
  Ag  Ag7  1  0.000084  0.846605  0.847004  1
  O  O8  1  0.999909  0.449619  0.470832  1
  O  O9  1  0.999904  0.265485  0.389100  1
  O  O10  1  -0.000001  0.763014  0.110964  1
  O  O11  1  0.000055  0.234049  0.834841  1
  O  O12  1  0.499982  0.338340  0.080167  1
  O  O13  1  0.500016  0.651498  0.888394  1
  O  O14  1  0.000106  0.736831  0.665050  1
  O  O15  1  0.500001  0.154341  0.611237  1
  O  O16  1  0.000008  0.947988  0.029778  1
  O  O17  1  0.499963  0.840554  0.420086  1
