# generated using pymatgen
data_Ca2CoN2
_symmetry_space_group_name_H-M   'P 1'
_cell_length_a   8.34870945
_cell_length_b   8.34870945
_cell_length_c   11.95624771
_cell_angle_alpha   90.00000000
_cell_angle_beta   90.00000000
_cell_angle_gamma   90.00000000
_symmetry_Int_Tables_number   1
_chemical_formula_structural   Ca2CoN2
_chemical_formula_sum   'Ca16 Co8 N16'
_cell_volume   833.36181761
_cell_formula_units_Z   8
loop_
 _symmetry_equiv_pos_site_id
 _symmetry_equiv_pos_as_xyz
  1  'x, y, z'
loop_
 _atom_site_type_symbol
 _atom_site_label
 _atom_site_symmetry_multiplicity
 _atom_site_fract_x
 _atom_site_fract_y
 _atom_site_fract_z
 _atom_site_occupancy
  Ca  Ca0  1  0.400706  0.606176  0.599724  1
  Ca  Ca1  1  0.893824  0.099294  0.099724  1
  Ca  Ca2  1  0.106176  0.900706  0.900276  1
  Ca  Ca3  1  0.099294  0.606176  0.099724  1
  Ca  Ca4  1  0.599294  0.106176  0.900276  1
  Ca  Ca5  1  0.606176  0.099294  0.599724  1
  Ca  Ca6  1  0.393824  0.599294  0.900276  1
  Ca  Ca7  1  0.099294  0.893824  0.599724  1
  Ca  Ca8  1  0.900706  0.393824  0.900276  1
  Ca  Ca9  1  0.599294  0.393824  0.400276  1
  Ca  Ca10  1  0.900706  0.106176  0.400276  1
  Ca  Ca11  1  0.606176  0.400706  0.099724  1
  Ca  Ca12  1  0.400706  0.893824  0.099724  1
  Ca  Ca13  1  0.106176  0.599294  0.400276  1
  Ca  Ca14  1  0.893824  0.400706  0.599724  1
  Ca  Ca15  1  0.393824  0.900706  0.400276  1
  Co  Co16  1  0.396767  0.603233  0.250000  1
  Co  Co17  1  0.603233  0.396767  0.750000  1
  Co  Co18  1  0.896767  0.396767  0.250000  1
  Co  Co19  1  0.396767  0.896767  0.750000  1
  Co  Co20  1  0.103233  0.896767  0.250000  1
  Co  Co21  1  0.103233  0.603233  0.750000  1
  Co  Co22  1  0.896767  0.103233  0.750000  1
  Co  Co23  1  0.603233  0.103233  0.250000  1
  N  N24  1  0.107885  0.599569  0.605167  1
  N  N25  1  0.400431  0.607885  0.394833  1
  N  N26  1  0.400431  0.892115  0.894833  1
  N  N27  1  0.599569  0.107885  0.105167  1
  N  N28  1  0.099569  0.607885  0.894833  1
  N  N29  1  0.900431  0.392115  0.105167  1
  N  N30  1  0.607885  0.099569  0.394833  1
  N  N31  1  0.607885  0.400431  0.894833  1
  N  N32  1  0.107885  0.900431  0.105167  1
  N  N33  1  0.392115  0.900431  0.605167  1
  N  N34  1  0.099569  0.892115  0.394833  1
  N  N35  1  0.892115  0.099569  0.894833  1
  N  N36  1  0.900431  0.107885  0.605167  1
  N  N37  1  0.892115  0.400431  0.394833  1
  N  N38  1  0.599569  0.392115  0.605167  1
  N  N39  1  0.392115  0.599569  0.105167  1
