# generated using pymatgen
data_Mg3Si4(NiO7)2
_symmetry_space_group_name_H-M   'P 1'
_cell_length_a   7.45195750
_cell_length_b   9.28959350
_cell_length_c   9.24079760
_cell_angle_alpha   62.88850648
_cell_angle_beta   66.22101637
_cell_angle_gamma   66.35355532
_symmetry_Int_Tables_number   1
_chemical_formula_structural   Mg3Si4(NiO7)2
_chemical_formula_sum   'Mg6 Si8 Ni4 O28'
_cell_volume   502.18159141
_cell_formula_units_Z   2
loop_
 _symmetry_equiv_pos_site_id
 _symmetry_equiv_pos_as_xyz
  1  'x, y, z'
loop_
 _atom_site_type_symbol
 _atom_site_label
 _atom_site_symmetry_multiplicity
 _atom_site_fract_x
 _atom_site_fract_y
 _atom_site_fract_z
 _atom_site_occupancy
  Mg  Mg0  1  0.905524  0.898788  0.446448  1
  Mg  Mg1  1  0.250760  0.601212  0.053552  1
  Mg  Mg2  1  0.749240  0.398788  0.946448  1
  Mg  Mg3  1  0.621826  0.250000  0.750000  1
  Mg  Mg4  1  0.094476  0.101212  0.553552  1
  Mg  Mg5  1  0.378174  0.750000  0.250000  1
  Si  Si6  1  0.462799  0.294202  0.341739  1
  Si  Si7  1  0.901259  0.794202  0.841739  1
  Si  Si8  1  0.467799  0.898752  0.861161  1
  Si  Si9  1  0.772289  0.398752  0.361161  1
  Si  Si10  1  0.098741  0.205798  0.158261  1
  Si  Si11  1  0.532201  0.101248  0.138839  1
  Si  Si12  1  0.227711  0.601248  0.638839  1
  Si  Si13  1  0.537201  0.705798  0.658261  1
  Ni  Ni14  1  0.218742  0.250000  0.750000  1
  Ni  Ni15  1  0.781258  0.750000  0.250000  1
  Ni  Ni16  1  0.000000  0.000000  0.000000  1
  Ni  Ni17  1  0.000000  0.500000  0.500000  1
  O  O18  1  0.149368  0.674463  0.468422  1
  O  O19  1  0.020397  0.582092  0.274856  1
  O  O20  1  0.538850  0.909553  0.184078  1
  O  O21  1  0.122655  0.082092  0.774856  1
  O  O22  1  0.758392  0.693991  0.518413  1
  O  O23  1  0.942367  0.382291  0.184265  1
  O  O24  1  0.367518  0.409553  0.684078  1
  O  O25  1  0.970795  0.806009  0.981587  1
  O  O26  1  0.057633  0.617709  0.815735  1
  O  O27  1  0.358375  0.736817  0.578877  1
  O  O28  1  0.979603  0.417908  0.725144  1
  O  O29  1  0.241608  0.306009  0.481587  1
  O  O30  1  0.508924  0.117709  0.315735  1
  O  O31  1  0.707746  0.174463  0.968422  1
  O  O32  1  0.325931  0.236817  0.078877  1
  O  O33  1  0.029205  0.193991  0.018413  1
  O  O34  1  0.089964  0.054594  0.338469  1
  O  O35  1  0.641625  0.263183  0.421123  1
  O  O36  1  0.483026  0.445406  0.161531  1
  O  O37  1  0.674069  0.763183  0.921123  1
  O  O38  1  0.491076  0.882291  0.684265  1
  O  O39  1  0.877345  0.917908  0.225144  1
  O  O40  1  0.516974  0.554594  0.838469  1
  O  O41  1  0.461150  0.090447  0.815922  1
  O  O42  1  0.910036  0.945406  0.661531  1
  O  O43  1  0.632482  0.590447  0.315922  1
  O  O44  1  0.292254  0.825537  0.031578  1
  O  O45  1  0.850632  0.325537  0.531578  1
