# generated using pymatgen
data_MgSbF6
_symmetry_space_group_name_H-M   'P 1'
_cell_length_a   5.64949394
_cell_length_b   5.64949332
_cell_length_c   5.64949296
_cell_angle_alpha   58.09075789
_cell_angle_beta   58.09075627
_cell_angle_gamma   58.09076152
_symmetry_Int_Tables_number   1
_chemical_formula_structural   MgSbF6
_chemical_formula_sum   'Mg1 Sb1 F6'
_cell_volume   121.91971054
_cell_formula_units_Z   1
loop_
 _symmetry_equiv_pos_site_id
 _symmetry_equiv_pos_as_xyz
  1  'x, y, z'
loop_
 _atom_site_type_symbol
 _atom_site_label
 _atom_site_symmetry_multiplicity
 _atom_site_fract_x
 _atom_site_fract_y
 _atom_site_fract_z
 _atom_site_occupancy
  Mg  Mg0  1  0.500000  0.500000  0.500000  1
  Sb  Sb1  1  0.000000  0.000000  0.000000  1
  F  F2  1  0.343570  0.161260  0.749088  1
  F  F3  1  0.161260  0.749088  0.343570  1
  F  F4  1  0.250912  0.656430  0.838740  1
  F  F5  1  0.838740  0.250912  0.656430  1
  F  F6  1  0.656430  0.838740  0.250912  1
  F  F7  1  0.749088  0.343570  0.161260  1
