# generated using pymatgen
data_Sr2Y2Ni2O7
_symmetry_space_group_name_H-M   'P 1'
_cell_length_a   12.62709540
_cell_length_b   12.62709540
_cell_length_c   12.62709540
_cell_angle_alpha   36.01397767
_cell_angle_beta   154.69546603
_cell_angle_gamma   154.79970328
_symmetry_Int_Tables_number   1
_chemical_formula_structural   Sr2Y2Ni2O7
_chemical_formula_sum   'Sr4 Y4 Ni4 O14'
_cell_volume   365.94569943
_cell_formula_units_Z   2
loop_
 _symmetry_equiv_pos_site_id
 _symmetry_equiv_pos_as_xyz
  1  'x, y, z'
loop_
 _atom_site_type_symbol
 _atom_site_label
 _atom_site_symmetry_multiplicity
 _atom_site_fract_x
 _atom_site_fract_y
 _atom_site_fract_z
 _atom_site_occupancy
  Sr  Sr0  1  0.034898  0.887178  0.870399  1
  Sr  Sr1  1  0.016779  0.164499  0.129601  1
  Sr  Sr2  1  0.034898  0.664499  0.647721  1
  Sr  Sr3  1  0.016779  0.387178  0.352279  1
  Y  Y4  1  0.028058  0.528058  0.500000  1
  Y  Y5  1  0.028058  0.028058  0.000000  1
  Y  Y6  1  0.528024  0.732355  0.295668  1
  Y  Y7  1  0.436686  0.232355  0.704332  1
  Ni  Ni8  1  0.530095  0.452979  0.922860  1
  Ni  Ni9  1  0.530117  0.607236  0.077140  1
  Ni  Ni10  1  0.530095  0.107236  0.577117  1
  Ni  Ni11  1  0.530117  0.952979  0.422883  1
  O  O12  1  0.011818  0.831378  0.680440  1
  O  O13  1  0.150938  0.331378  0.319560  1
  O  O14  1  0.507600  0.209771  0.178778  1
  O  O15  1  0.030994  0.328823  0.821222  1
  O  O16  1  0.507600  0.828823  0.797830  1
  O  O17  1  0.030994  0.709771  0.202170  1
  O  O18  1  0.552329  0.729716  0.698764  1
  O  O19  1  0.030951  0.853564  0.301236  1
  O  O20  1  0.552329  0.353564  0.322614  1
  O  O21  1  0.030951  0.229716  0.677386  1
  O  O22  1  0.522850  0.884286  0.312690  1
  O  O23  1  0.571595  0.210159  0.687310  1
  O  O24  1  0.522850  0.710159  0.138565  1
  O  O25  1  0.571595  0.384286  0.861435  1
