# generated using pymatgen
data_AlBi3F15
_symmetry_space_group_name_H-M   'P 1'
_cell_length_a   11.09224026
_cell_length_b   5.81629077
_cell_length_c   10.96854501
_cell_angle_alpha   90.00579375
_cell_angle_beta   89.99438474
_cell_angle_gamma   104.38967099
_symmetry_Int_Tables_number   1
_chemical_formula_structural   AlBi3F15
_chemical_formula_sum   'Al2 Bi6 F30'
_cell_volume   685.44309387
_cell_formula_units_Z   2
loop_
 _symmetry_equiv_pos_site_id
 _symmetry_equiv_pos_as_xyz
  1  'x, y, z'
loop_
 _atom_site_type_symbol
 _atom_site_label
 _atom_site_symmetry_multiplicity
 _atom_site_fract_x
 _atom_site_fract_y
 _atom_site_fract_z
 _atom_site_occupancy
  Al  Al0  1  0.913669  0.488385  0.250032  1
  Al  Al1  1  0.419609  0.511420  0.750044  1
  Bi  Bi2  1  0.166632  1.000008  0.499996  1
  Bi  Bi3  1  0.502079  0.954677  0.447784  1
  Bi  Bi4  1  0.831276  0.045182  0.552097  1
  Bi  Bi5  1  0.166655  0.999972  1.000002  1
  Bi  Bi6  1  0.502104  0.954910  0.052038  1
  Bi  Bi7  1  0.831328  0.045215  0.947801  1
  F  F8  1  0.066531  0.621332  0.249988  1
  F  F9  1  0.483103  0.846595  0.249765  1
  F  F10  1  0.810649  0.654000  0.249976  1
  F  F11  1  0.266772  0.378482  0.750150  1
  F  F12  1  0.522656  0.345725  0.750113  1
  F  F13  1  0.850404  0.153390  0.749870  1
  F  F14  1  0.058172  0.150998  0.615464  1
  F  F15  1  0.343764  0.099231  0.580061  1
  F  F16  1  0.646192  0.110219  0.591460  1
  F  F17  1  0.274934  0.849121  0.384435  1
  F  F18  1  0.687514  0.890210  0.408473  1
  F  F19  1  0.989372  0.900807  0.419975  1
  F  F20  1  0.123287  0.699577  0.900642  1
  F  F21  1  0.447632  0.691857  0.879246  1
  F  F22  1  0.798303  0.698450  0.891379  1
  F  F23  1  0.210045  0.300456  0.099383  1
  F  F24  1  0.535024  0.301565  0.108618  1
  F  F25  1  0.885696  0.307908  0.120923  1
  F  F26  1  0.209968  0.300464  0.400654  1
  F  F27  1  0.535104  0.301437  0.391435  1
  F  F28  1  0.885734  0.308046  0.379240  1
  F  F29  1  0.123254  0.699643  0.599350  1
  F  F30  1  0.447614  0.692138  0.621084  1
  F  F31  1  0.798290  0.698535  0.608638  1
  F  F32  1  0.058266  0.150927  0.884544  1
  F  F33  1  0.343851  0.099200  0.919956  1
  F  F34  1  0.646028  0.110161  0.908518  1
  F  F35  1  0.275118  0.849078  0.115436  1
  F  F36  1  0.687220  0.889850  0.091387  1
  F  F37  1  0.989482  0.900829  0.080044  1
