# generated using pymatgen
data_CaTiO2
_symmetry_space_group_name_H-M   'P 1'
_cell_length_a   2.95464733
_cell_length_b   9.40505533
_cell_length_c   9.27497006
_cell_angle_alpha   78.06233671
_cell_angle_beta   80.73829028
_cell_angle_gamma   80.91797900
_symmetry_Int_Tables_number   1
_chemical_formula_structural   CaTiO2
_chemical_formula_sum   'Ca4 Ti4 O8'
_cell_volume   246.79801412
_cell_formula_units_Z   4
loop_
 _symmetry_equiv_pos_site_id
 _symmetry_equiv_pos_as_xyz
  1  'x, y, z'
loop_
 _atom_site_type_symbol
 _atom_site_label
 _atom_site_symmetry_multiplicity
 _atom_site_fract_x
 _atom_site_fract_y
 _atom_site_fract_z
 _atom_site_occupancy
  Ca  Ca0  1  0.366286  0.055410  0.214657  1
  Ca  Ca1  1  0.630345  0.923993  0.812976  1
  Ca  Ca2  1  0.065748  0.715356  0.150717  1
  Ca  Ca3  1  0.930235  0.264438  0.877465  1
  Ti  Ti4  1  0.660768  0.139546  0.534590  1
  Ti  Ti5  1  0.205052  0.374178  0.215340  1
  Ti  Ti6  1  0.790875  0.605673  0.813031  1
  Ti  Ti7  1  0.335425  0.840451  0.493335  1
  O  O8  1  0.827641  0.722794  0.624919  1
  O  O9  1  0.356197  0.450954  0.838006  1
  O  O10  1  0.639664  0.528947  0.190284  1
  O  O11  1  0.167754  0.258212  0.403805  1
  O  O12  1  0.086425  0.123619  0.697388  1
  O  O13  1  0.807550  0.251738  0.134670  1
  O  O14  1  0.909774  0.856111  0.330732  1
  O  O15  1  0.188535  0.727918  0.893700  1
