# generated using pymatgen
data_Sb5S3O5
_symmetry_space_group_name_H-M   'P 1'
_cell_length_a   5.83302754
_cell_length_b   13.60148289
_cell_length_c   16.77118504
_cell_angle_alpha   67.42857823
_cell_angle_beta   79.81658468
_cell_angle_gamma   77.42427672
_symmetry_Int_Tables_number   1
_chemical_formula_structural   Sb5S3O5
_chemical_formula_sum   'Sb20 S12 O20'
_cell_volume   1192.75853139
_cell_formula_units_Z   4
loop_
 _symmetry_equiv_pos_site_id
 _symmetry_equiv_pos_as_xyz
  1  'x, y, z'
loop_
 _atom_site_type_symbol
 _atom_site_label
 _atom_site_symmetry_multiplicity
 _atom_site_fract_x
 _atom_site_fract_y
 _atom_site_fract_z
 _atom_site_occupancy
  Sb  Sb0  1  0.031389  0.820164  0.085973  1
  Sb  Sb1  1  0.939856  0.679454  0.414144  1
  Sb  Sb2  1  0.966358  0.179670  0.913832  1
  Sb  Sb3  1  0.061030  0.321424  0.586263  1
  Sb  Sb4  1  0.521546  0.023944  0.085347  1
  Sb  Sb5  1  0.633227  0.476907  0.414094  1
  Sb  Sb6  1  0.479099  0.976202  0.914688  1
  Sb  Sb7  1  0.371739  0.523922  0.585491  1
  Sb  Sb8  1  0.206485  0.563010  0.258610  1
  Sb  Sb9  1  0.025505  0.936640  0.241523  1
  Sb  Sb10  1  0.796719  0.436821  0.742080  1
  Sb  Sb11  1  0.974644  0.063727  0.758102  1
  Sb  Sb12  1  0.469603  0.873894  0.455771  1
  Sb  Sb13  1  0.793399  0.627775  0.044420  1
  Sb  Sb14  1  0.529937  0.127811  0.543681  1
  Sb  Sb15  1  0.202040  0.372530  0.955174  1
  Sb  Sb16  1  0.689846  0.330770  0.132884  1
  Sb  Sb17  1  0.153632  0.170584  0.367194  1
  Sb  Sb18  1  0.306729  0.669353  0.866854  1
  Sb  Sb19  1  0.844266  0.830662  0.633576  1
  S  S20  1  0.232936  0.560731  0.024520  1
  S  S21  1  0.823375  0.939090  0.475729  1
  S  S22  1  0.762543  0.438505  0.975321  1
  S  S23  1  0.178804  0.061051  0.524836  1
  S  S24  1  0.412555  0.032120  0.314668  1
  S  S25  1  0.757017  0.469414  0.185288  1
  S  S26  1  0.590531  0.970169  0.685877  1
  S  S27  1  0.240329  0.530849  0.814067  1
  S  S28  1  0.428326  0.281544  0.365698  1
  S  S29  1  0.072459  0.218356  0.137243  1
  S  S30  1  0.566031  0.721839  0.635515  1
  S  S31  1  0.925366  0.782242  0.862744  1
  O  O32  1  0.641475  0.568095  0.482741  1
  O  O33  1  0.693706  0.933135  0.016427  1
  O  O34  1  0.361239  0.433323  0.516468  1
  O  O35  1  0.308833  0.067610  0.983232  1
  O  O36  1  0.647772  0.791389  0.385349  1
  O  O37  1  0.821549  0.709641  0.115020  1
  O  O38  1  0.352447  0.209371  0.615388  1
  O  O39  1  0.175019  0.291351  0.884124  1
  O  O40  1  0.396186  0.577322  0.338946  1
  O  O41  1  0.312099  0.922543  0.161175  1
  O  O42  1  0.610809  0.423823  0.659808  1
  O  O43  1  0.689332  0.077299  0.839158  1
  O  O44  1  0.243490  0.704128  0.171294  1
  O  O45  1  0.119516  0.794748  0.327397  1
  O  O46  1  0.758077  0.294744  0.827253  1
  O  O47  1  0.882226  0.205712  0.672655  1
  O  O48  1  0.846915  0.897641  0.166603  1
  O  O49  1  0.911927  0.602628  0.333446  1
  O  O50  1  0.152486  0.102041  0.833616  1
  O  O51  1  0.090233  0.396746  0.667348  1
