# generated using pymatgen
data_Ca(CuO2)2
_symmetry_space_group_name_H-M   'P 1'
_cell_length_a   6.27522145
_cell_length_b   6.10219561
_cell_length_c   24.55702333
_cell_angle_alpha   60.19948695
_cell_angle_beta   63.27955314
_cell_angle_gamma   60.90798754
_symmetry_Int_Tables_number   1
_chemical_formula_structural   Ca(CuO2)2
_chemical_formula_sum   'Ca8 Cu16 O32'
_cell_volume   685.70476929
_cell_formula_units_Z   8
loop_
 _symmetry_equiv_pos_site_id
 _symmetry_equiv_pos_as_xyz
  1  'x, y, z'
loop_
 _atom_site_type_symbol
 _atom_site_label
 _atom_site_symmetry_multiplicity
 _atom_site_fract_x
 _atom_site_fract_y
 _atom_site_fract_z
 _atom_site_occupancy
  Ca  Ca0  1  0.182869  0.115662  0.021452  1
  Ca  Ca1  1  0.991610  0.508008  0.123093  1
  Ca  Ca2  1  0.146299  0.109988  0.283431  1
  Ca  Ca3  1  0.023258  0.482259  0.378056  1
  Ca  Ca4  1  0.007836  0.491935  0.627073  1
  Ca  Ca5  1  0.484751  0.515731  0.495947  1
  Ca  Ca6  1  0.973507  0.506512  0.878367  1
  Ca  Ca7  1  0.508984  0.489754  0.752877  1
  Cu  Cu8  1  0.490980  0.495593  0.128791  1
  Cu  Cu9  1  0.496488  0.504245  0.248755  1
  Cu  Cu10  1  0.490980  -0.001738  0.128791  1
  Cu  Cu11  1  0.131558  0.113225  0.535498  1
  Cu  Cu12  1  0.530661  0.491388  0.368893  1
  Cu  Cu13  1  0.839777  0.891242  0.219435  1
  Cu  Cu14  1  0.190071  0.099578  0.777693  1
  Cu  Cu15  1  0.530661  0.002379  0.368893  1
  Cu  Cu16  1  0.510558  0.496016  0.622624  1
  Cu  Cu17  1  0.717863  0.927611  0.481728  1
  Cu  Cu18  1  0.510558  0.002930  0.622624  1
  Cu  Cu19  1  0.481734  0.994296  0.879494  1
  Cu  Cu20  1  0.481734  0.505993  0.879494  1
  Cu  Cu21  1  0.921787  0.922944  0.683081  1
  Cu  Cu22  1  0.486542  0.495904  0.005413  1
  Cu  Cu23  1  0.829954  0.881890  0.976566  1
  O  O24  1  0.309399  0.238841  0.068519  1
  O  O25  1  0.318356  0.242874  0.173974  1
  O  O26  1  0.309399  0.677687  0.068519  1
  O  O27  1  0.754199  0.279611  0.046645  1
  O  O28  1  0.185673  0.774142  0.191510  1
  O  O29  1  0.331775  0.252276  0.310247  1
  O  O30  1  0.680286  0.302434  0.190833  1
  O  O31  1  0.271190  0.222476  0.445964  1
  O  O32  1  0.331775  0.674960  0.310247  1
  O  O33  1  0.651490  0.762694  0.080780  1
  O  O34  1  0.713762  0.238121  0.327500  1
  O  O35  1  0.680286  0.753949  0.190833  1
  O  O36  1  0.282028  0.215192  0.569314  1
  O  O37  1  0.339438  0.771306  0.404487  1
  O  O38  1  0.729945  0.271367  0.428600  1
  O  O39  1  0.330483  0.233481  0.675639  1
  O  O40  1  0.282028  0.725524  0.569314  1
  O  O41  1  0.757600  0.753210  0.308995  1
  O  O42  1  0.775947  0.244743  0.558642  1
  O  O43  1  0.729945  0.784290  0.428600  1
  O  O44  1  0.245160  0.758057  0.684681  1
  O  O45  1  0.273890  0.212598  0.822807  1
  O  O46  1  0.724806  0.273363  0.677962  1
  O  O47  1  0.324271  0.258097  0.914883  1
  O  O48  1  0.273890  0.722282  0.822807  1
  O  O49  1  0.702315  0.758785  0.570029  1
  O  O50  1  0.850603  0.238651  0.793024  1
  O  O51  1  0.724806  0.789986  0.677962  1
  O  O52  1  0.178594  0.715380  0.972662  1
  O  O53  1  0.666910  0.286342  0.943890  1
  O  O54  1  0.641818  0.752753  0.838169  1
  O  O55  1  0.666910  0.771186  0.943890  1
