# generated using pymatgen
data_CaHo(CoO3)2
_symmetry_space_group_name_H-M   'P 1'
_cell_length_a   5.25327889
_cell_length_b   5.57465135
_cell_length_c   7.42751552
_cell_angle_alpha   89.98371533
_cell_angle_beta   90.34679818
_cell_angle_gamma   90.02183294
_symmetry_Int_Tables_number   1
_chemical_formula_structural   CaHo(CoO3)2
_chemical_formula_sum   'Ca2 Ho2 Co4 O12'
_cell_volume   217.51225549
_cell_formula_units_Z   2
loop_
 _symmetry_equiv_pos_site_id
 _symmetry_equiv_pos_as_xyz
  1  'x, y, z'
loop_
 _atom_site_type_symbol
 _atom_site_label
 _atom_site_symmetry_multiplicity
 _atom_site_fract_x
 _atom_site_fract_y
 _atom_site_fract_z
 _atom_site_occupancy
  Ca  Ca0  1  0.484668  0.440505  0.750352  1
  Ca  Ca1  1  0.984795  0.059490  0.250253  1
  Ho  Ho2  1  0.021439  0.927187  0.749884  1
  Ho  Ho3  1  0.521686  0.572852  0.249626  1
  Co  Co4  1  0.999452  0.495730  0.001182  1
  Co  Co5  1  -0.000106  0.495505  0.499092  1
  Co  Co6  1  0.499418  0.004292  0.501135  1
  Co  Co7  1  0.499804  0.004444  0.999019  1
  O  O8  1  0.104283  0.477596  0.247132  1
  O  O9  1  0.198306  0.190801  0.950198  1
  O  O10  1  0.195867  0.192230  0.550135  1
  O  O11  1  0.291649  0.705926  0.954685  1
  O  O12  1  0.288986  0.703887  0.544553  1
  O  O13  1  0.415230  0.972715  0.251981  1
  O  O14  1  0.603992  0.022364  0.747969  1
  O  O15  1  0.698631  0.309135  0.450336  1
  O  O16  1  0.695992  0.307878  0.050207  1
  O  O17  1  0.789303  0.796048  0.044709  1
  O  O18  1  0.791606  0.793997  0.454769  1
  O  O19  1  0.914996  0.527416  0.752781  1
