# generated using pymatgen
data_PrMgTi2O6
_symmetry_space_group_name_H-M   'P 1'
_cell_length_a   5.36331215
_cell_length_b   5.53080315
_cell_length_c   7.70070717
_cell_angle_alpha   90.00313788
_cell_angle_beta   90.00487485
_cell_angle_gamma   89.97117391
_symmetry_Int_Tables_number   1
_chemical_formula_structural   PrMgTi2O6
_chemical_formula_sum   'Pr2 Mg2 Ti4 O12'
_cell_volume   228.42930982
_cell_formula_units_Z   2
loop_
 _symmetry_equiv_pos_site_id
 _symmetry_equiv_pos_as_xyz
  1  'x, y, z'
loop_
 _atom_site_type_symbol
 _atom_site_label
 _atom_site_symmetry_multiplicity
 _atom_site_fract_x
 _atom_site_fract_y
 _atom_site_fract_z
 _atom_site_occupancy
  Pr  Pr0  1  0.010299  0.952497  0.749932  1
  Pr  Pr1  1  0.510229  0.547527  0.250080  1
  Mg  Mg2  1  0.482079  0.453814  0.749991  1
  Mg  Mg3  1  0.982004  0.046294  0.250005  1
  Ti  Ti4  1  0.000682  0.494496  0.999340  1
  Ti  Ti5  1  0.000704  0.494462  0.500681  1
  Ti  Ti6  1  0.500637  0.005714  0.499297  1
  Ti  Ti7  1  0.500674  0.005676  0.000717  1
  O  O8  1  0.079970  0.457752  0.250059  1
  O  O9  1  0.216407  0.218936  0.948314  1
  O  O10  1  0.216317  0.219043  0.551565  1
  O  O11  1  0.310556  0.695017  0.558145  1
  O  O12  1  0.310626  0.695035  0.941761  1
  O  O13  1  0.372523  0.977288  0.249980  1
  O  O14  1  0.579963  0.042246  0.750011  1
  O  O15  1  0.716411  0.280845  0.051774  1
  O  O16  1  0.716480  0.280905  0.448313  1
  O  O17  1  0.810429  0.804808  0.058147  1
  O  O18  1  0.810430  0.804780  0.441917  1
  O  O19  1  0.872579  0.522867  0.749970  1
