# generated using pymatgen
data_Li(MnS2)2
_symmetry_space_group_name_H-M   'P 1'
_cell_length_a   6.89646301
_cell_length_b   6.89024468
_cell_length_c   6.88814559
_cell_angle_alpha   89.74376741
_cell_angle_beta   120.08931734
_cell_angle_gamma   120.06089493
_symmetry_Int_Tables_number   1
_chemical_formula_structural   Li(MnS2)2
_chemical_formula_sum   'Li2 Mn4 S8'
_cell_volume   231.43465150
_cell_formula_units_Z   2
loop_
 _symmetry_equiv_pos_site_id
 _symmetry_equiv_pos_as_xyz
  1  'x, y, z'
loop_
 _atom_site_type_symbol
 _atom_site_label
 _atom_site_symmetry_multiplicity
 _atom_site_fract_x
 _atom_site_fract_y
 _atom_site_fract_z
 _atom_site_occupancy
  Li  Li0  1  0.999977  0.999993  0.999988  1
  Li  Li1  1  0.500042  0.000018  0.000015  1
  Mn  Mn2  1  0.500025  0.999985  0.500008  1
  Mn  Mn3  1  0.499970  0.499990  0.500018  1
  Mn  Mn4  1  0.000018  0.500011  0.000005  1
  Mn  Mn5  1  0.000018  0.499973  0.499985  1
  S  S6  1  0.017249  0.740109  0.258981  1
  S  S7  1  0.481092  0.739140  0.722479  1
  S  S8  1  0.482407  0.740845  0.259898  1
  S  S9  1  0.981115  0.722444  0.739294  1
  S  S10  1  0.517599  0.259164  0.740114  1
  S  S11  1  0.518883  0.260838  0.277509  1
  S  S12  1  0.018926  0.277577  0.260737  1
  S  S13  1  0.982728  0.259877  0.741010  1
