# generated using pymatgen
data_Ca3Ni3(AsO4)4
_symmetry_space_group_name_H-M   'P 1'
_cell_length_a   5.12181913
_cell_length_b   9.19281569
_cell_length_c   15.50588056
_cell_angle_alpha   95.64501234
_cell_angle_beta   90.00000000
_cell_angle_gamma   90.00000000
_symmetry_Int_Tables_number   1
_chemical_formula_structural   Ca3Ni3(AsO4)4
_chemical_formula_sum   'Ca6 Ni6 As8 O32'
_cell_volume   726.53737423
_cell_formula_units_Z   2
loop_
 _symmetry_equiv_pos_site_id
 _symmetry_equiv_pos_as_xyz
  1  'x, y, z'
loop_
 _atom_site_type_symbol
 _atom_site_label
 _atom_site_symmetry_multiplicity
 _atom_site_fract_x
 _atom_site_fract_y
 _atom_site_fract_z
 _atom_site_occupancy
  Ca  Ca0  1  0.964512  0.040304  0.729635  1
  Ca  Ca1  1  0.464512  0.459696  0.770365  1
  Ca  Ca2  1  0.035488  0.959696  0.270365  1
  Ca  Ca3  1  0.535488  0.540304  0.229635  1
  Ca  Ca4  1  -0.000000  -0.000000  -0.000000  1
  Ca  Ca5  1  0.500000  0.500000  0.500000  1
  Ni  Ni6  1  0.017745  0.319334  0.121925  1
  Ni  Ni7  1  0.982255  0.680666  0.878075  1
  Ni  Ni8  1  0.517745  0.180666  0.378075  1
  Ni  Ni9  1  0.482255  0.819334  0.621925  1
  Ni  Ni10  1  0.500000  0.500000  -0.000000  1
  Ni  Ni11  1  -0.000000  -0.000000  0.500000  1
  As  As12  1  0.490310  0.880450  0.841186  1
  As  As13  1  0.011800  0.341300  0.905426  1
  As  As14  1  0.511800  0.158700  0.594574  1
  As  As15  1  0.488200  0.841300  0.405426  1
  As  As16  1  0.509690  0.119550  0.158814  1
  As  As17  1  0.988200  0.658700  0.094574  1
  As  As18  1  0.009690  0.380450  0.341186  1
  As  As19  1  0.990310  0.619550  0.658814  1
  O  O20  1  0.047780  0.570167  0.762314  1
  O  O21  1  0.563260  0.252535  0.505995  1
  O  O22  1  0.111898  0.248008  0.812163  1
  O  O23  1  0.099834  0.796011  0.651788  1
  O  O24  1  0.888102  0.751992  0.187837  1
  O  O25  1  0.452220  0.070167  0.262314  1
  O  O26  1  0.611898  0.251992  0.687837  1
  O  O27  1  0.804735  0.907328  0.399028  1
  O  O28  1  0.853282  0.508585  0.407288  1
  O  O29  1  0.952220  0.429833  0.237686  1
  O  O30  1  0.400166  0.296011  0.151788  1
  O  O31  1  0.195265  0.092672  0.600972  1
  O  O32  1  0.201432  0.501078  0.918361  1
  O  O33  1  0.146718  0.491415  0.592712  1
  O  O34  1  0.846988  0.118861  0.141899  1
  O  O35  1  0.346988  0.381139  0.358101  1
  O  O36  1  0.701432  0.998922  0.581639  1
  O  O37  1  0.388102  0.748008  0.312163  1
  O  O38  1  0.353282  0.991415  0.092712  1
  O  O39  1  0.304735  0.592672  0.100972  1
  O  O40  1  0.653012  0.618861  0.641899  1
  O  O41  1  0.153012  0.881139  0.858101  1
  O  O42  1  0.436740  0.747465  0.494005  1
  O  O43  1  0.063260  0.247465  0.994005  1
  O  O44  1  0.798568  0.498922  0.081639  1
  O  O45  1  0.547780  0.929833  0.737686  1
  O  O46  1  0.900166  0.203989  0.348212  1
  O  O47  1  0.646718  0.008585  0.907288  1
  O  O48  1  0.936740  0.752535  0.005995  1
  O  O49  1  0.695265  0.407328  0.899028  1
  O  O50  1  0.298568  0.001078  0.418361  1
  O  O51  1  0.599834  0.703989  0.848212  1
