# generated using pymatgen
data_Y4V13Si2(SbO14)2
_symmetry_space_group_name_H-M   'P 1'
_cell_length_a   5.89978394
_cell_length_b   9.08590035
_cell_length_c   12.42329344
_cell_angle_alpha   87.74133627
_cell_angle_beta   76.22852816
_cell_angle_gamma   80.03016737
_symmetry_Int_Tables_number   1
_chemical_formula_structural   Y4V13Si2(SbO14)2
_chemical_formula_sum   'Y4 V13 Si2 Sb2 O28'
_cell_volume   637.03619242
_cell_formula_units_Z   1
loop_
 _symmetry_equiv_pos_site_id
 _symmetry_equiv_pos_as_xyz
  1  'x, y, z'
loop_
 _atom_site_type_symbol
 _atom_site_label
 _atom_site_symmetry_multiplicity
 _atom_site_fract_x
 _atom_site_fract_y
 _atom_site_fract_z
 _atom_site_occupancy
  Y  Y0  1  0.085789  0.658973  0.411207  1
  Y  Y1  1  0.502656  0.339947  0.412695  1
  Y  Y2  1  0.914653  0.340665  0.588057  1
  Y  Y3  1  0.497696  0.659411  0.587438  1
  V  V4  1  0.903537  0.643259  0.735625  1
  V  V5  1  0.644429  0.342062  0.119990  1
  V  V6  1  0.357312  0.358270  0.735606  1
  V  V7  1  0.092850  0.356954  0.265028  1
  V  V8  1  0.352823  0.657855  0.881144  1
  V  V9  1  0.289118  0.999611  0.423358  1
  V  V10  1  0.235498  0.656515  0.122502  1
  V  V11  1  0.999060  0.000349  0.000002  1
  V  V12  1  0.426218  0.000255  0.145709  1
  V  V13  1  0.763300  0.342886  0.880208  1
  V  V14  1  0.638556  0.644538  0.264017  1
  V  V15  1  0.576520  0.997794  0.852599  1
  V  V16  1  0.712802  0.999541  0.575763  1
  Si  Si17  1  0.233970  0.308955  0.000532  1
  Si  Si18  1  0.764627  0.691607  0.000329  1
  Sb  Sb19  1  0.861738  0.000791  0.282314  1
  Sb  Sb20  1  0.149142  0.000599  0.716733  1
  O  O21  1  0.743218  0.386317  0.257945  1
  O  O22  1  0.123432  0.391440  0.419919  1
  O  O23  1  0.952274  0.351369  0.000426  1
  O  O24  1  0.309104  0.127774  0.000709  1
  O  O25  1  0.877653  0.608497  0.579548  1
  O  O26  1  0.256031  0.611822  0.742090  1
  O  O27  1  0.024005  0.105528  0.573373  1
  O  O28  1  0.978123  0.894666  0.425437  1
  O  O29  1  0.688673  0.872717  0.999641  1
  O  O30  1  0.176427  0.883192  0.128503  1
  O  O31  1  0.293475  0.390469  0.107157  1
  O  O32  1  0.987785  0.611125  0.259856  1
  O  O33  1  0.405028  0.894978  0.572477  1
  O  O34  1  0.693142  0.117838  0.127800  1
  O  O35  1  0.601289  0.611100  0.108411  1
  O  O36  1  0.045897  0.649723  0.000694  1
  O  O37  1  0.304354  0.883019  0.871699  1
  O  O38  1  0.821037  0.117591  0.871696  1
  O  O39  1  0.596807  0.104857  0.426459  1
  O  O40  1  0.184027  0.124210  0.274597  1
  O  O41  1  0.805135  0.874583  0.725594  1
  O  O42  1  0.399630  0.388979  0.893263  1
  O  O43  1  0.446691  0.124606  0.723466  1
  O  O44  1  0.542125  0.392352  0.580443  1
  O  O45  1  0.703627  0.609913  0.894430  1
  O  O46  1  0.543968  0.873486  0.273860  1
  O  O47  1  0.001741  0.389124  0.742190  1
  O  O48  1  0.459860  0.607336  0.418827  1
