# generated using pymatgen
data_CaTi(Si2O5)2
_symmetry_space_group_name_H-M   'P 1'
_cell_length_a   7.45085356
_cell_length_b   7.53182899
_cell_length_c   15.49639183
_cell_angle_alpha   89.99993873
_cell_angle_beta   89.99968442
_cell_angle_gamma   90.00800004
_symmetry_Int_Tables_number   1
_chemical_formula_structural   CaTi(Si2O5)2
_chemical_formula_sum   'Ca4 Ti4 Si16 O40'
_cell_volume   869.63510592
_cell_formula_units_Z   4
loop_
 _symmetry_equiv_pos_site_id
 _symmetry_equiv_pos_as_xyz
  1  'x, y, z'
loop_
 _atom_site_type_symbol
 _atom_site_label
 _atom_site_symmetry_multiplicity
 _atom_site_fract_x
 _atom_site_fract_y
 _atom_site_fract_z
 _atom_site_occupancy
  Ca  Ca0  1  0.250002  0.750002  0.499585  1
  Ca  Ca1  1  0.749998  0.249998  0.500415  1
  Ca  Ca2  1  0.750008  0.250004  0.000494  1
  Ca  Ca3  1  0.249992  0.749996  0.999506  1
  Ti  Ti4  1  0.249999  0.250007  0.579617  1
  Ti  Ti5  1  0.749991  0.749995  0.920393  1
  Ti  Ti6  1  0.750001  0.749993  0.420383  1
  Ti  Ti7  1  0.250009  0.250005  0.079607  1
  Si  Si8  1  0.918756  0.503632  0.649355  1
  Si  Si9  1  0.581244  0.996365  0.649356  1
  Si  Si10  1  0.000632  0.418574  0.850712  1
  Si  Si11  1  0.500655  0.581466  0.649352  1
  Si  Si12  1  0.999345  0.918532  0.649352  1
  Si  Si13  1  0.081228  0.003660  0.850694  1
  Si  Si14  1  0.418769  0.496337  0.850694  1
  Si  Si15  1  0.499367  0.081425  0.850713  1
  Si  Si16  1  0.081244  0.496368  0.350645  1
  Si  Si17  1  0.418756  0.003635  0.350644  1
  Si  Si18  1  0.999368  0.581426  0.149288  1
  Si  Si19  1  0.499345  0.418534  0.350648  1
  Si  Si20  1  0.000655  0.081468  0.350648  1
  Si  Si21  1  0.918772  0.996340  0.149306  1
  Si  Si22  1  0.581231  0.503663  0.149306  1
  Si  Si23  1  0.500633  0.918575  0.149287  1
  O  O24  1  0.998694  0.360449  0.582248  1
  O  O25  1  0.501300  0.139550  0.582250  1
  O  O26  1  0.853354  0.495384  0.917095  1
  O  O27  1  0.353326  0.504538  0.583002  1
  O  O28  1  0.146672  0.995463  0.583000  1
  O  O29  1  0.001202  0.860490  0.917809  1
  O  O30  1  0.498793  0.639505  0.917810  1
  O  O31  1  0.646646  0.004616  0.917096  1
  O  O32  1  0.001306  0.639551  0.417752  1
  O  O33  1  0.498700  0.860450  0.417750  1
  O  O34  1  0.146646  0.504616  0.082905  1
  O  O35  1  0.646674  0.495462  0.416998  1
  O  O36  1  0.853328  0.004537  0.417000  1
  O  O37  1  0.998798  0.139510  0.082191  1
  O  O38  1  0.501207  0.360495  0.082190  1
  O  O39  1  0.001203  0.296971  0.369899  1
  O  O40  1  0.353354  0.995384  0.082904  1
  O  O41  1  0.501202  0.796969  0.630103  1
  O  O42  1  0.201331  0.499362  0.870947  1
  O  O43  1  0.701322  0.500764  0.629064  1
  O  O44  1  0.798678  0.999234  0.629065  1
  O  O45  1  0.001335  0.203057  0.869910  1
  O  O46  1  0.498665  0.296943  0.869909  1
  O  O47  1  0.298666  0.000638  0.870947  1
  O  O48  1  0.453834  0.954130  0.250125  1
  O  O49  1  0.545991  0.454003  0.249794  1
  O  O50  1  0.954007  0.045998  0.249795  1
  O  O51  1  0.046163  0.545871  0.250127  1
  O  O52  1  0.546166  0.045871  0.749875  1
  O  O53  1  0.454009  0.545997  0.750206  1
  O  O54  1  0.045994  0.954003  0.750205  1
  O  O55  1  0.953838  0.454129  0.749873  1
  O  O56  1  0.701334  0.999362  0.129053  1
  O  O57  1  0.501335  0.703057  0.130091  1
  O  O58  1  0.998665  0.796943  0.130090  1
  O  O59  1  0.201322  0.000766  0.370935  1
  O  O60  1  0.298678  0.499236  0.370936  1
  O  O61  1  0.798669  0.500638  0.129053  1
  O  O62  1  0.498798  0.203031  0.369897  1
  O  O63  1  0.998797  0.703029  0.630101  1
