# generated using pymatgen
data_WN2
_symmetry_space_group_name_H-M   'P 1'
_cell_length_a   3.82607795
_cell_length_b   5.75330440
_cell_length_c   5.78129574
_cell_angle_alpha   40.07514798
_cell_angle_beta   70.67650551
_cell_angle_gamma   70.57872824
_symmetry_Int_Tables_number   1
_chemical_formula_structural   WN2
_chemical_formula_sum   'W2 N4'
_cell_volume   76.65273237
_cell_formula_units_Z   2
loop_
 _symmetry_equiv_pos_site_id
 _symmetry_equiv_pos_as_xyz
  1  'x, y, z'
loop_
 _atom_site_type_symbol
 _atom_site_label
 _atom_site_symmetry_multiplicity
 _atom_site_fract_x
 _atom_site_fract_y
 _atom_site_fract_z
 _atom_site_occupancy
  W  W0  1  0.378137  0.905899  0.337826  1
  W  W1  1  0.621863  0.094101  0.662174  1
  N  N2  1  0.171887  0.083154  0.573072  1
  N  N3  1  0.828113  0.916846  0.426928  1
  N  N4  1  0.419444  0.332173  0.828939  1
  N  N5  1  0.580556  0.667827  0.171061  1
