# generated using pymatgen
data_SiSnO4
_symmetry_space_group_name_H-M   'P 1'
_cell_length_a   10.11591435
_cell_length_b   10.11591388
_cell_length_c   10.11591403
_cell_angle_alpha   109.47122309
_cell_angle_beta   109.47122213
_cell_angle_gamma   109.47122007
_symmetry_Int_Tables_number   1
_chemical_formula_structural   SiSnO4
_chemical_formula_sum   'Si12 Sn12 O48'
_cell_volume   796.88102900
_cell_formula_units_Z   12
loop_
 _symmetry_equiv_pos_site_id
 _symmetry_equiv_pos_as_xyz
  1  'x, y, z'
loop_
 _atom_site_type_symbol
 _atom_site_label
 _atom_site_symmetry_multiplicity
 _atom_site_fract_x
 _atom_site_fract_y
 _atom_site_fract_z
 _atom_site_occupancy
  Si  Si0  1  0.250000  0.125000  0.875000  1
  Si  Si1  1  0.875000  0.250000  0.125000  1
  Si  Si2  1  0.625000  0.750001  0.375000  1
  Si  Si3  1  0.250000  0.625000  0.375001  1
  Si  Si4  1  0.375000  0.625000  0.750000  1
  Si  Si5  1  0.750000  0.375000  0.625000  1
  Si  Si6  1  0.875000  0.125000  0.750000  1
  Si  Si7  1  0.125000  0.750001  0.875000  1
  Si  Si8  1  0.125000  0.875001  0.250000  1
  Si  Si9  1  0.625000  0.375000  0.250000  1
  Si  Si10  1  0.375000  0.250000  0.625000  1
  Si  Si11  1  0.750000  0.875001  0.125000  1
  Sn  Sn12  1  0.250000  0.875001  0.625000  1
  Sn  Sn13  1  0.875000  0.625000  0.250000  1
  Sn  Sn14  1  0.625001  0.875001  0.750001  1
  Sn  Sn15  1  0.875001  0.750001  0.625001  1
  Sn  Sn16  1  0.625000  0.250000  0.875000  1
  Sn  Sn17  1  0.750000  0.625000  0.875000  1
  Sn  Sn18  1  0.750000  0.125000  0.375000  1
  Sn  Sn19  1  0.125000  0.375000  0.750000  1
  Sn  Sn20  1  0.375000  0.125000  0.250000  1
  Sn  Sn21  1  0.125000  0.250000  0.375000  1
  Sn  Sn22  1  0.375000  0.750001  0.125000  1
  Sn  Sn23  1  0.250000  0.375000  0.125000  1
  O  O24  1  0.275852  0.470177  0.369504  1
  O  O25  1  0.029823  0.305674  0.899326  1
  O  O26  1  0.130496  0.600674  0.906348  1
  O  O27  1  0.224147  0.593652  0.194326  1
  O  O28  1  0.224147  0.130495  0.029822  1
  O  O29  1  0.593651  0.194325  0.224147  1
  O  O30  1  0.600673  0.194325  0.470177  1
  O  O31  1  0.194326  0.224147  0.593653  1
  O  O32  1  0.899327  0.369504  0.593652  1
  O  O33  1  0.305675  0.906348  0.275853  1
  O  O34  1  0.906348  0.275853  0.305675  1
  O  O35  1  0.029823  0.224147  0.130495  1
  O  O36  1  0.194326  0.470177  0.600674  1
  O  O37  1  0.593652  0.899327  0.369505  1
  O  O38  1  0.130495  0.029822  0.224147  1
  O  O39  1  0.470177  0.600674  0.194325  1
  O  O40  1  0.369504  0.593652  0.899326  1
  O  O41  1  0.899326  0.029822  0.305674  1
  O  O42  1  0.600673  0.906348  0.130496  1
  O  O43  1  0.100673  0.630495  0.406348  1
  O  O44  1  0.470177  0.369504  0.275852  1
  O  O45  1  0.369504  0.275853  0.470177  1
  O  O46  1  0.305675  0.899327  0.029823  1
  O  O47  1  0.275852  0.305674  0.906347  1
  O  O48  1  0.724147  0.529822  0.630495  1
  O  O49  1  0.970177  0.694325  0.100673  1
  O  O50  1  0.869505  0.399327  0.093652  1
  O  O51  1  0.775853  0.406348  0.805675  1
  O  O52  1  0.775852  0.869505  0.970178  1
  O  O53  1  0.406348  0.805674  0.775852  1
  O  O54  1  0.399327  0.805674  0.529822  1
  O  O55  1  0.805675  0.775853  0.406348  1
  O  O56  1  0.724147  0.694325  0.093652  1
  O  O57  1  0.694326  0.100674  0.970177  1
  O  O58  1  0.630495  0.724148  0.529823  1
  O  O59  1  0.529823  0.630495  0.724147  1
  O  O60  1  0.093652  0.869505  0.399326  1
  O  O61  1  0.399326  0.093651  0.869504  1
  O  O62  1  0.100674  0.970177  0.694325  1
  O  O63  1  0.630496  0.406348  0.100673  1
  O  O64  1  0.529823  0.399327  0.805675  1
  O  O65  1  0.869505  0.970177  0.775853  1
  O  O66  1  0.406348  0.100674  0.630496  1
  O  O67  1  0.805674  0.529822  0.399327  1
  O  O68  1  0.970177  0.775853  0.869505  1
  O  O69  1  0.093652  0.724148  0.694326  1
  O  O70  1  0.694325  0.093651  0.724147  1
  O  O71  1  0.906348  0.130495  0.600673  1
