# generated using pymatgen
data_MgNiPO5
_symmetry_space_group_name_H-M   'P 1'
_cell_length_a   5.28157332
_cell_length_b   6.79846530
_cell_length_c   8.27229245
_cell_angle_alpha   89.83004097
_cell_angle_beta   141.88366612
_cell_angle_gamma   76.02727116
_symmetry_Int_Tables_number   1
_chemical_formula_structural   MgNiPO5
_chemical_formula_sum   'Mg2 Ni2 P2 O10'
_cell_volume   168.43748846
_cell_formula_units_Z   2
loop_
 _symmetry_equiv_pos_site_id
 _symmetry_equiv_pos_as_xyz
  1  'x, y, z'
loop_
 _atom_site_type_symbol
 _atom_site_label
 _atom_site_symmetry_multiplicity
 _atom_site_fract_x
 _atom_site_fract_y
 _atom_site_fract_z
 _atom_site_occupancy
  Mg  Mg0  1  0.512942  0.233215  0.177057  1
  Mg  Mg1  1  0.508282  0.734452  0.834077  1
  Ni  Ni2  1  0.498103  0.494017  0.499631  1
  Ni  Ni3  1  0.497629  0.994214  0.499019  1
  P  P4  1  0.497268  0.244957  0.832245  1
  P  P5  1  0.492854  0.743784  0.163614  1
  O  O6  1  0.267691  0.129864  0.609312  1
  O  O7  1  0.718538  0.366195  0.839504  1
  O  O8  1  0.719609  0.863442  0.382433  1
  O  O9  1  0.269882  0.626550  0.158127  1
  O  O10  1  0.830411  0.585546  0.213917  1
  O  O11  1  0.154232  0.905956  0.873462  1
  O  O12  1  0.166005  0.399972  0.788268  1
  O  O13  1  0.841316  0.079322  0.121850  1
  O  O14  1  0.499501  0.747866  0.590168  1
  O  O15  1  0.494865  0.240918  0.407817  1
