# generated using pymatgen
data_Zn2CrWO6
_symmetry_space_group_name_H-M   'P 1'
_cell_length_a   5.24009997
_cell_length_b   5.28696317
_cell_length_c   7.71420028
_cell_angle_alpha   90.00000000
_cell_angle_beta   89.61202726
_cell_angle_gamma   90.00000000
_symmetry_Int_Tables_number   1
_chemical_formula_structural   Zn2CrWO6
_chemical_formula_sum   'Zn4 Cr2 W2 O12'
_cell_volume   213.71096761
_cell_formula_units_Z   2
loop_
 _symmetry_equiv_pos_site_id
 _symmetry_equiv_pos_as_xyz
  1  'x, y, z'
loop_
 _atom_site_type_symbol
 _atom_site_label
 _atom_site_symmetry_multiplicity
 _atom_site_fract_x
 _atom_site_fract_y
 _atom_site_fract_z
 _atom_site_occupancy
  Zn  Zn0  1  0.008062  0.030279  0.250985  1
  Zn  Zn1  1  0.491938  0.530280  0.249015  1
  Zn  Zn2  1  0.991939  0.969722  0.749015  1
  Zn  Zn3  1  0.508061  0.469721  0.750985  1
  Cr  Cr4  1  0.500000  0.000000  0.000000  1
  Cr  Cr5  1  0.000001  0.499999  0.500000  1
  W  W6  1  0.500000  0.000000  0.499999  1
  W  W7  1  0.000000  0.499999  0.000000  1
  O  O8  1  0.673306  0.323320  0.430349  1
  O  O9  1  0.826694  0.823321  0.069651  1
  O  O10  1  0.326693  0.676680  0.569651  1
  O  O11  1  0.173307  0.176679  0.930349  1
  O  O12  1  0.178203  0.173012  0.560090  1
  O  O13  1  0.321797  0.673011  0.939910  1
  O  O14  1  0.821798  0.826988  0.439910  1
  O  O15  1  0.678202  0.326989  0.060090  1
  O  O16  1  0.115023  0.416015  0.248680  1
  O  O17  1  0.384978  0.916016  0.251319  1
  O  O18  1  0.615023  0.083984  0.748681  1
  O  O19  1  0.884978  0.583985  0.751320  1
