# generated using pymatgen
data_CaMn2F10
_symmetry_space_group_name_H-M   'P 1'
_cell_length_a   5.55025032
_cell_length_b   5.55024988
_cell_length_c   7.58871345
_cell_angle_alpha   96.05392267
_cell_angle_beta   113.51495469
_cell_angle_gamma   108.07578606
_symmetry_Int_Tables_number   1
_chemical_formula_structural   CaMn2F10
_chemical_formula_sum   'Ca1 Mn2 F10'
_cell_volume   196.60565406
_cell_formula_units_Z   1
loop_
 _symmetry_equiv_pos_site_id
 _symmetry_equiv_pos_as_xyz
  1  'x, y, z'
loop_
 _atom_site_type_symbol
 _atom_site_label
 _atom_site_symmetry_multiplicity
 _atom_site_fract_x
 _atom_site_fract_y
 _atom_site_fract_z
 _atom_site_occupancy
  Ca  Ca0  1  0.288406  0.538406  0.750000  1
  Mn  Mn1  1  0.002688  0.004294  0.005112  1
  Mn  Mn2  1  0.499182  0.997576  0.494888  1
  F  F3  1  0.322197  0.072197  0.250000  1
  F  F4  1  0.678402  0.928402  0.750000  1
  F  F5  1  0.589831  0.766013  0.385350  1
  F  F6  1  0.880662  0.204481  0.114650  1
  F  F7  1  0.763522  0.712553  0.027998  1
  F  F8  1  0.184554  0.735524  0.472002  1
  F  F9  1  0.221898  0.286345  0.957280  1
  F  F10  1  0.829065  0.264617  0.542720  1
  F  F11  1  0.124412  0.792575  0.883562  1
  F  F12  1  0.409013  0.240849  0.616438  1
