# generated using pymatgen
data_BiSbO5
_symmetry_space_group_name_H-M   'P 1'
_cell_length_a   5.81740821
_cell_length_b   10.71552183
_cell_length_c   16.76032917
_cell_angle_alpha   90.00000000
_cell_angle_beta   90.00000000
_cell_angle_gamma   90.00000000
_symmetry_Int_Tables_number   1
_chemical_formula_structural   BiSbO5
_chemical_formula_sum   'Bi8 Sb8 O40'
_cell_volume   1044.78134317
_cell_formula_units_Z   8
loop_
 _symmetry_equiv_pos_site_id
 _symmetry_equiv_pos_as_xyz
  1  'x, y, z'
loop_
 _atom_site_type_symbol
 _atom_site_label
 _atom_site_symmetry_multiplicity
 _atom_site_fract_x
 _atom_site_fract_y
 _atom_site_fract_z
 _atom_site_occupancy
  Bi  Bi0  1  0.941932  0.838394  0.197816  1
  Bi  Bi1  1  0.058068  0.161606  0.802184  1
  Bi  Bi2  1  0.558068  0.338394  0.802184  1
  Bi  Bi3  1  0.058068  0.661606  0.697816  1
  Bi  Bi4  1  0.441932  0.161606  0.302184  1
  Bi  Bi5  1  0.441932  0.661606  0.197816  1
  Bi  Bi6  1  0.558068  0.838394  0.697816  1
  Bi  Bi7  1  0.941932  0.338394  0.302184  1
  Sb  Sb8  1  0.971476  0.350207  0.608192  1
  Sb  Sb9  1  0.528524  0.850207  0.391808  1
  Sb  Sb10  1  0.028524  0.649793  0.391808  1
  Sb  Sb11  1  0.471476  0.149793  0.608192  1
  Sb  Sb12  1  0.028524  0.149793  0.108192  1
  Sb  Sb13  1  0.971476  0.850207  0.891808  1
  Sb  Sb14  1  0.528524  0.350207  0.108192  1
  Sb  Sb15  1  0.471476  0.649793  0.891808  1
  O  O16  1  0.863558  0.290297  0.714501  1
  O  O17  1  0.204337  0.023093  0.054122  1
  O  O18  1  0.295663  0.523093  0.945878  1
  O  O19  1  0.256332  0.800435  0.139274  1
  O  O20  1  0.243668  0.300435  0.860726  1
  O  O21  1  0.863558  0.790297  0.785499  1
  O  O22  1  0.243668  0.800435  0.639274  1
  O  O23  1  0.636442  0.790297  0.285499  1
  O  O24  1  0.204337  0.523093  0.445878  1
  O  O25  1  0.136442  0.709703  0.285499  1
  O  O26  1  0.636442  0.290297  0.214501  1
  O  O27  1  0.719781  0.241320  0.558450  1
  O  O28  1  0.704337  0.976907  0.445878  1
  O  O29  1  0.743668  0.699565  0.639274  1
  O  O30  1  0.173178  0.977824  0.840639  1
  O  O31  1  0.704337  0.476907  0.054122  1
  O  O32  1  0.136442  0.209703  0.214501  1
  O  O33  1  0.756332  0.199565  0.360726  1
  O  O34  1  0.219781  0.758680  0.941550  1
  O  O35  1  0.295663  0.023093  0.554122  1
  O  O36  1  0.280219  0.758680  0.441550  1
  O  O37  1  0.826822  0.022176  0.159361  1
  O  O38  1  0.743668  0.199565  0.860726  1
  O  O39  1  0.673178  0.022176  0.659361  1
  O  O40  1  0.280219  0.258680  0.058450  1
  O  O41  1  0.219781  0.258680  0.558450  1
  O  O42  1  0.795663  0.476907  0.554122  1
  O  O43  1  0.795663  0.976907  0.945878  1
  O  O44  1  0.673178  0.522176  0.840639  1
  O  O45  1  0.780219  0.741320  0.441550  1
  O  O46  1  0.780219  0.241320  0.058450  1
  O  O47  1  0.719781  0.741320  0.941550  1
  O  O48  1  0.826822  0.522176  0.340639  1
  O  O49  1  0.756332  0.699565  0.139274  1
  O  O50  1  0.256332  0.300435  0.360726  1
  O  O51  1  0.173178  0.477824  0.659361  1
  O  O52  1  0.326822  0.477824  0.159361  1
  O  O53  1  0.363558  0.209703  0.714501  1
  O  O54  1  0.326822  0.977824  0.340639  1
  O  O55  1  0.363558  0.709703  0.785499  1
