# generated using pymatgen
data_Ca2W3O8
_symmetry_space_group_name_H-M   'P 1'
_cell_length_a   5.02650175
_cell_length_b   5.93474239
_cell_length_c   6.62457816
_cell_angle_alpha   116.61118471
_cell_angle_beta   103.94429537
_cell_angle_gamma   89.99999698
_symmetry_Int_Tables_number   1
_chemical_formula_structural   Ca2W3O8
_chemical_formula_sum   'Ca2 W3 O8'
_cell_volume   170.14473219
_cell_formula_units_Z   1
loop_
 _symmetry_equiv_pos_site_id
 _symmetry_equiv_pos_as_xyz
  1  'x, y, z'
loop_
 _atom_site_type_symbol
 _atom_site_label
 _atom_site_symmetry_multiplicity
 _atom_site_fract_x
 _atom_site_fract_y
 _atom_site_fract_z
 _atom_site_occupancy
  Ca  Ca0  1  0.670676  0.724716  0.449431  1
  Ca  Ca1  1  0.329323  0.275285  0.550569  1
  W  W2  1  0.500000  0.999999  0.000000  1
  W  W3  1  0.999999  0.771351  0.000000  1
  W  W4  1  0.999999  0.228649  1.000000  1
  O  O5  1  0.086729  0.409666  0.819333  1
  O  O6  1  0.913271  0.590333  0.180667  1
  O  O7  1  0.085328  0.874344  0.748688  1
  O  O8  1  0.914672  0.125655  0.251311  1
  O  O9  1  0.388539  0.345549  0.221583  1
  O  O10  1  0.388539  0.876034  0.221583  1
  O  O11  1  0.611462  0.123965  0.778417  1
  O  O12  1  0.611462  0.654451  0.778417  1
