# generated using pymatgen
data_Ca3Mn2(GeO4)3
_symmetry_space_group_name_H-M   'P 1'
_cell_length_a   10.84038628
_cell_length_b   10.84038571
_cell_length_c   10.84038585
_cell_angle_alpha   109.47122090
_cell_angle_beta   109.47121983
_cell_angle_gamma   109.47121990
_symmetry_Int_Tables_number   1
_chemical_formula_structural   Ca3Mn2(GeO4)3
_chemical_formula_sum   'Ca12 Mn8 Ge12 O48'
_cell_volume   980.64619932
_cell_formula_units_Z   4
loop_
 _symmetry_equiv_pos_site_id
 _symmetry_equiv_pos_as_xyz
  1  'x, y, z'
loop_
 _atom_site_type_symbol
 _atom_site_label
 _atom_site_symmetry_multiplicity
 _atom_site_fract_x
 _atom_site_fract_y
 _atom_site_fract_z
 _atom_site_occupancy
  Ca  Ca0  1  0.625000  0.250000  0.875000  1
  Ca  Ca1  1  0.875000  0.750000  0.625000  1
  Ca  Ca2  1  0.750000  0.625000  0.875000  1
  Ca  Ca3  1  0.250000  0.875000  0.625000  1
  Ca  Ca4  1  0.875000  0.625000  0.250000  1
  Ca  Ca5  1  0.625000  0.875000  0.750000  1
  Ca  Ca6  1  0.375000  0.750000  0.125000  1
  Ca  Ca7  1  0.125000  0.250000  0.375000  1
  Ca  Ca8  1  0.250000  0.375000  0.125000  1
  Ca  Ca9  1  0.750000  0.125000  0.375000  1
  Ca  Ca10  1  0.125000  0.375000  0.750000  1
  Ca  Ca11  1  0.375000  0.125000  0.250000  1
  Mn  Mn12  1  0.500000  0.500000  0.500000  1
  Mn  Mn13  1  0.500000  0.500000  0.000000  1
  Mn  Mn14  1  0.500000  0.000000  0.500000  1
  Mn  Mn15  1  0.000000  0.500000  0.500000  1
  Mn  Mn16  1  0.500000  0.000000  0.000000  1
  Mn  Mn17  1  0.000000  0.000000  0.500000  1
  Mn  Mn18  1  0.000000  0.500000  0.000000  1
  Mn  Mn19  1  0.000000  0.000000  0.000000  1
  Ge  Ge20  1  0.875000  0.125000  0.750000  1
  Ge  Ge21  1  0.125000  0.875000  0.250000  1
  Ge  Ge22  1  0.250000  0.625000  0.375000  1
  Ge  Ge23  1  0.125000  0.750000  0.875000  1
  Ge  Ge24  1  0.750000  0.875000  0.125000  1
  Ge  Ge25  1  0.375000  0.250000  0.625000  1
  Ge  Ge26  1  0.625000  0.750000  0.375000  1
  Ge  Ge27  1  0.875000  0.250000  0.125000  1
  Ge  Ge28  1  0.250000  0.125000  0.875000  1
  Ge  Ge29  1  0.750000  0.375000  0.625000  1
  Ge  Ge30  1  0.375000  0.625000  0.750000  1
  Ge  Ge31  1  0.625000  0.375000  0.250000  1
  O  O32  1  0.795405  0.414901  0.813541  1
  O  O33  1  0.085099  0.880504  0.398640  1
  O  O34  1  0.686459  0.101360  0.981863  1
  O  O35  1  0.704595  0.518137  0.619496  1
  O  O36  1  0.704595  0.686459  0.085099  1
  O  O37  1  0.518137  0.619496  0.704595  1
  O  O38  1  0.101360  0.619496  0.414901  1
  O  O39  1  0.619496  0.704595  0.518137  1
  O  O40  1  0.398640  0.813541  0.518137  1
  O  O41  1  0.880504  0.981863  0.795405  1
  O  O42  1  0.981863  0.795405  0.880504  1
  O  O43  1  0.085099  0.704595  0.686459  1
  O  O44  1  0.619496  0.414901  0.101360  1
  O  O45  1  0.518137  0.398640  0.813541  1
  O  O46  1  0.686459  0.085099  0.704595  1
  O  O47  1  0.414901  0.101360  0.619496  1
  O  O48  1  0.813541  0.518137  0.398640  1
  O  O49  1  0.398640  0.085099  0.880504  1
  O  O50  1  0.101360  0.981863  0.686459  1
  O  O51  1  0.601360  0.186459  0.481863  1
  O  O52  1  0.981863  0.686459  0.101360  1
  O  O53  1  0.813541  0.795405  0.414901  1
  O  O54  1  0.880504  0.398640  0.085099  1
  O  O55  1  0.795405  0.880504  0.981863  1
  O  O56  1  0.204595  0.585099  0.186459  1
  O  O57  1  0.914901  0.119496  0.601360  1
  O  O58  1  0.313541  0.898640  0.018137  1
  O  O59  1  0.295405  0.481863  0.380504  1
  O  O60  1  0.295405  0.313541  0.914901  1
  O  O61  1  0.481863  0.380504  0.295405  1
  O  O62  1  0.898640  0.380504  0.585099  1
  O  O63  1  0.380504  0.295405  0.481863  1
  O  O64  1  0.204595  0.119496  0.018137  1
  O  O65  1  0.119496  0.601360  0.914901  1
  O  O66  1  0.186459  0.204595  0.585099  1
  O  O67  1  0.585099  0.186459  0.204595  1
  O  O68  1  0.018137  0.313541  0.898640  1
  O  O69  1  0.898640  0.018137  0.313541  1
  O  O70  1  0.601360  0.914901  0.119496  1
  O  O71  1  0.186459  0.481863  0.601360  1
  O  O72  1  0.585099  0.898640  0.380504  1
  O  O73  1  0.313541  0.914901  0.295405  1
  O  O74  1  0.481863  0.601360  0.186459  1
  O  O75  1  0.380504  0.585099  0.898640  1
  O  O76  1  0.914901  0.295405  0.313541  1
  O  O77  1  0.018137  0.204595  0.119496  1
  O  O78  1  0.119496  0.018137  0.204595  1
  O  O79  1  0.414901  0.813541  0.795405  1
