# generated using pymatgen
data_CaHoV2O6
_symmetry_space_group_name_H-M   'P 1'
_cell_length_a   5.34993048
_cell_length_b   5.58104288
_cell_length_c   7.64260846
_cell_angle_alpha   89.99989514
_cell_angle_beta   90.74383678
_cell_angle_gamma   89.99959240
_symmetry_Int_Tables_number   1
_chemical_formula_structural   CaHoV2O6
_chemical_formula_sum   'Ca2 Ho2 V4 O12'
_cell_volume   228.17523653
_cell_formula_units_Z   2
loop_
 _symmetry_equiv_pos_site_id
 _symmetry_equiv_pos_as_xyz
  1  'x, y, z'
loop_
 _atom_site_type_symbol
 _atom_site_label
 _atom_site_symmetry_multiplicity
 _atom_site_fract_x
 _atom_site_fract_y
 _atom_site_fract_z
 _atom_site_occupancy
  Ca  Ca0  1  0.486172  0.446843  0.751543  1
  Ca  Ca1  1  0.986160  0.053162  0.251546  1
  Ho  Ho2  1  0.021602  0.933727  0.748865  1
  Ho  Ho3  1  0.521600  0.566262  0.248856  1
  V  V4  1  0.998463  0.496507  -0.000057  1
  V  V5  1  0.000731  0.496228  0.499897  1
  V  V6  1  0.498454  0.003495  0.499938  1
  V  V7  1  0.500740  0.003771  0.999888  1
  O  O8  1  0.111426  0.470101  0.238662  1
  O  O9  1  0.189195  0.196231  0.944388  1
  O  O10  1  0.194486  0.193058  0.552993  1
  O  O11  1  0.292692  0.709227  0.950303  1
  O  O12  1  0.293982  0.710920  0.552289  1
  O  O13  1  0.411249  0.965713  0.261125  1
  O  O14  1  0.611425  0.029911  0.738670  1
  O  O15  1  0.689187  0.303776  0.444386  1
  O  O16  1  0.694503  0.306948  0.052995  1
  O  O17  1  0.794006  0.789082  0.052278  1
  O  O18  1  0.792683  0.790761  0.450298  1
  O  O19  1  0.911242  0.534277  0.761136  1
