# generated using pymatgen
data_Y(TiS2)2
_symmetry_space_group_name_H-M   'P 1'
_cell_length_a   7.44910471
_cell_length_b   7.44910497
_cell_length_c   7.66983563
_cell_angle_alpha   119.05247915
_cell_angle_beta   119.05247841
_cell_angle_gamma   89.99999638
_symmetry_Int_Tables_number   1
_chemical_formula_structural   Y(TiS2)2
_chemical_formula_sum   'Y2 Ti4 S8'
_cell_volume   309.35790052
_cell_formula_units_Z   2
loop_
 _symmetry_equiv_pos_site_id
 _symmetry_equiv_pos_as_xyz
  1  'x, y, z'
loop_
 _atom_site_type_symbol
 _atom_site_label
 _atom_site_symmetry_multiplicity
 _atom_site_fract_x
 _atom_site_fract_y
 _atom_site_fract_z
 _atom_site_occupancy
  Y  Y0  1  0.375001  0.625001  0.750000  1
  Y  Y1  1  0.624999  0.375000  0.250000  1
  Ti  Ti2  1  0.000000  0.500001  0.000001  1
  Ti  Ti3  1  0.000001  0.000000  0.500000  1
  Ti  Ti4  1  0.500001  0.000000  0.500000  1
  Ti  Ti5  1  0.000000  0.000000  -0.000000  1
  S  S6  1  0.771472  0.790955  0.542946  1
  S  S7  1  0.748010  0.228529  0.957056  1
  S  S8  1  0.209046  0.228529  0.957055  1
  S  S9  1  0.228528  0.209045  0.457055  1
  S  S10  1  0.228527  0.748009  0.457054  1
  S  S11  1  0.251990  0.771472  0.042946  1
  S  S12  1  0.771472  0.251990  0.542945  1
  S  S13  1  0.790954  0.771472  0.042945  1
