# generated using pymatgen
data_CaCuP2O7
_symmetry_space_group_name_H-M   'P 1'
_cell_length_a   6.08792836
_cell_length_b   6.51428083
_cell_length_c   7.46745875
_cell_angle_alpha   81.60366516
_cell_angle_beta   89.49590157
_cell_angle_gamma   68.49993803
_symmetry_Int_Tables_number   1
_chemical_formula_structural   CaCuP2O7
_chemical_formula_sum   'Ca2 Cu2 P4 O14'
_cell_volume   272.26597559
_cell_formula_units_Z   2
loop_
 _symmetry_equiv_pos_site_id
 _symmetry_equiv_pos_as_xyz
  1  'x, y, z'
loop_
 _atom_site_type_symbol
 _atom_site_label
 _atom_site_symmetry_multiplicity
 _atom_site_fract_x
 _atom_site_fract_y
 _atom_site_fract_z
 _atom_site_occupancy
  Ca  Ca0  1  0.296848  0.715430  0.637329  1
  Ca  Ca1  1  0.703153  0.284571  0.362671  1
  Cu  Cu2  1  0.266268  0.122753  0.171038  1
  Cu  Cu3  1  0.733734  0.877246  0.828962  1
  P  P4  1  0.156818  0.661778  0.117819  1
  P  P5  1  0.843180  0.338222  0.882181  1
  P  P6  1  0.240917  0.216865  0.623034  1
  P  P7  1  0.759084  0.783134  0.376965  1
  O  O8  1  0.062370  0.739174  0.917575  1
  O  O9  1  0.937631  0.260826  0.082425  1
  O  O10  1  0.254319  0.816660  0.194290  1
  O  O11  1  0.745680  0.183339  0.805710  1
  O  O12  1  0.334017  0.417871  0.145764  1
  O  O13  1  0.665985  0.582128  0.854237  1
  O  O14  1  0.636051  0.626554  0.452057  1
  O  O15  1  0.363949  0.373446  0.547944  1
  O  O16  1  0.100206  0.159301  0.484386  1
  O  O17  1  0.899793  0.840699  0.515614  1
  O  O18  1  0.068634  0.348534  0.768618  1
  O  O19  1  0.590202  0.006419  0.268306  1
  O  O20  1  0.409800  0.993580  0.731695  1
  O  O21  1  0.931365  0.651467  0.231381  1
