# generated using pymatgen
data_NiSbP2O9
_symmetry_space_group_name_H-M   'P 1'
_cell_length_a   6.39852086
_cell_length_b   7.88102718
_cell_length_c   14.06983242
_cell_angle_alpha   89.93321200
_cell_angle_beta   89.90732527
_cell_angle_gamma   89.81034042
_symmetry_Int_Tables_number   1
_chemical_formula_structural   NiSbP2O9
_chemical_formula_sum   'Ni4 Sb4 P8 O36'
_cell_volume   709.49297635
_cell_formula_units_Z   4
loop_
 _symmetry_equiv_pos_site_id
 _symmetry_equiv_pos_as_xyz
  1  'x, y, z'
loop_
 _atom_site_type_symbol
 _atom_site_label
 _atom_site_symmetry_multiplicity
 _atom_site_fract_x
 _atom_site_fract_y
 _atom_site_fract_z
 _atom_site_occupancy
  Ni  Ni0  1  0.499993  0.999979  0.000000  1
  Ni  Ni1  1  0.500021  0.499972  0.500011  1
  Ni  Ni2  1  0.000031  0.499976  0.500021  1
  Ni  Ni3  1  -0.000046  -0.000009  -0.000022  1
  Sb  Sb4  1  0.751214  0.347842  0.876702  1
  Sb  Sb5  1  0.248766  0.652129  0.123353  1
  Sb  Sb6  1  0.249650  0.846720  0.622832  1
  Sb  Sb7  1  0.750358  0.153277  0.377113  1
  P  P8  1  0.250464  0.344946  0.940427  1
  P  P9  1  0.749526  0.654996  0.059619  1
  P  P10  1  0.749890  0.844518  0.559556  1
  P  P11  1  0.250114  0.155424  0.440371  1
  P  P12  1  0.750071  0.392993  0.685572  1
  P  P13  1  0.249927  0.607109  0.314298  1
  P  P14  1  0.249415  0.892184  0.813784  1
  P  P15  1  0.750595  0.107946  0.186375  1
  O  O16  1  0.050246  0.593783  0.374031  1
  O  O17  1  0.550542  0.406692  0.626308  1
  O  O18  1  0.949787  0.094380  0.126220  1
  O  O19  1  0.448534  0.905772  0.873255  1
  O  O20  1  0.949683  0.406150  0.626054  1
  O  O21  1  0.449553  0.593271  0.373765  1
  O  O22  1  0.050279  0.905659  0.873680  1
  O  O23  1  0.551329  0.094156  0.126718  1
  O  O24  1  0.249774  0.334917  0.482124  1
  O  O25  1  0.750272  0.665171  0.517852  1
  O  O26  1  0.750079  0.834842  0.017822  1
  O  O27  1  0.249904  0.165265  0.982209  1
  O  O28  1  0.751473  0.145248  0.953557  1
  O  O29  1  0.248483  0.854724  0.046454  1
  O  O30  1  0.250276  0.644517  0.546102  1
  O  O31  1  0.749765  0.355467  0.453901  1
  O  O32  1  0.751030  0.224809  0.747636  1
  O  O33  1  0.248970  0.775108  0.252427  1
  O  O34  1  0.248517  0.724056  0.751893  1
  O  O35  1  0.751545  0.275867  0.248058  1
  O  O36  1  0.439914  0.130707  0.373341  1
  O  O37  1  0.939110  0.869392  0.626636  1
  O  O38  1  0.559576  0.630695  0.126564  1
  O  O39  1  0.061594  0.370741  0.872994  1
  O  O40  1  0.560046  0.869293  0.626669  1
  O  O41  1  0.060937  0.130625  0.373390  1
  O  O42  1  0.440452  0.369275  0.873394  1
  O  O43  1  0.938347  0.629233  0.126964  1
  O  O44  1  0.750495  0.974137  0.272111  1
  O  O45  1  0.249565  0.025976  0.727885  1
  O  O46  1  0.250288  0.473400  0.228655  1
  O  O47  1  0.749677  0.526693  0.771360  1
  O  O48  1  0.750019  0.980155  0.481154  1
  O  O49  1  0.249962  0.019808  0.518857  1
  O  O50  1  0.250035  0.480302  0.018713  1
  O  O51  1  0.749955  0.519714  0.981236  1
