# generated using pymatgen
data_SnF3
_symmetry_space_group_name_H-M   'P 1'
_cell_length_a   4.19224629
_cell_length_b   7.50320356
_cell_length_c   9.29220061
_cell_angle_alpha   90.75819933
_cell_angle_beta   86.64429048
_cell_angle_gamma   94.20689154
_symmetry_Int_Tables_number   1
_chemical_formula_structural   SnF3
_chemical_formula_sum   'Sn4 F12'
_cell_volume   290.98967707
_cell_formula_units_Z   4
loop_
 _symmetry_equiv_pos_site_id
 _symmetry_equiv_pos_as_xyz
  1  'x, y, z'
loop_
 _atom_site_type_symbol
 _atom_site_label
 _atom_site_symmetry_multiplicity
 _atom_site_fract_x
 _atom_site_fract_y
 _atom_site_fract_z
 _atom_site_occupancy
  Sn  Sn0  1  0.225595  0.740876  0.166475  1
  Sn  Sn1  1  0.774405  0.259124  0.833525  1
  Sn  Sn2  1  0.960927  0.722618  0.694374  1
  Sn  Sn3  1  0.039073  0.277382  0.305626  1
  F  F4  1  0.865126  0.352062  0.637051  1
  F  F5  1  0.134874  0.647938  0.362949  1
  F  F6  1  0.232966  0.801958  0.962181  1
  F  F7  1  0.767034  0.198042  0.037819  1
  F  F8  1  0.722482  0.751463  0.169311  1
  F  F9  1  0.277518  0.248537  0.830689  1
  F  F10  1  0.737395  0.006874  0.766721  1
  F  F11  1  0.262605  0.993126  0.233279  1
  F  F12  1  0.484535  0.300648  0.397489  1
  F  F13  1  0.515465  0.699352  0.602511  1
  F  F14  1  0.762232  0.521366  0.881563  1
  F  F15  1  0.237768  0.478634  0.118436  1
