# generated using pymatgen
data_Al2(FeO3)3
_symmetry_space_group_name_H-M   'P 1'
_cell_length_a   15.16066286
_cell_length_b   8.55695029
_cell_length_c   9.28184847
_cell_angle_alpha   90.00000000
_cell_angle_beta   90.00000000
_cell_angle_gamma   90.00000000
_symmetry_Int_Tables_number   1
_chemical_formula_structural   Al2(FeO3)3
_chemical_formula_sum   'Al16 Fe24 O72'
_cell_volume   1204.12527711
_cell_formula_units_Z   8
loop_
 _symmetry_equiv_pos_site_id
 _symmetry_equiv_pos_as_xyz
  1  'x, y, z'
loop_
 _atom_site_type_symbol
 _atom_site_label
 _atom_site_symmetry_multiplicity
 _atom_site_fract_x
 _atom_site_fract_y
 _atom_site_fract_z
 _atom_site_occupancy
  Al  Al0  1  0.113835  0.334760  0.300229  1
  Al  Al1  1  0.441134  0.335196  0.303125  1
  Al  Al2  1  0.225533  0.664804  0.803125  1
  Al  Al3  1  0.552832  0.665240  0.800229  1
  Al  Al4  1  0.052832  0.834760  0.800229  1
  Al  Al5  1  0.725532  0.835196  0.803125  1
  Al  Al6  1  0.613835  0.165240  0.300229  1
  Al  Al7  1  0.941134  0.164804  0.303125  1
  Al  Al8  1  0.224222  0.338897  0.994902  1
  Al  Al9  1  0.897261  0.342711  0.997909  1
  Al  Al10  1  0.442445  0.661102  0.494901  1
  Al  Al11  1  0.769406  0.657288  0.497908  1
  Al  Al12  1  0.269406  0.842711  0.497908  1
  Al  Al13  1  0.942445  0.838897  0.494901  1
  Al  Al14  1  0.397261  0.157289  0.997909  1
  Al  Al15  1  0.724222  0.161103  0.994902  1
  Fe  Fe16  1  0.053757  0.489706  0.800562  1
  Fe  Fe17  1  0.388032  0.485788  0.803933  1
  Fe  Fe18  1  0.725336  0.480706  0.803202  1
  Fe  Fe19  1  0.278635  0.514212  0.303933  1
  Fe  Fe20  1  0.612910  0.510294  0.300562  1
  Fe  Fe21  1  0.941331  0.519294  0.303202  1
  Fe  Fe22  1  0.112909  0.989707  0.300562  1
  Fe  Fe23  1  0.441331  0.980707  0.303202  1
  Fe  Fe24  1  0.778635  0.985789  0.303933  1
  Fe  Fe25  1  0.225335  0.019294  0.803202  1
  Fe  Fe26  1  0.553757  0.010294  0.800562  1
  Fe  Fe27  1  0.888031  0.014212  0.803933  1
  Fe  Fe28  1  0.228337  0.347308  0.569529  1
  Fe  Fe29  1  0.559557  0.348080  0.585898  1
  Fe  Fe30  1  0.892803  0.346492  0.572131  1
  Fe  Fe31  1  0.107110  0.651920  0.085898  1
  Fe  Fe32  1  0.438330  0.652692  0.069529  1
  Fe  Fe33  1  0.773863  0.653508  0.072131  1
  Fe  Fe34  1  0.273863  0.846492  0.072131  1
  Fe  Fe35  1  0.607109  0.848080  0.085898  1
  Fe  Fe36  1  0.938329  0.847308  0.069529  1
  Fe  Fe37  1  0.059557  0.151920  0.585898  1
  Fe  Fe38  1  0.392803  0.153508  0.572131  1
  Fe  Fe39  1  0.728337  0.152692  0.569529  1
  O  O40  1  0.337556  0.326576  0.942656  1
  O  O41  1  0.675675  0.335395  0.924771  1
  O  O42  1  0.004162  0.353338  0.924040  1
  O  O43  1  0.990992  0.664605  0.424771  1
  O  O44  1  0.329111  0.673424  0.442656  1
  O  O45  1  0.662505  0.646662  0.424040  1
  O  O46  1  0.162505  0.853338  0.424040  1
  O  O47  1  0.490992  0.835395  0.424771  1
  O  O48  1  0.829111  0.826576  0.442656  1
  O  O49  1  0.175675  0.164605  0.924771  1
  O  O50  1  0.504162  0.146662  0.924040  1
  O  O51  1  0.837556  0.173424  0.942656  1
  O  O52  1  0.116156  0.336071  0.675150  1
  O  O53  1  0.444059  0.324398  0.678368  1
  O  O54  1  0.780673  0.329847  0.669308  1
  O  O55  1  0.222608  0.675602  0.178368  1
  O  O56  1  0.550511  0.663929  0.175150  1
  O  O57  1  0.885994  0.670153  0.169308  1
  O  O58  1  0.050511  0.836071  0.175150  1
  O  O59  1  0.385994  0.829847  0.169308  1
  O  O60  1  0.722608  0.824398  0.178368  1
  O  O61  1  0.280673  0.170153  0.669308  1
  O  O62  1  0.616156  0.163929  0.675150  1
  O  O63  1  0.944059  0.175602  0.678368  1
  O  O64  1  0.211759  0.351729  0.183935  1
  O  O65  1  0.554691  0.334789  0.214279  1
  O  O66  1  0.902758  0.336548  0.190357  1
  O  O67  1  0.111975  0.665211  0.714278  1
  O  O68  1  0.454908  0.648271  0.683934  1
  O  O69  1  0.763909  0.663452  0.690356  1
  O  O70  1  0.263909  0.836548  0.690356  1
  O  O71  1  0.611975  0.834789  0.714278  1
  O  O72  1  0.954908  0.851729  0.683934  1
  O  O73  1  0.054691  0.165211  0.214279  1
  O  O74  1  0.402758  0.163452  0.190357  1
  O  O75  1  0.711759  0.148271  0.183935  1
  O  O76  1  0.054333  0.494090  0.206439  1
  O  O77  1  0.387839  0.494927  0.201870  1
  O  O78  1  0.714868  0.501811  0.186165  1
  O  O79  1  0.278828  0.505074  0.701870  1
  O  O80  1  0.612333  0.505911  0.706439  1
  O  O81  1  0.951799  0.498190  0.686165  1
  O  O82  1  0.112333  0.994090  0.706439  1
  O  O83  1  0.451799  0.001811  0.686165  1
  O  O84  1  0.778828  0.994927  0.701870  1
  O  O85  1  0.214868  0.998190  0.186165  1
  O  O86  1  0.554333  0.005911  0.206439  1
  O  O87  1  0.887839  0.005074  0.201870  1
  O  O88  1  0.335659  0.340469  0.433299  1
  O  O89  1  0.651526  0.318355  0.435021  1
  O  O90  1  0.989295  0.320759  0.428135  1
  O  O91  1  0.015140  0.681645  0.935020  1
  O  O92  1  0.331007  0.659531  0.933298  1
  O  O93  1  0.677372  0.679241  0.928134  1
  O  O94  1  0.177372  0.820759  0.928134  1
  O  O95  1  0.515140  0.818355  0.935020  1
  O  O96  1  0.831007  0.840469  0.933298  1
  O  O97  1  0.151526  0.181645  0.435021  1
  O  O98  1  0.489295  0.179241  0.428135  1
  O  O99  1  0.835659  0.159531  0.433299  1
  O  O100  1  0.343451  0.998578  0.443242  1
  O  O101  1  0.676405  0.022424  0.424226  1
  O  O102  1  0.000905  0.008844  0.428684  1
  O  O103  1  0.165762  0.508844  0.928684  1
  O  O104  1  0.490262  0.522424  0.924226  1
  O  O105  1  0.823216  0.498578  0.943242  1
  O  O106  1  0.990262  0.977576  0.924226  1
  O  O107  1  0.323215  0.001422  0.943242  1
  O  O108  1  0.665762  0.991156  0.928684  1
  O  O109  1  0.176405  0.477576  0.424226  1
  O  O110  1  0.500905  0.491156  0.428684  1
  O  O111  1  0.843451  0.501422  0.443242  1
