# generated using pymatgen
data_Ti2ZnO4
_symmetry_space_group_name_H-M   'P 1'
_cell_length_a   5.03588128
_cell_length_b   5.86718102
_cell_length_c   10.57480769
_cell_angle_alpha   90.00212537
_cell_angle_beta   90.00193139
_cell_angle_gamma   90.00760722
_symmetry_Int_Tables_number   1
_chemical_formula_structural   Ti2ZnO4
_chemical_formula_sum   'Ti8 Zn4 O16'
_cell_volume   312.44778141
_cell_formula_units_Z   4
loop_
 _symmetry_equiv_pos_site_id
 _symmetry_equiv_pos_as_xyz
  1  'x, y, z'
loop_
 _atom_site_type_symbol
 _atom_site_label
 _atom_site_symmetry_multiplicity
 _atom_site_fract_x
 _atom_site_fract_y
 _atom_site_fract_z
 _atom_site_occupancy
  Ti  Ti0  1  0.530137  0.750019  0.488660  1
  Ti  Ti1  1  0.528995  0.749952  0.011460  1
  Ti  Ti2  1  0.469752  0.249983  0.511272  1
  Ti  Ti3  1  0.470650  0.250046  0.988531  1
  Ti  Ti4  1  0.000002  0.499987  0.500000  1
  Ti  Ti5  1  0.000511  0.000451  0.000038  1
  Ti  Ti6  1  -0.000004  0.000010  0.499998  1
  Ti  Ti7  1  0.000518  0.499549  0.000036  1
  Zn  Zn8  1  0.844413  0.249965  0.749942  1
  Zn  Zn9  1  0.155513  0.750034  0.250002  1
  Zn  Zn10  1  0.535653  0.249943  0.250095  1
  Zn  Zn11  1  0.464355  0.750059  0.749989  1
  O  O12  1  0.862377  0.749834  0.384329  1
  O  O13  1  0.861781  0.749942  0.114926  1
  O  O14  1  0.137666  0.250162  0.615441  1
  O  O15  1  0.137667  0.250055  0.884426  1
  O  O16  1  0.185239  0.750105  0.599634  1
  O  O17  1  0.185402  0.750043  0.900369  1
  O  O18  1  0.814648  0.249892  0.400387  1
  O  O19  1  0.814815  0.249958  0.099804  1
  O  O20  1  0.660849  0.498878  0.614959  1
  O  O21  1  0.661044  0.000874  0.885215  1
  O  O22  1  0.339120  0.998660  0.385031  1
  O  O23  1  0.338892  0.501186  0.115069  1
  O  O24  1  0.339155  0.501064  0.385136  1
  O  O25  1  0.338912  0.998776  0.115017  1
  O  O26  1  0.660877  0.001401  0.615068  1
  O  O27  1  0.661061  0.499172  0.885165  1
