# generated using pymatgen
data_Ca2AlCuO5
_symmetry_space_group_name_H-M   'P 1'
_cell_length_a   5.27517740
_cell_length_b   5.62504897
_cell_length_c   8.29605697
_cell_angle_alpha   109.76628349
_cell_angle_beta   108.46061516
_cell_angle_gamma   90.01610853
_symmetry_Int_Tables_number   1
_chemical_formula_structural   Ca2AlCuO5
_chemical_formula_sum   'Ca4 Al2 Cu2 O10'
_cell_volume   218.14914569
_cell_formula_units_Z   2
loop_
 _symmetry_equiv_pos_site_id
 _symmetry_equiv_pos_as_xyz
  1  'x, y, z'
loop_
 _atom_site_type_symbol
 _atom_site_label
 _atom_site_symmetry_multiplicity
 _atom_site_fract_x
 _atom_site_fract_y
 _atom_site_fract_z
 _atom_site_occupancy
  Ca  Ca0  1  0.115144  0.637660  0.214881  1
  Ca  Ca1  1  0.401055  0.923594  0.780625  1
  Ca  Ca2  1  0.901139  0.361709  0.781367  1
  Ca  Ca3  1  0.619405  0.077914  0.216293  1
  Al  Al4  1  0.287765  0.327952  0.498873  1
  Al  Al5  1  0.787062  0.673801  0.498200  1
  Cu  Cu6  1  0.496518  0.499664  0.998189  1
  Cu  Cu7  1  0.997371  0.999365  0.997870  1
  O  O8  1  0.623267  0.394064  0.500051  1
  O  O9  1  0.122099  0.607746  0.498427  1
  O  O10  1  0.611569  0.719759  0.293013  1
  O  O11  1  0.312264  0.279037  0.702510  1
  O  O12  1  0.112914  0.074677  0.296189  1
  O  O13  1  0.812995  0.927904  0.699886  1
  O  O14  1  0.231491  0.736251  0.965282  1
  O  O15  1  0.269070  0.259058  0.031537  1
  O  O16  1  0.767177  0.270324  0.028872  1
  O  O17  1  0.732216  0.731058  0.966057  1
