# generated using pymatgen
data_ZnAs2WO7
_symmetry_space_group_name_H-M   'P 1'
_cell_length_a   8.59270232
_cell_length_b   9.12170748
_cell_length_c   10.73884640
_cell_angle_alpha   90.00000000
_cell_angle_beta   126.47538152
_cell_angle_gamma   90.00000000
_symmetry_Int_Tables_number   1
_chemical_formula_structural   ZnAs2WO7
_chemical_formula_sum   'Zn4 As8 W4 O28'
_cell_volume   676.83105805
_cell_formula_units_Z   4
loop_
 _symmetry_equiv_pos_site_id
 _symmetry_equiv_pos_as_xyz
  1  'x, y, z'
loop_
 _atom_site_type_symbol
 _atom_site_label
 _atom_site_symmetry_multiplicity
 _atom_site_fract_x
 _atom_site_fract_y
 _atom_site_fract_z
 _atom_site_occupancy
  Zn  Zn0  1  0.307273  0.946914  0.869666  1
  Zn  Zn1  1  0.692727  0.446914  0.630334  1
  Zn  Zn2  1  0.692727  0.053086  0.130334  1
  Zn  Zn3  1  0.307273  0.553086  0.369666  1
  As  As4  1  0.490284  0.228609  0.779899  1
  As  As5  1  0.509716  0.728609  0.720101  1
  As  As6  1  0.509716  0.771391  0.220101  1
  As  As7  1  0.490284  0.271391  0.279898  1
  As  As8  1  0.055201  0.328297  0.972246  1
  As  As9  1  0.944799  0.828297  0.527754  1
  As  As10  1  0.944799  0.671703  0.027754  1
  As  As11  1  0.055201  0.171703  0.472246  1
  W  W12  1  0.825649  0.086642  0.700283  1
  W  W13  1  0.174351  0.586642  0.799717  1
  W  W14  1  0.174351  0.913358  0.299717  1
  W  W15  1  0.825649  0.413358  0.200283  1
  O  O16  1  0.744065  0.325767  0.022145  1
  O  O17  1  0.255935  0.825767  0.477855  1
  O  O18  1  0.255935  0.674233  0.977855  1
  O  O19  1  0.744065  0.174233  0.522145  1
  O  O20  1  0.296418  0.426023  0.809698  1
  O  O21  1  0.703582  0.926023  0.690302  1
  O  O22  1  0.703582  0.573977  0.190302  1
  O  O23  1  0.296418  0.073977  0.309698  1
  O  O24  1  0.523928  0.069646  0.899044  1
  O  O25  1  0.476072  0.569646  0.600956  1
  O  O26  1  0.476072  0.930354  0.100956  1
  O  O27  1  0.523928  0.430354  0.399044  1
  O  O28  1  0.306660  0.125297  0.593591  1
  O  O29  1  0.693340  0.625297  0.906409  1
  O  O30  1  0.693340  0.874703  0.406409  1
  O  O31  1  0.306660  0.374703  0.093591  1
  O  O32  1  0.973058  0.044095  0.302338  1
  O  O33  1  0.026942  0.544095  0.197662  1
  O  O34  1  0.026942  0.955905  0.697662  1
  O  O35  1  0.973058  0.455905  0.802338  1
  O  O36  1  0.691705  0.273283  0.244975  1
  O  O37  1  0.308295  0.773283  0.255025  1
  O  O38  1  0.308295  0.726717  0.755025  1
  O  O39  1  0.691705  0.226717  0.744975  1
  O  O40  1  0.070624  0.341942  0.386506  1
  O  O41  1  0.929376  0.841942  0.113494  1
  O  O42  1  0.929376  0.658058  0.613494  1
  O  O43  1  0.070624  0.158058  0.886506  1
