# generated using pymatgen
data_Ti2ZnO4
_symmetry_space_group_name_H-M   'P 1'
_cell_length_a   2.92296113
_cell_length_b   10.13878809
_cell_length_c   9.60948531
_cell_angle_alpha   90.01734655
_cell_angle_beta   89.99047082
_cell_angle_gamma   90.00827827
_symmetry_Int_Tables_number   1
_chemical_formula_structural   Ti2ZnO4
_chemical_formula_sum   'Ti8 Zn4 O16'
_cell_volume   284.77980113
_cell_formula_units_Z   4
loop_
 _symmetry_equiv_pos_site_id
 _symmetry_equiv_pos_as_xyz
  1  'x, y, z'
loop_
 _atom_site_type_symbol
 _atom_site_label
 _atom_site_symmetry_multiplicity
 _atom_site_fract_x
 _atom_site_fract_y
 _atom_site_fract_z
 _atom_site_occupancy
  Ti  Ti0  1  0.759634  0.569731  0.376242  1
  Ti  Ti1  1  0.759552  0.069759  0.123635  1
  Ti  Ti2  1  0.240560  0.069876  0.623802  1
  Ti  Ti3  1  0.759542  0.430252  0.123936  1
  Ti  Ti4  1  0.240368  0.430205  0.623599  1
  Ti  Ti5  1  0.759481  0.930177  0.376143  1
  Ti  Ti6  1  0.240502  0.930189  0.876374  1
  Ti  Ti7  1  0.240415  0.569919  0.876259  1
  Zn  Zn8  1  0.279023  0.749831  0.130105  1
  Zn  Zn9  1  0.278411  0.249962  0.370062  1
  Zn  Zn10  1  0.721611  0.750134  0.629921  1
  Zn  Zn11  1  0.720956  0.250036  0.869908  1
  O  O12  1  0.256327  0.886043  0.523673  1
  O  O13  1  0.743643  0.114018  0.476320  1
  O  O14  1  0.258937  0.000031  0.250052  1
  O  O15  1  0.743386  0.885975  0.023635  1
  O  O16  1  0.743458  0.613840  0.023531  1
  O  O17  1  0.777069  0.249992  0.215297  1
  O  O18  1  0.256648  0.113952  0.976362  1
  O  O19  1  0.222387  0.249992  0.715339  1
  O  O20  1  0.259010  0.500076  0.250013  1
  O  O21  1  0.741048  0.999935  0.749951  1
  O  O22  1  0.256599  0.614134  0.523850  1
  O  O23  1  0.222914  0.749999  0.784687  1
  O  O24  1  0.777543  0.750008  0.284697  1
  O  O25  1  0.740997  0.499897  0.749958  1
  O  O26  1  0.256547  0.386077  0.976387  1
  O  O27  1  0.743432  0.385958  0.476264  1
