# generated using pymatgen
data_HoMgTi2O6
_symmetry_space_group_name_H-M   'P 1'
_cell_length_a   5.24370457
_cell_length_b   5.48621561
_cell_length_c   7.61290839
_cell_angle_alpha   90.00058534
_cell_angle_beta   90.00041119
_cell_angle_gamma   89.97783687
_symmetry_Int_Tables_number   1
_chemical_formula_structural   HoMgTi2O6
_chemical_formula_sum   'Ho2 Mg2 Ti4 O12'
_cell_volume   219.00884679
_cell_formula_units_Z   2
loop_
 _symmetry_equiv_pos_site_id
 _symmetry_equiv_pos_as_xyz
  1  'x, y, z'
loop_
 _atom_site_type_symbol
 _atom_site_label
 _atom_site_symmetry_multiplicity
 _atom_site_fract_x
 _atom_site_fract_y
 _atom_site_fract_z
 _atom_site_occupancy
  Ho  Ho0  1  0.015908  0.931377  0.749964  1
  Ho  Ho1  1  0.515746  0.568622  0.250035  1
  Mg  Mg2  1  0.488222  0.450208  0.749990  1
  Mg  Mg3  1  0.988199  0.049888  0.250002  1
  Ti  Ti4  1  0.001204  0.491591  0.999707  1
  Ti  Ti5  1  0.001252  0.491590  0.500266  1
  Ti  Ti6  1  0.501378  0.008364  0.499685  1
  Ti  Ti7  1  0.501341  0.008364  0.000337  1
  O  O8  1  0.107588  0.445175  0.249962  1
  O  O9  1  0.192560  0.197829  0.939316  1
  O  O10  1  0.192661  0.197799  0.560698  1
  O  O11  1  0.314359  0.691027  0.938248  1
  O  O12  1  0.314449  0.691031  0.561707  1
  O  O13  1  0.371743  0.961680  0.250016  1
  O  O14  1  0.607693  0.054779  0.750003  1
  O  O15  1  0.692561  0.302219  0.439241  1
  O  O16  1  0.692539  0.302277  0.060755  1
  O  O17  1  0.814370  0.808862  0.061608  1
  O  O18  1  0.814386  0.808905  0.438435  1
  O  O19  1  0.871841  0.538415  0.750026  1
