# generated using pymatgen
data_PrV2ZnO6
_symmetry_space_group_name_H-M   'P 1'
_cell_length_a   5.38430831
_cell_length_b   5.56871005
_cell_length_c   7.70849617
_cell_angle_alpha   89.99995009
_cell_angle_beta   90.07356708
_cell_angle_gamma   90.00195686
_symmetry_Int_Tables_number   1
_chemical_formula_structural   PrV2ZnO6
_chemical_formula_sum   'Pr2 V4 Zn2 O12'
_cell_volume   231.12867470
_cell_formula_units_Z   2
loop_
 _symmetry_equiv_pos_site_id
 _symmetry_equiv_pos_as_xyz
  1  'x, y, z'
loop_
 _atom_site_type_symbol
 _atom_site_label
 _atom_site_symmetry_multiplicity
 _atom_site_fract_x
 _atom_site_fract_y
 _atom_site_fract_z
 _atom_site_occupancy
  Pr  Pr0  1  0.011793  0.945790  0.749352  1
  Pr  Pr1  1  0.511842  0.554214  0.249367  1
  V  V2  1  0.000375  0.484133  0.001603  1
  V  V3  1  0.998219  0.476270  0.499630  1
  V  V4  1  0.500394  0.015848  0.501594  1
  V  V5  1  0.498176  0.023696  0.999631  1
  Zn  Zn6  1  0.502812  0.536951  0.749150  1
  Zn  Zn7  1  0.002785  0.963109  0.249136  1
  O  O8  1  0.085440  0.480326  0.251553  1
  O  O9  1  0.207490  0.208347  0.948051  1
  O  O10  1  0.197452  0.225654  0.549178  1
  O  O11  1  0.307128  0.697643  0.556190  1
  O  O12  1  0.318669  0.704491  0.946106  1
  O  O13  1  0.370637  0.977487  0.249173  1
  O  O14  1  0.585411  0.019643  0.751548  1
  O  O15  1  0.697432  0.274306  0.049191  1
  O  O16  1  0.707455  0.291674  0.448100  1
  O  O17  1  0.807143  0.802363  0.056177  1
  O  O18  1  0.818687  0.795540  0.446093  1
  O  O19  1  0.870655  0.522514  0.749179  1
