# generated using pymatgen
data_Mg(MoO2)2
_symmetry_space_group_name_H-M   'P 1'
_cell_length_a   5.51460817
_cell_length_b   6.37380552
_cell_length_c   10.54999448
_cell_angle_alpha   89.71482689
_cell_angle_beta   89.92530089
_cell_angle_gamma   89.95930371
_symmetry_Int_Tables_number   1
_chemical_formula_structural   Mg(MoO2)2
_chemical_formula_sum   'Mg4 Mo8 O16'
_cell_volume   370.81717780
_cell_formula_units_Z   4
loop_
 _symmetry_equiv_pos_site_id
 _symmetry_equiv_pos_as_xyz
  1  'x, y, z'
loop_
 _atom_site_type_symbol
 _atom_site_label
 _atom_site_symmetry_multiplicity
 _atom_site_fract_x
 _atom_site_fract_y
 _atom_site_fract_z
 _atom_site_occupancy
  Mg  Mg0  1  0.858721  0.252701  0.750496  1
  Mg  Mg1  1  0.141330  0.748741  0.250004  1
  Mg  Mg2  1  0.533667  0.248395  0.250085  1
  Mg  Mg3  1  0.467908  0.748458  0.749752  1
  Mo  Mo4  1  0.519037  0.749507  0.479614  1
  Mo  Mo5  1  0.518182  0.750564  0.019932  1
  Mo  Mo6  1  0.481490  0.249203  0.520196  1
  Mo  Mo7  1  0.480952  0.250707  0.979847  1
  Mo  Mo8  1  0.000101  0.500441  0.500859  1
  Mo  Mo9  1  0.999463  0.000253  0.999757  1
  Mo  Mo10  1  0.000547  0.000347  0.499444  1
  Mo  Mo11  1  0.999682  0.500379  0.000390  1
  O  O12  1  0.873309  0.750232  0.385058  1
  O  O13  1  0.871731  0.749781  0.115112  1
  O  O14  1  0.127443  0.248562  0.615300  1
  O  O15  1  0.127424  0.251457  0.885078  1
  O  O16  1  0.206551  0.750247  0.598296  1
  O  O17  1  0.205971  0.750447  0.901674  1
  O  O18  1  0.794254  0.251637  0.401786  1
  O  O19  1  0.792925  0.249460  0.098362  1
  O  O20  1  0.664462  0.503941  0.615883  1
  O  O21  1  0.665277  0.995674  0.884887  1
  O  O22  1  0.336564  0.006391  0.384333  1
  O  O23  1  0.334405  0.493954  0.114967  1
  O  O24  1  0.333758  0.493658  0.386235  1
  O  O25  1  0.333962  0.006272  0.113927  1
  O  O26  1  0.665564  0.990841  0.613101  1
  O  O27  1  0.665321  0.507752  0.885625  1
