# generated using pymatgen
data_ZnSn3P3O13
_symmetry_space_group_name_H-M   'P 1'
_cell_length_a   6.60013845
_cell_length_b   8.25530600
_cell_length_c   11.07160567
_cell_angle_alpha   94.64640394
_cell_angle_beta   90.00000000
_cell_angle_gamma   90.00000000
_symmetry_Int_Tables_number   1
_chemical_formula_structural   ZnSn3P3O13
_chemical_formula_sum   'Zn2 Sn6 P6 O26'
_cell_volume   601.26678680
_cell_formula_units_Z   2
loop_
 _symmetry_equiv_pos_site_id
 _symmetry_equiv_pos_as_xyz
  1  'x, y, z'
loop_
 _atom_site_type_symbol
 _atom_site_label
 _atom_site_symmetry_multiplicity
 _atom_site_fract_x
 _atom_site_fract_y
 _atom_site_fract_z
 _atom_site_occupancy
  Zn  Zn0  1  0.750000  0.588659  0.128508  1
  Zn  Zn1  1  0.250000  0.411341  0.871492  1
  Sn  Sn2  1  0.250000  0.344541  0.222626  1
  Sn  Sn3  1  0.750000  0.655459  0.777374  1
  Sn  Sn4  1  0.250000  0.785690  0.444794  1
  Sn  Sn5  1  0.500000  0.000000  -0.000000  1
  Sn  Sn6  1  0.750000  0.214310  0.555206  1
  Sn  Sn7  1  0.000000  0.000000  -0.000000  1
  P  P8  1  0.250000  0.211421  0.502457  1
  P  P9  1  0.750000  0.788579  0.497543  1
  P  P10  1  0.250000  0.724799  0.763461  1
  P  P11  1  0.750000  0.275201  0.236539  1
  P  P12  1  0.750000  0.346530  0.875566  1
  P  P13  1  0.250000  0.653470  0.124434  1
  O  O14  1  0.750000  0.400892  0.741843  1
  O  O15  1  0.566999  0.758057  0.410217  1
  O  O16  1  0.250000  0.788377  0.637342  1
  O  O17  1  0.546190  0.259232  0.895683  1
  O  O18  1  0.750000  0.658545  0.592822  1
  O  O19  1  0.750000  0.864191  0.873800  1
  O  O20  1  0.250000  0.341455  0.407178  1
  O  O21  1  0.046190  0.740768  0.104317  1
  O  O22  1  0.250000  0.041068  0.433044  1
  O  O23  1  0.750000  0.958932  0.566956  1
  O  O24  1  0.070416  0.602753  0.783967  1
  O  O25  1  0.250000  0.135809  0.126200  1
  O  O26  1  0.570416  0.397247  0.216033  1
  O  O27  1  0.750000  0.518584  0.951860  1
  O  O28  1  0.750000  0.211623  0.362658  1
  O  O29  1  0.453810  0.740768  0.104317  1
  O  O30  1  0.933001  0.758057  0.410217  1
  O  O31  1  0.433001  0.241943  0.589783  1
  O  O32  1  0.429584  0.602753  0.783967  1
  O  O33  1  0.250000  0.599108  0.258157  1
  O  O34  1  0.750000  0.130337  0.141194  1
  O  O35  1  0.250000  0.869663  0.858806  1
  O  O36  1  0.929584  0.397247  0.216033  1
  O  O37  1  0.953810  0.259232  0.895683  1
  O  O38  1  0.066999  0.241943  0.589783  1
  O  O39  1  0.250000  0.481416  0.048140  1
