# generated using pymatgen
data_CaAgAsO5
_symmetry_space_group_name_H-M   'P 1'
_cell_length_a   7.60872222
_cell_length_b   6.01956607
_cell_length_c   9.86286597
_cell_angle_alpha   89.99797364
_cell_angle_beta   89.99652382
_cell_angle_gamma   90.00959608
_symmetry_Int_Tables_number   1
_chemical_formula_structural   CaAgAsO5
_chemical_formula_sum   'Ca4 Ag4 As4 O20'
_cell_volume   451.73115015
_cell_formula_units_Z   4
loop_
 _symmetry_equiv_pos_site_id
 _symmetry_equiv_pos_as_xyz
  1  'x, y, z'
loop_
 _atom_site_type_symbol
 _atom_site_label
 _atom_site_symmetry_multiplicity
 _atom_site_fract_x
 _atom_site_fract_y
 _atom_site_fract_z
 _atom_site_occupancy
  Ca  Ca0  1  0.927358  0.755279  0.083766  1
  Ca  Ca1  1  0.573112  0.244757  0.583430  1
  Ca  Ca2  1  0.427359  0.744664  0.916152  1
  Ca  Ca3  1  0.073082  0.255248  0.416489  1
  Ag  Ag4  1  0.000697  0.502609  0.750409  1
  Ag  Ag5  1  0.498876  0.497523  0.250226  1
  Ag  Ag6  1  0.500662  0.997347  0.249554  1
  Ag  Ag7  1  0.998911  0.002518  0.749738  1
  As  As8  1  0.643190  0.278621  0.916500  1
  As  As9  1  0.856684  0.721171  0.416496  1
  As  As10  1  0.143220  0.221426  0.083542  1
  As  As11  1  0.356732  0.778802  0.583539  1
  O  O12  1  0.806540  0.251035  0.782181  1
  O  O13  1  0.693379  0.748932  0.282076  1
  O  O14  1  0.306564  0.248937  0.217816  1
  O  O15  1  0.193352  0.751101  0.717933  1
  O  O16  1  0.472754  0.361837  0.816207  1
  O  O17  1  0.027599  0.638081  0.316273  1
  O  O18  1  0.972755  0.138173  0.183814  1
  O  O19  1  0.527553  0.861924  0.683730  1
  O  O20  1  0.629886  0.024342  0.992358  1
  O  O21  1  0.870360  0.975595  0.492354  1
  O  O22  1  0.129958  0.475650  0.007685  1
  O  O23  1  0.370333  0.524416  0.507662  1
  O  O24  1  0.686503  0.496622  0.022274  1
  O  O25  1  0.813621  0.503493  0.522160  1
  O  O26  1  0.186503  0.003351  0.977752  1
  O  O27  1  0.313634  0.996538  0.477841  1
  O  O28  1  0.876659  0.753649  0.845700  1
  O  O29  1  0.622757  0.246393  0.345450  1
  O  O30  1  0.376499  0.746348  0.154333  1
  O  O31  1  0.122908  0.253620  0.654560  1
