# generated using pymatgen
data_Mg(AgO2)2
_symmetry_space_group_name_H-M   'P 1'
_cell_length_a   3.09849837
_cell_length_b   5.53002088
_cell_length_c   9.88214347
_cell_angle_alpha   90.00000000
_cell_angle_beta   90.00000000
_cell_angle_gamma   106.26930675
_symmetry_Int_Tables_number   1
_chemical_formula_structural   Mg(AgO2)2
_chemical_formula_sum   'Mg2 Ag4 O8'
_cell_volume   162.54750301
_cell_formula_units_Z   2
loop_
 _symmetry_equiv_pos_site_id
 _symmetry_equiv_pos_as_xyz
  1  'x, y, z'
loop_
 _atom_site_type_symbol
 _atom_site_label
 _atom_site_symmetry_multiplicity
 _atom_site_fract_x
 _atom_site_fract_y
 _atom_site_fract_z
 _atom_site_occupancy
  Mg  Mg0  1  0.390629  0.781258  0.750000  1
  Mg  Mg1  1  0.609371  0.218742  0.250000  1
  Ag  Ag2  1  0.868609  0.737219  0.072826  1
  Ag  Ag3  1  0.131391  0.262781  0.927174  1
  Ag  Ag4  1  0.868609  0.737219  0.427174  1
  Ag  Ag5  1  0.131391  0.262781  0.572826  1
  O  O6  1  0.210968  0.421936  0.378518  1
  O  O7  1  0.789032  0.578064  0.621482  1
  O  O8  1  0.789032  0.578064  0.878518  1
  O  O9  1  0.210968  0.421936  0.121482  1
  O  O10  1  0.974888  0.949777  0.250000  1
  O  O11  1  0.025112  0.050223  0.750000  1
  O  O12  1  0.500000  -0.000000  -0.000000  1
  O  O13  1  0.500000  -0.000000  0.500000  1
