# generated using pymatgen
data_MnZn(GeO3)2
_symmetry_space_group_name_H-M   'P 1'
_cell_length_a   5.52608847
_cell_length_b   9.48918791
_cell_length_c   9.87793056
_cell_angle_alpha   90.00000000
_cell_angle_beta   102.30637658
_cell_angle_gamma   90.00000000
_symmetry_Int_Tables_number   1
_chemical_formula_structural   MnZn(GeO3)2
_chemical_formula_sum   'Mn4 Zn4 Ge8 O24'
_cell_volume   506.07761716
_cell_formula_units_Z   4
loop_
 _symmetry_equiv_pos_site_id
 _symmetry_equiv_pos_as_xyz
  1  'x, y, z'
loop_
 _atom_site_type_symbol
 _atom_site_label
 _atom_site_symmetry_multiplicity
 _atom_site_fract_x
 _atom_site_fract_y
 _atom_site_fract_z
 _atom_site_occupancy
  Mn  Mn0  1  0.963163  0.650339  0.244427  1
  Mn  Mn1  1  0.536837  0.150339  0.755573  1
  Mn  Mn2  1  0.036837  0.349661  0.755573  1
  Mn  Mn3  1  0.463163  0.849661  0.244427  1
  Zn  Zn4  1  0.455187  0.498366  0.245669  1
  Zn  Zn5  1  0.044813  0.998366  0.754331  1
  Zn  Zn6  1  0.544813  0.501634  0.754331  1
  Zn  Zn7  1  0.955187  0.001634  0.245669  1
  Ge  Ge8  1  0.810216  0.335086  0.057483  1
  Ge  Ge9  1  0.689784  0.835086  0.942517  1
  Ge  Ge10  1  0.189784  0.664914  0.942517  1
  Ge  Ge11  1  0.310216  0.164914  0.057483  1
  Ge  Ge12  1  0.249742  0.340350  0.455231  1
  Ge  Ge13  1  0.250258  0.840350  0.544769  1
  Ge  Ge14  1  0.750258  0.659650  0.544769  1
  Ge  Ge15  1  0.749742  0.159650  0.455231  1
  O  O16  1  0.502188  0.276357  0.385758  1
  O  O17  1  0.997812  0.776357  0.614242  1
  O  O18  1  0.497812  0.723643  0.614242  1
  O  O19  1  0.002188  0.223643  0.385758  1
  O  O20  1  0.144452  0.315245  0.106103  1
  O  O21  1  0.355548  0.815245  0.893898  1
  O  O22  1  0.855548  0.684755  0.893898  1
  O  O23  1  0.644452  0.184755  0.106103  1
  O  O24  1  0.714209  0.996200  0.371282  1
  O  O25  1  0.785791  0.496200  0.628718  1
  O  O26  1  0.285791  0.003800  0.628718  1
  O  O27  1  0.214209  0.503800  0.371282  1
  O  O28  1  0.223931  0.019554  0.143701  1
  O  O29  1  0.276069  0.519554  0.856299  1
  O  O30  1  0.776069  0.980446  0.856299  1
  O  O31  1  0.723931  0.480446  0.143701  1
  O  O32  1  0.746585  0.340210  0.874139  1
  O  O33  1  0.753415  0.840210  0.125861  1
  O  O34  1  0.253415  0.659790  0.125861  1
  O  O35  1  0.246585  0.159790  0.874139  1
  O  O36  1  0.318659  0.338635  0.637415  1
  O  O37  1  0.181341  0.838635  0.362585  1
  O  O38  1  0.681341  0.661365  0.362585  1
  O  O39  1  0.818659  0.161365  0.637415  1
