# generated using pymatgen
data_MgCuP2O7
_symmetry_space_group_name_H-M   'P 1'
_cell_length_a   6.97590543
_cell_length_b   8.27694130
_cell_length_c   9.44941394
_cell_angle_alpha   90.00000000
_cell_angle_beta   113.08717405
_cell_angle_gamma   90.00000000
_symmetry_Int_Tables_number   1
_chemical_formula_structural   MgCuP2O7
_chemical_formula_sum   'Mg4 Cu4 P8 O28'
_cell_volume   501.90363766
_cell_formula_units_Z   4
loop_
 _symmetry_equiv_pos_site_id
 _symmetry_equiv_pos_as_xyz
  1  'x, y, z'
loop_
 _atom_site_type_symbol
 _atom_site_label
 _atom_site_symmetry_multiplicity
 _atom_site_fract_x
 _atom_site_fract_y
 _atom_site_fract_z
 _atom_site_occupancy
  Mg  Mg0  1  0.126354  0.938260  0.816327  1
  Mg  Mg1  1  0.373646  0.438260  0.683673  1
  Mg  Mg2  1  0.626354  0.561740  0.316327  1
  Mg  Mg3  1  0.873646  0.061740  0.183673  1
  Cu  Cu4  1  0.375572  0.069732  0.608915  1
  Cu  Cu5  1  0.624428  0.930268  0.391085  1
  Cu  Cu6  1  0.124428  0.569732  0.891085  1
  Cu  Cu7  1  0.875572  0.430268  0.108915  1
  P  P8  1  0.176017  0.732834  0.243991  1
  P  P9  1  0.437029  0.230213  0.971319  1
  P  P10  1  0.676017  0.767166  0.743991  1
  P  P11  1  0.937029  0.269787  0.471319  1
  P  P12  1  0.323983  0.232834  0.256009  1
  P  P13  1  0.062971  0.730213  0.528681  1
  P  P14  1  0.562971  0.769787  0.028681  1
  P  P15  1  0.823983  0.267166  0.756009  1
  O  O16  1  0.352567  0.182455  0.100309  1
  O  O17  1  0.568582  0.609417  0.685666  1
  O  O18  1  0.068582  0.890583  0.185666  1
  O  O19  1  0.346835  0.393420  0.895024  1
  O  O20  1  0.647433  0.817545  0.899691  1
  O  O21  1  0.412305  0.091318  0.369905  1
  O  O22  1  0.653165  0.606580  0.104976  1
  O  O23  1  0.365570  0.090916  0.858543  1
  O  O24  1  0.178211  0.258480  0.551617  1
  O  O25  1  0.587695  0.908682  0.630095  1
  O  O26  1  0.912305  0.408682  0.869905  1
  O  O27  1  0.914752  0.760446  0.793963  1
  O  O28  1  0.585248  0.260446  0.706037  1
  O  O29  1  0.852567  0.317545  0.600309  1
  O  O30  1  0.087695  0.591318  0.130095  1
  O  O31  1  0.931418  0.109417  0.814334  1
  O  O32  1  0.085248  0.239554  0.206037  1
  O  O33  1  0.634430  0.909084  0.141457  1
  O  O34  1  0.678211  0.241520  0.051617  1
  O  O35  1  0.321789  0.758480  0.948383  1
  O  O36  1  0.153165  0.893420  0.604976  1
  O  O37  1  0.865570  0.409084  0.358543  1
  O  O38  1  0.134430  0.590916  0.641457  1
  O  O39  1  0.431418  0.390583  0.314334  1
  O  O40  1  0.414752  0.739554  0.293963  1
  O  O41  1  0.846835  0.106580  0.395024  1
  O  O42  1  0.821789  0.741520  0.448383  1
  O  O43  1  0.147433  0.682455  0.399691  1
