# generated using pymatgen
data_ZnCuMo2O7
_symmetry_space_group_name_H-M   'P 1'
_cell_length_a   8.58773356
_cell_length_b   10.61254031
_cell_length_c   10.76902556
_cell_angle_alpha   96.47027790
_cell_angle_beta   90.00000000
_cell_angle_gamma   90.00000000
_symmetry_Int_Tables_number   1
_chemical_formula_structural   ZnCuMo2O7
_chemical_formula_sum   'Zn6 Cu6 Mo12 O42'
_cell_volume   975.21239478
_cell_formula_units_Z   6
loop_
 _symmetry_equiv_pos_site_id
 _symmetry_equiv_pos_as_xyz
  1  'x, y, z'
loop_
 _atom_site_type_symbol
 _atom_site_label
 _atom_site_symmetry_multiplicity
 _atom_site_fract_x
 _atom_site_fract_y
 _atom_site_fract_z
 _atom_site_occupancy
  Zn  Zn0  1  0.432228  0.125925  0.570873  1
  Zn  Zn1  1  0.924031  0.500000  0.750000  1
  Zn  Zn2  1  0.432228  0.874075  0.929127  1
  Zn  Zn3  1  0.075969  0.500000  0.250000  1
  Zn  Zn4  1  0.567772  0.874075  0.429127  1
  Zn  Zn5  1  0.567772  0.125925  0.070873  1
  Cu  Cu6  1  0.930505  0.809525  0.408343  1
  Cu  Cu7  1  0.069495  0.190475  0.591657  1
  Cu  Cu8  1  0.437472  0.500000  0.250000  1
  Cu  Cu9  1  0.930505  0.190475  0.091657  1
  Cu  Cu10  1  0.562528  0.500000  0.750000  1
  Cu  Cu11  1  0.069495  0.809525  0.908343  1
  Mo  Mo12  1  0.233070  0.175041  0.287371  1
  Mo  Mo13  1  0.755267  0.151785  0.368550  1
  Mo  Mo14  1  0.244733  0.151785  0.868550  1
  Mo  Mo15  1  0.766930  0.175041  0.787371  1
  Mo  Mo16  1  0.269703  0.491585  0.958784  1
  Mo  Mo17  1  0.755267  0.848215  0.131450  1
  Mo  Mo18  1  0.730297  0.491585  0.458784  1
  Mo  Mo19  1  0.244733  0.848215  0.631450  1
  Mo  Mo20  1  0.269703  0.508415  0.541216  1
  Mo  Mo21  1  0.730297  0.508415  0.041216  1
  Mo  Mo22  1  0.766930  0.824959  0.712629  1
  Mo  Mo23  1  0.233070  0.824959  0.212629  1
  O  O24  1  0.740135  0.201451  0.957257  1
  O  O25  1  0.756614  0.863594  0.306625  1
  O  O26  1  0.820775  0.000000  0.750000  1
  O  O27  1  0.911186  0.484235  0.115119  1
  O  O28  1  0.415741  0.931492  0.566739  1
  O  O29  1  0.918675  0.273521  0.723879  1
  O  O30  1  0.320255  0.322608  0.927410  1
  O  O31  1  0.088814  0.484235  0.615119  1
  O  O32  1  0.740702  0.469303  0.870147  1
  O  O33  1  0.415741  0.068508  0.933261  1
  O  O34  1  0.740702  0.530697  0.629853  1
  O  O35  1  0.421017  0.570365  0.885703  1
  O  O36  1  0.929331  0.861851  0.043407  1
  O  O37  1  0.081325  0.273521  0.223879  1
  O  O38  1  0.679745  0.677392  0.072590  1
  O  O39  1  0.320255  0.677392  0.572590  1
  O  O40  1  0.918675  0.726479  0.776121  1
  O  O41  1  0.584259  0.068508  0.433261  1
  O  O42  1  0.259865  0.201451  0.457257  1
  O  O43  1  0.578983  0.429634  0.114297  1
  O  O44  1  0.408363  0.802995  0.298905  1
  O  O45  1  0.259298  0.530697  0.129853  1
  O  O46  1  0.070669  0.861851  0.543407  1
  O  O47  1  0.259298  0.469303  0.370147  1
  O  O48  1  0.911186  0.515765  0.384881  1
  O  O49  1  0.578983  0.570365  0.385703  1
  O  O50  1  0.088814  0.515765  0.884881  1
  O  O51  1  0.591637  0.802995  0.798905  1
  O  O52  1  0.591637  0.197005  0.701095  1
  O  O53  1  0.070669  0.138149  0.956593  1
  O  O54  1  0.081325  0.726479  0.276121  1
  O  O55  1  0.740135  0.798549  0.542743  1
  O  O56  1  0.179225  0.000000  0.250000  1
  O  O57  1  0.243386  0.863594  0.806625  1
  O  O58  1  0.584259  0.931492  0.066739  1
  O  O59  1  0.929331  0.138149  0.456593  1
  O  O60  1  0.259865  0.798549  0.042743  1
  O  O61  1  0.756614  0.136406  0.193375  1
  O  O62  1  0.421017  0.429634  0.614297  1
  O  O63  1  0.679745  0.322608  0.427410  1
  O  O64  1  0.243386  0.136406  0.693375  1
  O  O65  1  0.408363  0.197005  0.201095  1
