# generated using pymatgen
data_Ca(FeO2)2
_symmetry_space_group_name_H-M   'P 1'
_cell_length_a   3.06535845
_cell_length_b   5.23859248
_cell_length_c   10.13688781
_cell_angle_alpha   90.00000000
_cell_angle_beta   90.00000000
_cell_angle_gamma   107.01215797
_symmetry_Int_Tables_number   1
_chemical_formula_structural   Ca(FeO2)2
_chemical_formula_sum   'Ca2 Fe4 O8'
_cell_volume   155.65699854
_cell_formula_units_Z   2
loop_
 _symmetry_equiv_pos_site_id
 _symmetry_equiv_pos_as_xyz
  1  'x, y, z'
loop_
 _atom_site_type_symbol
 _atom_site_label
 _atom_site_symmetry_multiplicity
 _atom_site_fract_x
 _atom_site_fract_y
 _atom_site_fract_z
 _atom_site_occupancy
  Ca  Ca0  1  0.390225  0.780450  0.750000  1
  Ca  Ca1  1  0.609775  0.219550  0.250000  1
  Fe  Fe2  1  0.864594  0.729190  0.070735  1
  Fe  Fe3  1  0.135406  0.270810  0.929265  1
  Fe  Fe4  1  0.864594  0.729190  0.429265  1
  Fe  Fe5  1  0.135406  0.270810  0.570735  1
  O  O6  1  0.231341  0.462683  0.392169  1
  O  O7  1  0.768659  0.537317  0.607831  1
  O  O8  1  0.768659  0.537317  0.892169  1
  O  O9  1  0.231341  0.462683  0.107831  1
  O  O10  1  0.939767  0.879536  0.250000  1
  O  O11  1  0.060233  0.120464  0.750000  1
  O  O12  1  0.500000  -0.000000  0.000000  1
  O  O13  1  0.500000  -0.000000  0.500000  1
