# generated using pymatgen
data_Ca2Fe3O8
_symmetry_space_group_name_H-M   'P 1'
_cell_length_a   5.09460887
_cell_length_b   6.05202908
_cell_length_c   6.31300581
_cell_angle_alpha   118.64166900
_cell_angle_beta   106.58703719
_cell_angle_gamma   89.99999694
_symmetry_Int_Tables_number   1
_chemical_formula_structural   Ca2Fe3O8
_chemical_formula_sum   'Ca2 Fe3 O8'
_cell_volume   161.53936854
_cell_formula_units_Z   1
loop_
 _symmetry_equiv_pos_site_id
 _symmetry_equiv_pos_as_xyz
  1  'x, y, z'
loop_
 _atom_site_type_symbol
 _atom_site_label
 _atom_site_symmetry_multiplicity
 _atom_site_fract_x
 _atom_site_fract_y
 _atom_site_fract_z
 _atom_site_occupancy
  Ca  Ca0  1  0.662800  0.722476  0.444951  1
  Ca  Ca1  1  0.337199  0.277525  0.555049  1
  Fe  Fe2  1  0.500000  0.999999  0.000000  1
  Fe  Fe3  1  0.999999  0.740351  0.000000  1
  Fe  Fe4  1  0.999999  0.259649  0.000000  1
  O  O5  1  0.029881  0.390378  0.780756  1
  O  O6  1  0.970119  0.609621  0.219244  1
  O  O7  1  0.096888  0.900261  0.800521  1
  O  O8  1  0.903112  0.099738  0.199478  1
  O  O9  1  0.396804  0.320410  0.205936  1
  O  O10  1  0.396804  0.885527  0.205936  1
  O  O11  1  0.603197  0.114472  0.794064  1
  O  O12  1  0.603197  0.679590  0.794064  1
