# generated using pymatgen
data_CaMn4O6
_symmetry_space_group_name_H-M   'P 1'
_cell_length_a   3.16120436
_cell_length_b   5.41022207
_cell_length_c   15.61210849
_cell_angle_alpha   90.00000000
_cell_angle_beta   90.00000000
_cell_angle_gamma   106.98677678
_symmetry_Int_Tables_number   1
_chemical_formula_structural   CaMn4O6
_chemical_formula_sum   'Ca2 Mn8 O12'
_cell_volume   255.36194093
_cell_formula_units_Z   2
loop_
 _symmetry_equiv_pos_site_id
 _symmetry_equiv_pos_as_xyz
  1  'x, y, z'
loop_
 _atom_site_type_symbol
 _atom_site_label
 _atom_site_symmetry_multiplicity
 _atom_site_fract_x
 _atom_site_fract_y
 _atom_site_fract_z
 _atom_site_occupancy
  Ca  Ca0  1  0.661321  0.322643  0.750000  1
  Ca  Ca1  1  0.338679  0.677357  0.250000  1
  Mn  Mn2  1  0.863236  0.726475  0.043192  1
  Mn  Mn3  1  0.407704  0.815407  0.635452  1
  Mn  Mn4  1  0.136762  0.273524  0.956808  1
  Mn  Mn5  1  0.592296  0.184593  0.364549  1
  Mn  Mn6  1  0.863236  0.726475  0.456808  1
  Mn  Mn7  1  0.136762  0.273524  0.543192  1
  Mn  Mn8  1  0.592296  0.184593  0.135451  1
  Mn  Mn9  1  0.407704  0.815407  0.864548  1
  O  O10  1  0.499999  -0.000000  0.500000  1
  O  O11  1  0.499999  -0.000000  0.000000  1
  O  O12  1  0.050581  0.101162  0.846754  1
  O  O13  1  0.949419  0.898838  0.153247  1
  O  O14  1  0.949419  0.898838  0.346753  1
  O  O15  1  0.050581  0.101162  0.653247  1
  O  O16  1  0.778124  0.556249  0.926266  1
  O  O17  1  0.221875  0.443752  0.073734  1
  O  O18  1  0.221875  0.443752  0.426265  1
  O  O19  1  0.778124  0.556249  0.573734  1
  O  O20  1  0.320866  0.641732  0.750000  1
  O  O21  1  0.679132  0.358267  0.250000  1
