# generated using pymatgen
data_CaSbF5
_symmetry_space_group_name_H-M   'P 1'
_cell_length_a   6.15427017
_cell_length_b   8.48660124
_cell_length_c   10.67307809
_cell_angle_alpha   90.00000000
_cell_angle_beta   90.00000000
_cell_angle_gamma   122.05863708
_symmetry_Int_Tables_number   1
_chemical_formula_structural   CaSbF5
_chemical_formula_sum   'Ca4 Sb4 F20'
_cell_volume   472.43544958
_cell_formula_units_Z   4
loop_
 _symmetry_equiv_pos_site_id
 _symmetry_equiv_pos_as_xyz
  1  'x, y, z'
loop_
 _atom_site_type_symbol
 _atom_site_label
 _atom_site_symmetry_multiplicity
 _atom_site_fract_x
 _atom_site_fract_y
 _atom_site_fract_z
 _atom_site_occupancy
  Ca  Ca0  1  0.517202  0.783289  0.018771  1
  Ca  Ca1  1  0.482798  0.716711  0.518771  1
  Ca  Ca2  1  0.482798  0.216711  0.981229  1
  Ca  Ca3  1  0.517202  0.283289  0.481229  1
  Sb  Sb4  1  0.929617  0.656023  0.765751  1
  Sb  Sb5  1  0.070383  0.843977  0.265751  1
  Sb  Sb6  1  0.070383  0.343977  0.234249  1
  Sb  Sb7  1  0.929617  0.156023  0.734249  1
  F  F8  1  0.671271  0.636077  0.906660  1
  F  F9  1  0.328729  0.863923  0.406660  1
  F  F10  1  0.328729  0.363923  0.093340  1
  F  F11  1  0.671271  0.136077  0.593340  1
  F  F12  1  0.643960  0.539221  0.606160  1
  F  F13  1  0.356040  0.960779  0.106160  1
  F  F14  1  0.356040  0.460779  0.393840  1
  F  F15  1  0.643960  0.039221  0.893840  1
  F  F16  1  0.848910  0.848317  0.409405  1
  F  F17  1  0.151090  0.651683  0.909405  1
  F  F18  1  0.151090  0.151683  0.590595  1
  F  F19  1  0.848910  0.348317  0.090595  1
  F  F20  1  0.860247  0.926368  0.150286  1
  F  F21  1  0.139753  0.573632  0.650286  1
  F  F22  1  0.139753  0.073632  0.849714  1
  F  F23  1  0.860247  0.426368  0.349714  1
  F  F24  1  0.721237  0.882437  0.696690  1
  F  F25  1  0.278763  0.617563  0.196690  1
  F  F26  1  0.278763  0.117563  0.303310  1
  F  F27  1  0.721237  0.382437  0.803310  1
