# generated using pymatgen
data_CaLaCrMoO6
_symmetry_space_group_name_H-M   'P 1'
_cell_length_a   5.54132920
_cell_length_b   5.70716676
_cell_length_c   7.90069215
_cell_angle_alpha   90.00000000
_cell_angle_beta   89.51697757
_cell_angle_gamma   90.00000000
_symmetry_Int_Tables_number   1
_chemical_formula_structural   CaLaCrMoO6
_chemical_formula_sum   'Ca2 La2 Cr2 Mo2 O12'
_cell_volume   249.85279996
_cell_formula_units_Z   2
loop_
 _symmetry_equiv_pos_site_id
 _symmetry_equiv_pos_as_xyz
  1  'x, y, z'
loop_
 _atom_site_type_symbol
 _atom_site_label
 _atom_site_symmetry_multiplicity
 _atom_site_fract_x
 _atom_site_fract_y
 _atom_site_fract_z
 _atom_site_occupancy
  Ca  Ca0  1  0.486522  0.454928  0.749160  1
  Ca  Ca1  1  0.986522  0.045072  0.249160  1
  La  La2  1  0.011633  0.961093  0.751456  1
  La  La3  1  0.511633  0.538907  0.251455  1
  Cr  Cr4  1  0.500628  0.999660  0.499140  1
  Cr  Cr5  1  0.000628  0.500340  0.999140  1
  Mo  Mo6  1  0.500107  0.001742  0.000455  1
  Mo  Mo7  1  0.000107  0.498258  0.500455  1
  O  O8  1  0.087322  0.468126  0.247337  1
  O  O9  1  0.206053  0.214977  0.948697  1
  O  O10  1  0.207752  0.204620  0.543918  1
  O  O11  1  0.298073  0.703186  0.954695  1
  O  O12  1  0.296361  0.710677  0.553620  1
  O  O13  1  0.405547  0.971646  0.251522  1
  O  O14  1  0.587322  0.031874  0.747337  1
  O  O15  1  0.706053  0.285023  0.448697  1
  O  O16  1  0.707752  0.295380  0.043918  1
  O  O17  1  0.798073  0.796814  0.454695  1
  O  O18  1  0.796361  0.789323  0.053620  1
  O  O19  1  0.905547  0.528354  0.751522  1
