# generated using pymatgen
data_CaMn2O4
_symmetry_space_group_name_H-M   'P 1'
_cell_length_a   6.36047081
_cell_length_b   6.25345602
_cell_length_c   24.95412767
_cell_angle_alpha   59.92083147
_cell_angle_beta   60.83329853
_cell_angle_gamma   60.55502261
_symmetry_Int_Tables_number   1
_chemical_formula_structural   CaMn2O4
_chemical_formula_sum   'Ca8 Mn16 O32'
_cell_volume   708.66946581
_cell_formula_units_Z   8
loop_
 _symmetry_equiv_pos_site_id
 _symmetry_equiv_pos_as_xyz
  1  'x, y, z'
loop_
 _atom_site_type_symbol
 _atom_site_label
 _atom_site_symmetry_multiplicity
 _atom_site_fract_x
 _atom_site_fract_y
 _atom_site_fract_z
 _atom_site_occupancy
  Ca  Ca0  1  0.157907  0.120464  0.025292  1
  Ca  Ca1  1  0.997131  0.501511  0.124961  1
  Ca  Ca2  1  0.142665  0.114358  0.282154  1
  Ca  Ca3  1  0.002043  0.499459  0.374760  1
  Ca  Ca4  1  -0.000087  0.498679  0.625682  1
  Ca  Ca5  1  0.493870  0.507738  0.497664  1
  Ca  Ca6  1  0.996449  0.498768  0.876504  1
  Ca  Ca7  1  0.505604  0.493103  0.752047  1
  Mn  Mn8  1  0.499357  0.498610  0.124532  1
  Mn  Mn9  1  0.492996  0.504297  0.249602  1
  Mn  Mn10  1  0.499357  0.003903  0.124532  1
  Mn  Mn11  1  0.132950  0.109871  0.536827  1
  Mn  Mn12  1  0.501899  0.497047  0.373092  1
  Mn  Mn13  1  0.846041  0.884694  0.221143  1
  Mn  Mn14  1  0.149163  0.109623  0.782898  1
  Mn  Mn15  1  0.501899  0.008688  0.373092  1
  Mn  Mn16  1  0.500832  0.499953  0.624902  1
  Mn  Mn17  1  0.853495  0.888552  0.467350  1
  Mn  Mn18  1  0.500832  -0.000391  0.624902  1
  Mn  Mn19  1  0.504080  0.992689  0.875402  1
  Mn  Mn20  1  0.504080  0.501624  0.875402  1
  Mn  Mn21  1  0.865437  0.889417  0.713932  1
  Mn  Mn22  1  0.499053  0.495239  0.002618  1
  Mn  Mn23  1  0.850824  0.882938  0.970825  1
  O  O24  1  0.307061  0.252557  0.062938  1
  O  O25  1  0.312344  0.247652  0.173088  1
  O  O26  1  0.307061  0.688633  0.062938  1
  O  O27  1  0.727618  0.276101  0.055045  1
  O  O28  1  0.248896  0.737437  0.194057  1
  O  O29  1  0.312329  0.256577  0.310868  1
  O  O30  1  0.694060  0.296971  0.189140  1
  O  O31  1  0.292563  0.242759  0.430479  1
  O  O32  1  0.312329  0.687621  0.310868  1
  O  O33  1  0.687077  0.756941  0.074760  1
  O  O34  1  0.701259  0.272360  0.313506  1
  O  O35  1  0.694060  0.752409  0.189140  1
  O  O36  1  0.283905  0.219238  0.569890  1
  O  O37  1  0.267107  0.772988  0.421729  1
  O  O38  1  0.723803  0.282982  0.425427  1
  O  O39  1  0.297350  0.241365  0.679980  1
  O  O40  1  0.283905  0.717298  0.569890  1
  O  O41  1  0.698747  0.758626  0.321000  1
  O  O42  1  0.719917  0.247838  0.571102  1
  O  O43  1  0.723803  0.791509  0.425427  1
  O  O44  1  0.280545  0.753227  0.678250  1
  O  O45  1  0.277002  0.208301  0.822925  1
  O  O46  1  0.715893  0.282732  0.679719  1
  O  O47  1  0.323038  0.250101  0.919190  1
  O  O48  1  0.277002  0.722994  0.822925  1
  O  O49  1  0.707303  0.756896  0.569726  1
  O  O50  1  0.765684  0.229065  0.819047  1
  O  O51  1  0.715893  0.782501  0.679719  1
  O  O52  1  0.262289  0.719770  0.949543  1
  O  O53  1  0.691041  0.294914  0.942132  1
  O  O54  1  0.700201  0.753289  0.823305  1
  O  O55  1  0.691041  0.745517  0.942132  1
