# generated using pymatgen
data_CaTaBiO5
_symmetry_space_group_name_H-M   'P 1'
_cell_length_a   5.63017087
_cell_length_b   11.51552571
_cell_length_c   16.53440816
_cell_angle_alpha   90.00000000
_cell_angle_beta   90.00000000
_cell_angle_gamma   90.00000000
_symmetry_Int_Tables_number   1
_chemical_formula_structural   CaTaBiO5
_chemical_formula_sum   'Ca8 Ta8 Bi8 O40'
_cell_volume   1071.99805882
_cell_formula_units_Z   8
loop_
 _symmetry_equiv_pos_site_id
 _symmetry_equiv_pos_as_xyz
  1  'x, y, z'
loop_
 _atom_site_type_symbol
 _atom_site_label
 _atom_site_symmetry_multiplicity
 _atom_site_fract_x
 _atom_site_fract_y
 _atom_site_fract_z
 _atom_site_occupancy
  Ca  Ca0  1  0.501710  0.360018  0.449092  1
  Ca  Ca1  1  0.001710  0.139982  0.449092  1
  Ca  Ca2  1  0.001710  0.639982  0.050908  1
  Ca  Ca3  1  0.998290  0.360018  0.949092  1
  Ca  Ca4  1  0.498290  0.139982  0.949092  1
  Ca  Ca5  1  0.998290  0.860018  0.550908  1
  Ca  Ca6  1  0.498290  0.639982  0.550908  1
  Ca  Ca7  1  0.501710  0.860018  0.050908  1
  Ta  Ta8  1  0.987997  0.399397  0.597090  1
  Ta  Ta9  1  0.512003  0.899397  0.402910  1
  Ta  Ta10  1  0.012003  0.600603  0.402910  1
  Ta  Ta11  1  0.487997  0.100603  0.597090  1
  Ta  Ta12  1  0.012003  0.100603  0.097090  1
  Ta  Ta13  1  0.987997  0.899397  0.902910  1
  Ta  Ta14  1  0.512003  0.399397  0.097090  1
  Ta  Ta15  1  0.487997  0.600603  0.902910  1
  Bi  Bi16  1  0.946290  0.841589  0.225718  1
  Bi  Bi17  1  0.053710  0.158411  0.774282  1
  Bi  Bi18  1  0.553710  0.341589  0.774282  1
  Bi  Bi19  1  0.053710  0.658411  0.725718  1
  Bi  Bi20  1  0.446290  0.158411  0.274282  1
  Bi  Bi21  1  0.446290  0.658411  0.225718  1
  Bi  Bi22  1  0.553710  0.841589  0.725718  1
  Bi  Bi23  1  0.946290  0.341589  0.274282  1
  O  O24  1  0.929271  0.320260  0.696155  1
  O  O25  1  0.297991  0.044722  0.057974  1
  O  O26  1  0.202009  0.544722  0.942026  1
  O  O27  1  0.242662  0.773096  0.152376  1
  O  O28  1  0.257338  0.273096  0.847624  1
  O  O29  1  0.929271  0.820260  0.803845  1
  O  O30  1  0.257338  0.773096  0.652376  1
  O  O31  1  0.570729  0.820260  0.303845  1
  O  O32  1  0.297991  0.544722  0.442026  1
  O  O33  1  0.070729  0.679740  0.303845  1
  O  O34  1  0.570729  0.320260  0.196155  1
  O  O35  1  0.648533  0.192024  0.522758  1
  O  O36  1  0.797991  0.955278  0.442026  1
  O  O37  1  0.757338  0.726904  0.652376  1
  O  O38  1  0.174564  0.029360  0.874155  1
  O  O39  1  0.797991  0.455278  0.057974  1
  O  O40  1  0.070729  0.179740  0.196155  1
  O  O41  1  0.742662  0.226904  0.347624  1
  O  O42  1  0.148533  0.807976  0.977242  1
  O  O43  1  0.202009  0.044722  0.557974  1
  O  O44  1  0.351467  0.807976  0.477242  1
  O  O45  1  0.825436  0.970640  0.125845  1
  O  O46  1  0.757338  0.226904  0.847624  1
  O  O47  1  0.674564  0.970640  0.625845  1
  O  O48  1  0.351467  0.307976  0.022758  1
  O  O49  1  0.148533  0.307976  0.522758  1
  O  O50  1  0.702009  0.455278  0.557974  1
  O  O51  1  0.702009  0.955278  0.942026  1
  O  O52  1  0.674564  0.470640  0.874155  1
  O  O53  1  0.851467  0.692024  0.477242  1
  O  O54  1  0.851467  0.192024  0.022758  1
  O  O55  1  0.648533  0.692024  0.977242  1
  O  O56  1  0.825436  0.470640  0.374155  1
  O  O57  1  0.742662  0.726904  0.152376  1
  O  O58  1  0.242662  0.273096  0.347624  1
  O  O59  1  0.174564  0.529360  0.625845  1
  O  O60  1  0.325436  0.529360  0.125845  1
  O  O61  1  0.429271  0.179740  0.696155  1
  O  O62  1  0.325436  0.029360  0.374155  1
  O  O63  1  0.429271  0.679740  0.803845  1
