# generated using pymatgen
data_Mg(MoO2)2
_symmetry_space_group_name_H-M   'P 1'
_cell_length_a   6.35606114
_cell_length_b   6.36149794
_cell_length_c   6.36196841
_cell_angle_alpha   89.93668676
_cell_angle_beta   120.06930924
_cell_angle_gamma   120.06793784
_symmetry_Int_Tables_number   1
_chemical_formula_structural   Mg(MoO2)2
_chemical_formula_sum   'Mg2 Mo4 O8'
_cell_volume   181.61922443
_cell_formula_units_Z   2
loop_
 _symmetry_equiv_pos_site_id
 _symmetry_equiv_pos_as_xyz
  1  'x, y, z'
loop_
 _atom_site_type_symbol
 _atom_site_label
 _atom_site_symmetry_multiplicity
 _atom_site_fract_x
 _atom_site_fract_y
 _atom_site_fract_z
 _atom_site_occupancy
  Mg  Mg0  1  0.249623  0.125570  0.874539  1
  Mg  Mg1  1  0.749914  0.875176  0.124822  1
  Mo  Mo2  1  0.499901  0.999774  0.499941  1
  Mo  Mo3  1  0.500128  0.499830  0.500042  1
  Mo  Mo4  1  0.000126  0.500146  0.000188  1
  Mo  Mo5  1  -0.000027  0.500056  0.500001  1
  O  O6  1  0.012735  0.742278  0.256183  1
  O  O7  1  0.486985  0.742924  0.729219  1
  O  O8  1  0.487230  0.743622  0.257863  1
  O  O9  1  0.987233  0.729344  0.743417  1
  O  O10  1  0.513067  0.255998  0.742406  1
  O  O11  1  0.512870  0.256464  0.270506  1
  O  O12  1  0.013317  0.271026  0.257038  1
  O  O13  1  0.986902  0.257793  0.743834  1
