# generated using pymatgen
data_MgCuSb2O7
_symmetry_space_group_name_H-M   'P 1'
_cell_length_a   8.80670970
_cell_length_b   9.39483445
_cell_length_c   11.14023471
_cell_angle_alpha   101.19584564
_cell_angle_beta   90.00000000
_cell_angle_gamma   90.00000000
_symmetry_Int_Tables_number   1
_chemical_formula_structural   MgCuSb2O7
_chemical_formula_sum   'Mg6 Cu6 Sb12 O42'
_cell_volume   904.17509585
_cell_formula_units_Z   6
loop_
 _symmetry_equiv_pos_site_id
 _symmetry_equiv_pos_as_xyz
  1  'x, y, z'
loop_
 _atom_site_type_symbol
 _atom_site_label
 _atom_site_symmetry_multiplicity
 _atom_site_fract_x
 _atom_site_fract_y
 _atom_site_fract_z
 _atom_site_occupancy
  Mg  Mg0  1  0.447220  0.158154  0.585664  1
  Mg  Mg1  1  0.940688  0.500000  0.750000  1
  Mg  Mg2  1  0.447220  0.841846  0.914336  1
  Mg  Mg3  1  0.059312  0.500000  0.250000  1
  Mg  Mg4  1  0.552780  0.841846  0.414336  1
  Mg  Mg5  1  0.552780  0.158154  0.085664  1
  Cu  Cu6  1  0.929054  0.803704  0.411672  1
  Cu  Cu7  1  0.070946  0.196296  0.588328  1
  Cu  Cu8  1  0.432931  0.500000  0.250000  1
  Cu  Cu9  1  0.929054  0.196296  0.088328  1
  Cu  Cu10  1  0.567069  0.500000  0.750000  1
  Cu  Cu11  1  0.070946  0.803704  0.911672  1
  Sb  Sb12  1  0.229757  0.196087  0.297273  1
  Sb  Sb13  1  0.758069  0.144083  0.375234  1
  Sb  Sb14  1  0.241931  0.144083  0.875234  1
  Sb  Sb15  1  0.770243  0.196087  0.797273  1
  Sb  Sb16  1  0.270381  0.536324  0.962133  1
  Sb  Sb17  1  0.758069  0.855917  0.124766  1
  Sb  Sb18  1  0.729619  0.536324  0.462133  1
  Sb  Sb19  1  0.241931  0.855917  0.624766  1
  Sb  Sb20  1  0.270381  0.463676  0.537867  1
  Sb  Sb21  1  0.729619  0.463676  0.037867  1
  Sb  Sb22  1  0.770243  0.803913  0.702727  1
  Sb  Sb23  1  0.229757  0.803913  0.202727  1
  O  O24  1  0.747246  0.223081  0.979253  1
  O  O25  1  0.770071  0.875343  0.302883  1
  O  O26  1  0.850193  0.000000  0.750000  1
  O  O27  1  0.921191  0.464691  0.108231  1
  O  O28  1  0.398753  0.937900  0.544603  1
  O  O29  1  0.923840  0.276433  0.707919  1
  O  O30  1  0.333716  0.334637  0.932082  1
  O  O31  1  0.078809  0.464691  0.608231  1
  O  O32  1  0.738536  0.440259  0.857096  1
  O  O33  1  0.398753  0.062100  0.955397  1
  O  O34  1  0.738536  0.559741  0.642904  1
  O  O35  1  0.436799  0.603828  0.876481  1
  O  O36  1  0.960313  0.848627  0.063790  1
  O  O37  1  0.076160  0.276433  0.207919  1
  O  O38  1  0.666284  0.665363  0.067918  1
  O  O39  1  0.333716  0.665363  0.567918  1
  O  O40  1  0.923840  0.723567  0.792081  1
  O  O41  1  0.601247  0.062100  0.455397  1
  O  O42  1  0.252754  0.223081  0.479253  1
  O  O43  1  0.563201  0.396172  0.123519  1
  O  O44  1  0.426321  0.811518  0.265622  1
  O  O45  1  0.261464  0.559741  0.142904  1
  O  O46  1  0.039687  0.848627  0.563790  1
  O  O47  1  0.261464  0.440259  0.357096  1
  O  O48  1  0.921191  0.535309  0.391769  1
  O  O49  1  0.563201  0.603828  0.376481  1
  O  O50  1  0.078809  0.535309  0.891769  1
  O  O51  1  0.573679  0.811518  0.765622  1
  O  O52  1  0.573679  0.188482  0.734378  1
  O  O53  1  0.039687  0.151373  0.936210  1
  O  O54  1  0.076160  0.723567  0.292081  1
  O  O55  1  0.747246  0.776919  0.520747  1
  O  O56  1  0.149807  0.000000  0.250000  1
  O  O57  1  0.229929  0.875343  0.802883  1
  O  O58  1  0.601247  0.937900  0.044603  1
  O  O59  1  0.960313  0.151373  0.436210  1
  O  O60  1  0.252754  0.776919  0.020747  1
  O  O61  1  0.770071  0.124657  0.197117  1
  O  O62  1  0.436799  0.396172  0.623519  1
  O  O63  1  0.666284  0.334637  0.432082  1
  O  O64  1  0.229929  0.124657  0.697117  1
  O  O65  1  0.426321  0.188482  0.234378  1
