# generated using pymatgen
data_Ba2W3O8
_symmetry_space_group_name_H-M   'P 1'
_cell_length_a   4.03172253
_cell_length_b   4.03155660
_cell_length_c   11.96937624
_cell_angle_alpha   90.00074556
_cell_angle_beta   90.00092425
_cell_angle_gamma   90.00682750
_symmetry_Int_Tables_number   1
_chemical_formula_structural   Ba2W3O8
_chemical_formula_sum   'Ba2 W3 O8'
_cell_volume   194.55164703
_cell_formula_units_Z   1
loop_
 _symmetry_equiv_pos_site_id
 _symmetry_equiv_pos_as_xyz
  1  'x, y, z'
loop_
 _atom_site_type_symbol
 _atom_site_label
 _atom_site_symmetry_multiplicity
 _atom_site_fract_x
 _atom_site_fract_y
 _atom_site_fract_z
 _atom_site_occupancy
  Ba  Ba0  1  0.499998  0.499996  0.190172  1
  Ba  Ba1  1  0.500001  0.500004  0.809711  1
  W  W2  1  0.999998  -0.000001  0.381633  1
  W  W3  1  1.000000  0.000001  0.000007  1
  W  W4  1  0.999999  0.000000  0.618339  1
  O  O5  1  0.000007  0.499999  0.355144  1
  O  O6  1  0.500000  -0.000000  0.371380  1
  O  O7  1  0.500000  0.000000  0.001071  1
  O  O8  1  0.999988  0.999989  0.163150  1
  O  O9  1  0.999998  0.499999  0.628661  1
  O  O10  1  0.500000  -0.000001  0.644839  1
  O  O11  1  0.000013  0.000011  0.836867  1
  O  O12  1  0.000000  0.500000  0.999024  1
