# generated using pymatgen
data_Zn(WO2)2
_symmetry_space_group_name_H-M   'P 1'
_cell_length_a   3.22274334
_cell_length_b   9.72652967
_cell_length_c   10.97761429
_cell_angle_alpha   90.03536039
_cell_angle_beta   90.00003402
_cell_angle_gamma   90.00004230
_symmetry_Int_Tables_number   1
_chemical_formula_structural   Zn(WO2)2
_chemical_formula_sum   'Zn4 W8 O16'
_cell_volume   344.10542524
_cell_formula_units_Z   4
loop_
 _symmetry_equiv_pos_site_id
 _symmetry_equiv_pos_as_xyz
  1  'x, y, z'
loop_
 _atom_site_type_symbol
 _atom_site_label
 _atom_site_symmetry_multiplicity
 _atom_site_fract_x
 _atom_site_fract_y
 _atom_site_fract_z
 _atom_site_occupancy
  Zn  Zn0  1  0.749999  0.245925  0.351585  1
  Zn  Zn1  1  0.250000  0.752161  0.645375  1
  Zn  Zn2  1  0.750000  0.745840  0.148186  1
  Zn  Zn3  1  0.249999  0.252284  0.854671  1
  W  W4  1  0.250000  0.390212  0.096129  1
  W  W5  1  0.749999  0.111156  0.598681  1
  W  W6  1  0.249999  0.890292  0.403902  1
  W  W7  1  0.750000  0.611000  0.901294  1
  W  W8  1  0.750000  0.544043  0.374046  1
  W  W9  1  0.250000  0.455179  0.622903  1
  W  W10  1  0.750000  0.043918  0.126050  1
  W  W11  1  0.249999  0.955192  0.876946  1
  O  O12  1  0.249999  0.898224  0.070434  1
  O  O13  1  0.750000  0.100720  0.933739  1
  O  O14  1  0.249999  0.398227  0.429337  1
  O  O15  1  0.750000  0.600878  0.566414  1
  O  O16  1  0.249999  0.092127  0.723409  1
  O  O17  1  0.749999  0.907289  0.279366  1
  O  O18  1  0.249999  0.591823  0.776711  1
  O  O19  1  0.750000  0.407597  0.220487  1
  O  O20  1  0.250000  0.612167  0.047093  1
  O  O21  1  0.749999  0.389721  0.951711  1
  O  O22  1  0.249999  0.112300  0.452966  1
  O  O23  1  0.749999  0.889898  0.548197  1
  O  O24  1  0.749999  0.818480  0.826979  1
  O  O25  1  0.250000  0.182348  0.169913  1
  O  O26  1  0.250000  0.682315  0.330644  1
  O  O27  1  0.750000  0.318679  0.672833  1
