# generated using pymatgen
data_Mg2Cu9O13
_symmetry_space_group_name_H-M   'P 1'
_cell_length_a   2.95206973
_cell_length_b   5.14693253
_cell_length_c   16.22009216
_cell_angle_alpha   98.10216920
_cell_angle_beta   89.90267392
_cell_angle_gamma   107.15681035
_symmetry_Int_Tables_number   1
_chemical_formula_structural   Mg2Cu9O13
_chemical_formula_sum   'Mg2 Cu9 O13'
_cell_volume   232.92524817
_cell_formula_units_Z   1
loop_
 _symmetry_equiv_pos_site_id
 _symmetry_equiv_pos_as_xyz
  1  'x, y, z'
loop_
 _atom_site_type_symbol
 _atom_site_label
 _atom_site_symmetry_multiplicity
 _atom_site_fract_x
 _atom_site_fract_y
 _atom_site_fract_z
 _atom_site_occupancy
  Mg  Mg0  1  0.214996  0.435285  0.227617  1
  Mg  Mg1  1  0.785004  0.564715  0.772383  1
  Cu  Cu2  1  0.500000  -0.000000  0.500000  1
  Cu  Cu3  1  0.647659  0.295508  0.040615  1
  Cu  Cu4  1  0.352341  0.704492  0.959385  1
  Cu  Cu5  1  0.751764  0.504945  0.418496  1
  Cu  Cu6  1  0.248236  0.495055  0.581504  1
  Cu  Cu7  1  0.936692  0.874533  0.124002  1
  Cu  Cu8  1  0.063309  0.125467  0.875998  1
  Cu  Cu9  1  0.994060  0.989468  0.331401  1
  Cu  Cu10  1  0.005940  0.010532  0.668599  1
  O  O11  1  -0.000000  -0.000000  -0.000000  1
  O  O12  1  0.860719  0.720902  0.227249  1
  O  O13  1  0.139281  0.279098  0.772751  1
  O  O14  1  0.301423  0.603461  0.071134  1
  O  O15  1  0.698577  0.396539  0.928866  1
  O  O16  1  0.585463  0.173799  0.145966  1
  O  O17  1  0.414537  0.826201  0.854034  1
  O  O18  1  0.631896  0.264749  0.314612  1
  O  O19  1  0.368104  0.735251  0.685388  1
  O  O20  1  0.393862  0.787375  0.387623  1
  O  O21  1  0.606138  0.212625  0.612377  1
  O  O22  1  0.132814  0.269175  0.469847  1
  O  O23  1  0.867186  0.730825  0.530153  1
