# generated using pymatgen
data_ZnNiMoP2O9
_symmetry_space_group_name_H-M   'P 1'
_cell_length_a   6.43820389
_cell_length_b   7.61643926
_cell_length_c   14.34196690
_cell_angle_alpha   90.01505142
_cell_angle_beta   90.02908163
_cell_angle_gamma   89.98922274
_symmetry_Int_Tables_number   1
_chemical_formula_structural   ZnNiMoP2O9
_chemical_formula_sum   'Zn4 Ni4 Mo4 P8 O36'
_cell_volume   703.27526983
_cell_formula_units_Z   4
loop_
 _symmetry_equiv_pos_site_id
 _symmetry_equiv_pos_as_xyz
  1  'x, y, z'
loop_
 _atom_site_type_symbol
 _atom_site_label
 _atom_site_symmetry_multiplicity
 _atom_site_fract_x
 _atom_site_fract_y
 _atom_site_fract_z
 _atom_site_occupancy
  Zn  Zn0  1  0.749777  0.939228  0.780656  1
  Zn  Zn1  1  0.751501  0.560231  0.280430  1
  Zn  Zn2  1  0.250238  0.060768  0.219298  1
  Zn  Zn3  1  0.248492  0.439754  0.719619  1
  Ni  Ni4  1  0.499999  0.999967  -0.000007  1
  Ni  Ni5  1  0.500104  0.499885  0.500037  1
  Ni  Ni6  1  0.000096  0.500123  0.499972  1
  Ni  Ni7  1  -0.000033  0.000001  -0.000001  1
  Mo  Mo8  1  0.749366  0.356001  0.884923  1
  Mo  Mo9  1  0.250622  0.643992  0.115070  1
  Mo  Mo10  1  0.250265  0.856422  0.614965  1
  Mo  Mo11  1  0.750079  0.143608  0.385050  1
  P  P12  1  0.249631  0.346411  0.927644  1
  P  P13  1  0.750345  0.653588  0.072339  1
  P  P14  1  0.750141  0.846302  0.572494  1
  P  P15  1  0.249912  0.153717  0.427524  1
  P  P16  1  0.750058  0.376512  0.692484  1
  P  P17  1  0.249960  0.623495  0.307514  1
  P  P18  1  0.250021  0.876265  0.807471  1
  P  P19  1  0.749946  0.123731  0.192527  1
  O  O20  1  0.040887  0.614799  0.362339  1
  O  O21  1  0.542394  0.385303  0.636822  1
  O  O22  1  0.958129  0.115242  0.137127  1
  O  O23  1  0.458425  0.884315  0.862807  1
  O  O24  1  0.959113  0.385224  0.637661  1
  O  O25  1  0.457583  0.614682  0.363187  1
  O  O26  1  0.041860  0.884731  0.862866  1
  O  O27  1  0.541571  0.115674  0.137187  1
  O  O28  1  0.249436  0.335385  0.472517  1
  O  O29  1  0.750536  0.664622  0.527505  1
  O  O30  1  0.750294  0.835649  0.027831  1
  O  O31  1  0.249709  0.164332  0.972138  1
  O  O32  1  0.749366  0.130697  0.943833  1
  O  O33  1  0.250648  0.869272  0.056134  1
  O  O34  1  0.249516  0.631710  0.555524  1
  O  O35  1  0.750182  0.368320  0.444494  1
  O  O36  1  0.749423  0.204061  0.755795  1
  O  O37  1  0.250571  0.795941  0.244194  1
  O  O38  1  0.249817  0.704109  0.743930  1
  O  O39  1  0.750195  0.295894  0.256067  1
  O  O40  1  0.432134  0.126793  0.358854  1
  O  O41  1  0.932309  0.874403  0.641115  1
  O  O42  1  0.568457  0.625551  0.141028  1
  O  O43  1  0.067104  0.374552  0.859274  1
  O  O44  1  0.567880  0.873288  0.641139  1
  O  O45  1  0.067680  0.125571  0.358914  1
  O  O46  1  0.431521  0.374422  0.858965  1
  O  O47  1  0.932883  0.625455  0.140715  1
  O  O48  1  0.749792  0.976893  0.268414  1
  O  O49  1  0.250012  0.023127  0.731599  1
  O  O50  1  0.250388  0.476913  0.231372  1
  O  O51  1  0.749599  0.523092  0.768626  1
  O  O52  1  0.749410  0.986069  0.495413  1
  O  O53  1  0.250668  0.013951  0.504589  1
  O  O54  1  0.250323  0.485451  0.005151  1
  O  O55  1  0.749667  0.514507  0.994859  1
