# generated using pymatgen
data_Mg3Ti2(Si2O7)2
_symmetry_space_group_name_H-M   'P 1'
_cell_length_a   7.67044443
_cell_length_b   9.47025903
_cell_length_c   9.32660146
_cell_angle_alpha   62.52145760
_cell_angle_beta   65.71892642
_cell_angle_gamma   66.11041080
_symmetry_Int_Tables_number   1
_chemical_formula_structural   Mg3Ti2(Si2O7)2
_chemical_formula_sum   'Mg6 Ti4 Si8 O28'
_cell_volume   528.13034309
_cell_formula_units_Z   2
loop_
 _symmetry_equiv_pos_site_id
 _symmetry_equiv_pos_as_xyz
  1  'x, y, z'
loop_
 _atom_site_type_symbol
 _atom_site_label
 _atom_site_symmetry_multiplicity
 _atom_site_fract_x
 _atom_site_fract_y
 _atom_site_fract_z
 _atom_site_occupancy
  Mg  Mg0  1  0.914971  0.908979  0.450263  1
  Mg  Mg1  1  0.274214  0.591021  0.049737  1
  Mg  Mg2  1  0.725786  0.408979  0.950263  1
  Mg  Mg3  1  0.612036  0.250000  0.750000  1
  Mg  Mg4  1  0.085029  0.091021  0.549737  1
  Mg  Mg5  1  0.387964  0.750000  0.250000  1
  Ti  Ti6  1  0.193415  0.250000  0.750000  1
  Ti  Ti7  1  0.806585  0.750000  0.250000  1
  Ti  Ti8  1  0.000000  0.000000  0.000000  1
  Ti  Ti9  1  0.000000  0.500000  0.500000  1
  Si  Si10  1  0.468793  0.285550  0.343268  1
  Si  Si11  1  0.902388  0.785550  0.843268  1
  Si  Si12  1  0.481438  0.893661  0.863636  1
  Si  Si13  1  0.761266  0.393661  0.363636  1
  Si  Si14  1  0.097612  0.214450  0.156732  1
  Si  Si15  1  0.518562  0.106339  0.136364  1
  Si  Si16  1  0.238734  0.606339  0.636364  1
  Si  Si17  1  0.531207  0.714450  0.656732  1
  O  O18  1  0.151145  0.678316  0.470856  1
  O  O19  1  0.051025  0.578583  0.257575  1
  O  O20  1  0.537353  0.915336  0.177042  1
  O  O21  1  0.112817  0.078583  0.757575  1
  O  O22  1  0.742606  0.693244  0.514492  1
  O  O23  1  0.930952  0.382538  0.186007  1
  O  O24  1  0.370268  0.415336  0.677042  1
  O  O25  1  0.950343  0.806756  0.985508  1
  O  O26  1  0.069048  0.617462  0.813993  1
  O  O27  1  0.355550  0.747337  0.577499  1
  O  O28  1  0.948975  0.421417  0.742425  1
  O  O29  1  0.257394  0.306756  0.485508  1
  O  O30  1  0.499498  0.117462  0.313993  1
  O  O31  1  0.699682  0.178316  0.970856  1
  O  O32  1  0.319613  0.247337  0.077499  1
  O  O33  1  0.049657  0.193244  0.014492  1
  O  O34  1  0.091915  0.065134  0.337758  1
  O  O35  1  0.644450  0.252663  0.422501  1
  O  O36  1  0.494806  0.434866  0.162242  1
  O  O37  1  0.680387  0.752663  0.922501  1
  O  O38  1  0.500502  0.882538  0.686007  1
  O  O39  1  0.887183  0.921417  0.242425  1
  O  O40  1  0.505194  0.565134  0.837758  1
  O  O41  1  0.462647  0.084664  0.822958  1
  O  O42  1  0.908085  0.934866  0.662242  1
  O  O43  1  0.629732  0.584664  0.322958  1
  O  O44  1  0.300318  0.821684  0.029144  1
  O  O45  1  0.848855  0.321684  0.529144  1
