# generated using pymatgen
data_Ti4Al(CuO4)3
_symmetry_space_group_name_H-M   'P 1'
_cell_length_a   6.42575631
_cell_length_b   6.42576918
_cell_length_c   6.42577553
_cell_angle_alpha   109.49995442
_cell_angle_beta   109.47186278
_cell_angle_gamma   109.44777791
_symmetry_Int_Tables_number   1
_chemical_formula_structural   Ti4Al(CuO4)3
_chemical_formula_sum   'Ti4 Al1 Cu3 O12'
_cell_volume   204.23076332
_cell_formula_units_Z   1
loop_
 _symmetry_equiv_pos_site_id
 _symmetry_equiv_pos_as_xyz
  1  'x, y, z'
loop_
 _atom_site_type_symbol
 _atom_site_label
 _atom_site_symmetry_multiplicity
 _atom_site_fract_x
 _atom_site_fract_y
 _atom_site_fract_z
 _atom_site_occupancy
  Ti  Ti0  1  0.500003  0.000005  0.000004  1
  Ti  Ti1  1  0.999991  0.999996  0.499991  1
  Ti  Ti2  1  0.000005  0.500002  0.000001  1
  Ti  Ti3  1  0.499997  0.499995  0.499996  1
  Al  Al4  1  0.000007  0.999996  0.999969  1
  Cu  Cu5  1  0.499996  0.999997  0.500004  1
  Cu  Cu6  1  0.500000  0.500000  0.999997  1
  Cu  Cu7  1  0.000005  0.500008  0.500005  1
  O  O8  1  0.826587  0.294811  0.121333  1
  O  O9  1  0.173413  0.705197  0.878672  1
  O  O10  1  0.826554  0.705253  0.531800  1
  O  O11  1  0.294825  0.468186  0.173396  1
  O  O12  1  0.468389  0.173438  0.294930  1
  O  O13  1  0.121490  0.826534  0.294983  1
  O  O14  1  0.705152  0.878560  0.173383  1
  O  O15  1  0.531607  0.826553  0.705081  1
  O  O16  1  0.173451  0.294752  0.468211  1
  O  O17  1  0.705187  0.531818  0.826599  1
  O  O18  1  0.878501  0.173458  0.705023  1
  O  O19  1  0.294842  0.121441  0.826621  1
