# generated using pymatgen
data_Ba2CaTl2(CuO3)4
_symmetry_space_group_name_H-M   'P 1'
_cell_length_a   3.76136181
_cell_length_b   3.76136186
_cell_length_c   22.93495359
_cell_angle_alpha   94.70358001
_cell_angle_beta   94.70357981
_cell_angle_gamma   89.99999571
_symmetry_Int_Tables_number   1
_chemical_formula_structural   Ba2CaTl2(CuO3)4
_chemical_formula_sum   'Ba2 Ca1 Tl2 Cu4 O12'
_cell_volume   322.29088856
_cell_formula_units_Z   1
loop_
 _symmetry_equiv_pos_site_id
 _symmetry_equiv_pos_as_xyz
  1  'x, y, z'
loop_
 _atom_site_type_symbol
 _atom_site_label
 _atom_site_symmetry_multiplicity
 _atom_site_fract_x
 _atom_site_fract_y
 _atom_site_fract_z
 _atom_site_occupancy
  Ba  Ba0  1  0.845301  0.845301  0.690601  1
  Ba  Ba1  1  0.154699  0.154699  0.309399  1
  Ca  Ca2  1  0.000000  0.000000  0.000000  1
  Tl  Tl3  1  0.723057  0.723057  0.446114  1
  Tl  Tl4  1  0.276943  0.276943  0.553886  1
  Cu  Cu5  1  0.395903  0.395903  0.791805  1
  Cu  Cu6  1  0.541973  0.541973  0.083944  1
  Cu  Cu7  1  0.604097  0.604097  0.208195  1
  Cu  Cu8  1  0.458027  0.458027  0.916056  1
  O  O9  1  0.466751  0.966751  0.933502  1
  O  O10  1  0.677183  0.677183  0.354367  1
  O  O11  1  0.533249  0.033249  0.066498  1
  O  O12  1  0.966751  0.466751  0.933502  1
  O  O13  1  0.322817  0.322817  0.645633  1
  O  O14  1  0.112570  0.612570  0.225140  1
  O  O15  1  0.750000  0.250000  0.500000  1
  O  O16  1  0.612570  0.112570  0.225140  1
  O  O17  1  0.887430  0.387430  0.774860  1
  O  O18  1  0.033249  0.533249  0.066498  1
  O  O19  1  0.387430  0.887430  0.774860  1
  O  O20  1  0.250000  0.750000  0.500000  1
