# generated using pymatgen
data_Zn3Cu2(AsO4)4
_symmetry_space_group_name_H-M   'P 1'
_cell_length_a   10.09459041
_cell_length_b   5.44540435
_cell_length_c   6.97865326
_cell_angle_alpha   68.51444638
_cell_angle_beta   87.91490218
_cell_angle_gamma   67.73489495
_symmetry_Int_Tables_number   1
_chemical_formula_structural   Zn3Cu2(AsO4)4
_chemical_formula_sum   'Zn3 Cu2 As4 O16'
_cell_volume   327.99564739
_cell_formula_units_Z   1
loop_
 _symmetry_equiv_pos_site_id
 _symmetry_equiv_pos_as_xyz
  1  'x, y, z'
loop_
 _atom_site_type_symbol
 _atom_site_label
 _atom_site_symmetry_multiplicity
 _atom_site_fract_x
 _atom_site_fract_y
 _atom_site_fract_z
 _atom_site_occupancy
  Zn  Zn0  1  0.105180  0.273614  0.170220  1
  Zn  Zn1  1  0.616801  0.257700  0.185425  1
  Zn  Zn2  1  0.386113  0.748021  0.809700  1
  Cu  Cu3  1  0.248187  0.500825  0.503160  1
  Cu  Cu4  1  0.753388  0.502114  0.500084  1
  As  As5  1  0.432642  0.843372  0.275923  1
  As  As6  1  0.933318  0.834095  0.277877  1
  As  As7  1  0.064841  0.156628  0.731145  1
  As  As8  1  0.575351  0.142462  0.731087  1
  O  O9  1  0.137093  0.301127  0.495714  1
  O  O10  1  0.634028  0.309932  0.494273  1
  O  O11  1  0.363828  0.698876  0.506793  1
  O  O12  1  0.863278  0.697666  0.510236  1
  O  O13  1  0.183879  0.806607  0.841616  1
  O  O14  1  0.675821  0.795594  0.853860  1
  O  O15  1  0.316994  0.188668  0.153368  1
  O  O16  1  0.819340  0.184730  0.157419  1
  O  O17  1  0.051426  0.345066  0.879951  1
  O  O18  1  0.544711  0.354273  0.876541  1
  O  O19  1  0.095920  0.857048  0.345080  1
  O  O20  1  0.596166  0.858064  0.342917  1
  O  O21  1  0.404516  0.149020  0.654775  1
  O  O22  1  0.903367  0.157706  0.643696  1
  O  O23  1  0.454062  0.643654  0.125223  1
  O  O24  1  0.953291  0.649105  0.122885  1
