# generated using pymatgen
data_BaCaTi4O8
_symmetry_space_group_name_H-M   'P 1'
_cell_length_a   5.55764574
_cell_length_b   5.55764638
_cell_length_c   7.80762116
_cell_angle_alpha   90.00000000
_cell_angle_beta   90.00000000
_cell_angle_gamma   120.00000088
_symmetry_Int_Tables_number   1
_chemical_formula_structural   BaCaTi4O8
_chemical_formula_sum   'Ba1 Ca1 Ti4 O8'
_cell_volume   208.84838959
_cell_formula_units_Z   1
loop_
 _symmetry_equiv_pos_site_id
 _symmetry_equiv_pos_as_xyz
  1  'x, y, z'
loop_
 _atom_site_type_symbol
 _atom_site_label
 _atom_site_symmetry_multiplicity
 _atom_site_fract_x
 _atom_site_fract_y
 _atom_site_fract_z
 _atom_site_occupancy
  Ba  Ba0  1  -0.000000  -0.000000  0.000000  1
  Ca  Ca1  1  -0.000000  -0.000000  0.500000  1
  Ti  Ti2  1  0.333333  0.666667  0.759418  1
  Ti  Ti3  1  0.666667  0.333333  0.759418  1
  Ti  Ti4  1  0.333333  0.666667  0.240582  1
  Ti  Ti5  1  0.666667  0.333333  0.240582  1
  O  O6  1  0.331072  0.331072  0.694240  1
  O  O7  1  0.668928  1.000000  0.694240  1
  O  O8  1  0.000000  0.668928  0.694240  1
  O  O9  1  0.668928  0.668928  0.305760  1
  O  O10  1  1.000000  0.331072  0.305760  1
  O  O11  1  0.331072  0.000000  0.305760  1
  O  O12  1  0.333333  0.666667  0.000000  1
  O  O13  1  0.666667  0.333333  0.000000  1
