# generated using pymatgen
data_Ca2NiIrO6
_symmetry_space_group_name_H-M   'P 1'
_cell_length_a   5.42189654
_cell_length_b   5.63177137
_cell_length_c   7.73955536
_cell_angle_alpha   90.00000000
_cell_angle_beta   90.19703264
_cell_angle_gamma   90.00000000
_symmetry_Int_Tables_number   1
_chemical_formula_structural   Ca2NiIrO6
_chemical_formula_sum   'Ca4 Ni2 Ir2 O12'
_cell_volume   236.32500987
_cell_formula_units_Z   2
loop_
 _symmetry_equiv_pos_site_id
 _symmetry_equiv_pos_as_xyz
  1  'x, y, z'
loop_
 _atom_site_type_symbol
 _atom_site_label
 _atom_site_symmetry_multiplicity
 _atom_site_fract_x
 _atom_site_fract_y
 _atom_site_fract_z
 _atom_site_occupancy
  Ca  Ca0  1  0.015279  0.939504  0.248149  1
  Ca  Ca1  1  0.484721  0.439504  0.251851  1
  Ca  Ca2  1  0.515279  0.560496  0.748149  1
  Ca  Ca3  1  0.984721  0.060496  0.751851  1
  Ni  Ni4  1  -0.000000  0.500000  -0.000000  1
  Ni  Ni5  1  0.500000  0.000000  0.500000  1
  Ir  Ir6  1  -0.000000  0.500000  0.500000  1
  Ir  Ir7  1  0.500000  0.000000  -0.000000  1
  O  O8  1  0.097390  0.469652  0.742744  1
  O  O9  1  0.206905  0.193241  0.047652  1
  O  O10  1  0.188359  0.212031  0.447356  1
  O  O11  1  0.311641  0.712031  0.052644  1
  O  O12  1  0.293095  0.693241  0.452348  1
  O  O13  1  0.402610  0.969652  0.757256  1
  O  O14  1  0.597390  0.030348  0.242744  1
  O  O15  1  0.706905  0.306759  0.547652  1
  O  O16  1  0.688359  0.287969  0.947356  1
  O  O17  1  0.793095  0.806759  0.952348  1
  O  O18  1  0.811641  0.787969  0.552644  1
  O  O19  1  0.902610  0.530348  0.257256  1
