# generated using pymatgen
data_SbO2
_symmetry_space_group_name_H-M   'P 1'
_cell_length_a   6.71627166
_cell_length_b   6.71467212
_cell_length_c   6.71646854
_cell_angle_alpha   59.97667397
_cell_angle_beta   59.98421583
_cell_angle_gamma   59.98607361
_symmetry_Int_Tables_number   1
_chemical_formula_structural   SbO2
_chemical_formula_sum   'Sb4 O8'
_cell_volume   214.09420689
_cell_formula_units_Z   4
loop_
 _symmetry_equiv_pos_site_id
 _symmetry_equiv_pos_as_xyz
  1  'x, y, z'
loop_
 _atom_site_type_symbol
 _atom_site_label
 _atom_site_symmetry_multiplicity
 _atom_site_fract_x
 _atom_site_fract_y
 _atom_site_fract_z
 _atom_site_occupancy
  Sb  Sb0  1  0.499999  0.500000  0.499999  1
  Sb  Sb1  1  0.499999  0.000002  0.500000  1
  Sb  Sb2  1  0.000002  0.500000  0.499999  1
  Sb  Sb3  1  0.499999  0.500001  0.000001  1
  O  O4  1  0.728473  0.729081  0.314133  1
  O  O5  1  0.728273  0.728880  0.728708  1
  O  O6  1  0.271528  0.270917  0.685867  1
  O  O7  1  0.271519  0.685894  0.270991  1
  O  O8  1  0.271725  0.271122  0.271294  1
  O  O9  1  0.685861  0.271125  0.271208  1
  O  O10  1  0.314140  0.728880  0.728792  1
  O  O11  1  0.728487  0.314106  0.729006  1
