# generated using pymatgen
data_CaTi2Fe2(PO4)6
_symmetry_space_group_name_H-M   'P 1'
_cell_length_a   8.83943610
_cell_length_b   8.83943613
_cell_length_c   8.83943626
_cell_angle_alpha   58.76724088
_cell_angle_beta   58.76724363
_cell_angle_gamma   58.76724753
_symmetry_Int_Tables_number   1
_chemical_formula_structural   CaTi2Fe2(PO4)6
_chemical_formula_sum   'Ca1 Ti2 Fe2 P6 O24'
_cell_volume   474.62927400
_cell_formula_units_Z   1
loop_
 _symmetry_equiv_pos_site_id
 _symmetry_equiv_pos_as_xyz
  1  'x, y, z'
loop_
 _atom_site_type_symbol
 _atom_site_label
 _atom_site_symmetry_multiplicity
 _atom_site_fract_x
 _atom_site_fract_y
 _atom_site_fract_z
 _atom_site_occupancy
  Ca  Ca0  1  0.998881  0.998881  0.998881  1
  Ti  Ti1  1  0.148434  0.148434  0.148434  1
  Ti  Ti2  1  0.637398  0.637398  0.637398  1
  Fe  Fe3  1  0.358018  0.358018  0.358018  1
  Fe  Fe4  1  0.852421  0.852421  0.852421  1
  P  P5  1  0.035704  0.461214  0.749565  1
  P  P6  1  0.461214  0.749565  0.035704  1
  P  P7  1  0.749565  0.035704  0.461214  1
  P  P8  1  0.247676  0.966260  0.541193  1
  P  P9  1  0.541193  0.247676  0.966260  1
  P  P10  1  0.966260  0.541193  0.247676  1
  O  O11  1  0.131772  0.512777  0.283064  1
  O  O12  1  0.283064  0.131772  0.512777  1
  O  O13  1  0.059484  0.272658  0.920048  1
  O  O14  1  0.512777  0.283064  0.131772  1
  O  O15  1  0.007685  0.624651  0.789513  1
  O  O16  1  0.219348  0.439008  0.581559  1
  O  O17  1  0.272658  0.920048  0.059484  1
  O  O18  1  0.439008  0.581559  0.219348  1
  O  O19  1  0.203315  0.003396  0.373082  1
  O  O20  1  0.581559  0.219348  0.439008  1
  O  O21  1  0.079597  0.938646  0.726118  1
  O  O22  1  0.373082  0.203315  0.003396  1
  O  O23  1  0.624651  0.789513  0.007685  1
  O  O24  1  0.920048  0.059484  0.272658  1
  O  O25  1  0.421745  0.785319  0.557347  1
  O  O26  1  0.789513  0.007685  0.624651  1
  O  O27  1  0.557347  0.421745  0.785319  1
  O  O28  1  0.726118  0.079597  0.938646  1
  O  O29  1  0.785319  0.557347  0.421745  1
  O  O30  1  0.003396  0.373082  0.203315  1
  O  O31  1  0.497430  0.710843  0.866574  1
  O  O32  1  0.938646  0.726118  0.079597  1
  O  O33  1  0.710843  0.866574  0.497430  1
  O  O34  1  0.866574  0.497430  0.710843  1
