# generated using pymatgen
data_Ba2Tl2Zn3(SnO3)4
_symmetry_space_group_name_H-M   'P 1'
_cell_length_a   3.93783681
_cell_length_b   3.93783706
_cell_length_c   25.70721181
_cell_angle_alpha   94.39258949
_cell_angle_beta   94.39259072
_cell_angle_gamma   89.99999798
_symmetry_Int_Tables_number   1
_chemical_formula_structural   Ba2Tl2Zn3(SnO3)4
_chemical_formula_sum   'Ba2 Tl2 Zn3 Sn4 O12'
_cell_volume   396.28513397
_cell_formula_units_Z   1
loop_
 _symmetry_equiv_pos_site_id
 _symmetry_equiv_pos_as_xyz
  1  'x, y, z'
loop_
 _atom_site_type_symbol
 _atom_site_label
 _atom_site_symmetry_multiplicity
 _atom_site_fract_x
 _atom_site_fract_y
 _atom_site_fract_z
 _atom_site_occupancy
  Ba  Ba0  1  0.170701  0.170701  0.341402  1
  Ba  Ba1  1  0.829299  0.829299  0.658598  1
  Tl  Tl2  1  0.727560  0.727560  0.455119  1
  Tl  Tl3  1  0.272440  0.272440  0.544881  1
  Zn  Zn4  1  0.073294  0.073294  0.146588  1
  Zn  Zn5  1  0.926706  0.926706  0.853412  1
  Zn  Zn6  1  -0.000000  0.000000  0.000000  1
  Sn  Sn7  1  0.541108  0.541108  0.082217  1
  Sn  Sn8  1  0.380291  0.380291  0.760583  1
  Sn  Sn9  1  0.619709  0.619709  0.239417  1
  Sn  Sn10  1  0.458892  0.458892  0.917783  1
  O  O11  1  0.365892  0.865892  0.731786  1
  O  O12  1  0.562975  0.062975  0.125949  1
  O  O13  1  0.232015  0.232015  0.464031  1
  O  O14  1  0.937025  0.437025  0.874051  1
  O  O15  1  0.767985  0.767985  0.535969  1
  O  O16  1  0.134108  0.634107  0.268214  1
  O  O17  1  0.634107  0.134107  0.268214  1
  O  O18  1  0.311963  0.311963  0.623927  1
  O  O19  1  0.865893  0.365892  0.731786  1
  O  O20  1  0.062975  0.562975  0.125949  1
  O  O21  1  0.437025  0.937025  0.874051  1
  O  O22  1  0.688037  0.688037  0.376073  1
