# generated using pymatgen
data_Co(Si2O5)2
_symmetry_space_group_name_H-M   'P 1'
_cell_length_a   7.28930769
_cell_length_b   7.28930769
_cell_length_c   15.75754895
_cell_angle_alpha   90.00000000
_cell_angle_beta   90.00000000
_cell_angle_gamma   90.00000000
_symmetry_Int_Tables_number   1
_chemical_formula_structural   Co(Si2O5)2
_chemical_formula_sum   'Co4 Si16 O40'
_cell_volume   837.26170990
_cell_formula_units_Z   4
loop_
 _symmetry_equiv_pos_site_id
 _symmetry_equiv_pos_as_xyz
  1  'x, y, z'
loop_
 _atom_site_type_symbol
 _atom_site_label
 _atom_site_symmetry_multiplicity
 _atom_site_fract_x
 _atom_site_fract_y
 _atom_site_fract_z
 _atom_site_occupancy
  Co  Co0  1  0.250000  0.250000  0.589473  1
  Co  Co1  1  0.750000  0.750000  0.910527  1
  Co  Co2  1  0.750000  0.750000  0.410527  1
  Co  Co3  1  0.250000  0.250000  0.089473  1
  Si  Si4  1  0.928074  0.505417  0.650061  1
  Si  Si5  1  0.571926  0.994583  0.650061  1
  Si  Si6  1  0.005417  0.428074  0.849939  1
  Si  Si7  1  0.505417  0.571926  0.650061  1
  Si  Si8  1  0.994583  0.928074  0.650061  1
  Si  Si9  1  0.071926  0.005417  0.849939  1
  Si  Si10  1  0.428074  0.494583  0.849939  1
  Si  Si11  1  0.494583  0.071926  0.849939  1
  Si  Si12  1  0.071926  0.494583  0.349939  1
  Si  Si13  1  0.428074  0.005417  0.349939  1
  Si  Si14  1  0.994583  0.571926  0.150061  1
  Si  Si15  1  0.494583  0.428074  0.349939  1
  Si  Si16  1  0.005417  0.071926  0.349939  1
  Si  Si17  1  0.928074  0.994583  0.150061  1
  Si  Si18  1  0.571926  0.505417  0.150061  1
  Si  Si19  1  0.505417  0.928074  0.150061  1
  O  O20  1  0.026446  0.346880  0.592492  1
  O  O21  1  0.473554  0.153120  0.592492  1
  O  O22  1  0.846880  0.526446  0.907508  1
  O  O23  1  0.346880  0.473554  0.592492  1
  O  O24  1  0.153120  0.026446  0.592492  1
  O  O25  1  0.973554  0.846880  0.907508  1
  O  O26  1  0.526446  0.653120  0.907508  1
  O  O27  1  0.653120  0.973554  0.907508  1
  O  O28  1  0.973554  0.653120  0.407508  1
  O  O29  1  0.526446  0.846880  0.407508  1
  O  O30  1  0.153120  0.473554  0.092492  1
  O  O31  1  0.653120  0.526446  0.407508  1
  O  O32  1  0.846880  0.973554  0.407508  1
  O  O33  1  0.026446  0.153120  0.092492  1
  O  O34  1  0.473554  0.346880  0.092492  1
  O  O35  1  0.995918  0.289967  0.371441  1
  O  O36  1  0.346880  0.026446  0.092492  1
  O  O37  1  0.495918  0.789967  0.628560  1
  O  O38  1  0.210033  0.504082  0.871440  1
  O  O39  1  0.710033  0.495918  0.628560  1
  O  O40  1  0.789967  0.004082  0.628560  1
  O  O41  1  0.995918  0.210033  0.871440  1
  O  O42  1  0.504082  0.289967  0.871440  1
  O  O43  1  0.289967  0.995918  0.871440  1
  O  O44  1  0.461832  0.961831  0.250000  1
  O  O45  1  0.538168  0.461832  0.250000  1
  O  O46  1  0.961831  0.038168  0.250000  1
  O  O47  1  0.038168  0.538168  0.250000  1
  O  O48  1  0.538168  0.038168  0.750000  1
  O  O49  1  0.461832  0.538168  0.750000  1
  O  O50  1  0.038168  0.961831  0.750000  1
  O  O51  1  0.961831  0.461832  0.750000  1
  O  O52  1  0.710033  0.004082  0.128559  1
  O  O53  1  0.495918  0.710033  0.128559  1
  O  O54  1  0.004082  0.789967  0.128559  1
  O  O55  1  0.210033  0.995918  0.371441  1
  O  O56  1  0.289967  0.504082  0.371441  1
  O  O57  1  0.789967  0.495918  0.128559  1
  O  O58  1  0.504082  0.210033  0.371441  1
  O  O59  1  0.004082  0.710033  0.628560  1
