# generated using pymatgen
data_VZnO3
_symmetry_space_group_name_H-M   'P 1'
_cell_length_a   5.15386382
_cell_length_b   5.15050570
_cell_length_c   7.64351242
_cell_angle_alpha   90.00287454
_cell_angle_beta   90.00122416
_cell_angle_gamma   89.99203303
_symmetry_Int_Tables_number   1
_chemical_formula_structural   VZnO3
_chemical_formula_sum   'V4 Zn4 O12'
_cell_volume   202.89707335
_cell_formula_units_Z   4
loop_
 _symmetry_equiv_pos_site_id
 _symmetry_equiv_pos_as_xyz
  1  'x, y, z'
loop_
 _atom_site_type_symbol
 _atom_site_label
 _atom_site_symmetry_multiplicity
 _atom_site_fract_x
 _atom_site_fract_y
 _atom_site_fract_z
 _atom_site_occupancy
  V  V0  1  0.500000  -0.000005  0.000001  1
  V  V1  1  0.000000  0.500003  -0.000001  1
  V  V2  1  0.000000  0.500001  0.500003  1
  V  V3  1  0.499998  1.000000  0.500000  1
  Zn  Zn4  1  0.006864  0.033558  0.249973  1
  Zn  Zn5  1  0.506845  0.466430  0.750023  1
  Zn  Zn6  1  0.493156  0.533570  0.249976  1
  Zn  Zn7  1  0.993136  0.966441  0.750026  1
  O  O8  1  0.886189  0.572785  0.749897  1
  O  O9  1  0.386148  0.927192  0.250056  1
  O  O10  1  0.613852  0.072808  0.749944  1
  O  O11  1  0.113811  0.427215  0.250102  1
  O  O12  1  0.670253  0.308649  0.437865  1
  O  O13  1  0.170094  0.191595  0.562111  1
  O  O14  1  0.829849  0.808541  0.062165  1
  O  O15  1  0.329786  0.691376  0.937825  1
  O  O16  1  0.670214  0.308625  0.062175  1
  O  O17  1  0.170151  0.191458  0.937835  1
  O  O18  1  0.329747  0.691352  0.562134  1
  O  O19  1  0.829906  0.808407  0.437888  1
