# generated using pymatgen
data_Ca(SnO2)2
_symmetry_space_group_name_H-M   'P 1'
_cell_length_a   6.83955502
_cell_length_b   6.83955688
_cell_length_c   6.84249248
_cell_angle_alpha   119.98581526
_cell_angle_beta   119.98580822
_cell_angle_gamma   89.99998979
_symmetry_Int_Tables_number   1
_chemical_formula_structural   Ca(SnO2)2
_chemical_formula_sum   'Ca2 Sn4 O8'
_cell_volume   226.43384959
_cell_formula_units_Z   2
loop_
 _symmetry_equiv_pos_site_id
 _symmetry_equiv_pos_as_xyz
  1  'x, y, z'
loop_
 _atom_site_type_symbol
 _atom_site_label
 _atom_site_symmetry_multiplicity
 _atom_site_fract_x
 _atom_site_fract_y
 _atom_site_fract_z
 _atom_site_occupancy
  Ca  Ca0  1  0.375000  0.625000  0.750000  1
  Ca  Ca1  1  0.625000  0.375000  0.250000  1
  Sn  Sn2  1  0.000000  0.000000  0.500000  1
  Sn  Sn3  1  0.000000  0.500000  0.000000  1
  Sn  Sn4  1  0.500000  0.000000  0.500000  1
  Sn  Sn5  1  0.000000  0.000000  0.000000  1
  O  O6  1  0.763386  0.789267  0.526774  1
  O  O7  1  0.762496  0.236614  0.973226  1
  O  O8  1  0.210733  0.236614  0.973226  1
  O  O9  1  0.236614  0.210733  0.473226  1
  O  O10  1  0.236614  0.762496  0.473226  1
  O  O11  1  0.237505  0.763386  0.026774  1
  O  O12  1  0.763386  0.237505  0.526774  1
  O  O13  1  0.789267  0.763386  0.026774  1
