# generated using pymatgen
data_CaCo2O5
_symmetry_space_group_name_H-M   'P 1'
_cell_length_a   3.71740843
_cell_length_b   5.85940972
_cell_length_c   11.19870549
_cell_angle_alpha   90.00000000
_cell_angle_beta   90.00000000
_cell_angle_gamma   108.49670981
_symmetry_Int_Tables_number   1
_chemical_formula_structural   CaCo2O5
_chemical_formula_sum   'Ca2 Co4 O10'
_cell_volume   231.32730466
_cell_formula_units_Z   2
loop_
 _symmetry_equiv_pos_site_id
 _symmetry_equiv_pos_as_xyz
  1  'x, y, z'
loop_
 _atom_site_type_symbol
 _atom_site_label
 _atom_site_symmetry_multiplicity
 _atom_site_fract_x
 _atom_site_fract_y
 _atom_site_fract_z
 _atom_site_occupancy
  Ca  Ca0  1  0.901838  0.803629  0.750000  1
  Ca  Ca1  1  0.098163  0.196372  0.250000  1
  Co  Co2  1  0.209690  0.419350  0.595171  1
  Co  Co3  1  0.790311  0.580651  0.404828  1
  Co  Co4  1  0.790311  0.580651  0.095172  1
  Co  Co5  1  0.209690  0.419350  0.904829  1
  O  O6  1  0.720869  0.441755  0.250000  1
  O  O7  1  0.279132  0.558246  0.750000  1
  O  O8  1  0.222142  0.444314  0.071240  1
  O  O9  1  0.777860  0.555687  0.928760  1
  O  O10  1  0.777860  0.555687  0.571240  1
  O  O11  1  0.222142  0.444314  0.428759  1
  O  O12  1  0.062043  0.124185  0.620263  1
  O  O13  1  0.937957  0.875814  0.379737  1
  O  O14  1  0.062043  0.124185  0.879737  1
  O  O15  1  0.937957  0.875814  0.120264  1
