# generated using pymatgen
data_Ca2TaCrO6
_symmetry_space_group_name_H-M   'P 1'
_cell_length_a   5.44355922
_cell_length_b   5.60775457
_cell_length_c   7.83303742
_cell_angle_alpha   90.00000000
_cell_angle_beta   90.00000000
_cell_angle_gamma   89.80138063
_symmetry_Int_Tables_number   1
_chemical_formula_structural   Ca2TaCrO6
_chemical_formula_sum   'Ca4 Ta2 Cr2 O12'
_cell_volume   239.11099229
_cell_formula_units_Z   2
loop_
 _symmetry_equiv_pos_site_id
 _symmetry_equiv_pos_as_xyz
  1  'x, y, z'
loop_
 _atom_site_type_symbol
 _atom_site_label
 _atom_site_symmetry_multiplicity
 _atom_site_fract_x
 _atom_site_fract_y
 _atom_site_fract_z
 _atom_site_occupancy
  Ca  Ca0  1  0.010278  0.960352  0.250000  1
  Ca  Ca1  1  0.489040  0.434839  0.250000  1
  Ca  Ca2  1  0.510960  0.565161  0.750000  1
  Ca  Ca3  1  0.989722  0.039648  0.750000  1
  Ta  Ta4  1  0.000000  0.500000  0.000000  1
  Ta  Ta5  1  0.000000  0.500000  0.500000  1
  Cr  Cr6  1  0.500000  0.000000  0.000000  1
  Cr  Cr7  1  0.500000  0.000000  0.500000  1
  O  O8  1  0.798269  0.788127  0.546252  1
  O  O9  1  0.291293  0.702242  0.456091  1
  O  O10  1  0.201731  0.211873  0.453748  1
  O  O11  1  0.708707  0.297758  0.956091  1
  O  O12  1  0.087193  0.473834  0.750000  1
  O  O13  1  0.708707  0.297758  0.543909  1
  O  O14  1  0.291293  0.702242  0.043909  1
  O  O15  1  0.798269  0.788127  0.953748  1
  O  O16  1  0.593528  0.028793  0.250000  1
  O  O17  1  0.201731  0.211873  0.046252  1
  O  O18  1  0.406472  0.971207  0.750000  1
  O  O19  1  0.912807  0.526166  0.250000  1
