# generated using pymatgen
data_CaSn(PO3)4
_symmetry_space_group_name_H-M   'P 1'
_cell_length_a   7.89458805
_cell_length_b   7.90822072
_cell_length_c   10.60410130
_cell_angle_alpha   100.47785259
_cell_angle_beta   107.63218405
_cell_angle_gamma   110.43999502
_symmetry_Int_Tables_number   1
_chemical_formula_structural   CaSn(PO3)4
_chemical_formula_sum   'Ca2 Sn2 P8 O24'
_cell_volume   559.70259940
_cell_formula_units_Z   2
loop_
 _symmetry_equiv_pos_site_id
 _symmetry_equiv_pos_as_xyz
  1  'x, y, z'
loop_
 _atom_site_type_symbol
 _atom_site_label
 _atom_site_symmetry_multiplicity
 _atom_site_fract_x
 _atom_site_fract_y
 _atom_site_fract_z
 _atom_site_occupancy
  Ca  Ca0  1  0.726450  0.978139  0.750134  1
  Ca  Ca1  1  0.271609  0.022323  0.249482  1
  Sn  Sn2  1  0.499945  0.501100  0.500728  1
  Sn  Sn3  1  0.499724  0.000170  0.999428  1
  P  P4  1  0.506102  0.321078  0.813540  1
  P  P5  1  0.006440  0.694906  0.685845  1
  P  P6  1  0.493234  0.680268  0.186094  1
  P  P7  1  0.993964  0.307369  0.314663  1
  P  P8  1  0.754103  0.716040  0.014442  1
  P  P9  1  0.200009  0.740088  0.484193  1
  P  P10  1  0.244489  0.283950  0.984450  1
  P  P11  1  0.799391  0.262634  0.516852  1
  O  O12  1  0.333318  0.311914  0.866693  1
  O  O13  1  0.943793  0.469146  0.634598  1
  O  O14  1  0.665657  0.689708  0.132483  1
  O  O15  1  0.057671  0.533261  0.366406  1
  O  O16  1  0.699985  0.498602  0.934723  1
  O  O17  1  0.060269  0.764141  0.562841  1
  O  O18  1  0.299756  0.500824  0.066114  1
  O  O19  1  0.936366  0.237049  0.436229  1
  O  O20  1  0.454140  0.356431  0.677036  1
  O  O21  1  0.179817  0.780931  0.821577  1
  O  O22  1  0.547040  0.647733  0.323516  1
  O  O23  1  0.822697  0.222233  0.177842  1
  O  O24  1  0.547112  0.147943  0.819882  1
  O  O25  1  0.827127  0.729987  0.680265  1
  O  O26  1  0.449791  0.851896  0.177882  1
  O  O27  1  0.173616  0.271512  0.322349  1
  O  O28  1  0.648039  0.797313  0.915033  1
  O  O29  1  0.381490  0.735462  0.584420  1
  O  O30  1  0.349168  0.200092  0.082445  1
  O  O31  1  0.617239  0.268167  0.417995  1
  O  O32  1  0.971870  0.817576  0.087582  1
  O  O33  1  0.227189  0.883672  0.410390  1
  O  O34  1  0.026722  0.183761  0.911162  1
  O  O35  1  0.772534  0.118931  0.590512  1
