# generated using pymatgen
data_BaAlCrCuO5
_symmetry_space_group_name_H-M   'P 1'
_cell_length_a   3.76214746
_cell_length_b   3.76216583
_cell_length_c   7.84250344
_cell_angle_alpha   90.02663170
_cell_angle_beta   90.00034939
_cell_angle_gamma   89.98192604
_symmetry_Int_Tables_number   1
_chemical_formula_structural   BaAlCrCuO5
_chemical_formula_sum   'Ba1 Al1 Cr1 Cu1 O5'
_cell_volume   111.00138497
_cell_formula_units_Z   1
loop_
 _symmetry_equiv_pos_site_id
 _symmetry_equiv_pos_as_xyz
  1  'x, y, z'
loop_
 _atom_site_type_symbol
 _atom_site_label
 _atom_site_symmetry_multiplicity
 _atom_site_fract_x
 _atom_site_fract_y
 _atom_site_fract_z
 _atom_site_occupancy
  Ba  Ba0  1  0.000007  0.000015  0.998404  1
  Al  Al1  1  0.000016  0.999970  0.467635  1
  Cr  Cr2  1  0.499989  0.499954  0.682216  1
  Cu  Cu3  1  0.500010  0.500053  0.270722  1
  O  O4  1  0.999976  0.499810  0.617935  1
  O  O5  1  0.499974  0.999892  0.617935  1
  O  O6  1  0.000010  0.500208  0.302565  1
  O  O7  1  0.500006  0.000088  0.302564  1
  O  O8  1  0.500007  0.500004  0.927939  1
