# generated using pymatgen
data_Ca3Fe3(AsO4)4
_symmetry_space_group_name_H-M   'P 1'
_cell_length_a   5.19220071
_cell_length_b   9.20383681
_cell_length_c   15.72746930
_cell_angle_alpha   95.00097461
_cell_angle_beta   90.00000000
_cell_angle_gamma   90.00000000
_symmetry_Int_Tables_number   1
_chemical_formula_structural   Ca3Fe3(AsO4)4
_chemical_formula_sum   'Ca6 Fe6 As8 O32'
_cell_volume   748.72581607
_cell_formula_units_Z   2
loop_
 _symmetry_equiv_pos_site_id
 _symmetry_equiv_pos_as_xyz
  1  'x, y, z'
loop_
 _atom_site_type_symbol
 _atom_site_label
 _atom_site_symmetry_multiplicity
 _atom_site_fract_x
 _atom_site_fract_y
 _atom_site_fract_z
 _atom_site_occupancy
  Ca  Ca0  1  0.958987  0.042516  0.730594  1
  Ca  Ca1  1  0.458987  0.457483  0.769406  1
  Ca  Ca2  1  0.041013  0.957484  0.269406  1
  Ca  Ca3  1  0.541013  0.542516  0.230594  1
  Ca  Ca4  1  0.000000  0.000000  0.000000  1
  Ca  Ca5  1  0.500000  0.500000  0.500000  1
  Fe  Fe6  1  0.025422  0.318955  0.120697  1
  Fe  Fe7  1  0.974578  0.681045  0.879303  1
  Fe  Fe8  1  0.525422  0.181045  0.379303  1
  Fe  Fe9  1  0.474578  0.818955  0.620697  1
  Fe  Fe10  1  0.500000  0.500000  0.000000  1
  Fe  Fe11  1  0.000000  0.000000  0.500000  1
  As  As12  1  0.492993  0.880927  0.842363  1
  As  As13  1  0.006916  0.339001  0.901808  1
  As  As14  1  0.506916  0.160999  0.598192  1
  As  As15  1  0.493084  0.839001  0.401808  1
  As  As16  1  0.507007  0.119073  0.157637  1
  As  As17  1  0.993084  0.660999  0.098192  1
  As  As18  1  0.007007  0.380927  0.342363  1
  As  As19  1  0.992993  0.619073  0.657637  1
  O  O20  1  0.053751  0.572563  0.759970  1
  O  O21  1  0.547937  0.254402  0.510171  1
  O  O22  1  0.114736  0.247606  0.810561  1
  O  O23  1  0.091452  0.798577  0.649288  1
  O  O24  1  0.885265  0.752394  0.189439  1
  O  O25  1  0.446249  0.072563  0.259970  1
  O  O26  1  0.614735  0.252394  0.689439  1
  O  O27  1  0.804255  0.904165  0.394920  1
  O  O28  1  0.841932  0.504000  0.407298  1
  O  O29  1  0.946249  0.427437  0.240030  1
  O  O30  1  0.408548  0.298577  0.149288  1
  O  O31  1  0.195745  0.095835  0.605080  1
  O  O32  1  0.196492  0.498304  0.916912  1
  O  O33  1  0.158068  0.496000  0.592702  1
  O  O34  1  0.837324  0.112643  0.139976  1
  O  O35  1  0.337324  0.387357  0.360024  1
  O  O36  1  0.696492  0.001696  0.583088  1
  O  O37  1  0.385265  0.747606  0.310561  1
  O  O38  1  0.341932  0.996000  0.092702  1
  O  O39  1  0.304255  0.595835  0.105080  1
  O  O40  1  0.662676  0.612643  0.639976  1
  O  O41  1  0.162676  0.887357  0.860024  1
  O  O42  1  0.452063  0.745598  0.489829  1
  O  O43  1  0.047937  0.245598  0.989829  1
  O  O44  1  0.803508  0.501696  0.083088  1
  O  O45  1  0.553751  0.927437  0.740030  1
  O  O46  1  0.908548  0.201422  0.350712  1
  O  O47  1  0.658068  0.004000  0.907298  1
  O  O48  1  0.952063  0.754402  0.010171  1
  O  O49  1  0.695745  0.404165  0.894920  1
  O  O50  1  0.303508  0.998304  0.416912  1
  O  O51  1  0.591452  0.701423  0.850712  1
