# generated using pymatgen
data_W9O13
_symmetry_space_group_name_H-M   'P 1'
_cell_length_a   3.25798507
_cell_length_b   6.93010011
_cell_length_c   17.63670349
_cell_angle_alpha   93.66587976
_cell_angle_beta   88.34448231
_cell_angle_gamma   107.72314813
_symmetry_Int_Tables_number   1
_chemical_formula_structural   W9O13
_chemical_formula_sum   'W9 O13'
_cell_volume   378.51029352
_cell_formula_units_Z   1
loop_
 _symmetry_equiv_pos_site_id
 _symmetry_equiv_pos_as_xyz
  1  'x, y, z'
loop_
 _atom_site_type_symbol
 _atom_site_label
 _atom_site_symmetry_multiplicity
 _atom_site_fract_x
 _atom_site_fract_y
 _atom_site_fract_z
 _atom_site_occupancy
  W  W0  1  0.500000  -0.000000  0.500000  1
  W  W1  1  0.649429  0.321283  0.996673  1
  W  W2  1  0.350571  0.678717  0.003327  1
  W  W3  1  0.928066  0.671415  0.369156  1
  W  W4  1  0.071934  0.328585  0.630844  1
  W  W5  1  0.997551  0.028665  0.119864  1
  W  W6  1  0.002449  0.971335  0.880136  1
  W  W7  1  0.048615  0.185944  0.331047  1
  W  W8  1  0.951385  0.814056  0.668953  1
  O  O9  1  0.000000  -0.000000  -0.000000  1
  O  O10  1  0.997511  0.055497  0.231794  1
  O  O11  1  0.002489  0.944503  0.768206  1
  O  O12  1  0.386191  0.822559  0.108566  1
  O  O13  1  0.613809  0.177441  0.891434  1
  O  O14  1  0.608801  0.227830  0.105757  1
  O  O15  1  0.391199  0.772170  0.894243  1
  O  O16  1  0.699609  0.382376  0.321386  1
  O  O17  1  0.300391  0.617624  0.678614  1
  O  O18  1  0.408927  0.022973  0.376766  1
  O  O19  1  0.591073  0.977027  0.623234  1
  O  O20  1  0.126477  0.207714  0.522865  1
  O  O21  1  0.873523  0.792286  0.477135  1
