# generated using pymatgen
data_Ba2Mn3O8
_symmetry_space_group_name_H-M   'P 1'
_cell_length_a   3.88559401
_cell_length_b   3.87411324
_cell_length_c   12.43645997
_cell_angle_alpha   89.99732144
_cell_angle_beta   89.99388791
_cell_angle_gamma   89.97851069
_symmetry_Int_Tables_number   1
_chemical_formula_structural   Ba2Mn3O8
_chemical_formula_sum   'Ba2 Mn3 O8'
_cell_volume   187.20889296
_cell_formula_units_Z   1
loop_
 _symmetry_equiv_pos_site_id
 _symmetry_equiv_pos_as_xyz
  1  'x, y, z'
loop_
 _atom_site_type_symbol
 _atom_site_label
 _atom_site_symmetry_multiplicity
 _atom_site_fract_x
 _atom_site_fract_y
 _atom_site_fract_z
 _atom_site_occupancy
  Ba  Ba0  1  0.499948  0.499985  0.169152  1
  Ba  Ba1  1  0.500084  0.499959  0.831125  1
  Mn  Mn2  1  0.999793  0.000081  0.331460  1
  Mn  Mn3  1  -0.000017  0.000006  0.000225  1
  Mn  Mn4  1  0.000208  0.999816  0.668240  1
  O  O5  1  0.000021  0.500019  0.348774  1
  O  O6  1  0.500018  0.000028  0.348860  1
  O  O7  1  0.499992  0.999973  0.999961  1
  O  O8  1  0.999957  0.999970  0.180594  1
  O  O9  1  -0.000034  0.500096  0.651257  1
  O  O10  1  0.499969  0.000098  0.651093  1
  O  O11  1  0.000070  0.999974  0.819278  1
  O  O12  1  -0.000009  0.499994  -0.000018  1
