# generated using pymatgen
data_ZnW2O5
_symmetry_space_group_name_H-M   'P 1'
_cell_length_a   3.79669755
_cell_length_b   6.03125821
_cell_length_c   10.93104496
_cell_angle_alpha   90.00000000
_cell_angle_beta   90.00000000
_cell_angle_gamma   108.34581750
_symmetry_Int_Tables_number   1
_chemical_formula_structural   ZnW2O5
_chemical_formula_sum   'Zn2 W4 O10'
_cell_volume   237.58634527
_cell_formula_units_Z   2
loop_
 _symmetry_equiv_pos_site_id
 _symmetry_equiv_pos_as_xyz
  1  'x, y, z'
loop_
 _atom_site_type_symbol
 _atom_site_label
 _atom_site_symmetry_multiplicity
 _atom_site_fract_x
 _atom_site_fract_y
 _atom_site_fract_z
 _atom_site_occupancy
  Zn  Zn0  1  0.909124  0.818245  0.750000  1
  Zn  Zn1  1  0.090877  0.181756  0.250000  1
  W  W2  1  0.189755  0.379510  0.623095  1
  W  W3  1  0.810246  0.620491  0.376904  1
  W  W4  1  0.810246  0.620491  0.123096  1
  W  W5  1  0.189755  0.379510  0.876905  1
  O  O6  1  0.663960  0.327921  0.250000  1
  O  O7  1  0.336041  0.672080  0.750000  1
  O  O8  1  0.258106  0.516210  0.087788  1
  O  O9  1  0.741896  0.483791  0.912212  1
  O  O10  1  0.741896  0.483791  0.587788  1
  O  O11  1  0.258106  0.516210  0.412211  1
  O  O12  1  0.033144  0.066287  0.620222  1
  O  O13  1  0.966856  0.933712  0.379778  1
  O  O14  1  0.033144  0.066287  0.879778  1
  O  O15  1  0.966856  0.933712  0.120223  1
