# generated using pymatgen
data_BaCr4O8
_symmetry_space_group_name_H-M   'P 1'
_cell_length_a   5.61746282
_cell_length_b   5.61746235
_cell_length_c   7.94403073
_cell_angle_alpha   90.00000000
_cell_angle_beta   90.00000000
_cell_angle_gamma   119.99999445
_symmetry_Int_Tables_number   1
_chemical_formula_structural   BaCr4O8
_chemical_formula_sum   'Ba1 Cr4 O8'
_cell_volume   217.09606352
_cell_formula_units_Z   1
loop_
 _symmetry_equiv_pos_site_id
 _symmetry_equiv_pos_as_xyz
  1  'x, y, z'
loop_
 _atom_site_type_symbol
 _atom_site_label
 _atom_site_symmetry_multiplicity
 _atom_site_fract_x
 _atom_site_fract_y
 _atom_site_fract_z
 _atom_site_occupancy
  Ba  Ba0  1  0.000000  0.000000  0.000000  1
  Cr  Cr1  1  0.333333  0.666667  0.766740  1
  Cr  Cr2  1  0.666667  0.333333  0.766740  1
  Cr  Cr3  1  0.333333  0.666667  0.233260  1
  Cr  Cr4  1  0.666667  0.333333  0.233260  1
  O  O5  1  0.363753  0.363753  0.714691  1
  O  O6  1  0.636247  0.000000  0.714691  1
  O  O7  1  0.000000  0.636247  0.714691  1
  O  O8  1  0.636247  0.636247  0.285309  1
  O  O9  1  1.000000  0.363753  0.285309  1
  O  O10  1  0.363753  1.000000  0.285309  1
  O  O11  1  0.333333  0.666667  0.000000  1
  O  O12  1  0.666667  0.333333  -0.000000  1
