# generated using pymatgen
data_Sr2CoSO3
_symmetry_space_group_name_H-M   'P 1'
_cell_length_a   4.02786807
_cell_length_b   4.03217742
_cell_length_c   14.35390556
_cell_angle_alpha   89.99851703
_cell_angle_beta   89.96563479
_cell_angle_gamma   89.99542906
_symmetry_Int_Tables_number   1
_chemical_formula_structural   Sr2CoSO3
_chemical_formula_sum   'Sr4 Co2 S2 O6'
_cell_volume   233.12286723
_cell_formula_units_Z   2
loop_
 _symmetry_equiv_pos_site_id
 _symmetry_equiv_pos_as_xyz
  1  'x, y, z'
loop_
 _atom_site_type_symbol
 _atom_site_label
 _atom_site_symmetry_multiplicity
 _atom_site_fract_x
 _atom_site_fract_y
 _atom_site_fract_z
 _atom_site_occupancy
  Sr  Sr0  1  0.749865  0.750213  0.166017  1
  Sr  Sr1  1  0.249912  0.250196  0.834074  1
  Sr  Sr2  1  0.749376  0.750263  0.403585  1
  Sr  Sr3  1  0.250543  0.250228  0.596326  1
  Co  Co4  1  0.248127  0.251011  0.292971  1
  Co  Co5  1  0.751119  0.750948  0.706852  1
  S  S6  1  0.250385  0.249994  0.119489  1
  S  S7  1  0.749504  0.750001  0.880743  1
  O  O8  1  0.750894  0.250117  0.286995  1
  O  O9  1  0.249909  0.749522  0.287061  1
  O  O10  1  0.249441  0.750104  0.713015  1
  O  O11  1  0.750058  0.249567  0.712939  1
  O  O12  1  0.251755  0.248874  0.423201  1
  O  O13  1  0.749113  0.748962  0.576731  1
