# generated using pymatgen
data_CaV3P3O13
_symmetry_space_group_name_H-M   'P 1'
_cell_length_a   6.38583730
_cell_length_b   7.65560885
_cell_length_c   10.49665396
_cell_angle_alpha   99.99393680
_cell_angle_beta   90.00000000
_cell_angle_gamma   90.00000000
_symmetry_Int_Tables_number   1
_chemical_formula_structural   CaV3P3O13
_chemical_formula_sum   'Ca2 V6 P6 O26'
_cell_volume   505.36833309
_cell_formula_units_Z   2
loop_
 _symmetry_equiv_pos_site_id
 _symmetry_equiv_pos_as_xyz
  1  'x, y, z'
loop_
 _atom_site_type_symbol
 _atom_site_label
 _atom_site_symmetry_multiplicity
 _atom_site_fract_x
 _atom_site_fract_y
 _atom_site_fract_z
 _atom_site_occupancy
  Ca  Ca0  1  0.750000  0.654713  0.193596  1
  Ca  Ca1  1  0.250000  0.345287  0.806404  1
  V  V2  1  0.250000  0.358350  0.198989  1
  V  V3  1  0.750000  0.641650  0.801011  1
  V  V4  1  0.250000  0.779449  0.437549  1
  V  V5  1  0.500000  0.000000  0.000000  1
  V  V6  1  0.750000  0.220551  0.562451  1
  V  V7  1  -0.000000  0.000000  0.000000  1
  P  P8  1  0.250000  0.214743  0.487262  1
  P  P9  1  0.750000  0.785257  0.512738  1
  P  P10  1  0.250000  0.739219  0.763058  1
  P  P11  1  0.750000  0.260781  0.236942  1
  P  P12  1  0.750000  0.316874  0.887913  1
  P  P13  1  0.250000  0.683126  0.112087  1
  O  O14  1  0.750000  0.358906  0.746959  1
  O  O15  1  0.560148  0.749739  0.417177  1
  O  O16  1  0.250000  0.790473  0.629895  1
  O  O17  1  0.548034  0.211702  0.904663  1
  O  O18  1  0.750000  0.658223  0.609653  1
  O  O19  1  0.750000  0.877903  0.910202  1
  O  O20  1  0.250000  0.341777  0.390347  1
  O  O21  1  0.048034  0.788298  0.095337  1
  O  O22  1  0.250000  0.021360  0.412744  1
  O  O23  1  0.750000  0.978640  0.587256  1
  O  O24  1  0.062264  0.619446  0.787482  1
  O  O25  1  0.250000  0.122097  0.089798  1
  O  O26  1  0.562264  0.380554  0.212518  1
  O  O27  1  0.750000  0.507365  0.967355  1
  O  O28  1  0.750000  0.209527  0.370105  1
  O  O29  1  0.451966  0.788298  0.095337  1
  O  O30  1  0.939852  0.749739  0.417177  1
  O  O31  1  0.439852  0.250261  0.582823  1
  O  O32  1  0.437736  0.619446  0.787482  1
  O  O33  1  0.250000  0.641094  0.253041  1
  O  O34  1  0.750000  0.089216  0.131378  1
  O  O35  1  0.250000  0.910784  0.868622  1
  O  O36  1  0.937736  0.380554  0.212518  1
  O  O37  1  0.951966  0.211702  0.904663  1
  O  O38  1  0.060148  0.250261  0.582823  1
  O  O39  1  0.250000  0.492635  0.032645  1
