# generated using pymatgen
data_Mn2Nb2ZnO9
_symmetry_space_group_name_H-M   'P 1'
_cell_length_a   5.25458525
_cell_length_b   5.25458486
_cell_length_c   14.08709360
_cell_angle_alpha   90.00000000
_cell_angle_beta   90.00000000
_cell_angle_gamma   120.00000242
_symmetry_Int_Tables_number   1
_chemical_formula_structural   Mn2Nb2ZnO9
_chemical_formula_sum   'Mn4 Nb4 Zn2 O18'
_cell_volume   336.84404464
_cell_formula_units_Z   2
loop_
 _symmetry_equiv_pos_site_id
 _symmetry_equiv_pos_as_xyz
  1  'x, y, z'
loop_
 _atom_site_type_symbol
 _atom_site_label
 _atom_site_symmetry_multiplicity
 _atom_site_fract_x
 _atom_site_fract_y
 _atom_site_fract_z
 _atom_site_occupancy
  Mn  Mn0  1  0.333333  0.666667  0.006168  1
  Mn  Mn1  1  0.333333  0.666667  0.506168  1
  Mn  Mn2  1  0.666667  0.333333  0.004696  1
  Mn  Mn3  1  0.666667  0.333333  0.504696  1
  Nb  Nb4  1  0.000000  0.000000  0.649211  1
  Nb  Nb5  1  0.000000  0.000000  0.149211  1
  Nb  Nb6  1  0.000000  0.000000  0.861023  1
  Nb  Nb7  1  0.000000  0.000000  0.361023  1
  Zn  Zn8  1  0.333333  0.666667  0.268861  1
  Zn  Zn9  1  0.333333  0.666667  0.768861  1
  O  O10  1  0.653701  0.687265  0.582364  1
  O  O11  1  0.012388  0.731743  0.755867  1
  O  O12  1  0.647837  0.963073  0.426768  1
  O  O13  1  0.315235  0.352163  0.426768  1
  O  O14  1  0.033564  0.346299  0.582364  1
  O  O15  1  0.719355  0.731743  0.255867  1
  O  O16  1  0.036927  0.352163  0.926768  1
  O  O17  1  0.312735  0.966436  0.582364  1
  O  O18  1  0.312735  0.346299  0.082364  1
  O  O19  1  0.036927  0.684765  0.426768  1
  O  O20  1  0.647837  0.684765  0.926768  1
  O  O21  1  0.653701  0.966436  0.082364  1
  O  O22  1  0.719355  0.987612  0.755867  1
  O  O23  1  0.268257  0.280645  0.755867  1
  O  O24  1  0.268257  0.987612  0.255867  1
  O  O25  1  0.033564  0.687265  0.082364  1
  O  O26  1  0.012388  0.280645  0.255867  1
  O  O27  1  0.315235  0.963073  0.926768  1
