# generated using pymatgen
data_MoO2
_symmetry_space_group_name_H-M   'P 1'
_cell_length_a   5.44696692
_cell_length_b   5.44696670
_cell_length_c   5.44696658
_cell_angle_alpha   31.51272790
_cell_angle_beta   31.51272895
_cell_angle_gamma   31.51273102
_symmetry_Int_Tables_number   1
_chemical_formula_structural   MoO2
_chemical_formula_sum   'Mo1 O2'
_cell_volume   39.19880589
_cell_formula_units_Z   1
loop_
 _symmetry_equiv_pos_site_id
 _symmetry_equiv_pos_as_xyz
  1  'x, y, z'
loop_
 _atom_site_type_symbol
 _atom_site_label
 _atom_site_symmetry_multiplicity
 _atom_site_fract_x
 _atom_site_fract_y
 _atom_site_fract_z
 _atom_site_occupancy
  Mo  Mo0  1  0.500002  0.499999  0.500000  1
  O  O1  1  0.757966  0.757963  0.757964  1
  O  O2  1  0.242037  0.242034  0.242035  1
