# generated using pymatgen
data_Ca(MnS2)4
_symmetry_space_group_name_H-M   'P 1'
_cell_length_a   7.73818457
_cell_length_b   7.73818427
_cell_length_c   7.73818556
_cell_angle_alpha   51.38970688
_cell_angle_beta   51.38970189
_cell_angle_gamma   51.38970781
_symmetry_Int_Tables_number   1
_chemical_formula_structural   Ca(MnS2)4
_chemical_formula_sum   'Ca1 Mn4 S8'
_cell_volume   261.20654102
_cell_formula_units_Z   1
loop_
 _symmetry_equiv_pos_site_id
 _symmetry_equiv_pos_as_xyz
  1  'x, y, z'
loop_
 _atom_site_type_symbol
 _atom_site_label
 _atom_site_symmetry_multiplicity
 _atom_site_fract_x
 _atom_site_fract_y
 _atom_site_fract_z
 _atom_site_occupancy
  Ca  Ca0  1  0.500000  0.500001  0.499999  1
  Mn  Mn1  1  0.500001  0.999999  0.500001  1
  Mn  Mn2  1  0.999999  0.500000  0.500001  1
  Mn  Mn3  1  0.500000  0.500000  0.000000  1
  Mn  Mn4  1  0.000000  0.000000  0.000000  1
  S  S5  1  0.769486  0.266212  0.769486  1
  S  S6  1  0.230513  0.230514  0.733788  1
  S  S7  1  0.230513  0.733789  0.230513  1
  S  S8  1  0.733787  0.230514  0.230514  1
  S  S9  1  0.268067  0.268068  0.268067  1
  S  S10  1  0.731933  0.731933  0.731933  1
  S  S11  1  0.266213  0.769487  0.769486  1
  S  S12  1  0.769487  0.769487  0.266212  1
