# generated using pymatgen
data_Mg3Cr3(AsO4)4
_symmetry_space_group_name_H-M   'P 1'
_cell_length_a   5.21650203
_cell_length_b   8.80095273
_cell_length_c   15.09414411
_cell_angle_alpha   99.31588016
_cell_angle_beta   90.00000000
_cell_angle_gamma   90.00000000
_symmetry_Int_Tables_number   1
_chemical_formula_structural   Mg3Cr3(AsO4)4
_chemical_formula_sum   'Mg6 Cr6 As8 O32'
_cell_volume   683.83526596
_cell_formula_units_Z   2
loop_
 _symmetry_equiv_pos_site_id
 _symmetry_equiv_pos_as_xyz
  1  'x, y, z'
loop_
 _atom_site_type_symbol
 _atom_site_label
 _atom_site_symmetry_multiplicity
 _atom_site_fract_x
 _atom_site_fract_y
 _atom_site_fract_z
 _atom_site_occupancy
  Mg  Mg0  1  0.963246  0.016387  0.717436  1
  Mg  Mg1  1  0.463246  0.483613  0.782564  1
  Mg  Mg2  1  0.036754  0.983613  0.282564  1
  Mg  Mg3  1  0.536754  0.516387  0.217436  1
  Mg  Mg4  1  0.000000  -0.000000  0.000000  1
  Mg  Mg5  1  0.500000  0.500000  0.500000  1
  Cr  Cr6  1  0.998559  0.327784  0.122237  1
  Cr  Cr7  1  0.001441  0.672216  0.877763  1
  Cr  Cr8  1  0.498559  0.172216  0.377763  1
  Cr  Cr9  1  0.501441  0.827784  0.622237  1
  Cr  Cr10  1  0.500000  0.500000  0.000000  1
  Cr  Cr11  1  0.000000  -0.000000  0.500000  1
  As  As12  1  0.510993  0.887909  0.851005  1
  As  As13  1  0.998192  0.312943  0.894514  1
  As  As14  1  0.498192  0.187057  0.605486  1
  As  As15  1  0.501808  0.812943  0.394514  1
  As  As16  1  0.489007  0.112091  0.148995  1
  As  As17  1  0.001808  0.687057  0.105486  1
  As  As18  1  0.989007  0.387909  0.351005  1
  As  As19  1  0.010993  0.612091  0.648995  1
  O  O20  1  0.102281  0.564866  0.752757  1
  O  O21  1  0.549118  0.266917  0.510175  1
  O  O22  1  0.081656  0.198879  0.799389  1
  O  O23  1  0.096938  0.806325  0.653299  1
  O  O24  1  0.918344  0.801121  0.200611  1
  O  O25  1  0.397719  0.064866  0.252756  1
  O  O26  1  0.581656  0.301121  0.700611  1
  O  O27  1  0.799005  0.898685  0.390049  1
  O  O28  1  0.817160  0.507150  0.426129  1
  O  O29  1  0.897719  0.435134  0.247244  1
  O  O30  1  0.403062  0.306325  0.153299  1
  O  O31  1  0.200995  0.101315  0.609951  1
  O  O32  1  0.208174  0.474486  0.907733  1
  O  O33  1  0.182840  0.492850  0.573871  1
  O  O34  1  0.817512  0.101178  0.134068  1
  O  O35  1  0.317512  0.398822  0.365932  1
  O  O36  1  0.708174  0.025514  0.592267  1
  O  O37  1  0.418344  0.698879  0.299389  1
  O  O38  1  0.317160  0.992850  0.073871  1
  O  O39  1  0.299005  0.601315  0.109951  1
  O  O40  1  0.682488  0.601178  0.634068  1
  O  O41  1  0.182488  0.898822  0.865932  1
  O  O42  1  0.450882  0.733083  0.489825  1
  O  O43  1  0.049118  0.233083  0.989825  1
  O  O44  1  0.791826  0.525514  0.092267  1
  O  O45  1  0.602281  0.935134  0.747243  1
  O  O46  1  0.903062  0.193675  0.346701  1
  O  O47  1  0.682840  0.007150  0.926129  1
  O  O48  1  0.950882  0.766917  0.010176  1
  O  O49  1  0.700995  0.398685  0.890049  1
  O  O50  1  0.291826  0.974486  0.407733  1
  O  O51  1  0.596938  0.693675  0.846701  1
