# generated using pymatgen
data_TiVZn(PO4)3
_symmetry_space_group_name_H-M   'P 1'
_cell_length_a   8.56588314
_cell_length_b   8.56588295
_cell_length_c   8.56588283
_cell_angle_alpha   60.46238894
_cell_angle_beta   60.46239088
_cell_angle_gamma   60.46239450
_symmetry_Int_Tables_number   1
_chemical_formula_structural   TiVZn(PO4)3
_chemical_formula_sum   'Ti2 V2 Zn2 P6 O24'
_cell_volume   449.07341026
_cell_formula_units_Z   2
loop_
 _symmetry_equiv_pos_site_id
 _symmetry_equiv_pos_as_xyz
  1  'x, y, z'
loop_
 _atom_site_type_symbol
 _atom_site_label
 _atom_site_symmetry_multiplicity
 _atom_site_fract_x
 _atom_site_fract_y
 _atom_site_fract_z
 _atom_site_occupancy
  Ti  Ti0  1  0.144600  0.144600  0.144600  1
  Ti  Ti1  1  0.644600  0.644600  0.644600  1
  V  V2  1  0.357131  0.357131  0.357131  1
  V  V3  1  0.857131  0.857131  0.857131  1
  Zn  Zn4  1  0.998487  0.998487  0.998487  1
  Zn  Zn5  1  0.498487  0.498487  0.498487  1
  P  P6  1  0.044887  0.456001  0.751318  1
  P  P7  1  0.456001  0.751318  0.044887  1
  P  P8  1  0.751318  0.044887  0.456001  1
  P  P9  1  0.251318  0.956001  0.544887  1
  P  P10  1  0.544887  0.251318  0.956001  1
  P  P11  1  0.956001  0.544887  0.251318  1
  O  O12  1  0.111897  0.505790  0.314320  1
  O  O13  1  0.314320  0.111897  0.505790  1
  O  O14  1  0.054201  0.259360  0.914656  1
  O  O15  1  0.505790  0.314320  0.111897  1
  O  O16  1  0.005790  0.611897  0.814320  1
  O  O17  1  0.239951  0.437370  0.590581  1
  O  O18  1  0.259360  0.914656  0.054201  1
  O  O19  1  0.437370  0.590581  0.239951  1
  O  O20  1  0.187462  0.001588  0.380399  1
  O  O21  1  0.590581  0.239951  0.437370  1
  O  O22  1  0.090581  0.937370  0.739951  1
  O  O23  1  0.380399  0.187462  0.001588  1
  O  O24  1  0.611897  0.814320  0.005790  1
  O  O25  1  0.914656  0.054201  0.259360  1
  O  O26  1  0.414656  0.759360  0.554201  1
  O  O27  1  0.814320  0.005790  0.611897  1
  O  O28  1  0.554201  0.414656  0.759360  1
  O  O29  1  0.739951  0.090581  0.937370  1
  O  O30  1  0.759360  0.554201  0.414656  1
  O  O31  1  0.001588  0.380399  0.187462  1
  O  O32  1  0.501588  0.687462  0.880399  1
  O  O33  1  0.937370  0.739951  0.090581  1
  O  O34  1  0.687462  0.880399  0.501588  1
  O  O35  1  0.880399  0.501588  0.687462  1
