# generated using pymatgen
data_Zn(CuO2)2
_symmetry_space_group_name_H-M   'P 1'
_cell_length_a   2.93750595
_cell_length_b   5.05380538
_cell_length_c   9.42533827
_cell_angle_alpha   90.00000000
_cell_angle_beta   90.00000000
_cell_angle_gamma   106.89526308
_symmetry_Int_Tables_number   1
_chemical_formula_structural   Zn(CuO2)2
_chemical_formula_sum   'Zn2 Cu4 O8'
_cell_volume   133.88516367
_cell_formula_units_Z   2
loop_
 _symmetry_equiv_pos_site_id
 _symmetry_equiv_pos_as_xyz
  1  'x, y, z'
loop_
 _atom_site_type_symbol
 _atom_site_label
 _atom_site_symmetry_multiplicity
 _atom_site_fract_x
 _atom_site_fract_y
 _atom_site_fract_z
 _atom_site_occupancy
  Zn  Zn0  1  0.390783  0.781567  0.750000  1
  Zn  Zn1  1  0.609217  0.218433  0.250000  1
  Cu  Cu2  1  0.868434  0.736870  0.069630  1
  Cu  Cu3  1  0.131566  0.263130  0.930370  1
  Cu  Cu4  1  0.868434  0.736870  0.430370  1
  Cu  Cu5  1  0.131566  0.263130  0.569630  1
  O  O6  1  0.221967  0.443934  0.387579  1
  O  O7  1  0.778033  0.556066  0.612421  1
  O  O8  1  0.778033  0.556066  0.887579  1
  O  O9  1  0.221967  0.443934  0.112421  1
  O  O10  1  0.959313  0.918628  0.250000  1
  O  O11  1  0.040687  0.081372  0.750000  1
  O  O12  1  0.500000  0.000000  -0.000000  1
  O  O13  1  0.500000  0.000000  0.500000  1
