# generated using pymatgen
data_Ca5(TiS2)8
_symmetry_space_group_name_H-M   'P 1'
_cell_length_a   7.10429716
_cell_length_b   7.15053510
_cell_length_c   13.32348483
_cell_angle_alpha   90.00000058
_cell_angle_beta   88.87339492
_cell_angle_gamma   120.21552620
_symmetry_Int_Tables_number   1
_chemical_formula_structural   Ca5(TiS2)8
_chemical_formula_sum   'Ca5 Ti8 S16'
_cell_volume   584.72058412
_cell_formula_units_Z   1
loop_
 _symmetry_equiv_pos_site_id
 _symmetry_equiv_pos_as_xyz
  1  'x, y, z'
loop_
 _atom_site_type_symbol
 _atom_site_label
 _atom_site_symmetry_multiplicity
 _atom_site_fract_x
 _atom_site_fract_y
 _atom_site_fract_z
 _atom_site_occupancy
  Ca  Ca0  1  0.000000  0.000000  0.250000  1
  Ca  Ca1  1  0.000000  0.000000  0.750000  1
  Ca  Ca2  1  0.000000  0.500000  0.750000  1
  Ca  Ca3  1  0.500000  0.000000  0.250000  1
  Ca  Ca4  1  0.500000  0.500000  0.250000  1
  Ti  Ti5  1  0.032556  0.016278  0.000782  1
  Ti  Ti6  1  0.967444  0.983722  0.499218  1
  Ti  Ti7  1  0.014021  0.507010  0.004313  1
  Ti  Ti8  1  0.985979  0.492990  0.495687  1
  Ti  Ti9  1  0.478676  0.003249  0.994816  1
  Ti  Ti10  1  0.521324  0.996751  0.505184  1
  Ti  Ti11  1  0.478676  0.475427  0.994816  1
  Ti  Ti12  1  0.521324  0.524573  0.505184  1
  S  S13  1  0.334350  0.167176  0.393507  1
  S  S14  1  0.340392  0.170196  0.883214  1
  S  S15  1  0.341755  0.670879  0.394910  1
  S  S16  1  0.336577  0.668289  0.895298  1
  S  S17  1  0.833931  0.166807  0.387351  1
  S  S18  1  0.844117  0.172243  0.898988  1
  S  S19  1  0.833931  0.667125  0.387351  1
  S  S20  1  0.844117  0.671874  0.898988  1
  S  S21  1  0.166069  0.332875  0.112649  1
  S  S22  1  0.155883  0.328126  0.601012  1
  S  S23  1  0.166069  0.833193  0.112649  1
  S  S24  1  0.155883  0.827757  0.601012  1
  S  S25  1  0.658245  0.329121  0.105090  1
  S  S26  1  0.663423  0.331711  0.604702  1
  S  S27  1  0.665650  0.832824  0.106493  1
  S  S28  1  0.659608  0.829804  0.616786  1
