# generated using pymatgen
data_Ca(BiO2)2
_symmetry_space_group_name_H-M   'P 1'
_cell_length_a   3.40795518
_cell_length_b   5.96616217
_cell_length_c   11.44068973
_cell_angle_alpha   90.00000000
_cell_angle_beta   90.00000000
_cell_angle_gamma   106.59513442
_symmetry_Int_Tables_number   1
_chemical_formula_structural   Ca(BiO2)2
_chemical_formula_sum   'Ca2 Bi4 O8'
_cell_volume   222.92760355
_cell_formula_units_Z   2
loop_
 _symmetry_equiv_pos_site_id
 _symmetry_equiv_pos_as_xyz
  1  'x, y, z'
loop_
 _atom_site_type_symbol
 _atom_site_label
 _atom_site_symmetry_multiplicity
 _atom_site_fract_x
 _atom_site_fract_y
 _atom_site_fract_z
 _atom_site_occupancy
  Ca  Ca0  1  0.386357  0.772715  0.750000  1
  Ca  Ca1  1  0.613643  0.227285  0.250000  1
  Bi  Bi2  1  0.867626  0.735254  0.077262  1
  Bi  Bi3  1  0.132374  0.264746  0.922738  1
  Bi  Bi4  1  0.867626  0.735254  0.422738  1
  Bi  Bi5  1  0.132374  0.264746  0.577262  1
  O  O6  1  0.224909  0.449820  0.379338  1
  O  O7  1  0.775091  0.550180  0.620662  1
  O  O8  1  0.775091  0.550180  0.879338  1
  O  O9  1  0.224909  0.449820  0.120662  1
  O  O10  1  0.972315  0.944632  0.250000  1
  O  O11  1  0.027685  0.055368  0.750000  1
  O  O12  1  0.500000  -0.000000  0.000000  1
  O  O13  1  0.500000  -0.000000  0.500000  1
