# generated using pymatgen
data_CaNi(GeO3)2
_symmetry_space_group_name_H-M   'P 1'
_cell_length_a   5.31371003
_cell_length_b   9.17544481
_cell_length_c   10.24948655
_cell_angle_alpha   90.00000000
_cell_angle_beta   104.05290029
_cell_angle_gamma   90.00000000
_symmetry_Int_Tables_number   1
_chemical_formula_structural   CaNi(GeO3)2
_chemical_formula_sum   'Ca4 Ni4 Ge8 O24'
_cell_volume   484.76475359
_cell_formula_units_Z   4
loop_
 _symmetry_equiv_pos_site_id
 _symmetry_equiv_pos_as_xyz
  1  'x, y, z'
loop_
 _atom_site_type_symbol
 _atom_site_label
 _atom_site_symmetry_multiplicity
 _atom_site_fract_x
 _atom_site_fract_y
 _atom_site_fract_z
 _atom_site_occupancy
  Ca  Ca0  1  0.470592  0.453823  0.275524  1
  Ca  Ca1  1  0.029408  0.953823  0.724476  1
  Ca  Ca2  1  0.529408  0.546177  0.724476  1
  Ca  Ca3  1  0.970592  0.046177  0.275524  1
  Ni  Ni4  1  0.965373  0.664597  0.233886  1
  Ni  Ni5  1  0.534627  0.164597  0.766114  1
  Ni  Ni6  1  0.034627  0.335403  0.766114  1
  Ni  Ni7  1  0.465373  0.835403  0.233886  1
  Ge  Ge8  1  0.831336  0.346565  0.044276  1
  Ge  Ge9  1  0.668664  0.846565  0.955724  1
  Ge  Ge10  1  0.168664  0.653435  0.955724  1
  Ge  Ge11  1  0.331336  0.153435  0.044276  1
  Ge  Ge12  1  0.091650  0.351136  0.488042  1
  Ge  Ge13  1  0.408350  0.851136  0.511958  1
  Ge  Ge14  1  0.908350  0.648864  0.511958  1
  Ge  Ge15  1  0.591650  0.148864  0.488042  1
  O  O16  1  0.310522  0.247530  0.396725  1
  O  O17  1  0.189478  0.747530  0.603275  1
  O  O18  1  0.689478  0.752470  0.603275  1
  O  O19  1  0.810522  0.252470  0.396725  1
  O  O20  1  0.175679  0.309449  0.101094  1
  O  O21  1  0.324321  0.809449  0.898907  1
  O  O22  1  0.824321  0.690551  0.898907  1
  O  O23  1  0.675679  0.190551  0.101094  1
  O  O24  1  0.651351  0.975680  0.418349  1
  O  O25  1  0.848649  0.475680  0.581651  1
  O  O26  1  0.348649  0.024320  0.581651  1
  O  O27  1  0.151351  0.524320  0.418349  1
  O  O28  1  0.264096  0.011362  0.139937  1
  O  O29  1  0.235904  0.511362  0.860063  1
  O  O30  1  0.735904  0.988638  0.860063  1
  O  O31  1  0.764096  0.488638  0.139937  1
  O  O32  1  0.747392  0.345610  0.867573  1
  O  O33  1  0.752608  0.845610  0.132427  1
  O  O34  1  0.252608  0.654390  0.132427  1
  O  O35  1  0.247392  0.154390  0.867573  1
  O  O36  1  0.293876  0.326922  0.652481  1
  O  O37  1  0.206124  0.826922  0.347519  1
  O  O38  1  0.706124  0.673078  0.347519  1
  O  O39  1  0.793876  0.173078  0.652481  1
