# generated using pymatgen
data_Mg2SbWO6
_symmetry_space_group_name_H-M   'P 1'
_cell_length_a   5.46014394
_cell_length_b   5.55137755
_cell_length_c   8.02269614
_cell_angle_alpha   90.00000000
_cell_angle_beta   90.17153798
_cell_angle_gamma   90.00000000
_symmetry_Int_Tables_number   1
_chemical_formula_structural   Mg2SbWO6
_chemical_formula_sum   'Mg4 Sb2 W2 O12'
_cell_volume   243.17742401
_cell_formula_units_Z   2
loop_
 _symmetry_equiv_pos_site_id
 _symmetry_equiv_pos_as_xyz
  1  'x, y, z'
loop_
 _atom_site_type_symbol
 _atom_site_label
 _atom_site_symmetry_multiplicity
 _atom_site_fract_x
 _atom_site_fract_y
 _atom_site_fract_z
 _atom_site_occupancy
  Mg  Mg0  1  0.021809  0.020687  0.273880  1
  Mg  Mg1  1  0.478191  0.520688  0.226120  1
  Mg  Mg2  1  0.978192  0.979314  0.726120  1
  Mg  Mg3  1  0.521808  0.479313  0.773880  1
  Sb  Sb4  1  0.500000  0.000000  0.000000  1
  Sb  Sb5  1  0.000001  0.499999  0.500000  1
  W  W6  1  0.500000  0.000000  0.499999  1
  W  W7  1  0.000000  0.499999  0.000000  1
  O  O8  1  0.644414  0.303391  0.400773  1
  O  O9  1  0.855586  0.803392  0.099227  1
  O  O10  1  0.355585  0.696609  0.599227  1
  O  O11  1  0.144415  0.196608  0.900773  1
  O  O12  1  0.176059  0.146914  0.543693  1
  O  O13  1  0.323941  0.646913  0.956307  1
  O  O14  1  0.823942  0.853086  0.456307  1
  O  O15  1  0.676058  0.353087  0.043693  1
  O  O16  1  0.128822  0.374282  0.226771  1
  O  O17  1  0.371179  0.874283  0.273228  1
  O  O18  1  0.628822  0.125717  0.726772  1
  O  O19  1  0.871179  0.625718  0.773229  1
