# generated using pymatgen
data_MgTaBiO5
_symmetry_space_group_name_H-M   'P 1'
_cell_length_a   5.42743047
_cell_length_b   8.00337464
_cell_length_c   11.99506438
_cell_angle_alpha   90.00000000
_cell_angle_beta   90.00000000
_cell_angle_gamma   106.16513080
_symmetry_Int_Tables_number   1
_chemical_formula_structural   MgTaBiO5
_chemical_formula_sum   'Mg4 Ta4 Bi4 O20'
_cell_volume   500.43856668
_cell_formula_units_Z   4
loop_
 _symmetry_equiv_pos_site_id
 _symmetry_equiv_pos_as_xyz
  1  'x, y, z'
loop_
 _atom_site_type_symbol
 _atom_site_label
 _atom_site_symmetry_multiplicity
 _atom_site_fract_x
 _atom_site_fract_y
 _atom_site_fract_z
 _atom_site_occupancy
  Mg  Mg0  1  0.623517  0.171266  0.922781  1
  Mg  Mg1  1  0.376483  0.828734  0.077219  1
  Mg  Mg2  1  0.876483  0.328734  0.422781  1
  Mg  Mg3  1  0.123517  0.671266  0.577219  1
  Ta  Ta4  1  0.784935  0.968998  0.644423  1
  Ta  Ta5  1  0.215065  0.031002  0.355577  1
  Ta  Ta6  1  0.715065  0.531002  0.144423  1
  Ta  Ta7  1  0.284935  0.468998  0.855577  1
  Bi  Bi8  1  0.112292  0.165949  0.093451  1
  Bi  Bi9  1  0.887708  0.834051  0.906549  1
  Bi  Bi10  1  0.612292  0.665949  0.406549  1
  Bi  Bi11  1  0.387708  0.334051  0.593451  1
  O  O12  1  0.553761  0.325515  0.065621  1
  O  O13  1  0.016225  0.318853  0.938580  1
  O  O14  1  0.479950  0.650254  0.175792  1
  O  O15  1  0.756498  0.514517  0.526664  1
  O  O16  1  0.803788  0.481673  0.289728  1
  O  O17  1  0.303788  0.981673  0.210272  1
  O  O18  1  0.516225  0.818853  0.561420  1
  O  O19  1  0.483775  0.181147  0.438580  1
  O  O20  1  0.243502  0.485483  0.473336  1
  O  O21  1  0.946239  0.174485  0.565621  1
  O  O22  1  0.196212  0.518327  0.710272  1
  O  O23  1  0.446239  0.674485  0.934379  1
  O  O24  1  0.053761  0.825515  0.434379  1
  O  O25  1  0.696212  0.018327  0.789728  1
  O  O26  1  0.743502  0.985483  0.026664  1
  O  O27  1  0.256498  0.014517  0.973336  1
  O  O28  1  0.520050  0.349746  0.824208  1
  O  O29  1  0.983775  0.681147  0.061420  1
  O  O30  1  0.020050  0.849746  0.675792  1
  O  O31  1  0.979950  0.150254  0.324208  1
