# generated using pymatgen
data_CaVO2
_symmetry_space_group_name_H-M   'P 1'
_cell_length_a   3.18326969
_cell_length_b   8.93503445
_cell_length_c   8.79236785
_cell_angle_alpha   91.26741842
_cell_angle_beta   79.74445869
_cell_angle_gamma   79.65813862
_symmetry_Int_Tables_number   1
_chemical_formula_structural   CaVO2
_chemical_formula_sum   'Ca4 V4 O8'
_cell_volume   241.70674434
_cell_formula_units_Z   4
loop_
 _symmetry_equiv_pos_site_id
 _symmetry_equiv_pos_as_xyz
  1  'x, y, z'
loop_
 _atom_site_type_symbol
 _atom_site_label
 _atom_site_symmetry_multiplicity
 _atom_site_fract_x
 _atom_site_fract_y
 _atom_site_fract_z
 _atom_site_occupancy
  Ca  Ca0  1  0.327340  0.062483  0.275824  1
  Ca  Ca1  1  0.668170  0.917441  0.752312  1
  Ca  Ca2  1  0.105606  0.688154  0.095363  1
  Ca  Ca3  1  0.891600  0.291729  0.932787  1
  V  V4  1  0.575385  0.236683  0.613311  1
  V  V5  1  0.165350  0.389653  0.269746  1
  V  V6  1  0.829214  0.590257  0.758516  1
  V  V7  1  0.420283  0.743255  0.414905  1
  O  O8  1  0.857517  0.721392  0.566274  1
  O  O9  1  0.394500  0.421024  0.796460  1
  O  O10  1  0.603072  0.558933  0.231829  1
  O  O11  1  0.139797  0.258457  0.461914  1
  O  O12  1  0.073366  0.111274  0.746493  1
  O  O13  1  0.788901  0.230949  0.179726  1
  O  O14  1  0.922133  0.868655  0.281672  1
  O  O15  1  0.206041  0.748994  0.848484  1
