# generated using pymatgen
data_Zn3Co2(Si2O7)2
_symmetry_space_group_name_H-M   'P 1'
_cell_length_a   7.58747205
_cell_length_b   9.51795222
_cell_length_c   9.26080212
_cell_angle_alpha   63.00239867
_cell_angle_beta   65.81682062
_cell_angle_gamma   66.51009727
_symmetry_Int_Tables_number   1
_chemical_formula_structural   Zn3Co2(Si2O7)2
_chemical_formula_sum   'Zn6 Co4 Si8 O28'
_cell_volume   524.68340891
_cell_formula_units_Z   2
loop_
 _symmetry_equiv_pos_site_id
 _symmetry_equiv_pos_as_xyz
  1  'x, y, z'
loop_
 _atom_site_type_symbol
 _atom_site_label
 _atom_site_symmetry_multiplicity
 _atom_site_fract_x
 _atom_site_fract_y
 _atom_site_fract_z
 _atom_site_occupancy
  Zn  Zn0  1  0.930499  0.889839  0.443508  1
  Zn  Zn1  1  0.263847  0.610161  0.056492  1
  Zn  Zn2  1  0.736153  0.389839  0.943508  1
  Zn  Zn3  1  0.612113  0.250000  0.750000  1
  Zn  Zn4  1  0.069501  0.110161  0.556492  1
  Zn  Zn5  1  0.387887  0.750000  0.250000  1
  Co  Co6  1  0.210692  0.250000  0.750000  1
  Co  Co7  1  0.789308  0.750000  0.250000  1
  Co  Co8  1  0.000000  0.000000  0.000000  1
  Co  Co9  1  0.000000  0.500000  0.500000  1
  Si  Si10  1  0.458736  0.292192  0.338128  1
  Si  Si11  1  0.910944  0.792192  0.838128  1
  Si  Si12  1  0.478651  0.898153  0.863698  1
  Si  Si13  1  0.759498  0.398153  0.363698  1
  Si  Si14  1  0.089056  0.207808  0.161872  1
  Si  Si15  1  0.521349  0.101847  0.136302  1
  Si  Si16  1  0.240502  0.601847  0.636302  1
  Si  Si17  1  0.541264  0.707808  0.661872  1
  O  O18  1  0.167423  0.671304  0.463256  1
  O  O19  1  0.029752  0.588241  0.271536  1
  O  O20  1  0.549816  0.907481  0.185487  1
  O  O21  1  0.110471  0.088241  0.771536  1
  O  O22  1  0.762987  0.695830  0.525577  1
  O  O23  1  0.942626  0.377192  0.196002  1
  O  O24  1  0.357215  0.407481  0.685487  1
  O  O25  1  0.984394  0.804170  0.974423  1
  O  O26  1  0.057374  0.622808  0.803998  1
  O  O27  1  0.376380  0.726384  0.578776  1
  O  O28  1  0.970248  0.411759  0.728464  1
  O  O29  1  0.237013  0.304170  0.474423  1
  O  O30  1  0.515821  0.122808  0.303998  1
  O  O31  1  0.698016  0.171304  0.963256  1
  O  O32  1  0.318460  0.226384  0.078776  1
  O  O33  1  0.015606  0.195830  0.025577  1
  O  O34  1  0.087987  0.057664  0.342329  1
  O  O35  1  0.623620  0.273616  0.421224  1
  O  O36  1  0.487979  0.442336  0.157671  1
  O  O37  1  0.681540  0.773616  0.921224  1
  O  O38  1  0.484179  0.877192  0.696002  1
  O  O39  1  0.889529  0.911759  0.228464  1
  O  O40  1  0.512021  0.557664  0.842329  1
  O  O41  1  0.450184  0.092519  0.814513  1
  O  O42  1  0.912013  0.942336  0.657671  1
  O  O43  1  0.642785  0.592519  0.314513  1
  O  O44  1  0.301984  0.828696  0.036744  1
  O  O45  1  0.832577  0.328696  0.536744  1
