# generated using pymatgen
data_Zn2CuSbO6
_symmetry_space_group_name_H-M   'P 1'
_cell_length_a   5.45821271
_cell_length_b   5.39111276
_cell_length_c   7.52855126
_cell_angle_alpha   90.00000000
_cell_angle_beta   90.00000000
_cell_angle_gamma   98.91703642
_symmetry_Int_Tables_number   1
_chemical_formula_structural   Zn2CuSbO6
_chemical_formula_sum   'Zn4 Cu2 Sb2 O12'
_cell_volume   218.85644686
_cell_formula_units_Z   2
loop_
 _symmetry_equiv_pos_site_id
 _symmetry_equiv_pos_as_xyz
  1  'x, y, z'
loop_
 _atom_site_type_symbol
 _atom_site_label
 _atom_site_symmetry_multiplicity
 _atom_site_fract_x
 _atom_site_fract_y
 _atom_site_fract_z
 _atom_site_occupancy
  Zn  Zn0  1  0.531336  0.562586  0.750000  1
  Zn  Zn1  1  0.468664  0.437414  0.250000  1
  Zn  Zn2  1  0.061536  0.017292  0.750000  1
  Zn  Zn3  1  0.938464  0.982708  0.250000  1
  Cu  Cu4  1  0.500000  0.000000  0.500000  1
  Cu  Cu5  1  0.500000  0.000000  0.000000  1
  Sb  Sb6  1  0.000000  0.500000  0.500000  1
  Sb  Sb7  1  0.000000  0.500000  0.000000  1
  O  O8  1  0.345657  0.676300  0.442407  1
  O  O9  1  0.141623  0.203940  0.073762  1
  O  O10  1  0.654343  0.323700  0.942407  1
  O  O11  1  0.858377  0.796060  0.573762  1
  O  O12  1  0.141623  0.203940  0.426238  1
  O  O13  1  0.858377  0.796060  0.926238  1
  O  O14  1  0.875085  0.594704  0.250000  1
  O  O15  1  0.345657  0.676300  0.057593  1
  O  O16  1  0.407063  0.913980  0.750000  1
  O  O17  1  0.654343  0.323700  0.557593  1
  O  O18  1  0.124915  0.405296  0.750000  1
  O  O19  1  0.592937  0.086020  0.250000  1
