# generated using pymatgen
data_TiZn(Si2O5)2
_symmetry_space_group_name_H-M   'P 1'
_cell_length_a   7.42248817
_cell_length_b   7.42256695
_cell_length_c   15.97609366
_cell_angle_alpha   90.00000000
_cell_angle_beta   90.00000000
_cell_angle_gamma   89.99978386
_symmetry_Int_Tables_number   1
_chemical_formula_structural   TiZn(Si2O5)2
_chemical_formula_sum   'Ti4 Zn4 Si16 O40'
_cell_volume   880.18555216
_cell_formula_units_Z   4
loop_
 _symmetry_equiv_pos_site_id
 _symmetry_equiv_pos_as_xyz
  1  'x, y, z'
loop_
 _atom_site_type_symbol
 _atom_site_label
 _atom_site_symmetry_multiplicity
 _atom_site_fract_x
 _atom_site_fract_y
 _atom_site_fract_z
 _atom_site_occupancy
  Ti  Ti0  1  0.250000  0.250000  0.575046  1
  Ti  Ti1  1  0.750000  0.750000  0.924951  1
  Ti  Ti2  1  0.750000  0.750000  0.424954  1
  Ti  Ti3  1  0.250000  0.250000  0.075049  1
  Zn  Zn4  1  0.250000  0.750000  0.500000  1
  Zn  Zn5  1  0.750000  0.250000  0.500000  1
  Zn  Zn6  1  0.750000  0.250000  1.000000  1
  Zn  Zn7  1  0.250000  0.750000  0.000000  1
  Si  Si8  1  0.920492  0.502381  0.652158  1
  Si  Si9  1  0.579508  0.997619  0.652158  1
  Si  Si10  1  0.002373  0.420493  0.847842  1
  Si  Si11  1  0.502376  0.579509  0.652155  1
  Si  Si12  1  0.997624  0.920491  0.652155  1
  Si  Si13  1  0.079506  0.002376  0.847839  1
  Si  Si14  1  0.420494  0.497624  0.847839  1
  Si  Si15  1  0.497627  0.079507  0.847842  1
  Si  Si16  1  0.079508  0.497619  0.347842  1
  Si  Si17  1  0.420492  0.002381  0.347842  1
  Si  Si18  1  0.997627  0.579507  0.152158  1
  Si  Si19  1  0.497624  0.420491  0.347845  1
  Si  Si20  1  0.002376  0.079509  0.347845  1
  Si  Si21  1  0.920494  0.997624  0.152161  1
  Si  Si22  1  0.579506  0.502376  0.152161  1
  Si  Si23  1  0.502373  0.920493  0.152158  1
  O  O24  1  0.012682  0.355835  0.590257  1
  O  O25  1  0.487318  0.144165  0.590257  1
  O  O26  1  0.855847  0.512662  0.909737  1
  O  O27  1  0.355838  0.487319  0.590254  1
  O  O28  1  0.144162  0.012681  0.590254  1
  O  O29  1  0.987337  0.855845  0.909734  1
  O  O30  1  0.512663  0.644155  0.909734  1
  O  O31  1  0.644153  0.987338  0.909737  1
  O  O32  1  0.987318  0.644165  0.409743  1
  O  O33  1  0.512682  0.855835  0.409743  1
  O  O34  1  0.144153  0.487338  0.090263  1
  O  O35  1  0.644162  0.512681  0.409746  1
  O  O36  1  0.855838  0.987319  0.409746  1
  O  O37  1  0.012663  0.144155  0.090266  1
  O  O38  1  0.487337  0.355845  0.090266  1
  O  O39  1  0.001220  0.295923  0.367391  1
  O  O40  1  0.355847  0.012662  0.090263  1
  O  O41  1  0.501220  0.795923  0.632609  1
  O  O42  1  0.204075  0.498780  0.867386  1
  O  O43  1  0.704075  0.501223  0.632609  1
  O  O44  1  0.795925  0.998777  0.632609  1
  O  O45  1  0.001215  0.204076  0.867386  1
  O  O46  1  0.498785  0.295924  0.867386  1
  O  O47  1  0.295925  0.001220  0.867386  1
  O  O48  1  0.453344  0.953352  0.249996  1
  O  O49  1  0.546655  0.453351  0.249999  1
  O  O50  1  0.953345  0.046650  0.249999  1
  O  O51  1  0.046657  0.546648  0.249996  1
  O  O52  1  0.546656  0.046649  0.750004  1
  O  O53  1  0.453345  0.546649  0.750001  1
  O  O54  1  0.046656  0.953351  0.750001  1
  O  O55  1  0.953344  0.453352  0.750004  1
  O  O56  1  0.704075  0.998780  0.132614  1
  O  O57  1  0.501215  0.704076  0.132614  1
  O  O58  1  0.998785  0.795924  0.132614  1
  O  O59  1  0.204075  0.001223  0.367391  1
  O  O60  1  0.295925  0.498777  0.367391  1
  O  O61  1  0.795925  0.501220  0.132614  1
  O  O62  1  0.498780  0.204077  0.367391  1
  O  O63  1  0.998780  0.704077  0.632609  1
