# generated using pymatgen
data_Ba2AlTlNi2O7
_symmetry_space_group_name_H-M   'P 1'
_cell_length_a   3.68356964
_cell_length_b   3.68367006
_cell_length_c   13.10909236
_cell_angle_alpha   89.99565228
_cell_angle_beta   89.99864962
_cell_angle_gamma   89.99267457
_symmetry_Int_Tables_number   1
_chemical_formula_structural   Ba2AlTlNi2O7
_chemical_formula_sum   'Ba2 Al1 Tl1 Ni2 O7'
_cell_volume   177.87799570
_cell_formula_units_Z   1
loop_
 _symmetry_equiv_pos_site_id
 _symmetry_equiv_pos_as_xyz
  1  'x, y, z'
loop_
 _atom_site_type_symbol
 _atom_site_label
 _atom_site_symmetry_multiplicity
 _atom_site_fract_x
 _atom_site_fract_y
 _atom_site_fract_z
 _atom_site_occupancy
  Ba  Ba0  1  0.500004  0.500016  0.213999  1
  Ba  Ba1  1  0.500009  0.500041  0.786023  1
  Al  Al2  1  0.499983  0.499943  0.500081  1
  Tl  Tl3  1  0.000014  0.000045  0.000016  1
  Ni  Ni4  1  -0.000172  -0.000635  0.386271  1
  Ni  Ni5  1  -0.000040  -0.000134  0.613625  1
  O  O6  1  0.000003  0.000021  0.162287  1
  O  O7  1  0.999980  0.500413  0.405282  1
  O  O8  1  0.500130  0.999917  0.405249  1
  O  O9  1  0.500060  0.000086  0.594597  1
  O  O10  1  0.499998  0.500026  0.000023  1
  O  O11  1  0.000021  0.500223  0.594753  1
  O  O12  1  0.000008  0.000037  0.837792  1
