# generated using pymatgen
data_CaTa2(CuO4)2
_symmetry_space_group_name_H-M   'P 1'
_cell_length_a   6.81652881
_cell_length_b   8.99509233
_cell_length_c   12.64608312
_cell_angle_alpha   90.00000000
_cell_angle_beta   88.01196417
_cell_angle_gamma   90.00000000
_symmetry_Int_Tables_number   1
_chemical_formula_structural   CaTa2(CuO4)2
_chemical_formula_sum   'Ca4 Ta8 Cu8 O32'
_cell_volume   774.93173827
_cell_formula_units_Z   4
loop_
 _symmetry_equiv_pos_site_id
 _symmetry_equiv_pos_as_xyz
  1  'x, y, z'
loop_
 _atom_site_type_symbol
 _atom_site_label
 _atom_site_symmetry_multiplicity
 _atom_site_fract_x
 _atom_site_fract_y
 _atom_site_fract_z
 _atom_site_occupancy
  Ca  Ca0  1  0.128236  0.160659  0.040349  1
  Ca  Ca1  1  0.871764  0.839341  0.959651  1
  Ca  Ca2  1  0.871764  0.660659  0.459651  1
  Ca  Ca3  1  0.128236  0.339341  0.540349  1
  Ta  Ta4  1  0.093831  0.460170  0.843607  1
  Ta  Ta5  1  0.093831  0.039830  0.343607  1
  Ta  Ta6  1  0.605360  0.087265  0.143967  1
  Ta  Ta7  1  0.906169  0.960170  0.656393  1
  Ta  Ta8  1  0.394640  0.912735  0.856033  1
  Ta  Ta9  1  0.394640  0.587265  0.356033  1
  Ta  Ta10  1  0.605360  0.412735  0.643967  1
  Ta  Ta11  1  0.906169  0.539830  0.156393  1
  Cu  Cu12  1  0.768148  0.181145  0.856404  1
  Cu  Cu13  1  0.384625  0.053663  0.624309  1
  Cu  Cu14  1  0.615375  0.946337  0.375691  1
  Cu  Cu15  1  0.231852  0.818855  0.143596  1
  Cu  Cu16  1  0.768148  0.318855  0.356404  1
  Cu  Cu17  1  0.384625  0.446337  0.124309  1
  Cu  Cu18  1  0.231852  0.681145  0.643596  1
  Cu  Cu19  1  0.615375  0.553663  0.875691  1
  O  O20  1  0.024547  0.236264  0.382664  1
  O  O21  1  0.662457  0.004171  0.603602  1
  O  O22  1  0.193240  0.578398  0.459065  1
  O  O23  1  0.806760  0.078398  0.040935  1
  O  O24  1  0.024547  0.263736  0.882664  1
  O  O25  1  0.975453  0.763736  0.617336  1
  O  O26  1  0.098677  0.096427  0.604559  1
  O  O27  1  0.490827  0.901872  0.135853  1
  O  O28  1  0.490827  0.598128  0.635853  1
  O  O29  1  0.307994  0.878311  0.713941  1
  O  O30  1  0.692006  0.378311  0.786059  1
  O  O31  1  0.509173  0.098128  0.864147  1
  O  O32  1  0.901323  0.903573  0.395441  1
  O  O33  1  0.877957  0.518965  0.302950  1
  O  O34  1  0.432314  0.265828  0.602534  1
  O  O35  1  0.432314  0.234172  0.102534  1
  O  O36  1  0.122043  0.018965  0.197050  1
  O  O37  1  0.509173  0.401872  0.364147  1
  O  O38  1  0.122043  0.481035  0.697050  1
  O  O39  1  0.806760  0.421602  0.540935  1
  O  O40  1  0.662457  0.495829  0.103602  1
  O  O41  1  0.692006  0.121689  0.286059  1
  O  O42  1  0.975453  0.736264  0.117336  1
  O  O43  1  0.098677  0.403573  0.104559  1
  O  O44  1  0.193240  0.921602  0.959065  1
  O  O45  1  0.567686  0.765828  0.897466  1
  O  O46  1  0.337543  0.995829  0.396398  1
  O  O47  1  0.337543  0.504171  0.896398  1
  O  O48  1  0.901323  0.596427  0.895441  1
  O  O49  1  0.567686  0.734172  0.397466  1
  O  O50  1  0.307994  0.621689  0.213941  1
  O  O51  1  0.877957  0.981035  0.802950  1
