# generated using pymatgen
data_CaVBiO6
_symmetry_space_group_name_H-M   'P 1'
_cell_length_a   5.38215122
_cell_length_b   7.58352667
_cell_length_c   7.11331156
_cell_angle_alpha   101.83347508
_cell_angle_beta   90.00000000
_cell_angle_gamma   90.00000000
_symmetry_Int_Tables_number   1
_chemical_formula_structural   CaVBiO6
_chemical_formula_sum   'Ca2 V2 Bi2 O12'
_cell_volume   284.16443333
_cell_formula_units_Z   2
loop_
 _symmetry_equiv_pos_site_id
 _symmetry_equiv_pos_as_xyz
  1  'x, y, z'
loop_
 _atom_site_type_symbol
 _atom_site_label
 _atom_site_symmetry_multiplicity
 _atom_site_fract_x
 _atom_site_fract_y
 _atom_site_fract_z
 _atom_site_occupancy
  Ca  Ca0  1  0.259802  0.934185  0.730981  1
  Ca  Ca1  1  0.759802  0.065815  0.269019  1
  V  V2  1  0.291134  0.788576  0.220258  1
  V  V3  1  0.791134  0.211424  0.779741  1
  Bi  Bi4  1  0.767011  0.569383  0.400037  1
  Bi  Bi5  1  0.267011  0.430617  0.599963  1
  O  O6  1  0.028630  0.348711  0.351303  1
  O  O7  1  0.955928  0.759616  0.242587  1
  O  O8  1  0.482502  0.593265  0.188618  1
  O  O9  1  0.982502  0.406735  0.811382  1
  O  O10  1  0.547855  0.326562  0.396359  1
  O  O11  1  0.344427  0.896183  0.038278  1
  O  O12  1  0.047855  0.673438  0.603641  1
  O  O13  1  0.528630  0.651289  0.648697  1
  O  O14  1  0.844427  0.103817  0.961722  1
  O  O15  1  0.455928  0.240384  0.757413  1
  O  O16  1  0.916245  0.070673  0.584568  1
  O  O17  1  0.416245  0.929327  0.415432  1
