# generated using pymatgen
data_Zn2Cu2O5
_symmetry_space_group_name_H-M   'P 1'
_cell_length_a   3.57647117
_cell_length_b   5.11671624
_cell_length_c   10.60490969
_cell_angle_alpha   90.00400498
_cell_angle_beta   90.00009029
_cell_angle_gamma   90.00006146
_symmetry_Int_Tables_number   1
_chemical_formula_structural   Zn2Cu2O5
_chemical_formula_sum   'Zn4 Cu4 O10'
_cell_volume   194.06759980
_cell_formula_units_Z   2
loop_
 _symmetry_equiv_pos_site_id
 _symmetry_equiv_pos_as_xyz
  1  'x, y, z'
loop_
 _atom_site_type_symbol
 _atom_site_label
 _atom_site_symmetry_multiplicity
 _atom_site_fract_x
 _atom_site_fract_y
 _atom_site_fract_z
 _atom_site_occupancy
  Zn  Zn0  1  0.500000  0.249108  0.905989  1
  Zn  Zn1  1  0.500000  0.750823  0.093775  1
  Zn  Zn2  1  0.500001  0.748740  0.593838  1
  Zn  Zn3  1  0.500001  0.251250  0.406088  1
  Cu  Cu4  1  0.000003  0.226355  0.638643  1
  Cu  Cu5  1  0.000003  0.773646  0.361150  1
  Cu  Cu6  1  0.999998  0.273875  0.138746  1
  Cu  Cu7  1  0.999996  0.726374  0.861090  1
  O  O8  1  0.000003  0.500451  0.500288  1
  O  O9  1  0.000000  0.155994  0.319701  1
  O  O10  1  0.000001  0.655766  0.180774  1
  O  O11  1  0.000000  0.343424  0.819597  1
  O  O12  1  0.499998  0.315398  0.097284  1
  O  O13  1  0.499997  0.685356  0.902309  1
  O  O14  1  0.000000  0.844362  0.680414  1
  O  O15  1  0.500003  0.184956  0.597452  1
  O  O16  1  0.999999  0.999446  0.000505  1
  O  O17  1  0.500003  0.814674  0.402359  1
