# generated using pymatgen
data_LaZnCrWO6
_symmetry_space_group_name_H-M   'P 1'
_cell_length_a   5.44903923
_cell_length_b   5.69727933
_cell_length_c   7.88062521
_cell_angle_alpha   90.00000000
_cell_angle_beta   89.14471927
_cell_angle_gamma   90.00000000
_symmetry_Int_Tables_number   1
_chemical_formula_structural   LaZnCrWO6
_chemical_formula_sum   'La2 Zn2 Cr2 W2 O12'
_cell_volume   244.62437688
_cell_formula_units_Z   2
loop_
 _symmetry_equiv_pos_site_id
 _symmetry_equiv_pos_as_xyz
  1  'x, y, z'
loop_
 _atom_site_type_symbol
 _atom_site_label
 _atom_site_symmetry_multiplicity
 _atom_site_fract_x
 _atom_site_fract_y
 _atom_site_fract_z
 _atom_site_occupancy
  La  La0  1  0.013034  0.960631  0.753435  1
  La  La1  1  0.513034  0.539369  0.253435  1
  Zn  Zn2  1  0.496344  0.521577  0.755998  1
  Zn  Zn3  1  0.996344  0.978423  0.255998  1
  Cr  Cr4  1  0.500763  0.003264  0.500315  1
  Cr  Cr5  1  0.000763  0.496736  0.000315  1
  W  W6  1  0.499467  0.014996  0.000031  1
  W  W7  1  0.999467  0.485004  0.500031  1
  O  O8  1  0.092354  0.473760  0.246085  1
  O  O9  1  0.204644  0.224756  0.935753  1
  O  O10  1  0.202776  0.197218  0.547430  1
  O  O11  1  0.310134  0.698687  0.945327  1
  O  O12  1  0.312750  0.692651  0.565323  1
  O  O13  1  0.367732  0.972808  0.250303  1
  O  O14  1  0.592354  0.026240  0.746085  1
  O  O15  1  0.704644  0.275244  0.435753  1
  O  O16  1  0.702776  0.302782  0.047430  1
  O  O17  1  0.810134  0.801313  0.445327  1
  O  O18  1  0.812750  0.807349  0.065323  1
  O  O19  1  0.867732  0.527192  0.750303  1
