# generated using pymatgen
data_Ba2CaCuBi2F14
_symmetry_space_group_name_H-M   'P 1'
_cell_length_a   5.54999807
_cell_length_b   7.73610690
_cell_length_c   16.36709958
_cell_angle_alpha   89.80264640
_cell_angle_beta   90.06518598
_cell_angle_gamma   111.06932675
_symmetry_Int_Tables_number   1
_chemical_formula_structural   Ba2CaCuBi2F14
_chemical_formula_sum   'Ba4 Ca2 Cu2 Bi4 F28'
_cell_volume   655.74365585
_cell_formula_units_Z   2
loop_
 _symmetry_equiv_pos_site_id
 _symmetry_equiv_pos_as_xyz
  1  'x, y, z'
loop_
 _atom_site_type_symbol
 _atom_site_label
 _atom_site_symmetry_multiplicity
 _atom_site_fract_x
 _atom_site_fract_y
 _atom_site_fract_z
 _atom_site_occupancy
  Ba  Ba0  1  0.087645  0.368295  0.625447  1
  Ba  Ba1  1  0.280112  0.368662  0.125149  1
  Ba  Ba2  1  0.911027  0.630277  0.373782  1
  Ba  Ba3  1  0.716578  0.629313  0.874565  1
  Ca  Ca4  1  0.428945  0.996376  0.749617  1
  Ca  Ca5  1  0.567594  0.999162  0.249456  1
  Cu  Cu6  1  0.497879  0.998181  0.999514  1
  Cu  Cu7  1  0.498579  0.997364  0.499490  1
  Bi  Bi8  1  0.050058  0.218970  0.878806  1
  Bi  Bi9  1  0.946367  0.778994  0.120250  1
  Bi  Bi10  1  0.166250  0.220002  0.379037  1
  Bi  Bi11  1  0.833879  0.778892  0.620178  1
  F  F12  1  0.862699  0.951524  0.331620  1
  F  F13  1  0.884186  0.296757  0.460696  1
  F  F14  1  0.116599  0.701854  0.538582  1
  F  F15  1  0.600330  0.478191  0.604627  1
  F  F16  1  0.629038  0.039032  0.611815  1
  F  F17  1  0.585808  0.954477  0.886672  1
  F  F18  1  0.410667  0.297061  0.960595  1
  F  F19  1  0.910934  0.048595  0.167838  1
  F  F20  1  0.363143  0.332545  0.786756  1
  F  F21  1  0.399418  0.520470  0.395206  1
  F  F22  1  0.810466  0.239843  0.764917  1
  F  F23  1  0.117385  0.519183  0.895592  1
  F  F24  1  0.425150  0.241010  0.264611  1
  F  F25  1  0.185903  0.756870  0.233772  1
  F  F26  1  0.410063  0.041995  0.112411  1
  F  F27  1  0.634218  0.666501  0.212902  1
  F  F28  1  0.138664  0.850883  0.986594  1
  F  F29  1  0.136405  0.048085  0.667628  1
  F  F30  1  0.856854  0.145623  0.012443  1
  F  F31  1  0.711031  0.851329  0.486193  1
  F  F32  1  0.584246  0.700316  0.039003  1
  F  F33  1  0.575376  0.756427  0.734603  1
  F  F34  1  0.962571  0.332425  0.286674  1
  F  F35  1  0.288510  0.145056  0.512789  1
  F  F36  1  0.368720  0.956483  0.387120  1
  F  F37  1  0.086448  0.949782  0.831419  1
  F  F38  1  0.040949  0.668552  0.712483  1
  F  F39  1  0.878816  0.478731  0.103511  1
