# generated using pymatgen
data_Ca3Fe2(GeO4)3
_symmetry_space_group_name_H-M   'P 1'
_cell_length_a   10.80087947
_cell_length_b   10.80087889
_cell_length_c   10.80087903
_cell_angle_alpha   109.47122090
_cell_angle_beta   109.47121981
_cell_angle_gamma   109.47121991
_symmetry_Int_Tables_number   1
_chemical_formula_structural   Ca3Fe2(GeO4)3
_chemical_formula_sum   'Ca12 Fe8 Ge12 O48'
_cell_volume   969.96359409
_cell_formula_units_Z   4
loop_
 _symmetry_equiv_pos_site_id
 _symmetry_equiv_pos_as_xyz
  1  'x, y, z'
loop_
 _atom_site_type_symbol
 _atom_site_label
 _atom_site_symmetry_multiplicity
 _atom_site_fract_x
 _atom_site_fract_y
 _atom_site_fract_z
 _atom_site_occupancy
  Ca  Ca0  1  0.625000  0.250000  0.875000  1
  Ca  Ca1  1  0.875000  0.750000  0.625000  1
  Ca  Ca2  1  0.750000  0.625000  0.875000  1
  Ca  Ca3  1  0.250000  0.875000  0.625000  1
  Ca  Ca4  1  0.875000  0.625000  0.250000  1
  Ca  Ca5  1  0.625000  0.875000  0.750000  1
  Ca  Ca6  1  0.375000  0.750000  0.125000  1
  Ca  Ca7  1  0.125000  0.250000  0.375000  1
  Ca  Ca8  1  0.250000  0.375000  0.125000  1
  Ca  Ca9  1  0.750000  0.125000  0.375000  1
  Ca  Ca10  1  0.125000  0.375000  0.750000  1
  Ca  Ca11  1  0.375000  0.125000  0.250000  1
  Fe  Fe12  1  0.500000  0.500000  0.500000  1
  Fe  Fe13  1  0.500000  0.500000  0.000000  1
  Fe  Fe14  1  0.500000  0.000000  0.500000  1
  Fe  Fe15  1  0.000000  0.500000  0.500000  1
  Fe  Fe16  1  0.500000  0.000000  0.000000  1
  Fe  Fe17  1  0.000000  0.000000  0.500000  1
  Fe  Fe18  1  0.000000  0.500000  0.000000  1
  Fe  Fe19  1  0.000000  0.000000  0.000000  1
  Ge  Ge20  1  0.875000  0.125000  0.750000  1
  Ge  Ge21  1  0.125000  0.875000  0.250000  1
  Ge  Ge22  1  0.250000  0.625000  0.375000  1
  Ge  Ge23  1  0.125000  0.750000  0.875000  1
  Ge  Ge24  1  0.750000  0.875000  0.125000  1
  Ge  Ge25  1  0.375000  0.250000  0.625000  1
  Ge  Ge26  1  0.625000  0.750000  0.375000  1
  Ge  Ge27  1  0.875000  0.250000  0.125000  1
  Ge  Ge28  1  0.250000  0.125000  0.875000  1
  Ge  Ge29  1  0.750000  0.375000  0.625000  1
  Ge  Ge30  1  0.375000  0.625000  0.750000  1
  Ge  Ge31  1  0.625000  0.375000  0.250000  1
  O  O32  1  0.796676  0.415366  0.814229  1
  O  O33  1  0.084634  0.881310  0.398863  1
  O  O34  1  0.685771  0.101137  0.982447  1
  O  O35  1  0.703324  0.517553  0.618690  1
  O  O36  1  0.703324  0.685771  0.084634  1
  O  O37  1  0.517553  0.618690  0.703324  1
  O  O38  1  0.101137  0.618690  0.415366  1
  O  O39  1  0.618690  0.703324  0.517553  1
  O  O40  1  0.398863  0.814229  0.517553  1
  O  O41  1  0.881310  0.982447  0.796676  1
  O  O42  1  0.982447  0.796676  0.881310  1
  O  O43  1  0.084634  0.703324  0.685771  1
  O  O44  1  0.618690  0.415366  0.101137  1
  O  O45  1  0.517553  0.398863  0.814229  1
  O  O46  1  0.685771  0.084634  0.703324  1
  O  O47  1  0.415366  0.101137  0.618690  1
  O  O48  1  0.814229  0.517553  0.398863  1
  O  O49  1  0.398863  0.084634  0.881310  1
  O  O50  1  0.101137  0.982447  0.685771  1
  O  O51  1  0.601137  0.185771  0.482447  1
  O  O52  1  0.982447  0.685771  0.101137  1
  O  O53  1  0.814229  0.796676  0.415366  1
  O  O54  1  0.881310  0.398863  0.084634  1
  O  O55  1  0.796676  0.881310  0.982447  1
  O  O56  1  0.203324  0.584634  0.185771  1
  O  O57  1  0.915366  0.118690  0.601137  1
  O  O58  1  0.314229  0.898863  0.017553  1
  O  O59  1  0.296676  0.482447  0.381310  1
  O  O60  1  0.296676  0.314229  0.915366  1
  O  O61  1  0.482447  0.381310  0.296676  1
  O  O62  1  0.898863  0.381310  0.584634  1
  O  O63  1  0.381310  0.296676  0.482447  1
  O  O64  1  0.203324  0.118690  0.017553  1
  O  O65  1  0.118690  0.601137  0.915366  1
  O  O66  1  0.185771  0.203324  0.584634  1
  O  O67  1  0.584634  0.185771  0.203324  1
  O  O68  1  0.017553  0.314229  0.898863  1
  O  O69  1  0.898863  0.017553  0.314229  1
  O  O70  1  0.601137  0.915366  0.118690  1
  O  O71  1  0.185771  0.482447  0.601137  1
  O  O72  1  0.584634  0.898863  0.381310  1
  O  O73  1  0.314229  0.915366  0.296676  1
  O  O74  1  0.482447  0.601137  0.185771  1
  O  O75  1  0.381310  0.584634  0.898863  1
  O  O76  1  0.915366  0.296676  0.314229  1
  O  O77  1  0.017553  0.203324  0.118690  1
  O  O78  1  0.118690  0.017553  0.203324  1
  O  O79  1  0.415366  0.814229  0.796676  1
