# generated using pymatgen
data_Ba2Mg2Ti3Tl2O10
_symmetry_space_group_name_H-M   'P 1'
_cell_length_a   3.89694021
_cell_length_b   3.89127062
_cell_length_c   19.48000822
_cell_angle_alpha   96.15591556
_cell_angle_beta   95.63491724
_cell_angle_gamma   90.48928257
_symmetry_Int_Tables_number   1
_chemical_formula_structural   Ba2Mg2Ti3Tl2O10
_chemical_formula_sum   'Ba2 Mg2 Ti3 Tl2 O10'
_cell_volume   292.21899584
_cell_formula_units_Z   1
loop_
 _symmetry_equiv_pos_site_id
 _symmetry_equiv_pos_as_xyz
  1  'x, y, z'
loop_
 _atom_site_type_symbol
 _atom_site_label
 _atom_site_symmetry_multiplicity
 _atom_site_fract_x
 _atom_site_fract_y
 _atom_site_fract_z
 _atom_site_occupancy
  Ba  Ba0  1  0.115068  0.165799  0.316747  1
  Ba  Ba1  1  0.786076  0.817169  0.682281  1
  Mg  Mg2  1  0.900568  0.916219  0.906733  1
  Mg  Mg3  1  0.007541  0.041724  0.091986  1
  Ti  Ti4  1  0.365721  0.366633  0.829763  1
  Ti  Ti5  1  0.552494  0.580697  0.169235  1
  Ti  Ti6  1  0.364438  0.571555  0.999636  1
  Tl  Tl7  1  0.692324  0.718014  0.438651  1
  Tl  Tl8  1  0.251031  0.273965  0.560527  1
  O  O9  1  0.384816  0.878088  0.856088  1
  O  O10  1  0.311337  0.320969  0.737109  1
  O  O11  1  0.881063  0.373341  0.855698  1
  O  O12  1  0.820334  0.780714  0.556396  1
  O  O13  1  0.839047  0.647259  0.998960  1
  O  O14  1  0.042030  0.560459  0.143186  1
  O  O15  1  0.590596  0.638649  0.261910  1
  O  O16  1  0.546430  0.064212  0.143195  1
  O  O17  1  0.261762  0.205860  0.442866  1
  O  O18  1  0.288414  0.096634  -0.000005  1
