# generated using pymatgen
data_Zn3Co2O7
_symmetry_space_group_name_H-M   'P 1'
_cell_length_a   5.06108109
_cell_length_b   5.04821612
_cell_length_c   9.38369959
_cell_angle_alpha   105.60408598
_cell_angle_beta   90.00000000
_cell_angle_gamma   90.00000000
_symmetry_Int_Tables_number   1
_chemical_formula_structural   Zn3Co2O7
_chemical_formula_sum   'Zn6 Co4 O14'
_cell_volume   230.91188028
_cell_formula_units_Z   2
loop_
 _symmetry_equiv_pos_site_id
 _symmetry_equiv_pos_as_xyz
  1  'x, y, z'
loop_
 _atom_site_type_symbol
 _atom_site_label
 _atom_site_symmetry_multiplicity
 _atom_site_fract_x
 _atom_site_fract_y
 _atom_site_fract_z
 _atom_site_occupancy
  Zn  Zn0  1  0.705668  0.752825  1.000000  1
  Zn  Zn1  1  0.205668  0.247175  0.000000  1
  Zn  Zn2  1  0.801920  0.570589  0.605363  1
  Zn  Zn3  1  0.301920  0.429411  0.394637  1
  Zn  Zn4  1  0.801920  0.965225  0.394637  1
  Zn  Zn5  1  0.301920  0.034775  0.605363  1
  Co  Co6  1  0.751936  0.352458  0.202028  1
  Co  Co7  1  0.251936  0.647542  0.797972  1
  Co  Co8  1  0.251936  0.849570  0.202028  1
  Co  Co9  1  0.751936  0.150430  0.797972  1
  O  O10  1  0.691770  0.946449  0.597347  1
  O  O11  1  0.191770  0.053551  0.402653  1
  O  O12  1  0.191770  0.650897  0.597347  1
  O  O13  1  0.691770  0.349103  0.402653  1
  O  O14  1  0.061197  0.300889  0.741770  1
  O  O15  1  0.561197  0.699111  0.258230  1
  O  O16  1  0.561197  0.440881  0.741770  1
  O  O17  1  0.061197  0.559119  0.258230  1
  O  O18  1  0.940229  0.854020  0.848596  1
  O  O19  1  0.440229  0.145980  0.151404  1
  O  O20  1  0.820230  0.369774  0.000000  1
  O  O21  1  0.320230  0.630226  1.000000  1
  O  O22  1  0.940229  0.005424  0.151404  1
  O  O23  1  0.440229  0.994576  0.848596  1
