# generated using pymatgen
data_Sr2YAlNi2O7
_symmetry_space_group_name_H-M   'P 1'
_cell_length_a   11.67663152
_cell_length_b   11.67663684
_cell_length_c   11.67663684
_cell_angle_alpha   39.69062521
_cell_angle_beta   151.84178577
_cell_angle_gamma   152.60518383
_symmetry_Int_Tables_number   1
_chemical_formula_structural   Sr2YAlNi2O7
_chemical_formula_sum   'Sr4 Y2 Al2 Ni4 O14'
_cell_volume   345.03887549
_cell_formula_units_Z   2
loop_
 _symmetry_equiv_pos_site_id
 _symmetry_equiv_pos_as_xyz
  1  'x, y, z'
loop_
 _atom_site_type_symbol
 _atom_site_label
 _atom_site_symmetry_multiplicity
 _atom_site_fract_x
 _atom_site_fract_y
 _atom_site_fract_z
 _atom_site_occupancy
  Sr  Sr0  1  0.036393  0.865082  0.866831  1
  Sr  Sr1  1  0.998248  0.169560  0.133167  1
  Sr  Sr2  1  0.036393  0.669562  0.671311  1
  Sr  Sr3  1  0.998248  0.365081  0.328688  1
  Y  Y4  1  0.011485  0.511478  0.500007  1
  Y  Y5  1  0.011485  0.011479  0.000007  1
  Al  Al6  1  0.565268  0.738690  0.326579  1
  Al  Al7  1  0.412104  0.238693  0.673412  1
  Ni  Ni8  1  0.519700  0.435096  0.914999  1
  Ni  Ni9  1  0.520096  0.604697  0.084999  1
  Ni  Ni10  1  0.519700  0.104702  0.584604  1
  Ni  Ni11  1  0.520096  0.935098  0.415401  1
  O  O12  1  0.011189  0.925706  0.585484  1
  O  O13  1  0.340212  0.425703  0.414508  1
  O  O14  1  0.469348  0.181709  0.159713  1
  O  O15  1  0.021994  0.309630  0.840287  1
  O  O16  1  0.469348  0.809635  0.787639  1
  O  O17  1  0.021994  0.681708  0.212365  1
  O  O18  1  0.578758  0.728929  0.708133  1
  O  O19  1  0.020793  0.870623  0.291871  1
  O  O20  1  0.578758  0.370624  0.349829  1
  O  O21  1  0.020793  0.228923  0.650170  1
  O  O22  1  0.481014  0.860353  0.262575  1
  O  O23  1  0.597784  0.218445  0.737424  1
  O  O24  1  0.481014  0.718438  0.120659  1
  O  O25  1  0.597784  0.360358  0.879338  1
