# generated using pymatgen
data_Zn3Mo2O7
_symmetry_space_group_name_H-M   'P 1'
_cell_length_a   5.32313694
_cell_length_b   5.34570236
_cell_length_c   9.99729431
_cell_angle_alpha   105.50707512
_cell_angle_beta   90.00000000
_cell_angle_gamma   90.00000000
_symmetry_Int_Tables_number   1
_chemical_formula_structural   Zn3Mo2O7
_chemical_formula_sum   'Zn6 Mo4 O14'
_cell_volume   274.12619047
_cell_formula_units_Z   2
loop_
 _symmetry_equiv_pos_site_id
 _symmetry_equiv_pos_as_xyz
  1  'x, y, z'
loop_
 _atom_site_type_symbol
 _atom_site_label
 _atom_site_symmetry_multiplicity
 _atom_site_fract_x
 _atom_site_fract_y
 _atom_site_fract_z
 _atom_site_occupancy
  Zn  Zn0  1  0.736871  0.734367  0.000000  1
  Zn  Zn1  1  0.236871  0.265633  1.000000  1
  Zn  Zn2  1  0.781442  0.579249  0.590289  1
  Zn  Zn3  1  0.281442  0.420751  0.409711  1
  Zn  Zn4  1  0.781442  0.988959  0.409711  1
  Zn  Zn5  1  0.281442  0.011041  0.590289  1
  Mo  Mo6  1  0.757357  0.355381  0.206799  1
  Mo  Mo7  1  0.257357  0.644619  0.793201  1
  Mo  Mo8  1  0.257357  0.851418  0.206799  1
  Mo  Mo9  1  0.757357  0.148582  0.793201  1
  O  O10  1  0.657925  0.936210  0.589718  1
  O  O11  1  0.157925  0.063790  0.410282  1
  O  O12  1  0.157925  0.653508  0.589718  1
  O  O13  1  0.657925  0.346492  0.410282  1
  O  O14  1  0.082170  0.277239  0.732097  1
  O  O15  1  0.582170  0.722761  0.267903  1
  O  O16  1  0.582170  0.454858  0.732097  1
  O  O17  1  0.082170  0.545142  0.267903  1
  O  O18  1  0.933589  0.839870  0.850709  1
  O  O19  1  0.433589  0.160130  0.149291  1
  O  O20  1  0.858165  0.369447  1.000000  1
  O  O21  1  0.358165  0.630553  0.000000  1
  O  O22  1  0.933589  0.989161  0.149291  1
  O  O23  1  0.433589  0.010839  0.850709  1
