# generated using pymatgen
data_Zn3Sn2O7
_symmetry_space_group_name_H-M   'P 1'
_cell_length_a   5.38853116
_cell_length_b   5.42958431
_cell_length_c   9.90979856
_cell_angle_alpha   105.89946259
_cell_angle_beta   90.00000000
_cell_angle_gamma   90.00000000
_symmetry_Int_Tables_number   1
_chemical_formula_structural   Zn3Sn2O7
_chemical_formula_sum   'Zn6 Sn4 O14'
_cell_volume   278.84395746
_cell_formula_units_Z   2
loop_
 _symmetry_equiv_pos_site_id
 _symmetry_equiv_pos_as_xyz
  1  'x, y, z'
loop_
 _atom_site_type_symbol
 _atom_site_label
 _atom_site_symmetry_multiplicity
 _atom_site_fract_x
 _atom_site_fract_y
 _atom_site_fract_z
 _atom_site_occupancy
  Zn  Zn0  1  0.727619  0.743649  1.000000  1
  Zn  Zn1  1  0.227619  0.256351  0.000000  1
  Zn  Zn2  1  0.791582  0.577246  0.592440  1
  Zn  Zn3  1  0.291582  0.422754  0.407560  1
  Zn  Zn4  1  0.791582  0.984805  0.407560  1
  Zn  Zn5  1  0.291582  0.015195  0.592440  1
  Sn  Sn6  1  0.755174  0.356970  0.207685  1
  Sn  Sn7  1  0.255174  0.643030  0.792315  1
  Sn  Sn8  1  0.255174  0.850715  0.207685  1
  Sn  Sn9  1  0.755174  0.149285  0.792315  1
  O  O10  1  0.665325  0.928210  0.588167  1
  O  O11  1  0.165325  0.071790  0.411833  1
  O  O12  1  0.165325  0.659956  0.588167  1
  O  O13  1  0.665325  0.340044  0.411833  1
  O  O14  1  0.082750  0.280577  0.729410  1
  O  O15  1  0.582750  0.719423  0.270590  1
  O  O16  1  0.582750  0.448833  0.729410  1
  O  O17  1  0.082750  0.551167  0.270590  1
  O  O18  1  0.925947  0.842067  0.849837  1
  O  O19  1  0.425947  0.157933  0.150163  1
  O  O20  1  0.850826  0.378462  0.000000  1
  O  O21  1  0.350826  0.621538  1.000000  1
  O  O22  1  0.925947  0.992230  0.150163  1
  O  O23  1  0.425947  0.007770  0.849837  1
