# generated using pymatgen
data_SrCaNi(PO4)2
_symmetry_space_group_name_H-M   'P 1'
_cell_length_a   5.72020412
_cell_length_b   6.92796955
_cell_length_c   9.44796269
_cell_angle_alpha   109.40931450
_cell_angle_beta   101.90166766
_cell_angle_gamma   98.52377187
_symmetry_Int_Tables_number   1
_chemical_formula_structural   SrCaNi(PO4)2
_chemical_formula_sum   'Sr2 Ca2 Ni2 P4 O16'
_cell_volume   335.88153250
_cell_formula_units_Z   2
loop_
 _symmetry_equiv_pos_site_id
 _symmetry_equiv_pos_as_xyz
  1  'x, y, z'
loop_
 _atom_site_type_symbol
 _atom_site_label
 _atom_site_symmetry_multiplicity
 _atom_site_fract_x
 _atom_site_fract_y
 _atom_site_fract_z
 _atom_site_occupancy
  Sr  Sr0  1  0.263285  0.808280  0.060186  1
  Sr  Sr1  1  0.736715  0.191720  0.939814  1
  Ca  Ca2  1  0.995583  0.419287  0.661064  1
  Ca  Ca3  1  0.004417  0.580713  0.338936  1
  Ni  Ni4  1  0.652749  0.850369  0.559544  1
  Ni  Ni5  1  0.347251  0.149631  0.440456  1
  P  P6  1  0.396098  0.417251  0.228008  1
  P  P7  1  0.603902  0.582749  0.771992  1
  P  P8  1  0.841059  0.030770  0.299578  1
  P  P9  1  0.158941  0.969230  0.700422  1
  O  O10  1  0.837546  0.559859  0.879138  1
  O  O11  1  0.623808  0.450914  0.167981  1
  O  O12  1  0.651996  0.801133  0.758577  1
  O  O13  1  0.959346  0.103396  0.696281  1
  O  O14  1  0.376192  0.549086  0.832019  1
  O  O15  1  0.007261  0.738142  0.594020  1
  O  O16  1  0.992739  0.261858  0.405980  1
  O  O17  1  0.273935  0.997236  0.868886  1
  O  O18  1  0.348004  0.198867  0.241423  1
  O  O19  1  0.726065  0.002764  0.131114  1
  O  O20  1  0.162454  0.440141  0.120862  1
  O  O21  1  0.426182  0.590354  0.391588  1
  O  O22  1  0.573818  0.409646  0.608412  1
  O  O23  1  0.638435  0.966674  0.376334  1
  O  O24  1  0.040654  0.896604  0.303719  1
  O  O25  1  0.361565  0.033326  0.623666  1
