# generated using pymatgen
data_Y2Ti3(SiO4)3
_symmetry_space_group_name_H-M   'P 1'
_cell_length_a   10.68021796
_cell_length_b   10.68021748
_cell_length_c   10.68021761
_cell_angle_alpha   109.47122091
_cell_angle_beta   109.47121999
_cell_angle_gamma   109.47122220
_symmetry_Int_Tables_number   1
_chemical_formula_structural   Y2Ti3(SiO4)3
_chemical_formula_sum   'Y8 Ti12 Si12 O48'
_cell_volume   937.81768098
_cell_formula_units_Z   4
loop_
 _symmetry_equiv_pos_site_id
 _symmetry_equiv_pos_as_xyz
  1  'x, y, z'
loop_
 _atom_site_type_symbol
 _atom_site_label
 _atom_site_symmetry_multiplicity
 _atom_site_fract_x
 _atom_site_fract_y
 _atom_site_fract_z
 _atom_site_occupancy
  Y  Y0  1  0.500000  0.000000  0.000000  1
  Y  Y1  1  0.000000  0.000000  0.000000  1
  Y  Y2  1  0.000000  0.500000  0.000000  1
  Y  Y3  1  0.000000  0.000000  0.500000  1
  Y  Y4  1  0.000000  0.500000  0.500001  1
  Y  Y5  1  0.500000  0.000000  0.500001  1
  Y  Y6  1  0.500000  0.500000  0.000000  1
  Y  Y7  1  0.500000  0.500000  0.500000  1
  Ti  Ti8  1  0.250000  0.875001  0.625000  1
  Ti  Ti9  1  0.875000  0.625000  0.250000  1
  Ti  Ti10  1  0.625001  0.875001  0.750001  1
  Ti  Ti11  1  0.875001  0.750001  0.625001  1
  Ti  Ti12  1  0.625000  0.250000  0.875000  1
  Ti  Ti13  1  0.750000  0.625000  0.875000  1
  Ti  Ti14  1  0.750000  0.125000  0.375000  1
  Ti  Ti15  1  0.125000  0.375000  0.750000  1
  Ti  Ti16  1  0.375000  0.125000  0.250000  1
  Ti  Ti17  1  0.125000  0.250000  0.375000  1
  Ti  Ti18  1  0.375000  0.750001  0.125000  1
  Ti  Ti19  1  0.250000  0.375000  0.125000  1
  Si  Si20  1  0.250000  0.125000  0.875000  1
  Si  Si21  1  0.875000  0.250000  0.125000  1
  Si  Si22  1  0.625000  0.750001  0.375000  1
  Si  Si23  1  0.250000  0.625000  0.375001  1
  Si  Si24  1  0.375000  0.625000  0.750000  1
  Si  Si25  1  0.750000  0.375000  0.625000  1
  Si  Si26  1  0.875000  0.125000  0.750000  1
  Si  Si27  1  0.125000  0.750001  0.875000  1
  Si  Si28  1  0.125000  0.875001  0.250000  1
  Si  Si29  1  0.625000  0.375000  0.250000  1
  Si  Si30  1  0.375000  0.250000  0.625000  1
  Si  Si31  1  0.750000  0.875001  0.125000  1
  O  O32  1  0.272484  0.477853  0.371979  1
  O  O33  1  0.022147  0.294631  0.894126  1
  O  O34  1  0.128021  0.605874  0.900504  1
  O  O35  1  0.227515  0.599496  0.205369  1
  O  O36  1  0.227515  0.128020  0.022146  1
  O  O37  1  0.599495  0.205368  0.227515  1
  O  O38  1  0.605873  0.205368  0.477853  1
  O  O39  1  0.205369  0.227515  0.599497  1
  O  O40  1  0.894127  0.371979  0.599496  1
  O  O41  1  0.294632  0.900504  0.272485  1
  O  O42  1  0.900504  0.272485  0.294632  1
  O  O43  1  0.022147  0.227515  0.128020  1
  O  O44  1  0.205369  0.477853  0.605874  1
  O  O45  1  0.599496  0.894127  0.371980  1
  O  O46  1  0.128020  0.022146  0.227515  1
  O  O47  1  0.477853  0.605874  0.205368  1
  O  O48  1  0.371979  0.599496  0.894126  1
  O  O49  1  0.894126  0.022146  0.294631  1
  O  O50  1  0.605873  0.900504  0.128021  1
  O  O51  1  0.105873  0.628020  0.400504  1
  O  O52  1  0.477853  0.371979  0.272484  1
  O  O53  1  0.371979  0.272485  0.477853  1
  O  O54  1  0.294632  0.894127  0.022147  1
  O  O55  1  0.272484  0.294631  0.900503  1
  O  O56  1  0.727515  0.522146  0.628021  1
  O  O57  1  0.977853  0.705368  0.105873  1
  O  O58  1  0.871980  0.394127  0.099496  1
  O  O59  1  0.772485  0.400504  0.794632  1
  O  O60  1  0.772484  0.871980  0.977854  1
  O  O61  1  0.400504  0.794631  0.772484  1
  O  O62  1  0.394127  0.794631  0.522146  1
  O  O63  1  0.794632  0.772485  0.400504  1
  O  O64  1  0.727515  0.705368  0.099496  1
  O  O65  1  0.705369  0.105874  0.977853  1
  O  O66  1  0.628020  0.727516  0.522147  1
  O  O67  1  0.522147  0.628020  0.727515  1
  O  O68  1  0.099496  0.871980  0.394126  1
  O  O69  1  0.394126  0.099495  0.871979  1
  O  O70  1  0.105874  0.977853  0.705368  1
  O  O71  1  0.628021  0.400504  0.105873  1
  O  O72  1  0.522147  0.394127  0.794632  1
  O  O73  1  0.871980  0.977853  0.772485  1
  O  O74  1  0.400505  0.105874  0.628021  1
  O  O75  1  0.794631  0.522146  0.394127  1
  O  O76  1  0.977853  0.772485  0.871980  1
  O  O77  1  0.099497  0.727516  0.705369  1
  O  O78  1  0.705368  0.099495  0.727515  1
  O  O79  1  0.900504  0.128020  0.605873  1
