# generated using pymatgen
data_Zn2BiWO6
_symmetry_space_group_name_H-M   'P 1'
_cell_length_a   5.52214163
_cell_length_b   5.52628511
_cell_length_c   8.26820549
_cell_angle_alpha   90.00000000
_cell_angle_beta   88.45480697
_cell_angle_gamma   90.00000000
_symmetry_Int_Tables_number   1
_chemical_formula_structural   Zn2BiWO6
_chemical_formula_sum   'Zn4 Bi2 W2 O12'
_cell_volume   252.22848853
_cell_formula_units_Z   2
loop_
 _symmetry_equiv_pos_site_id
 _symmetry_equiv_pos_as_xyz
  1  'x, y, z'
loop_
 _atom_site_type_symbol
 _atom_site_label
 _atom_site_symmetry_multiplicity
 _atom_site_fract_x
 _atom_site_fract_y
 _atom_site_fract_z
 _atom_site_occupancy
  Zn  Zn0  1  0.025495  0.015473  0.254778  1
  Zn  Zn1  1  0.474505  0.515474  0.245222  1
  Zn  Zn2  1  0.974506  0.984528  0.745222  1
  Zn  Zn3  1  0.525494  0.484527  0.754778  1
  Bi  Bi4  1  0.500000  0.000000  0.000000  1
  Bi  Bi5  1  0.000001  0.499999  0.500000  1
  W  W6  1  0.500000  0.000000  0.499999  1
  W  W7  1  0.000000  0.499999  0.000000  1
  O  O8  1  0.627749  0.315812  0.413010  1
  O  O9  1  0.872251  0.815813  0.086990  1
  O  O10  1  0.372250  0.684188  0.586990  1
  O  O11  1  0.127750  0.184187  0.913010  1
  O  O12  1  0.181026  0.133762  0.565041  1
  O  O13  1  0.318974  0.633761  0.934959  1
  O  O14  1  0.818975  0.866238  0.434959  1
  O  O15  1  0.681025  0.366239  0.065041  1
  O  O16  1  0.125090  0.373342  0.223448  1
  O  O17  1  0.374911  0.873343  0.276551  1
  O  O18  1  0.625090  0.126657  0.723449  1
  O  O19  1  0.874911  0.626658  0.776552  1
