# generated using pymatgen
data_MgCoF5
_symmetry_space_group_name_H-M   'P 1'
_cell_length_a   5.25051401
_cell_length_b   5.25051363
_cell_length_c   7.38511162
_cell_angle_alpha   97.74248854
_cell_angle_beta   110.99511767
_cell_angle_gamma   107.85188790
_symmetry_Int_Tables_number   1
_chemical_formula_structural   MgCoF5
_chemical_formula_sum   'Mg2 Co2 F10'
_cell_volume   173.93807940
_cell_formula_units_Z   2
loop_
 _symmetry_equiv_pos_site_id
 _symmetry_equiv_pos_as_xyz
  1  'x, y, z'
loop_
 _atom_site_type_symbol
 _atom_site_label
 _atom_site_symmetry_multiplicity
 _atom_site_fract_x
 _atom_site_fract_y
 _atom_site_fract_z
 _atom_site_occupancy
  Mg  Mg0  1  0.279288  0.529288  0.750000  1
  Mg  Mg1  1  0.720712  0.470712  0.250000  1
  Co  Co2  1  0.000000  0.000000  0.000000  1
  Co  Co3  1  0.500000  0.000000  0.500000  1
  F  F4  1  0.379415  0.129415  0.250000  1
  F  F5  1  0.620585  0.870585  0.750000  1
  F  F6  1  0.591272  0.736118  0.374334  1
  F  F7  1  0.861783  0.216938  0.125666  1
  F  F8  1  0.754273  0.681412  0.048875  1
  F  F9  1  0.132537  0.705399  0.451125  1
  F  F10  1  0.245727  0.318588  0.951125  1
  F  F11  1  0.867463  0.294601  0.548875  1
  F  F12  1  0.138217  0.783062  0.874334  1
  F  F13  1  0.408728  0.263882  0.625666  1
