# generated using pymatgen
data_Ti3Zn2O8
_symmetry_space_group_name_H-M   'P 1'
_cell_length_a   5.01700382
_cell_length_b   5.99123805
_cell_length_c   6.04369318
_cell_angle_alpha   119.71330492
_cell_angle_beta   109.37082656
_cell_angle_gamma   89.99999693
_symmetry_Int_Tables_number   1
_chemical_formula_structural   Ti3Zn2O8
_chemical_formula_sum   'Ti3 Zn2 O8'
_cell_volume   145.81775152
_cell_formula_units_Z   1
loop_
 _symmetry_equiv_pos_site_id
 _symmetry_equiv_pos_as_xyz
  1  'x, y, z'
loop_
 _atom_site_type_symbol
 _atom_site_label
 _atom_site_symmetry_multiplicity
 _atom_site_fract_x
 _atom_site_fract_y
 _atom_site_fract_z
 _atom_site_occupancy
  Ti  Ti0  1  0.500000  0.999999  0.000000  1
  Ti  Ti1  1  0.999999  0.733031  0.000000  1
  Ti  Ti2  1  0.999999  0.266969  1.000000  1
  Zn  Zn3  1  0.651888  0.714995  0.429989  1
  Zn  Zn4  1  0.348111  0.285006  0.570011  1
  O  O5  1  0.073313  0.394653  0.789308  1
  O  O6  1  0.926687  0.605346  0.210692  1
  O  O7  1  0.078482  0.892312  0.784624  1
  O  O8  1  0.921518  0.107687  0.215375  1
  O  O9  1  0.409950  0.340974  0.228014  1
  O  O10  1  0.409950  0.887040  0.228014  1
  O  O11  1  0.590051  0.112959  0.771986  1
  O  O12  1  0.590051  0.659026  0.771986  1
