# generated using pymatgen
data_Mg(SbO2)2
_symmetry_space_group_name_H-M   'P 1'
_cell_length_a   3.28920628
_cell_length_b   10.37445829
_cell_length_c   6.85273463
_cell_angle_alpha   71.31588842
_cell_angle_beta   76.11332923
_cell_angle_gamma   80.89808651
_symmetry_Int_Tables_number   1
_chemical_formula_structural   Mg(SbO2)2
_chemical_formula_sum   'Mg2 Sb4 O8'
_cell_volume   214.20070266
_cell_formula_units_Z   2
loop_
 _symmetry_equiv_pos_site_id
 _symmetry_equiv_pos_as_xyz
  1  'x, y, z'
loop_
 _atom_site_type_symbol
 _atom_site_label
 _atom_site_symmetry_multiplicity
 _atom_site_fract_x
 _atom_site_fract_y
 _atom_site_fract_z
 _atom_site_occupancy
  Mg  Mg0  1  0.258460  0.235981  0.256224  1
  Mg  Mg1  1  0.743855  0.742121  0.776861  1
  Sb  Sb2  1  0.620416  0.092420  0.675860  1
  Sb  Sb3  1  0.118041  0.577858  0.191541  1
  Sb  Sb4  1  0.884025  0.400244  0.841570  1
  Sb  Sb5  1  0.382186  0.885694  0.357154  1
  O  O6  1  0.898932  0.754913  0.454192  1
  O  O7  1  0.407065  0.266392  0.928469  1
  O  O8  1  0.595132  0.711690  0.104640  1
  O  O9  1  0.103559  0.223190  0.578831  1
  O  O10  1  0.230666  0.882482  0.663394  1
  O  O11  1  0.736655  0.382815  0.152865  1
  O  O12  1  0.771770  0.095672  0.369584  1
  O  O13  1  0.265548  0.595330  0.880256  1
