# generated using pymatgen
data_TaMnZn2O6
_symmetry_space_group_name_H-M   'P 1'
_cell_length_a   5.27984887
_cell_length_b   5.48180569
_cell_length_c   7.59199473
_cell_angle_alpha   90.00000000
_cell_angle_beta   90.00000000
_cell_angle_gamma   84.16364822
_symmetry_Int_Tables_number   1
_chemical_formula_structural   TaMnZn2O6
_chemical_formula_sum   'Ta2 Mn2 Zn4 O12'
_cell_volume   218.59688058
_cell_formula_units_Z   2
loop_
 _symmetry_equiv_pos_site_id
 _symmetry_equiv_pos_as_xyz
  1  'x, y, z'
loop_
 _atom_site_type_symbol
 _atom_site_label
 _atom_site_symmetry_multiplicity
 _atom_site_fract_x
 _atom_site_fract_y
 _atom_site_fract_z
 _atom_site_occupancy
  Ta  Ta0  1  0.000000  0.500000  0.000000  1
  Ta  Ta1  1  0.000000  0.500000  0.500000  1
  Mn  Mn2  1  0.500000  0.000000  0.000000  1
  Mn  Mn3  1  0.500000  0.000000  0.500000  1
  Zn  Zn4  1  0.015864  0.968225  0.250000  1
  Zn  Zn5  1  0.501342  0.446302  0.250000  1
  Zn  Zn6  1  0.498658  0.553698  0.750000  1
  Zn  Zn7  1  0.984136  0.031775  0.750000  1
  O  O8  1  0.823207  0.827261  0.560806  1
  O  O9  1  0.299127  0.665185  0.428283  1
  O  O10  1  0.176793  0.172739  0.439194  1
  O  O11  1  0.700873  0.334815  0.928283  1
  O  O12  1  0.133638  0.456740  0.750000  1
  O  O13  1  0.700873  0.334815  0.571717  1
  O  O14  1  0.299127  0.665185  0.071717  1
  O  O15  1  0.823207  0.827261  0.939194  1
  O  O16  1  0.627122  0.072566  0.250000  1
  O  O17  1  0.176793  0.172739  0.060806  1
  O  O18  1  0.372878  0.927434  0.750000  1
  O  O19  1  0.866362  0.543260  0.250000  1
