# generated using pymatgen
data_Y4Cu13Si2(SbO14)2
_symmetry_space_group_name_H-M   'P 1'
_cell_length_a   5.49058072
_cell_length_b   9.05577868
_cell_length_c   12.58533908
_cell_angle_alpha   88.55852567
_cell_angle_beta   77.41117903
_cell_angle_gamma   83.28537292
_symmetry_Int_Tables_number   1
_chemical_formula_structural   Y4Cu13Si2(SbO14)2
_chemical_formula_sum   'Y4 Cu13 Si2 Sb2 O28'
_cell_volume   606.52893491
_cell_formula_units_Z   1
loop_
 _symmetry_equiv_pos_site_id
 _symmetry_equiv_pos_as_xyz
  1  'x, y, z'
loop_
 _atom_site_type_symbol
 _atom_site_label
 _atom_site_symmetry_multiplicity
 _atom_site_fract_x
 _atom_site_fract_y
 _atom_site_fract_z
 _atom_site_occupancy
  Y  Y0  1  0.085698  0.652843  0.407588  1
  Y  Y1  1  0.509605  0.346804  0.407111  1
  Y  Y2  1  0.916756  0.346023  0.592257  1
  Y  Y3  1  0.492917  0.652872  0.592789  1
  Cu  Cu4  1  0.919857  0.637429  0.744101  1
  Cu  Cu5  1  0.658630  0.324891  0.119179  1
  Cu  Cu6  1  0.333857  0.362276  0.744173  1
  Cu  Cu7  1  0.079966  0.363555  0.255269  1
  Cu  Cu8  1  0.340169  0.674104  0.881408  1
  Cu  Cu9  1  0.309148  0.000592  0.380073  1
  Cu  Cu10  1  0.222313  0.674095  0.118953  1
  Cu  Cu11  1  0.002072  0.999704  0.000139  1
  Cu  Cu12  1  0.430541  0.999320  0.142176  1
  Cu  Cu13  1  0.778189  0.323980  0.880591  1
  Cu  Cu14  1  0.663134  0.638048  0.255304  1
  Cu  Cu15  1  0.574233  0.997990  0.855592  1
  Cu  Cu16  1  0.685958  0.002012  0.618772  1
  Si  Si17  1  0.237837  0.290328  0.999595  1
  Si  Si18  1  0.763093  0.709683  0.999714  1
  Sb  Sb19  1  0.864882  0.999975  0.271185  1
  Sb  Sb20  1  0.134642  0.999491  0.728292  1
  O  O21  1  0.700039  0.417497  0.248610  1
  O  O22  1  0.106810  0.388974  0.421442  1
  O  O23  1  0.940597  0.341422  0.000231  1
  O  O24  1  0.289834  0.107149  0.999161  1
  O  O25  1  0.895923  0.611123  0.579575  1
  O  O26  1  0.297133  0.583077  0.751577  1
  O  O27  1  0.975271  0.102689  0.611601  1
  O  O28  1  0.024860  0.896006  0.387347  1
  O  O29  1  0.715723  0.892576  0.998703  1
  O  O30  1  0.134216  0.896520  0.147787  1
  O  O31  1  0.307499  0.356244  0.108262  1
  O  O32  1  0.048913  0.584529  0.249141  1
  O  O33  1  0.409787  0.896529  0.611559  1
  O  O34  1  0.719334  0.103768  0.148066  1
  O  O35  1  0.583702  0.645117  0.108425  1
  O  O36  1  0.059169  0.656408  0.000326  1
  O  O37  1  0.282760  0.895724  0.850522  1
  O  O38  1  0.866003  0.104494  0.850096  1
  O  O39  1  0.587744  0.103207  0.387747  1
  O  O40  1  0.115141  0.146154  0.276762  1
  O  O41  1  0.878005  0.853830  0.727749  1
  O  O42  1  0.415174  0.357088  0.891345  1
  O  O43  1  0.391881  0.146209  0.723530  1
  O  O44  1  0.528336  0.389410  0.578613  1
  O  O45  1  0.692383  0.642276  0.891649  1
  O  O46  1  0.607007  0.855476  0.274397  1
  O  O47  1  0.949716  0.417741  0.751843  1
  O  O48  1  0.474585  0.611636  0.421475  1
