# generated using pymatgen
data_MgSb4O9
_symmetry_space_group_name_H-M   'P 1'
_cell_length_a   5.09795471
_cell_length_b   9.30082812
_cell_length_c   9.30321902
_cell_angle_alpha   89.97814392
_cell_angle_beta   89.91292112
_cell_angle_gamma   89.83970483
_symmetry_Int_Tables_number   1
_chemical_formula_structural   MgSb4O9
_chemical_formula_sum   'Mg2 Sb8 O18'
_cell_volume   441.11172835
_cell_formula_units_Z   2
loop_
 _symmetry_equiv_pos_site_id
 _symmetry_equiv_pos_as_xyz
  1  'x, y, z'
loop_
 _atom_site_type_symbol
 _atom_site_label
 _atom_site_symmetry_multiplicity
 _atom_site_fract_x
 _atom_site_fract_y
 _atom_site_fract_z
 _atom_site_occupancy
  Mg  Mg0  1  0.092082  0.249697  0.249717  1
  Mg  Mg1  1  0.907924  0.750342  0.750276  1
  Sb  Sb2  1  0.641625  0.523725  0.330417  1
  Sb  Sb3  1  0.357246  0.831163  0.476552  1
  Sb  Sb4  1  0.643089  0.330356  0.977021  1
  Sb  Sb5  1  0.356234  0.023324  0.830932  1
  Sb  Sb6  1  0.643636  0.976622  0.169008  1
  Sb  Sb7  1  0.642965  0.168812  0.523435  1
  Sb  Sb8  1  0.358531  0.476215  0.669504  1
  Sb  Sb9  1  0.356708  0.669634  0.022972  1
  O  O10  1  0.501041  0.748260  0.251968  1
  O  O11  1  0.499014  0.252534  0.748407  1
  O  O12  1  0.005084  0.692195  0.963075  1
  O  O13  1  0.006701  0.535874  0.692010  1
  O  O14  1  0.005211  0.963156  0.807541  1
  O  O15  1  0.005799  0.807726  0.536424  1
  O  O16  1  0.994761  0.307808  0.036753  1
  O  O17  1  0.993412  0.464002  0.307956  1
  O  O18  1  0.994646  0.036728  0.192419  1
  O  O19  1  0.994306  0.192267  0.463396  1
  O  O20  1  0.478815  0.056289  0.357794  1
  O  O21  1  0.479377  0.142809  0.056607  1
  O  O22  1  0.478415  0.358413  0.444909  1
  O  O23  1  0.479012  0.443514  0.143275  1
  O  O24  1  0.521044  0.556164  0.856682  1
  O  O25  1  0.520629  0.857281  0.943558  1
  O  O26  1  0.521562  0.641650  0.555243  1
  O  O27  1  0.521135  0.943441  0.642154  1
