# generated using pymatgen
data_Ba2AlCr3O7
_symmetry_space_group_name_H-M   'P 1'
_cell_length_a   3.82626993
_cell_length_b   3.96811522
_cell_length_c   11.57688867
_cell_angle_alpha   89.99630665
_cell_angle_beta   90.00253251
_cell_angle_gamma   90.00023808
_symmetry_Int_Tables_number   1
_chemical_formula_structural   Ba2AlCr3O7
_chemical_formula_sum   'Ba2 Al1 Cr3 O7'
_cell_volume   175.77282577
_cell_formula_units_Z   1
loop_
 _symmetry_equiv_pos_site_id
 _symmetry_equiv_pos_as_xyz
  1  'x, y, z'
loop_
 _atom_site_type_symbol
 _atom_site_label
 _atom_site_symmetry_multiplicity
 _atom_site_fract_x
 _atom_site_fract_y
 _atom_site_fract_z
 _atom_site_occupancy
  Ba  Ba0  1  0.499995  0.500003  0.814857  1
  Ba  Ba1  1  0.500002  0.499990  0.185119  1
  Al  Al2  1  0.500012  0.500042  0.499996  1
  Cr  Cr3  1  0.999999  0.000036  0.639247  1
  Cr  Cr4  1  0.000009  0.999997  0.360699  1
  Cr  Cr5  1  0.999938  0.999968  0.000031  1
  O  O6  1  0.000009  0.499965  0.000044  1
  O  O7  1  0.499991  0.000060  0.607035  1
  O  O8  1  0.500018  0.999933  0.392888  1
  O  O9  1  0.999975  0.500043  0.607380  1
  O  O10  1  0.000036  0.499977  0.392540  1
  O  O11  1  0.000013  0.000000  0.820216  1
  O  O12  1  0.000004  0.999987  0.179948  1
