# generated using pymatgen
data_PrZn(CuO3)2
_symmetry_space_group_name_H-M   'P 1'
_cell_length_a   5.21694699
_cell_length_b   5.42723780
_cell_length_c   7.60494657
_cell_angle_alpha   90.00084225
_cell_angle_beta   89.95376408
_cell_angle_gamma   90.04964291
_symmetry_Int_Tables_number   1
_chemical_formula_structural   PrZn(CuO3)2
_chemical_formula_sum   'Pr2 Zn2 Cu4 O12'
_cell_volume   215.32335463
_cell_formula_units_Z   2
loop_
 _symmetry_equiv_pos_site_id
 _symmetry_equiv_pos_as_xyz
  1  'x, y, z'
loop_
 _atom_site_type_symbol
 _atom_site_label
 _atom_site_symmetry_multiplicity
 _atom_site_fract_x
 _atom_site_fract_y
 _atom_site_fract_z
 _atom_site_occupancy
  Pr  Pr0  1  0.011607  0.955834  0.750498  1
  Pr  Pr1  1  0.511804  0.543849  0.249584  1
  Zn  Zn2  1  0.474775  0.446580  0.749916  1
  Zn  Zn3  1  0.974661  0.053479  0.250010  1
  Cu  Cu4  1  0.999203  0.496958  0.998518  1
  Cu  Cu5  1  0.998868  0.496871  0.501478  1
  Cu  Cu6  1  0.498780  0.003001  0.498558  1
  Cu  Cu7  1  0.498942  0.002931  0.001483  1
  O  O8  1  0.071997  0.447689  0.250713  1
  O  O9  1  0.230890  0.236474  0.942701  1
  O  O10  1  0.230912  0.236633  0.557912  1
  O  O11  1  0.308671  0.697756  0.557754  1
  O  O12  1  0.309118  0.698018  0.942147  1
  O  O13  1  0.364162  0.977673  0.250038  1
  O  O14  1  0.571894  0.052249  0.749817  1
  O  O15  1  0.730903  0.263611  0.057436  1
  O  O16  1  0.730810  0.263521  0.442282  1
  O  O17  1  0.808906  0.802321  0.057904  1
  O  O18  1  0.809034  0.802193  0.442075  1
  O  O19  1  0.864059  0.522357  0.749178  1
