# generated using pymatgen
data_ZnCrAs2O7
_symmetry_space_group_name_H-M   'P 1'
_cell_length_a   7.35977196
_cell_length_b   8.65619182
_cell_length_c   9.79367774
_cell_angle_alpha   90.00000000
_cell_angle_beta   112.88019018
_cell_angle_gamma   90.00000000
_symmetry_Int_Tables_number   1
_chemical_formula_structural   ZnCrAs2O7
_chemical_formula_sum   'Zn4 Cr4 As8 O28'
_cell_volume   574.84066865
_cell_formula_units_Z   4
loop_
 _symmetry_equiv_pos_site_id
 _symmetry_equiv_pos_as_xyz
  1  'x, y, z'
loop_
 _atom_site_type_symbol
 _atom_site_label
 _atom_site_symmetry_multiplicity
 _atom_site_fract_x
 _atom_site_fract_y
 _atom_site_fract_z
 _atom_site_occupancy
  Zn  Zn0  1  0.269921  0.929743  0.896260  1
  Zn  Zn1  1  0.730079  0.429743  0.603740  1
  Zn  Zn2  1  0.730079  0.070257  0.103740  1
  Zn  Zn3  1  0.269921  0.570257  0.396260  1
  Cr  Cr4  1  0.799496  0.056151  0.667130  1
  Cr  Cr5  1  0.200504  0.556151  0.832870  1
  Cr  Cr6  1  0.200504  0.943849  0.332870  1
  Cr  Cr7  1  0.799496  0.443849  0.167130  1
  As  As8  1  0.435391  0.225640  0.749400  1
  As  As9  1  0.564609  0.725640  0.750600  1
  As  As10  1  0.564609  0.774360  0.250600  1
  As  As11  1  0.435391  0.274360  0.249399  1
  As  As12  1  0.030837  0.272021  0.962920  1
  As  As13  1  0.969163  0.772021  0.537080  1
  As  As14  1  0.969163  0.727979  0.037080  1
  As  As15  1  0.030837  0.227979  0.462920  1
  O  O16  1  0.864619  0.265499  0.047041  1
  O  O17  1  0.135381  0.765499  0.452959  1
  O  O18  1  0.135381  0.734501  0.952959  1
  O  O19  1  0.864619  0.234501  0.547041  1
  O  O20  1  0.357055  0.403155  0.765725  1
  O  O21  1  0.642945  0.903155  0.734275  1
  O  O22  1  0.642945  0.596845  0.234275  1
  O  O23  1  0.357055  0.096845  0.265725  1
  O  O24  1  0.466162  0.100743  0.893009  1
  O  O25  1  0.533838  0.600743  0.606991  1
  O  O26  1  0.533838  0.899257  0.106991  1
  O  O27  1  0.466162  0.399257  0.393009  1
  O  O28  1  0.253894  0.138890  0.587593  1
  O  O29  1  0.746106  0.638890  0.912407  1
  O  O30  1  0.746106  0.861110  0.412407  1
  O  O31  1  0.253894  0.361110  0.087593  1
  O  O32  1  0.977499  0.087178  0.329687  1
  O  O33  1  0.022501  0.587178  0.170313  1
  O  O34  1  0.022501  0.912822  0.670313  1
  O  O35  1  0.977499  0.412822  0.829687  1
  O  O36  1  0.636246  0.264072  0.201174  1
  O  O37  1  0.363754  0.764072  0.298826  1
  O  O38  1  0.363754  0.735928  0.798826  1
  O  O39  1  0.636246  0.235928  0.701174  1
  O  O40  1  0.063477  0.403195  0.399828  1
  O  O41  1  0.936523  0.903195  0.100172  1
  O  O42  1  0.936523  0.596805  0.600172  1
  O  O43  1  0.063477  0.096805  0.899828  1
