# generated using pymatgen
data_ZnCr2O6
_symmetry_space_group_name_H-M   'P 1'
_cell_length_a   5.00722625
_cell_length_b   5.36669005
_cell_length_c   7.19366692
_cell_angle_alpha   90.00760694
_cell_angle_beta   89.98947147
_cell_angle_gamma   90.02816509
_symmetry_Int_Tables_number   1
_chemical_formula_structural   ZnCr2O6
_chemical_formula_sum   'Zn2 Cr4 O12'
_cell_volume   193.30985336
_cell_formula_units_Z   2
loop_
 _symmetry_equiv_pos_site_id
 _symmetry_equiv_pos_as_xyz
  1  'x, y, z'
loop_
 _atom_site_type_symbol
 _atom_site_label
 _atom_site_symmetry_multiplicity
 _atom_site_fract_x
 _atom_site_fract_y
 _atom_site_fract_z
 _atom_site_occupancy
  Zn  Zn0  1  0.531733  0.539761  0.249991  1
  Zn  Zn1  1  0.031543  0.959891  0.749903  1
  Cr  Cr2  1  0.528408  0.011801  0.011744  1
  Cr  Cr3  1  0.028142  0.488134  0.987586  1
  Cr  Cr4  1  0.028596  0.487977  0.512025  1
  Cr  Cr5  1  0.528166  0.011518  0.487303  1
  O  O6  1  0.700447  0.291615  0.436510  1
  O  O7  1  0.200560  0.208677  0.563525  1
  O  O8  1  0.748476  0.761908  0.065767  1
  O  O9  1  0.248463  0.737824  0.934684  1
  O  O10  1  0.248770  0.738000  0.565726  1
  O  O11  1  0.748765  0.762682  0.434622  1
  O  O12  1  0.200291  0.208825  0.936469  1
  O  O13  1  0.700655  0.291296  0.063498  1
  O  O14  1  0.145826  0.488809  0.250232  1
  O  O15  1  0.645776  0.011249  0.750303  1
  O  O16  1  0.378695  0.995452  0.249967  1
  O  O17  1  0.878867  0.504639  0.750039  1
