# generated using pymatgen
data_Ca9Cr(PO4)7
_symmetry_space_group_name_H-M   'P 1'
_cell_length_a   13.88175239
_cell_length_b   13.88175257
_cell_length_c   13.88175281
_cell_angle_alpha   44.13205068
_cell_angle_beta   44.13204990
_cell_angle_gamma   44.13205015
_symmetry_Int_Tables_number   1
_chemical_formula_structural   Ca9Cr(PO4)7
_chemical_formula_sum   'Ca18 Cr2 P14 O56'
_cell_volume   1178.36200816
_cell_formula_units_Z   2
loop_
 _symmetry_equiv_pos_site_id
 _symmetry_equiv_pos_as_xyz
  1  'x, y, z'
loop_
 _atom_site_type_symbol
 _atom_site_label
 _atom_site_symmetry_multiplicity
 _atom_site_fract_x
 _atom_site_fract_y
 _atom_site_fract_z
 _atom_site_occupancy
  Ca  Ca0  1  0.357022  0.907390  0.934247  1
  Ca  Ca1  1  0.156312  0.565656  0.580368  1
  Ca  Ca2  1  0.065656  0.656312  0.080368  1
  Ca  Ca3  1  0.407389  0.857022  0.434247  1
  Ca  Ca4  1  0.974453  0.955266  0.551029  1
  Ca  Ca5  1  0.051029  0.455266  0.474453  1
  Ca  Ca6  1  0.565656  0.580368  0.156312  1
  Ca  Ca7  1  0.857022  0.434247  0.407389  1
  Ca  Ca8  1  0.474453  0.051029  0.455266  1
  Ca  Ca9  1  0.907390  0.934247  0.357022  1
  Ca  Ca10  1  0.656312  0.080368  0.065656  1
  Ca  Ca11  1  0.080368  0.065656  0.656312  1
  Ca  Ca12  1  0.434247  0.407389  0.857022  1
  Ca  Ca13  1  0.934247  0.357022  0.907390  1
  Ca  Ca14  1  0.551029  0.974453  0.955266  1
  Ca  Ca15  1  0.955266  0.551029  0.974453  1
  Ca  Ca16  1  0.580368  0.156312  0.565656  1
  Ca  Ca17  1  0.455266  0.474453  0.051029  1
  Cr  Cr18  1  0.502059  0.502059  0.502059  1
  Cr  Cr19  1  0.002059  0.002059  0.002059  1
  P  P20  1  0.721027  0.189552  0.686157  1
  P  P21  1  0.221027  0.186157  0.689552  1
  P  P22  1  0.189552  0.686157  0.721027  1
  P  P23  1  0.689552  0.221027  0.186157  1
  P  P24  1  0.312771  0.278878  0.820819  1
  P  P25  1  0.812771  0.320819  0.778878  1
  P  P26  1  0.320819  0.778878  0.812771  1
  P  P27  1  0.778878  0.812771  0.320819  1
  P  P28  1  0.820819  0.312771  0.278878  1
  P  P29  1  0.686157  0.721027  0.189552  1
  P  P30  1  0.770671  0.770671  0.770671  1
  P  P31  1  0.186157  0.689552  0.221027  1
  P  P32  1  0.278878  0.820819  0.312771  1
  P  P33  1  0.270671  0.270671  0.270671  1
  O  O34  1  0.632416  0.368892  0.613329  1
  O  O35  1  0.394779  0.267247  0.111395  1
  O  O36  1  0.903390  0.359316  0.264980  1
  O  O37  1  0.113329  0.868892  0.132416  1
  O  O38  1  0.370205  0.858457  0.639644  1
  O  O39  1  0.117272  0.835634  0.389260  1
  O  O40  1  0.377123  0.640208  0.384367  1
  O  O41  1  0.639644  0.370205  0.858457  1
  O  O42  1  0.389260  0.117272  0.835634  1
  O  O43  1  0.854319  0.664836  0.139271  1
  O  O44  1  0.384367  0.377123  0.640208  1
  O  O45  1  0.092333  0.650027  0.393681  1
  O  O46  1  0.358457  0.870205  0.139644  1
  O  O47  1  0.877123  0.884367  0.140208  1
  O  O48  1  0.664836  0.139271  0.854319  1
  O  O49  1  0.812087  0.812087  0.812087  1
  O  O50  1  0.114954  0.676505  0.685605  1
  O  O51  1  0.868892  0.132416  0.113329  1
  O  O52  1  0.870205  0.139644  0.358457  1
  O  O53  1  0.312087  0.312087  0.312087  1
  O  O54  1  0.676505  0.685605  0.114954  1
  O  O55  1  0.858457  0.639644  0.370205  1
  O  O56  1  0.893681  0.150027  0.592333  1
  O  O57  1  0.164836  0.354319  0.639271  1
  O  O58  1  0.354319  0.639271  0.164836  1
  O  O59  1  0.139271  0.854319  0.664836  1
  O  O60  1  0.650027  0.393681  0.092333  1
  O  O61  1  0.764980  0.859316  0.403390  1
  O  O62  1  0.613329  0.632416  0.368892  1
  O  O63  1  0.264980  0.903390  0.359316  1
  O  O64  1  0.592333  0.893681  0.150027  1
  O  O65  1  0.835634  0.389260  0.117272  1
  O  O66  1  0.859316  0.403390  0.764980  1
  O  O67  1  0.139644  0.358457  0.870205  1
  O  O68  1  0.894779  0.611395  0.767247  1
  O  O69  1  0.111395  0.394779  0.267247  1
  O  O70  1  0.614954  0.185605  0.176505  1
  O  O71  1  0.403390  0.764980  0.859316  1
  O  O72  1  0.889260  0.335634  0.617272  1
  O  O73  1  0.335634  0.617272  0.889260  1
  O  O74  1  0.140208  0.877123  0.884367  1
  O  O75  1  0.176505  0.614954  0.185605  1
  O  O76  1  0.884367  0.140208  0.877123  1
  O  O77  1  0.640208  0.384367  0.377123  1
  O  O78  1  0.617272  0.889260  0.335634  1
  O  O79  1  0.639271  0.164836  0.354319  1
  O  O80  1  0.150027  0.592333  0.893681  1
  O  O81  1  0.132416  0.113329  0.868892  1
  O  O82  1  0.611395  0.767247  0.894779  1
  O  O83  1  0.267247  0.111395  0.394779  1
  O  O84  1  0.359316  0.264980  0.903390  1
  O  O85  1  0.393681  0.092333  0.650027  1
  O  O86  1  0.185605  0.176505  0.614954  1
  O  O87  1  0.767247  0.894779  0.611395  1
  O  O88  1  0.368892  0.613329  0.632416  1
  O  O89  1  0.685605  0.114954  0.676505  1
