# generated using pymatgen
data_SrCuBiO4
_symmetry_space_group_name_H-M   'P 1'
_cell_length_a   3.59773481
_cell_length_b   3.59773525
_cell_length_c   16.85252589
_cell_angle_alpha   96.12751985
_cell_angle_beta   96.12752049
_cell_angle_gamma   90.00000816
_symmetry_Int_Tables_number   1
_chemical_formula_structural   SrCuBiO4
_chemical_formula_sum   'Sr2 Cu2 Bi2 O8'
_cell_volume   215.63430099
_cell_formula_units_Z   2
loop_
 _symmetry_equiv_pos_site_id
 _symmetry_equiv_pos_as_xyz
  1  'x, y, z'
loop_
 _atom_site_type_symbol
 _atom_site_label
 _atom_site_symmetry_multiplicity
 _atom_site_fract_x
 _atom_site_fract_y
 _atom_site_fract_z
 _atom_site_occupancy
  Sr  Sr0  1  0.892752  0.892752  0.785505  1
  Sr  Sr1  1  0.107248  0.107248  0.214495  1
  Cu  Cu2  1  0.541264  0.541264  0.082527  1
  Cu  Cu3  1  0.458736  0.458736  0.917473  1
  Bi  Bi4  1  0.302650  0.302650  0.605300  1
  Bi  Bi5  1  0.697350  0.697350  0.394700  1
  O  O6  1  0.197567  0.197567  0.395133  1
  O  O7  1  0.945672  0.445672  0.891343  1
  O  O8  1  0.054329  0.554329  0.108657  1
  O  O9  1  0.802433  0.802433  0.604867  1
  O  O10  1  0.364436  0.364436  0.728873  1
  O  O11  1  0.635564  0.635564  0.271127  1
  O  O12  1  0.445672  0.945672  0.891343  1
  O  O13  1  0.554329  0.054328  0.108657  1
