# generated using pymatgen
data_Sr4CaCo2(SO3)2
_symmetry_space_group_name_H-M   'P 1'
_cell_length_a   3.93835462
_cell_length_b   3.87154241
_cell_length_c   16.90471161
_cell_angle_alpha   90.00543121
_cell_angle_beta   89.99568244
_cell_angle_gamma   89.18592036
_symmetry_Int_Tables_number   1
_chemical_formula_structural   Sr4CaCo2(SO3)2
_chemical_formula_sum   'Sr4 Ca1 Co2 S2 O6'
_cell_volume   257.72868880
_cell_formula_units_Z   1
loop_
 _symmetry_equiv_pos_site_id
 _symmetry_equiv_pos_as_xyz
  1  'x, y, z'
loop_
 _atom_site_type_symbol
 _atom_site_label
 _atom_site_symmetry_multiplicity
 _atom_site_fract_x
 _atom_site_fract_y
 _atom_site_fract_z
 _atom_site_occupancy
  Sr  Sr0  1  0.749976  0.749998  0.204065  1
  Sr  Sr1  1  0.249993  0.249998  0.795797  1
  Sr  Sr2  1  0.749971  0.750019  0.418416  1
  Sr  Sr3  1  0.250022  0.249989  0.581551  1
  Ca  Ca4  1  0.249976  0.749964  0.999780  1
  Co  Co5  1  0.249709  0.250389  0.320911  1
  Co  Co6  1  0.750270  0.749889  0.679134  1
  S  S7  1  0.250017  0.250016  0.111754  1
  S  S8  1  0.750011  0.750018  0.888670  1
  O  O9  1  0.750054  0.249863  0.302408  1
  O  O10  1  0.250116  0.749928  0.301428  1
  O  O11  1  0.249875  0.750011  0.698106  1
  O  O12  1  0.749913  0.249946  0.698068  1
  O  O13  1  0.250144  0.249839  0.435004  1
  O  O14  1  0.749954  0.750131  0.564907  1
