# generated using pymatgen
data_Mn2ZnO4
_symmetry_space_group_name_H-M   'P 1'
_cell_length_a   3.00815134
_cell_length_b   9.10823172
_cell_length_c   10.49544142
_cell_angle_alpha   90.01434930
_cell_angle_beta   90.00080637
_cell_angle_gamma   90.00058596
_symmetry_Int_Tables_number   1
_chemical_formula_structural   Mn2ZnO4
_chemical_formula_sum   'Mn8 Zn4 O16'
_cell_volume   287.56395480
_cell_formula_units_Z   4
loop_
 _symmetry_equiv_pos_site_id
 _symmetry_equiv_pos_as_xyz
  1  'x, y, z'
loop_
 _atom_site_type_symbol
 _atom_site_label
 _atom_site_symmetry_multiplicity
 _atom_site_fract_x
 _atom_site_fract_y
 _atom_site_fract_z
 _atom_site_occupancy
  Mn  Mn0  1  0.249999  0.416461  0.105183  1
  Mn  Mn1  1  0.750001  0.083449  0.605287  1
  Mn  Mn2  1  0.250011  0.916584  0.394755  1
  Mn  Mn3  1  0.750001  0.583530  0.894785  1
  Mn  Mn4  1  0.749997  0.565466  0.382991  1
  Mn  Mn5  1  0.249989  0.434526  0.616992  1
  Mn  Mn6  1  0.750007  0.065420  0.116980  1
  Mn  Mn7  1  0.250001  0.934570  0.883027  1
  Zn  Zn8  1  0.749991  0.249000  0.349195  1
  Zn  Zn9  1  0.249990  0.750970  0.650769  1
  Zn  Zn10  1  0.749996  0.748927  0.150863  1
  Zn  Zn11  1  0.249992  0.251020  0.849127  1
  O  O12  1  0.250000  0.901937  0.071388  1
  O  O13  1  0.749982  0.098054  0.928634  1
  O  O14  1  0.249989  0.401878  0.428542  1
  O  O15  1  0.749993  0.598085  0.571438  1
  O  O16  1  0.250005  0.022246  0.715378  1
  O  O17  1  0.750015  0.977876  0.284673  1
  O  O18  1  0.250006  0.522358  0.784680  1
  O  O19  1  0.750004  0.477592  0.215307  1
  O  O20  1  0.250000  0.617821  0.032282  1
  O  O21  1  0.750000  0.382196  0.967712  1
  O  O22  1  0.250005  0.117830  0.467834  1
  O  O23  1  0.749991  0.882188  0.532228  1
  O  O24  1  0.750012  0.781576  0.819418  1
  O  O25  1  0.250001  0.218408  0.180511  1
  O  O26  1  0.249996  0.718543  0.319272  1
  O  O27  1  0.750013  0.281489  0.680749  1
