# generated using pymatgen
data_CaLa2CrO6
_symmetry_space_group_name_H-M   'P 1'
_cell_length_a   5.69576082
_cell_length_b   5.69576043
_cell_length_c   5.69576105
_cell_angle_alpha   62.03305167
_cell_angle_beta   62.03305283
_cell_angle_gamma   62.03305586
_symmetry_Int_Tables_number   1
_chemical_formula_structural   CaLa2CrO6
_chemical_formula_sum   'Ca1 La2 Cr1 O6'
_cell_volume   136.59950275
_cell_formula_units_Z   1
loop_
 _symmetry_equiv_pos_site_id
 _symmetry_equiv_pos_as_xyz
  1  'x, y, z'
loop_
 _atom_site_type_symbol
 _atom_site_label
 _atom_site_symmetry_multiplicity
 _atom_site_fract_x
 _atom_site_fract_y
 _atom_site_fract_z
 _atom_site_occupancy
  Ca  Ca0  1  0.500000  0.500000  0.500000  1
  La  La1  1  0.759343  0.759343  0.759343  1
  La  La2  1  0.240657  0.240657  0.240657  1
  Cr  Cr3  1  0.000000  0.000000  0.000000  1
  O  O4  1  0.327174  0.785671  0.133522  1
  O  O5  1  0.785671  0.133522  0.327174  1
  O  O6  1  0.133522  0.327174  0.785671  1
  O  O7  1  0.672826  0.214329  0.866478  1
  O  O8  1  0.866478  0.672826  0.214329  1
  O  O9  1  0.214329  0.866478  0.672826  1
