# generated using pymatgen
data_Sr3Co2S2O5
_symmetry_space_group_name_H-M   'P 1'
_cell_length_a   3.99004392
_cell_length_b   3.99004392
_cell_length_c   11.65835467
_cell_angle_alpha   99.85316562
_cell_angle_beta   99.85316562
_cell_angle_gamma   90.00000000
_symmetry_Int_Tables_number   1
_chemical_formula_structural   Sr3Co2S2O5
_chemical_formula_sum   'Sr3 Co2 S2 O5'
_cell_volume   180.08908487
_cell_formula_units_Z   1
loop_
 _symmetry_equiv_pos_site_id
 _symmetry_equiv_pos_as_xyz
  1  'x, y, z'
loop_
 _atom_site_type_symbol
 _atom_site_label
 _atom_site_symmetry_multiplicity
 _atom_site_fract_x
 _atom_site_fract_y
 _atom_site_fract_z
 _atom_site_occupancy
  Sr  Sr0  1  0.500000  0.500000  0.000000  1
  Sr  Sr1  1  0.659174  0.659174  0.318348  1
  Sr  Sr2  1  0.340826  0.340826  0.681652  1
  Co  Co3  1  0.084383  0.084383  0.168765  1
  Co  Co4  1  0.915617  0.915617  0.831235  1
  S  S5  1  0.191184  0.191184  0.382368  1
  S  S6  1  0.808816  0.808816  0.617632  1
  O  O7  1  0.085022  0.585022  0.170045  1
  O  O8  1  0.585022  0.085022  0.170045  1
  O  O9  1  0.914978  0.414978  0.829955  1
  O  O10  1  0.414978  0.914978  0.829955  1
  O  O11  1  0.000000  0.000000  0.000000  1
