# generated using pymatgen
data_Mg2NiIrO6
_symmetry_space_group_name_H-M   'P 1'
_cell_length_a   5.10961176
_cell_length_b   5.32233665
_cell_length_c   7.53910301
_cell_angle_alpha   90.00000000
_cell_angle_beta   90.04668321
_cell_angle_gamma   90.00000000
_symmetry_Int_Tables_number   1
_chemical_formula_structural   Mg2NiIrO6
_chemical_formula_sum   'Mg4 Ni2 Ir2 O12'
_cell_volume   205.02639584
_cell_formula_units_Z   2
loop_
 _symmetry_equiv_pos_site_id
 _symmetry_equiv_pos_as_xyz
  1  'x, y, z'
loop_
 _atom_site_type_symbol
 _atom_site_label
 _atom_site_symmetry_multiplicity
 _atom_site_fract_x
 _atom_site_fract_y
 _atom_site_fract_z
 _atom_site_occupancy
  Mg  Mg0  1  0.013024  0.935824  0.248535  1
  Mg  Mg1  1  0.486976  0.435824  0.251465  1
  Mg  Mg2  1  0.513024  0.564176  0.748535  1
  Mg  Mg3  1  0.986976  0.064176  0.751465  1
  Ni  Ni4  1  0.000000  0.500000  0.000000  1
  Ni  Ni5  1  0.500000  0.000000  0.500000  1
  Ir  Ir6  1  0.000000  0.500000  0.500000  1
  Ir  Ir7  1  0.500000  0.000000  0.000000  1
  O  O8  1  0.137282  0.431709  0.741707  1
  O  O9  1  0.188000  0.181083  0.070148  1
  O  O10  1  0.172414  0.191338  0.424545  1
  O  O11  1  0.327586  0.691338  0.075455  1
  O  O12  1  0.312000  0.681083  0.429852  1
  O  O13  1  0.362718  0.931709  0.758293  1
  O  O14  1  0.637282  0.068291  0.241706  1
  O  O15  1  0.688000  0.318917  0.570148  1
  O  O16  1  0.672414  0.308662  0.924545  1
  O  O17  1  0.812000  0.818917  0.929852  1
  O  O18  1  0.827586  0.808662  0.575455  1
  O  O19  1  0.862718  0.568291  0.258294  1
