# generated using pymatgen
data_Ca(MnS2)2
_symmetry_space_group_name_H-M   'P 1'
_cell_length_a   7.72657816
_cell_length_b   7.48447117
_cell_length_c   7.48246909
_cell_angle_alpha   89.76063516
_cell_angle_beta   121.14674840
_cell_angle_gamma   121.15217124
_symmetry_Int_Tables_number   1
_chemical_formula_structural   Ca(MnS2)2
_chemical_formula_sum   'Ca2 Mn4 S8'
_cell_volume   295.72460946
_cell_formula_units_Z   2
loop_
 _symmetry_equiv_pos_site_id
 _symmetry_equiv_pos_as_xyz
  1  'x, y, z'
loop_
 _atom_site_type_symbol
 _atom_site_label
 _atom_site_symmetry_multiplicity
 _atom_site_fract_x
 _atom_site_fract_y
 _atom_site_fract_z
 _atom_site_occupancy
  Ca  Ca0  1  0.000059  0.000002  0.000070  1
  Ca  Ca1  1  0.500021  0.000027  0.000064  1
  Mn  Mn2  1  0.499510  -0.000233  0.499629  1
  Mn  Mn3  1  0.500030  0.500058  0.500058  1
  Mn  Mn4  1  -0.000054  0.500220  0.000169  1
  Mn  Mn5  1  0.000058  0.500123  0.500020  1
  S  S6  1  0.043123  0.740733  0.257474  1
  S  S7  1  0.483155  0.755078  0.711670  1
  S  S8  1  0.456699  0.742235  0.258966  1
  S  S9  1  0.983057  0.711684  0.754876  1
  S  S10  1  0.543407  0.257693  0.741074  1
  S  S11  1  0.516959  0.244987  0.288455  1
  S  S12  1  0.017000  0.288256  0.245150  1
  S  S13  1  0.957024  0.259102  0.742368  1
