# generated using pymatgen
data_Zn2SnWO6
_symmetry_space_group_name_H-M   'P 1'
_cell_length_a   5.77565777
_cell_length_b   6.76372902
_cell_length_c   8.12853948
_cell_angle_alpha   89.90230959
_cell_angle_beta   134.77723212
_cell_angle_gamma   121.25913092
_symmetry_Int_Tables_number   1
_chemical_formula_structural   Zn2SnWO6
_chemical_formula_sum   'Zn2 Sn1 W1 O6'
_cell_volume   154.21667906
_cell_formula_units_Z   1
loop_
 _symmetry_equiv_pos_site_id
 _symmetry_equiv_pos_as_xyz
  1  'x, y, z'
loop_
 _atom_site_type_symbol
 _atom_site_label
 _atom_site_symmetry_multiplicity
 _atom_site_fract_x
 _atom_site_fract_y
 _atom_site_fract_z
 _atom_site_occupancy
  Zn  Zn0  1  0.149414  0.664620  0.265630  1
  Zn  Zn1  1  0.048584  0.671444  0.816536  1
  Sn  Sn2  1  0.075307  0.039452  0.519067  1
  W  W3  1  0.000907  0.998496  0.006945  1
  O  O4  1  0.203119  0.998008  0.328117  1
  O  O5  1  0.675510  0.784512  0.636069  1
  O  O6  1  0.260230  0.347629  0.104401  1
  O  O7  1  0.390403  0.798469  0.787905  1
  O  O8  1  0.508743  0.056589  0.174161  1
  O  O9  1  0.726675  0.478967  0.870125  1
