# generated using pymatgen
data_Nb2Zn2CuO8
_symmetry_space_group_name_H-M   'P 1'
_cell_length_a   5.23151382
_cell_length_b   6.02304070
_cell_length_c   10.10066712
_cell_angle_alpha   106.84925449
_cell_angle_beta   91.68992295
_cell_angle_gamma   90.36580842
_symmetry_Int_Tables_number   1
_chemical_formula_structural   Nb2Zn2CuO8
_chemical_formula_sum   'Nb4 Zn4 Cu2 O16'
_cell_volume   304.43557361
_cell_formula_units_Z   2
loop_
 _symmetry_equiv_pos_site_id
 _symmetry_equiv_pos_as_xyz
  1  'x, y, z'
loop_
 _atom_site_type_symbol
 _atom_site_label
 _atom_site_symmetry_multiplicity
 _atom_site_fract_x
 _atom_site_fract_y
 _atom_site_fract_z
 _atom_site_occupancy
  Nb  Nb0  1  0.735168  0.277381  0.228557  1
  Nb  Nb1  1  0.768024  0.045761  0.771451  1
  Nb  Nb2  1  0.266905  0.721629  0.770851  1
  Nb  Nb3  1  0.234016  0.952785  0.229804  1
  Zn  Zn4  1  0.758364  0.432926  0.557607  1
  Zn  Zn5  1  0.742511  0.874794  0.442314  1
  Zn  Zn6  1  0.242317  0.564004  0.441336  1
  Zn  Zn7  1  0.259976  0.124111  0.559253  1
  Cu  Cu8  1  0.752854  0.648922  0.999350  1
  Cu  Cu9  1  0.252385  0.350657  0.000266  1
  O  O10  1  0.068396  0.190226  0.142453  1
  O  O11  1  0.435432  0.043102  0.857412  1
  O  O12  1  0.934121  0.808969  0.859275  1
  O  O13  1  0.566042  0.958829  0.143369  1
  O  O14  1  0.567792  0.423908  0.110308  1
  O  O15  1  0.941200  0.304474  0.887941  1
  O  O16  1  0.437633  0.578690  0.889262  1
  O  O17  1  0.064249  0.692548  0.111922  1
  O  O18  1  0.442824  0.283865  0.361919  1
  O  O19  1  0.060671  0.919601  0.639390  1
  O  O20  1  0.367047  0.835821  0.385928  1
  O  O21  1  0.134353  0.449203  0.614938  1
  O  O22  1  0.635564  0.162015  0.614538  1
  O  O23  1  0.867241  0.549448  0.385415  1
  O  O24  1  0.941969  0.078477  0.361290  1
  O  O25  1  0.561129  0.715277  0.639478  1
