# generated using pymatgen
data_NiS2
_symmetry_space_group_name_H-M   'P 1'
_cell_length_a   5.11262457
_cell_length_b   5.11262342
_cell_length_c   5.73747385
_cell_angle_alpha   116.45832764
_cell_angle_beta   116.45832325
_cell_angle_gamma   89.99999132
_symmetry_Int_Tables_number   1
_chemical_formula_structural   NiS2
_chemical_formula_sum   'Ni2 S4'
_cell_volume   116.45510326
_cell_formula_units_Z   2
loop_
 _symmetry_equiv_pos_site_id
 _symmetry_equiv_pos_as_xyz
  1  'x, y, z'
loop_
 _atom_site_type_symbol
 _atom_site_label
 _atom_site_symmetry_multiplicity
 _atom_site_fract_x
 _atom_site_fract_y
 _atom_site_fract_z
 _atom_site_occupancy
  Ni  Ni0  1  0.250000  0.750000  0.500000  1
  Ni  Ni1  1  0.000000  0.000000  0.000000  1
  S  S2  1  0.879201  0.875000  0.250000  1
  S  S3  1  0.625000  0.120799  0.750000  1
  S  S4  1  0.370799  0.375000  0.250000  1
  S  S5  1  0.125000  0.629201  0.750000  1
