# generated using pymatgen
data_Mg(SnO2)2
_symmetry_space_group_name_H-M   'P 1'
_cell_length_a   6.47629669
_cell_length_b   6.62654095
_cell_length_c   6.64290779
_cell_angle_alpha   91.23658713
_cell_angle_beta   119.28481670
_cell_angle_gamma   119.02474238
_symmetry_Int_Tables_number   1
_chemical_formula_structural   Mg(SnO2)2
_chemical_formula_sum   'Mg2 Sn4 O8'
_cell_volume   204.50929986
_cell_formula_units_Z   2
loop_
 _symmetry_equiv_pos_site_id
 _symmetry_equiv_pos_as_xyz
  1  'x, y, z'
loop_
 _atom_site_type_symbol
 _atom_site_label
 _atom_site_symmetry_multiplicity
 _atom_site_fract_x
 _atom_site_fract_y
 _atom_site_fract_z
 _atom_site_occupancy
  Mg  Mg0  1  0.241051  0.103194  0.896286  1
  Mg  Mg1  1  0.758257  0.896440  0.103980  1
  Sn  Sn2  1  0.499942  -0.000277  0.500127  1
  Sn  Sn3  1  0.499911  0.499953  0.500052  1
  Sn  Sn4  1  0.000259  0.500013  0.000341  1
  Sn  Sn5  1  -0.000147  0.499890  0.499815  1
  O  O6  1  0.025187  0.759714  0.241230  1
  O  O7  1  0.517601  0.795789  0.733930  1
  O  O8  1  0.476119  0.758145  0.241866  1
  O  O9  1  0.010672  0.733780  0.795473  1
  O  O10  1  0.524062  0.242169  0.758018  1
  O  O11  1  0.482656  0.204458  0.265871  1
  O  O12  1  -0.010678  0.266265  0.204260  1
  O  O13  1  0.975109  0.240467  0.758751  1
