# generated using pymatgen
data_FeO2
_symmetry_space_group_name_H-M   'P 1'
_cell_length_a   5.75355695
_cell_length_b   5.75355701
_cell_length_c   6.18069151
_cell_angle_alpha   57.51226110
_cell_angle_beta   57.51225789
_cell_angle_gamma   62.64776552
_symmetry_Int_Tables_number   1
_chemical_formula_structural   FeO2
_chemical_formula_sum   'Fe4 O8'
_cell_volume   141.31000468
_cell_formula_units_Z   4
loop_
 _symmetry_equiv_pos_site_id
 _symmetry_equiv_pos_as_xyz
  1  'x, y, z'
loop_
 _atom_site_type_symbol
 _atom_site_label
 _atom_site_symmetry_multiplicity
 _atom_site_fract_x
 _atom_site_fract_y
 _atom_site_fract_z
 _atom_site_occupancy
  Fe  Fe0  1  0.110001  0.110001  0.139999  1
  Fe  Fe1  1  0.500000  0.500000  0.000000  1
  Fe  Fe2  1  0.500000  0.500000  0.500000  1
  Fe  Fe3  1  0.889999  0.889999  0.860001  1
  O  O4  1  0.251420  0.251420  0.234969  1
  O  O5  1  0.251420  0.251420  0.762191  1
  O  O6  1  0.275519  0.716926  0.253778  1
  O  O7  1  0.716926  0.275519  0.253778  1
  O  O8  1  0.283074  0.724481  0.746222  1
  O  O9  1  0.724481  0.283074  0.746222  1
  O  O10  1  0.748580  0.748580  0.237809  1
  O  O11  1  0.748580  0.748580  0.765031  1
