# generated using pymatgen
data_CaTiO2
_symmetry_space_group_name_H-M   'P 1'
_cell_length_a   3.03444711
_cell_length_b   8.34900534
_cell_length_c   8.40138627
_cell_angle_alpha   86.46840760
_cell_angle_beta   89.37296974
_cell_angle_gamma   100.20140641
_symmetry_Int_Tables_number   1
_chemical_formula_structural   CaTiO2
_chemical_formula_sum   'Ca4 Ti4 O8'
_cell_volume   209.03150970
_cell_formula_units_Z   4
loop_
 _symmetry_equiv_pos_site_id
 _symmetry_equiv_pos_as_xyz
  1  'x, y, z'
loop_
 _atom_site_type_symbol
 _atom_site_label
 _atom_site_symmetry_multiplicity
 _atom_site_fract_x
 _atom_site_fract_y
 _atom_site_fract_z
 _atom_site_occupancy
  Ca  Ca0  1  0.274402  0.030018  0.338852  1
  Ca  Ca1  1  0.721604  0.949887  0.689353  1
  Ca  Ca2  1  0.138209  0.729930  0.081245  1
  Ca  Ca3  1  0.857830  0.249979  0.946950  1
  Ti  Ti4  1  0.405746  0.325318  0.608015  1
  Ti  Ti5  1  0.962805  0.386965  0.292109  1
  Ti  Ti6  1  0.033270  0.593066  0.736055  1
  Ti  Ti7  1  0.590269  0.654584  0.420202  1
  O  O8  1  0.144120  0.781675  0.552157  1
  O  O9  1  0.451058  0.435972  0.819276  1
  O  O10  1  0.544906  0.543907  0.208958  1
  O  O11  1  0.851942  0.198224  0.476095  1
  O  O12  1  0.303990  0.124609  0.778196  1
  O  O13  1  0.360076  0.248320  0.168024  1
  O  O14  1  0.692049  0.855307  0.249983  1
  O  O15  1  0.635999  0.731574  0.860153  1
