# generated using pymatgen
data_Ca(NiO2)2
_symmetry_space_group_name_H-M   'P 1'
_cell_length_a   6.08071666
_cell_length_b   6.25107197
_cell_length_c   6.25059637
_cell_angle_alpha   89.92993489
_cell_angle_beta   120.80059359
_cell_angle_gamma   120.99361060
_symmetry_Int_Tables_number   1
_chemical_formula_structural   Ca(NiO2)2
_chemical_formula_sum   'Ca2 Ni4 O8'
_cell_volume   163.45194077
_cell_formula_units_Z   2
loop_
 _symmetry_equiv_pos_site_id
 _symmetry_equiv_pos_as_xyz
  1  'x, y, z'
loop_
 _atom_site_type_symbol
 _atom_site_label
 _atom_site_symmetry_multiplicity
 _atom_site_fract_x
 _atom_site_fract_y
 _atom_site_fract_z
 _atom_site_occupancy
  Ca  Ca0  1  0.249832  0.126585  0.876950  1
  Ca  Ca1  1  0.750119  0.873451  0.123009  1
  Ni  Ni2  1  0.499958  0.999986  0.499978  1
  Ni  Ni3  1  0.500042  0.500015  0.500026  1
  Ni  Ni4  1  0.000015  0.499995  0.000015  1
  Ni  Ni5  1  0.000002  0.499998  0.499988  1
  O  O6  1  0.048529  0.738221  0.236480  1
  O  O7  1  0.454578  0.762664  0.689699  1
  O  O8  1  0.451954  0.685375  0.258666  1
  O  O9  1  0.955202  0.693529  0.688468  1
  O  O10  1  0.548099  0.314626  0.741376  1
  O  O11  1  0.545378  0.237332  0.310270  1
  O  O12  1  0.044906  0.306490  0.311600  1
  O  O13  1  0.951386  0.261734  0.763476  1
