# generated using pymatgen
data_CaCr(SiO3)2
_symmetry_space_group_name_H-M   'P 1'
_cell_length_a   5.46792084
_cell_length_b   9.69391392
_cell_length_c   19.28678050
_cell_angle_alpha   90.00000000
_cell_angle_beta   90.00000000
_cell_angle_gamma   90.00000000
_symmetry_Int_Tables_number   1
_chemical_formula_structural   CaCr(SiO3)2
_chemical_formula_sum   'Ca8 Cr8 Si16 O48'
_cell_volume   1022.30648421
_cell_formula_units_Z   8
loop_
 _symmetry_equiv_pos_site_id
 _symmetry_equiv_pos_as_xyz
  1  'x, y, z'
loop_
 _atom_site_type_symbol
 _atom_site_label
 _atom_site_symmetry_multiplicity
 _atom_site_fract_x
 _atom_site_fract_y
 _atom_site_fract_z
 _atom_site_occupancy
  Ca  Ca0  1  0.617815  0.146726  0.623862  1
  Ca  Ca1  1  0.382185  0.853274  0.376138  1
  Ca  Ca2  1  0.617815  0.646726  0.876138  1
  Ca  Ca3  1  0.117815  0.853274  0.876138  1
  Ca  Ca4  1  0.882185  0.146726  0.123862  1
  Ca  Ca5  1  0.382185  0.353274  0.123862  1
  Ca  Ca6  1  0.117815  0.353274  0.623862  1
  Ca  Ca7  1  0.882185  0.646726  0.376138  1
  Cr  Cr8  1  0.374335  0.973626  0.125522  1
  Cr  Cr9  1  0.625665  0.026374  0.874478  1
  Cr  Cr10  1  0.874335  0.026374  0.374478  1
  Cr  Cr11  1  0.125665  0.973626  0.625522  1
  Cr  Cr12  1  0.374335  0.473626  0.374478  1
  Cr  Cr13  1  0.625665  0.526374  0.625522  1
  Cr  Cr14  1  0.874335  0.526374  0.125522  1
  Cr  Cr15  1  0.125665  0.473626  0.874478  1
  Si  Si16  1  0.567202  0.668699  0.224170  1
  Si  Si17  1  0.752670  0.835944  0.520355  1
  Si  Si18  1  0.747330  0.835944  0.020355  1
  Si  Si19  1  0.932798  0.168699  0.775830  1
  Si  Si20  1  0.067202  0.331301  0.275830  1
  Si  Si21  1  0.432798  0.831301  0.724170  1
  Si  Si22  1  0.252670  0.664056  0.520355  1
  Si  Si23  1  0.752670  0.335944  0.979645  1
  Si  Si24  1  0.747330  0.335944  0.479645  1
  Si  Si25  1  0.932798  0.668699  0.724170  1
  Si  Si26  1  0.432798  0.331301  0.775830  1
  Si  Si27  1  0.567202  0.168699  0.275830  1
  Si  Si28  1  0.247330  0.164056  0.479645  1
  Si  Si29  1  0.067202  0.831301  0.224170  1
  Si  Si30  1  0.247330  0.664056  0.020355  1
  Si  Si31  1  0.252670  0.164056  0.979645  1
  O  O32  1  0.933991  0.520770  0.685546  1
  O  O33  1  0.313431  0.031292  0.932275  1
  O  O34  1  0.066009  0.479230  0.314454  1
  O  O35  1  0.753241  0.357539  0.064076  1
  O  O36  1  0.253241  0.142461  0.064076  1
  O  O37  1  0.969314  0.219139  0.960583  1
  O  O38  1  0.953121  0.666129  0.807503  1
  O  O39  1  0.046879  0.833871  0.307503  1
  O  O40  1  0.753241  0.857539  0.435924  1
  O  O41  1  0.953121  0.166129  0.692497  1
  O  O42  1  0.433991  0.479230  0.814454  1
  O  O43  1  0.746759  0.357539  0.564076  1
  O  O44  1  0.686570  0.968708  0.067725  1
  O  O45  1  0.453121  0.833871  0.807503  1
  O  O46  1  0.566009  0.020770  0.314454  1
  O  O47  1  0.313431  0.531292  0.567725  1
  O  O48  1  0.433991  0.979230  0.685546  1
  O  O49  1  0.154811  0.774618  0.694301  1
  O  O50  1  0.345189  0.774618  0.194301  1
  O  O51  1  0.530686  0.719139  0.039417  1
  O  O52  1  0.746759  0.857539  0.935924  1
  O  O53  1  0.546879  0.666129  0.307503  1
  O  O54  1  0.813430  0.468708  0.932275  1
  O  O55  1  0.154811  0.274618  0.805699  1
  O  O56  1  0.246759  0.142461  0.564076  1
  O  O57  1  0.546879  0.166129  0.192497  1
  O  O58  1  0.686570  0.468708  0.432275  1
  O  O59  1  0.253241  0.642461  0.435924  1
  O  O60  1  0.186570  0.531292  0.067725  1
  O  O61  1  0.654811  0.725382  0.694301  1
  O  O62  1  0.066009  0.979230  0.185546  1
  O  O63  1  0.845189  0.725382  0.194301  1
  O  O64  1  0.845189  0.225382  0.305699  1
  O  O65  1  0.813430  0.968708  0.567725  1
  O  O66  1  0.246759  0.642461  0.935924  1
  O  O67  1  0.186570  0.031292  0.432275  1
  O  O68  1  0.345189  0.274618  0.305699  1
  O  O69  1  0.030686  0.780861  0.039417  1
  O  O70  1  0.469314  0.780861  0.539417  1
  O  O71  1  0.654811  0.225382  0.805699  1
  O  O72  1  0.469314  0.280861  0.960583  1
  O  O73  1  0.530686  0.219139  0.460583  1
  O  O74  1  0.030686  0.280861  0.460583  1
  O  O75  1  0.453121  0.333871  0.692497  1
  O  O76  1  0.566009  0.520770  0.185546  1
  O  O77  1  0.969314  0.719139  0.539417  1
  O  O78  1  0.046879  0.333871  0.192497  1
  O  O79  1  0.933991  0.020770  0.814454  1
