# generated using pymatgen
data_ZnCu2(WO4)2
_symmetry_space_group_name_H-M   'P 1'
_cell_length_a   6.54447794
_cell_length_b   8.80935245
_cell_length_c   12.93815536
_cell_angle_alpha   89.99978664
_cell_angle_beta   92.62052137
_cell_angle_gamma   89.99989794
_symmetry_Int_Tables_number   1
_chemical_formula_structural   ZnCu2(WO4)2
_chemical_formula_sum   'Zn4 Cu8 W8 O32'
_cell_volume   745.13842266
_cell_formula_units_Z   4
loop_
 _symmetry_equiv_pos_site_id
 _symmetry_equiv_pos_as_xyz
  1  'x, y, z'
loop_
 _atom_site_type_symbol
 _atom_site_label
 _atom_site_symmetry_multiplicity
 _atom_site_fract_x
 _atom_site_fract_y
 _atom_site_fract_z
 _atom_site_occupancy
  Zn  Zn0  1  0.104039  0.167995  0.055943  1
  Zn  Zn1  1  0.895958  0.832008  0.944056  1
  Zn  Zn2  1  0.895960  0.667995  0.444058  1
  Zn  Zn3  1  0.104043  0.332009  0.555945  1
  Cu  Cu4  1  0.769456  0.185127  0.864279  1
  Cu  Cu5  1  0.374494  0.048664  0.613203  1
  Cu  Cu6  1  0.625516  0.951328  0.386794  1
  Cu  Cu7  1  0.230526  0.814898  0.135732  1
  Cu  Cu8  1  0.769468  0.314892  0.364277  1
  Cu  Cu9  1  0.374494  0.451318  0.113205  1
  Cu  Cu10  1  0.230545  0.685134  0.635714  1
  Cu  Cu11  1  0.625504  0.548675  0.886794  1
  W  W12  1  0.094502  0.452002  0.844893  1
  W  W13  1  0.094514  0.047991  0.344892  1
  W  W14  1  0.611761  0.076851  0.129189  1
  W  W15  1  0.905499  0.952000  0.655107  1
  W  W16  1  0.388247  0.923155  0.870813  1
  W  W17  1  0.388232  0.576854  0.370812  1
  W  W18  1  0.611751  0.423160  0.629187  1
  W  W19  1  0.905491  0.547994  0.155107  1
  O  O20  1  0.044154  0.236170  0.403370  1
  O  O21  1  0.657802  0.009759  0.602274  1
  O  O22  1  0.176842  0.574782  0.462276  1
  O  O23  1  0.823155  0.074777  0.037726  1
  O  O24  1  0.044097  0.263819  0.903359  1
  O  O25  1  0.955910  0.763816  0.596646  1
  O  O26  1  0.083954  0.102882  0.613375  1
  O  O27  1  0.507793  0.888647  0.136393  1
  O  O28  1  0.507747  0.611353  0.636396  1
  O  O29  1  0.294537  0.868276  0.741476  1
  O  O30  1  0.705462  0.368276  0.758524  1
  O  O31  1  0.492244  0.111349  0.863605  1
  O  O32  1  0.916054  0.897111  0.386626  1
  O  O33  1  0.879814  0.551548  0.294640  1
  O  O34  1  0.405697  0.296155  0.581817  1
  O  O35  1  0.405698  0.203850  0.081809  1
  O  O36  1  0.120185  0.051553  0.205356  1
  O  O37  1  0.492176  0.388645  0.363606  1
  O  O38  1  0.120180  0.448445  0.705362  1
  O  O39  1  0.823156  0.425235  0.537728  1
  O  O40  1  0.657797  0.490228  0.102279  1
  O  O41  1  0.705483  0.131718  0.258530  1
  O  O42  1  0.955870  0.736174  0.096634  1
  O  O43  1  0.083950  0.397112  0.113373  1
  O  O44  1  0.176843  0.925232  0.962271  1
  O  O45  1  0.594304  0.796150  0.918184  1
  O  O46  1  0.342209  0.990224  0.397722  1
  O  O47  1  0.342203  0.509761  0.897721  1
  O  O48  1  0.916044  0.602884  0.886624  1
  O  O49  1  0.594304  0.703846  0.418190  1
  O  O50  1  0.294517  0.631729  0.241471  1
  O  O51  1  0.879816  0.948444  0.794639  1
