# generated using pymatgen
data_CaCoNiP2O9
_symmetry_space_group_name_H-M   'P 1'
_cell_length_a   6.46415430
_cell_length_b   7.51910754
_cell_length_c   14.18131568
_cell_angle_alpha   90.38959985
_cell_angle_beta   90.00697002
_cell_angle_gamma   90.00738893
_symmetry_Int_Tables_number   1
_chemical_formula_structural   CaCoNiP2O9
_chemical_formula_sum   'Ca4 Co4 Ni4 P8 O36'
_cell_volume   689.26224087
_cell_formula_units_Z   4
loop_
 _symmetry_equiv_pos_site_id
 _symmetry_equiv_pos_as_xyz
  1  'x, y, z'
loop_
 _atom_site_type_symbol
 _atom_site_label
 _atom_site_symmetry_multiplicity
 _atom_site_fract_x
 _atom_site_fract_y
 _atom_site_fract_z
 _atom_site_occupancy
  Ca  Ca0  1  0.749947  0.870551  0.777954  1
  Ca  Ca1  1  0.749996  0.627938  0.279789  1
  Ca  Ca2  1  0.249953  0.129979  0.221742  1
  Ca  Ca3  1  0.249984  0.376821  0.718509  1
  Co  Co4  1  0.749842  0.346432  0.882782  1
  Co  Co5  1  0.249938  0.653123  0.117302  1
  Co  Co6  1  0.249710  0.845613  0.617807  1
  Co  Co7  1  0.749817  0.151367  0.383627  1
  Ni  Ni8  1  0.500184  0.000391  0.000499  1
  Ni  Ni9  1  0.500898  0.501341  0.500007  1
  Ni  Ni10  1  0.999337  0.501459  0.499983  1
  Ni  Ni11  1  0.000159  0.000505  0.000394  1
  P  P12  1  0.249945  0.351604  0.937363  1
  P  P13  1  0.750007  0.648175  0.062126  1
  P  P14  1  0.749752  0.852324  0.561800  1
  P  P15  1  0.250035  0.149304  0.439413  1
  P  P16  1  0.749909  0.392135  0.694214  1
  P  P17  1  0.250077  0.607888  0.305904  1
  P  P18  1  0.250075  0.884584  0.804935  1
  P  P19  1  0.750016  0.108746  0.194639  1
  O  O20  1  0.052094  0.603947  0.366346  1
  O  O21  1  0.552217  0.396176  0.633527  1
  O  O22  1  0.948303  0.103454  0.134073  1
  O  O23  1  0.447596  0.898775  0.864932  1
  O  O24  1  0.947638  0.396136  0.633579  1
  O  O25  1  0.448012  0.603778  0.366390  1
  O  O26  1  0.052554  0.898538  0.864920  1
  O  O27  1  0.551758  0.103999  0.134034  1
  O  O28  1  0.249965  0.334826  0.488378  1
  O  O29  1  0.750089  0.669520  0.511456  1
  O  O30  1  0.750105  0.830037  0.012150  1
  O  O31  1  0.250069  0.169844  0.987364  1
  O  O32  1  0.750120  0.143578  0.947593  1
  O  O33  1  0.250134  0.856321  0.052304  1
  O  O34  1  0.249944  0.649174  0.555998  1
  O  O35  1  0.749990  0.356137  0.448218  1
  O  O36  1  0.749713  0.218651  0.756938  1
  O  O37  1  0.250175  0.781253  0.242997  1
  O  O38  1  0.250141  0.709908  0.744031  1
  O  O39  1  0.750320  0.282399  0.257787  1
  O  O40  1  0.437994  0.135604  0.370391  1
  O  O41  1  0.936905  0.866089  0.630414  1
  O  O42  1  0.561615  0.634583  0.130372  1
  O  O43  1  0.061851  0.364535  0.868704  1
  O  O44  1  0.562850  0.865523  0.630542  1
  O  O45  1  0.061945  0.135002  0.370523  1
  O  O46  1  0.438036  0.364249  0.868695  1
  O  O47  1  0.938451  0.634864  0.130401  1
  O  O48  1  0.749769  0.958187  0.270539  1
  O  O49  1  0.249927  0.027747  0.723489  1
  O  O50  1  0.250050  0.457465  0.228915  1
  O  O51  1  0.749921  0.542707  0.771052  1
  O  O52  1  0.749465  0.000333  0.488949  1
  O  O53  1  0.250733  0.006206  0.514054  1
  O  O54  1  0.249991  0.501813  0.009764  1
  O  O55  1  0.749979  0.498362  0.989393  1
