# generated using pymatgen
data_LaVCrO6
_symmetry_space_group_name_H-M   'P 1'
_cell_length_a   5.41779380
_cell_length_b   5.42937166
_cell_length_c   5.38732453
_cell_angle_alpha   60.25515789
_cell_angle_beta   119.32807160
_cell_angle_gamma   87.89185630
_symmetry_Int_Tables_number   1
_chemical_formula_structural   LaVCrO6
_chemical_formula_sum   'La1 V1 Cr1 O6'
_cell_volume   111.45938998
_cell_formula_units_Z   1
loop_
 _symmetry_equiv_pos_site_id
 _symmetry_equiv_pos_as_xyz
  1  'x, y, z'
loop_
 _atom_site_type_symbol
 _atom_site_label
 _atom_site_symmetry_multiplicity
 _atom_site_fract_x
 _atom_site_fract_y
 _atom_site_fract_z
 _atom_site_occupancy
  La  La0  1  0.758039  0.279710  0.499426  1
  V  V1  1  0.520333  0.029780  0.003224  1
  Cr  Cr2  1  0.009506  0.524183  0.997546  1
  O  O3  1  0.302332  0.242016  0.515356  1
  O  O4  1  0.223603  0.275635  0.948848  1
  O  O5  1  0.759700  0.718610  0.053163  1
  O  O6  1  0.213418  0.773918  0.962089  1
  O  O7  1  0.769089  0.232789  0.036262  1
  O  O8  1  0.704216  0.764768  0.484500  1
