# generated using pymatgen
data_Mn2ZnO4
_symmetry_space_group_name_H-M   'P 1'
_cell_length_a   6.08125376
_cell_length_b   6.05294093
_cell_length_c   18.26618371
_cell_angle_alpha   60.19973660
_cell_angle_beta   59.40570835
_cell_angle_gamma   60.10825540
_symmetry_Int_Tables_number   1
_chemical_formula_structural   Mn2ZnO4
_chemical_formula_sum   'Mn12 Zn6 O24'
_cell_volume   474.35258379
_cell_formula_units_Z   6
loop_
 _symmetry_equiv_pos_site_id
 _symmetry_equiv_pos_as_xyz
  1  'x, y, z'
loop_
 _atom_site_type_symbol
 _atom_site_label
 _atom_site_symmetry_multiplicity
 _atom_site_fract_x
 _atom_site_fract_y
 _atom_site_fract_z
 _atom_site_occupancy
  Mn  Mn0  1  0.503288  0.999482  0.165798  1
  Mn  Mn1  1  0.136559  0.114816  0.378124  1
  Mn  Mn2  1  0.499777  0.499800  0.000243  1
  Mn  Mn3  1  0.503305  0.499967  0.165769  1
  Mn  Mn4  1  0.500196  0.000174  0.499805  1
  Mn  Mn5  1  0.138839  0.116354  0.709765  1
  Mn  Mn6  1  0.500159  0.500193  0.499817  1
  Mn  Mn7  1  0.496411  0.000496  0.834570  1
  Mn  Mn8  1  0.862111  0.884754  0.289191  1
  Mn  Mn9  1  0.496446  0.499215  0.834606  1
  Mn  Mn10  1  0.863227  0.885033  0.622010  1
  Mn  Mn11  1  0.862669  0.882119  0.957369  1
  Zn  Zn12  1  0.141656  0.115860  0.042670  1
  Zn  Zn13  1  0.496864  0.501853  0.333108  1
  Zn  Zn14  1  0.998390  0.498253  0.168359  1
  Zn  Zn15  1  0.502828  0.498300  0.666901  1
  Zn  Zn16  1  0.999979  0.500191  0.499865  1
  Zn  Zn17  1  0.002167  0.501371  0.831706  1
  O  O18  1  0.285304  0.251726  0.085056  1
  O  O19  1  0.283272  0.253694  0.237065  1
  O  O20  1  0.284760  0.708767  0.084967  1
  O  O21  1  0.731291  0.256216  0.086656  1
  O  O22  1  0.276832  0.241114  0.424729  1
  O  O23  1  0.274241  0.752787  0.238590  1
  O  O24  1  0.283275  0.250316  0.572261  1
  O  O25  1  0.725237  0.291220  0.240503  1
  O  O26  1  0.276673  0.708225  0.424682  1
  O  O27  1  0.717520  0.748096  0.094809  1
  O  O28  1  0.719034  0.249825  0.427223  1
  O  O29  1  0.725012  0.761616  0.240547  1
  O  O30  1  0.273646  0.237947  0.760017  1
  O  O31  1  0.281223  0.750524  0.572476  1
  O  O32  1  0.723319  0.291946  0.575169  1
  O  O33  1  0.273281  0.708970  0.760005  1
  O  O34  1  0.278144  0.251303  0.907414  1
  O  O35  1  0.717264  0.750356  0.427109  1
  O  O36  1  0.724969  0.246947  0.761825  1
  O  O37  1  0.723183  0.759126  0.575109  1
  O  O38  1  0.276087  0.741571  0.912293  1
  O  O39  1  0.712471  0.295881  0.914763  1
  O  O40  1  0.717032  0.746225  0.762433  1
  O  O41  1  0.712058  0.747372  0.914625  1
