# generated using pymatgen
data_Zn2NiN2
_symmetry_space_group_name_H-M   'P 1'
_cell_length_a   3.60266347
_cell_length_b   5.98589507
_cell_length_c   6.61238014
_cell_angle_alpha   70.19274663
_cell_angle_beta   74.21513166
_cell_angle_gamma   72.43352415
_symmetry_Int_Tables_number   1
_chemical_formula_structural   Zn2NiN2
_chemical_formula_sum   'Zn4 Ni2 N4'
_cell_volume   125.59297357
_cell_formula_units_Z   2
loop_
 _symmetry_equiv_pos_site_id
 _symmetry_equiv_pos_as_xyz
  1  'x, y, z'
loop_
 _atom_site_type_symbol
 _atom_site_label
 _atom_site_symmetry_multiplicity
 _atom_site_fract_x
 _atom_site_fract_y
 _atom_site_fract_z
 _atom_site_occupancy
  Zn  Zn0  1  0.658385  0.199441  0.482014  1
  Zn  Zn1  1  0.334993  0.804809  0.518152  1
  Zn  Zn2  1  0.088346  0.615276  0.206314  1
  Zn  Zn3  1  0.909746  0.386736  0.795189  1
  Ni  Ni4  1  0.379520  0.119705  0.117847  1
  Ni  Ni5  1  0.618505  0.881231  0.883856  1
  N  N6  1  0.191753  0.256129  0.355139  1
  N  N7  1  0.800977  0.746054  0.646600  1
  N  N8  1  0.479643  0.226346  0.817599  1
  N  N9  1  0.519079  0.774012  0.184550  1
