# generated using pymatgen
data_Y2MgMn2S2O5
_symmetry_space_group_name_H-M   'P 1'
_cell_length_a   3.96329381
_cell_length_b   3.97118721
_cell_length_c   11.60275351
_cell_angle_alpha   80.16873056
_cell_angle_beta   99.87822898
_cell_angle_gamma   90.00143505
_symmetry_Int_Tables_number   1
_chemical_formula_structural   Y2MgMn2S2O5
_chemical_formula_sum   'Y2 Mg1 Mn2 S2 O5'
_cell_volume   177.18560560
_cell_formula_units_Z   1
loop_
 _symmetry_equiv_pos_site_id
 _symmetry_equiv_pos_as_xyz
  1  'x, y, z'
loop_
 _atom_site_type_symbol
 _atom_site_label
 _atom_site_symmetry_multiplicity
 _atom_site_fract_x
 _atom_site_fract_y
 _atom_site_fract_z
 _atom_site_occupancy
  Y  Y0  1  0.337232  0.663839  0.673776  1
  Y  Y1  1  0.665734  0.336405  0.326977  1
  Mg  Mg2  1  0.501559  0.996237  0.000269  1
  Mn  Mn3  1  0.093442  0.907787  0.183833  1
  Mn  Mn4  1  0.908873  0.092740  0.816728  1
  S  S5  1  0.207996  0.794737  0.410623  1
  S  S6  1  0.796694  0.205368  0.590316  1
  O  O7  1  0.107647  0.394060  0.211143  1
  O  O8  1  0.894802  0.606244  0.789644  1
  O  O9  1  0.593997  0.907337  0.184646  1
  O  O10  1  0.408261  0.092834  0.815799  1
  O  O11  1  0.000386  0.998230  0.000145  1
