# generated using pymatgen
data_Mg3Ti2(GeO4)3
_symmetry_space_group_name_H-M   'P 1'
_cell_length_a   10.56342948
_cell_length_b   10.56342894
_cell_length_c   10.56342907
_cell_angle_alpha   109.47122086
_cell_angle_beta   109.47121984
_cell_angle_gamma   109.47121993
_symmetry_Int_Tables_number   1
_chemical_formula_structural   Mg3Ti2(GeO4)3
_chemical_formula_sum   'Mg12 Ti8 Ge12 O48'
_cell_volume   907.38770216
_cell_formula_units_Z   4
loop_
 _symmetry_equiv_pos_site_id
 _symmetry_equiv_pos_as_xyz
  1  'x, y, z'
loop_
 _atom_site_type_symbol
 _atom_site_label
 _atom_site_symmetry_multiplicity
 _atom_site_fract_x
 _atom_site_fract_y
 _atom_site_fract_z
 _atom_site_occupancy
  Mg  Mg0  1  0.625000  0.250000  0.875000  1
  Mg  Mg1  1  0.875000  0.750000  0.625000  1
  Mg  Mg2  1  0.750000  0.625000  0.875000  1
  Mg  Mg3  1  0.250000  0.875000  0.625000  1
  Mg  Mg4  1  0.875000  0.625000  0.250000  1
  Mg  Mg5  1  0.625000  0.875000  0.750000  1
  Mg  Mg6  1  0.375000  0.750000  0.125000  1
  Mg  Mg7  1  0.125000  0.250000  0.375000  1
  Mg  Mg8  1  0.250000  0.375000  0.125000  1
  Mg  Mg9  1  0.750000  0.125000  0.375000  1
  Mg  Mg10  1  0.125000  0.375000  0.750000  1
  Mg  Mg11  1  0.375000  0.125000  0.250000  1
  Ti  Ti12  1  0.500000  0.500000  0.500000  1
  Ti  Ti13  1  0.500000  0.500000  0.000000  1
  Ti  Ti14  1  0.500000  0.000000  0.500000  1
  Ti  Ti15  1  0.000000  0.500000  0.500000  1
  Ti  Ti16  1  0.500000  0.000000  0.000000  1
  Ti  Ti17  1  0.000000  0.000000  0.500000  1
  Ti  Ti18  1  0.000000  0.500000  0.000000  1
  Ti  Ti19  1  0.000000  0.000000  0.000000  1
  Ge  Ge20  1  0.875000  0.125000  0.750000  1
  Ge  Ge21  1  0.125000  0.875000  0.250000  1
  Ge  Ge22  1  0.250000  0.625000  0.375000  1
  Ge  Ge23  1  0.125000  0.750000  0.875000  1
  Ge  Ge24  1  0.750000  0.875000  0.125000  1
  Ge  Ge25  1  0.375000  0.250000  0.625000  1
  Ge  Ge26  1  0.625000  0.750000  0.375000  1
  Ge  Ge27  1  0.875000  0.250000  0.125000  1
  Ge  Ge28  1  0.250000  0.125000  0.875000  1
  Ge  Ge29  1  0.750000  0.375000  0.625000  1
  Ge  Ge30  1  0.375000  0.625000  0.750000  1
  Ge  Ge31  1  0.625000  0.375000  0.250000  1
  O  O32  1  0.790426  0.417782  0.817482  1
  O  O33  1  0.082218  0.872644  0.399700  1
  O  O34  1  0.682518  0.100300  0.972943  1
  O  O35  1  0.709574  0.527057  0.627356  1
  O  O36  1  0.709574  0.682518  0.082218  1
  O  O37  1  0.527057  0.627356  0.709574  1
  O  O38  1  0.100300  0.627356  0.417782  1
  O  O39  1  0.627356  0.709574  0.527057  1
  O  O40  1  0.399700  0.817482  0.527057  1
  O  O41  1  0.872644  0.972943  0.790426  1
  O  O42  1  0.972943  0.790426  0.872644  1
  O  O43  1  0.082218  0.709574  0.682518  1
  O  O44  1  0.627356  0.417782  0.100300  1
  O  O45  1  0.527057  0.399700  0.817482  1
  O  O46  1  0.682518  0.082218  0.709574  1
  O  O47  1  0.417782  0.100300  0.627356  1
  O  O48  1  0.817482  0.527057  0.399700  1
  O  O49  1  0.399700  0.082218  0.872644  1
  O  O50  1  0.100300  0.972943  0.682518  1
  O  O51  1  0.600300  0.182518  0.472943  1
  O  O52  1  0.972943  0.682518  0.100300  1
  O  O53  1  0.817482  0.790426  0.417782  1
  O  O54  1  0.872644  0.399700  0.082218  1
  O  O55  1  0.790426  0.872644  0.972943  1
  O  O56  1  0.209574  0.582218  0.182518  1
  O  O57  1  0.917782  0.127356  0.600300  1
  O  O58  1  0.317482  0.899700  0.027057  1
  O  O59  1  0.290426  0.472943  0.372644  1
  O  O60  1  0.290426  0.317482  0.917782  1
  O  O61  1  0.472943  0.372644  0.290426  1
  O  O62  1  0.899700  0.372644  0.582218  1
  O  O63  1  0.372644  0.290426  0.472943  1
  O  O64  1  0.209574  0.127356  0.027057  1
  O  O65  1  0.127356  0.600300  0.917782  1
  O  O66  1  0.182518  0.209574  0.582218  1
  O  O67  1  0.582218  0.182518  0.209574  1
  O  O68  1  0.027057  0.317482  0.899700  1
  O  O69  1  0.899700  0.027057  0.317482  1
  O  O70  1  0.600300  0.917782  0.127356  1
  O  O71  1  0.182518  0.472943  0.600300  1
  O  O72  1  0.582218  0.899700  0.372644  1
  O  O73  1  0.317482  0.917782  0.290426  1
  O  O74  1  0.472943  0.600300  0.182518  1
  O  O75  1  0.372644  0.582218  0.899700  1
  O  O76  1  0.917782  0.290426  0.317482  1
  O  O77  1  0.027057  0.209574  0.127356  1
  O  O78  1  0.127356  0.027057  0.209574  1
  O  O79  1  0.417782  0.817482  0.790426  1
