# generated using pymatgen
data_CaCoP2O7
_symmetry_space_group_name_H-M   'P 1'
_cell_length_a   6.21692853
_cell_length_b   6.58657591
_cell_length_c   7.22566345
_cell_angle_alpha   82.98262027
_cell_angle_beta   89.06643927
_cell_angle_gamma   68.23783081
_symmetry_Int_Tables_number   1
_chemical_formula_structural   CaCoP2O7
_chemical_formula_sum   'Ca2 Co2 P4 O14'
_cell_volume   272.59796498
_cell_formula_units_Z   2
loop_
 _symmetry_equiv_pos_site_id
 _symmetry_equiv_pos_as_xyz
  1  'x, y, z'
loop_
 _atom_site_type_symbol
 _atom_site_label
 _atom_site_symmetry_multiplicity
 _atom_site_fract_x
 _atom_site_fract_y
 _atom_site_fract_z
 _atom_site_occupancy
  Ca  Ca0  1  0.301539  0.712610  0.639104  1
  Ca  Ca1  1  0.698463  0.287391  0.360897  1
  Co  Co2  1  0.252780  0.132585  0.193045  1
  Co  Co3  1  0.747221  0.867411  0.806947  1
  P  P4  1  0.164292  0.660074  0.120151  1
  P  P5  1  0.835709  0.339924  0.879846  1
  P  P6  1  0.241847  0.217112  0.619155  1
  P  P7  1  0.758151  0.782886  0.380843  1
  O  O8  1  0.074259  0.735921  0.915409  1
  O  O9  1  0.925747  0.264078  0.084597  1
  O  O10  1  0.250809  0.817616  0.202384  1
  O  O11  1  0.749189  0.182385  0.797618  1
  O  O12  1  0.334592  0.418822  0.145707  1
  O  O13  1  0.665409  0.581178  0.854294  1
  O  O14  1  0.637522  0.627692  0.451955  1
  O  O15  1  0.362479  0.372311  0.548045  1
  O  O16  1  0.111024  0.160466  0.465615  1
  O  O17  1  0.888974  0.839537  0.534389  1
  O  O18  1  0.061216  0.347937  0.763824  1
  O  O19  1  0.596122  0.001576  0.271275  1
  O  O20  1  0.403879  0.998422  0.728726  1
  O  O21  1  0.938782  0.652065  0.236176  1
