# generated using pymatgen
data_CaFe(GeO3)2
_symmetry_space_group_name_H-M   'P 1'
_cell_length_a   5.36368583
_cell_length_b   9.26354233
_cell_length_c   10.41717728
_cell_angle_alpha   90.00000000
_cell_angle_beta   104.72236929
_cell_angle_gamma   90.00000000
_symmetry_Int_Tables_number   1
_chemical_formula_structural   CaFe(GeO3)2
_chemical_formula_sum   'Ca4 Fe4 Ge8 O24'
_cell_volume   500.60210210
_cell_formula_units_Z   4
loop_
 _symmetry_equiv_pos_site_id
 _symmetry_equiv_pos_as_xyz
  1  'x, y, z'
loop_
 _atom_site_type_symbol
 _atom_site_label
 _atom_site_symmetry_multiplicity
 _atom_site_fract_x
 _atom_site_fract_y
 _atom_site_fract_z
 _atom_site_occupancy
  Ca  Ca0  1  0.470748  0.452761  0.273501  1
  Ca  Ca1  1  0.029252  0.952761  0.726499  1
  Ca  Ca2  1  0.529252  0.547239  0.726499  1
  Ca  Ca3  1  0.970748  0.047239  0.273501  1
  Fe  Fe4  1  0.968850  0.660910  0.235917  1
  Fe  Fe5  1  0.531150  0.160910  0.764083  1
  Fe  Fe6  1  0.031150  0.339090  0.764083  1
  Fe  Fe7  1  0.468850  0.839090  0.235917  1
  Ge  Ge8  1  0.830375  0.346216  0.044147  1
  Ge  Ge9  1  0.669625  0.846216  0.955853  1
  Ge  Ge10  1  0.169625  0.653784  0.955853  1
  Ge  Ge11  1  0.330375  0.153784  0.044147  1
  Ge  Ge12  1  0.096844  0.351160  0.484573  1
  Ge  Ge13  1  0.403156  0.851160  0.515427  1
  Ge  Ge14  1  0.903156  0.648840  0.515427  1
  Ge  Ge15  1  0.596844  0.148840  0.484573  1
  O  O16  1  0.313396  0.246299  0.395050  1
  O  O17  1  0.186604  0.746299  0.604950  1
  O  O18  1  0.686604  0.753701  0.604950  1
  O  O19  1  0.813396  0.253701  0.395050  1
  O  O20  1  0.173870  0.308425  0.099939  1
  O  O21  1  0.326130  0.808425  0.900062  1
  O  O22  1  0.826130  0.691575  0.900062  1
  O  O23  1  0.673870  0.191575  0.099939  1
  O  O24  1  0.652256  0.976842  0.418506  1
  O  O25  1  0.847744  0.476842  0.581494  1
  O  O26  1  0.347744  0.023158  0.581494  1
  O  O27  1  0.152256  0.523158  0.418506  1
  O  O28  1  0.265026  0.012526  0.139313  1
  O  O29  1  0.234974  0.512526  0.860687  1
  O  O30  1  0.734974  0.987474  0.860687  1
  O  O31  1  0.765026  0.487474  0.139313  1
  O  O32  1  0.741933  0.351610  0.870075  1
  O  O33  1  0.758067  0.851610  0.129925  1
  O  O34  1  0.258067  0.648390  0.129925  1
  O  O35  1  0.241933  0.148390  0.870075  1
  O  O36  1  0.298196  0.327644  0.647991  1
  O  O37  1  0.201804  0.827644  0.352009  1
  O  O38  1  0.701804  0.672356  0.352009  1
  O  O39  1  0.798196  0.172356  0.647991  1
