# generated using pymatgen
data_MnZnAs2O7
_symmetry_space_group_name_H-M   'P 1'
_cell_length_a   7.41833926
_cell_length_b   8.86838884
_cell_length_c   9.76719052
_cell_angle_alpha   90.00000000
_cell_angle_beta   114.71500401
_cell_angle_gamma   90.00000000
_symmetry_Int_Tables_number   1
_chemical_formula_structural   MnZnAs2O7
_chemical_formula_sum   'Mn4 Zn4 As8 O28'
_cell_volume   583.71061399
_cell_formula_units_Z   4
loop_
 _symmetry_equiv_pos_site_id
 _symmetry_equiv_pos_as_xyz
  1  'x, y, z'
loop_
 _atom_site_type_symbol
 _atom_site_label
 _atom_site_symmetry_multiplicity
 _atom_site_fract_x
 _atom_site_fract_y
 _atom_site_fract_z
 _atom_site_occupancy
  Mn  Mn0  1  0.808781  0.051299  0.675611  1
  Mn  Mn1  1  0.191219  0.551299  0.824389  1
  Mn  Mn2  1  0.191219  0.948701  0.324389  1
  Mn  Mn3  1  0.808781  0.448701  0.175611  1
  Zn  Zn4  1  0.279154  0.920841  0.892941  1
  Zn  Zn5  1  0.720846  0.420841  0.607059  1
  Zn  Zn6  1  0.720846  0.079159  0.107059  1
  Zn  Zn7  1  0.279154  0.579159  0.392941  1
  As  As8  1  0.435491  0.221764  0.751380  1
  As  As9  1  0.564509  0.721764  0.748620  1
  As  As10  1  0.564509  0.778236  0.248620  1
  As  As11  1  0.435491  0.278236  0.251379  1
  As  As12  1  0.015497  0.272105  0.956638  1
  As  As13  1  0.984503  0.772105  0.543362  1
  As  As14  1  0.984503  0.727895  0.043362  1
  As  As15  1  0.015497  0.227895  0.456638  1
  O  O16  1  0.857911  0.265154  0.043971  1
  O  O17  1  0.142089  0.765154  0.456029  1
  O  O18  1  0.142089  0.734846  0.956029  1
  O  O19  1  0.857911  0.234846  0.543971  1
  O  O20  1  0.364766  0.390236  0.787983  1
  O  O21  1  0.635234  0.890236  0.712017  1
  O  O22  1  0.635234  0.609764  0.212017  1
  O  O23  1  0.364766  0.109764  0.287983  1
  O  O24  1  0.472366  0.087680  0.888311  1
  O  O25  1  0.527634  0.587680  0.611689  1
  O  O26  1  0.527634  0.912320  0.111689  1
  O  O27  1  0.472366  0.412320  0.388311  1
  O  O28  1  0.245101  0.145033  0.582878  1
  O  O29  1  0.754899  0.645033  0.917122  1
  O  O30  1  0.754899  0.854967  0.417122  1
  O  O31  1  0.245101  0.354967  0.082878  1
  O  O32  1  0.959501  0.087236  0.324103  1
  O  O33  1  0.040499  0.587236  0.175897  1
  O  O34  1  0.040499  0.912764  0.675897  1
  O  O35  1  0.959501  0.412764  0.824103  1
  O  O36  1  0.629982  0.269286  0.200511  1
  O  O37  1  0.370018  0.769286  0.299489  1
  O  O38  1  0.370018  0.730714  0.799489  1
  O  O39  1  0.629982  0.230714  0.700511  1
  O  O40  1  0.052050  0.398153  0.391943  1
  O  O41  1  0.947950  0.898153  0.108057  1
  O  O42  1  0.947950  0.601847  0.608057  1
  O  O43  1  0.052050  0.101847  0.891943  1
