# generated using pymatgen
data_MgSb2P2O9
_symmetry_space_group_name_H-M   'P 1'
_cell_length_a   6.94778232
_cell_length_b   6.69528568
_cell_length_c   15.78809360
_cell_angle_alpha   90.00000000
_cell_angle_beta   90.00000000
_cell_angle_gamma   90.00000000
_symmetry_Int_Tables_number   1
_chemical_formula_structural   MgSb2P2O9
_chemical_formula_sum   'Mg4 Sb8 P8 O36'
_cell_volume   734.42086748
_cell_formula_units_Z   4
loop_
 _symmetry_equiv_pos_site_id
 _symmetry_equiv_pos_as_xyz
  1  'x, y, z'
loop_
 _atom_site_type_symbol
 _atom_site_label
 _atom_site_symmetry_multiplicity
 _atom_site_fract_x
 _atom_site_fract_y
 _atom_site_fract_z
 _atom_site_occupancy
  Mg  Mg0  1  0.750000  0.922124  0.769343  1
  Mg  Mg1  1  0.750000  0.577876  0.269343  1
  Mg  Mg2  1  0.250001  0.422123  0.730657  1
  Mg  Mg3  1  0.250001  0.077876  0.230657  1
  Sb  Sb4  1  0.750000  0.400081  0.882735  1
  Sb  Sb5  1  0.250001  0.599919  0.117265  1
  Sb  Sb6  1  0.250001  0.900081  0.617265  1
  Sb  Sb7  1  0.750000  0.099919  0.382735  1
  Sb  Sb8  1  0.500000  -0.000000  0.000000  1
  Sb  Sb9  1  0.500000  0.500000  0.500000  1
  Sb  Sb10  1  -0.000000  0.500000  0.500000  1
  Sb  Sb11  1  -0.000000  -0.000000  0.000000  1
  P  P12  1  0.250001  0.418840  0.911560  1
  P  P13  1  0.750000  0.581160  0.088441  1
  P  P14  1  0.750000  0.918840  0.588440  1
  P  P15  1  0.250001  0.081161  0.411560  1
  P  P16  1  0.750000  0.426919  0.697208  1
  P  P17  1  0.750000  0.073081  0.197208  1
  P  P18  1  0.250001  0.926919  0.802792  1
  P  P19  1  0.250001  0.573080  0.302792  1
  O  O20  1  0.060909  0.583757  0.354836  1
  O  O21  1  0.560908  0.416242  0.645164  1
  O  O22  1  0.939091  0.083757  0.145164  1
  O  O23  1  0.439091  0.916243  0.854836  1
  O  O24  1  0.939091  0.416242  0.645164  1
  O  O25  1  0.439091  0.583757  0.354836  1
  O  O26  1  0.060909  0.916243  0.854836  1
  O  O27  1  0.560908  0.083757  0.145164  1
  O  O28  1  0.250001  0.266499  0.474964  1
  O  O29  1  0.750000  0.733502  0.525036  1
  O  O30  1  0.750000  0.766498  0.025035  1
  O  O31  1  0.250001  0.233502  0.974964  1
  O  O32  1  0.750000  0.103136  0.919222  1
  O  O33  1  0.250001  0.896864  0.080777  1
  O  O34  1  0.250001  0.603136  0.580777  1
  O  O35  1  0.750000  0.396865  0.419223  1
  O  O36  1  0.750000  0.243677  0.762074  1
  O  O37  1  0.250001  0.756323  0.237927  1
  O  O38  1  0.250001  0.743677  0.737926  1
  O  O39  1  0.750000  0.256324  0.262073  1
  O  O40  1  0.424386  0.096206  0.350366  1
  O  O41  1  0.924386  0.903794  0.649634  1
  O  O42  1  0.575614  0.596205  0.149634  1
  O  O43  1  0.075614  0.403794  0.850366  1
  O  O44  1  0.575614  0.903794  0.649634  1
  O  O45  1  0.075614  0.096206  0.350366  1
  O  O46  1  0.424386  0.403794  0.850366  1
  O  O47  1  0.924386  0.596205  0.149634  1
  O  O48  1  0.750000  0.391559  0.034745  1
  O  O49  1  0.250001  0.111532  0.742720  1
  O  O50  1  0.250001  0.388467  0.242720  1
  O  O51  1  0.750000  0.611532  0.757280  1
  O  O52  1  0.750000  0.108441  0.534745  1
  O  O53  1  0.250001  0.891559  0.465255  1
  O  O54  1  0.250001  0.608440  0.965254  1
  O  O55  1  0.750000  0.888468  0.257280  1
