# generated using pymatgen
data_Ca(MoO2)2
_symmetry_space_group_name_H-M   'P 1'
_cell_length_a   6.55430445
_cell_length_b   6.53729315
_cell_length_c   19.35011381
_cell_angle_alpha   60.37357374
_cell_angle_beta   62.08218971
_cell_angle_gamma   58.96615960
_symmetry_Int_Tables_number   1
_chemical_formula_structural   Ca(MoO2)2
_chemical_formula_sum   'Ca6 Mo12 O24'
_cell_volume   591.67522065
_cell_formula_units_Z   6
loop_
 _symmetry_equiv_pos_site_id
 _symmetry_equiv_pos_as_xyz
  1  'x, y, z'
loop_
 _atom_site_type_symbol
 _atom_site_label
 _atom_site_symmetry_multiplicity
 _atom_site_fract_x
 _atom_site_fract_y
 _atom_site_fract_z
 _atom_site_occupancy
  Ca  Ca0  1  0.123418  0.131474  0.044883  1
  Ca  Ca1  1  0.507562  0.498167  0.330115  1
  Ca  Ca2  1  0.001411  0.515106  0.166852  1
  Ca  Ca3  1  0.501995  0.495357  0.667365  1
  Ca  Ca4  1  0.015912  0.473072  0.499859  1
  Ca  Ca5  1  0.983057  0.515945  0.831688  1
  Mo  Mo6  1  0.502981  0.009549  0.166495  1
  Mo  Mo7  1  0.129840  0.098135  0.370745  1
  Mo  Mo8  1  0.487000  0.502962  0.004202  1
  Mo  Mo9  1  0.502300  0.508105  0.164653  1
  Mo  Mo10  1  0.514763  0.989368  0.497071  1
  Mo  Mo11  1  0.111973  0.168553  0.700165  1
  Mo  Mo12  1  0.523137  0.482121  0.500337  1
  Mo  Mo13  1  0.481017  0.008110  0.835571  1
  Mo  Mo14  1  0.880661  0.887718  0.296247  1
  Mo  Mo15  1  0.472923  0.508663  0.834366  1
  Mo  Mo16  1  0.897746  0.827119  0.628108  1
  Mo  Mo17  1  0.857600  0.890201  0.955545  1
  O  O18  1  0.282785  0.270681  0.082859  1
  O  O19  1  0.290572  0.250335  0.245078  1
  O  O20  1  0.274240  0.716878  0.083546  1
  O  O21  1  0.701966  0.266459  0.089640  1
  O  O22  1  0.287515  0.235162  0.411447  1
  O  O23  1  0.281325  0.778870  0.230704  1
  O  O24  1  0.314919  0.236037  0.570579  1
  O  O25  1  0.765728  0.277201  0.234577  1
  O  O26  1  0.268292  0.723735  0.422862  1
  O  O27  1  0.720324  0.769553  0.081954  1
  O  O28  1  0.753726  0.225131  0.424603  1
  O  O29  1  0.737264  0.763395  0.249943  1
  O  O30  1  0.248517  0.251476  0.757745  1
  O  O31  1  0.292390  0.753630  0.566052  1
  O  O32  1  0.762385  0.238692  0.582888  1
  O  O33  1  0.233741  0.744939  0.756238  1
  O  O34  1  0.268460  0.260420  0.906161  1
  O  O35  1  0.724646  0.733316  0.423855  1
  O  O36  1  0.710036  0.230559  0.773465  1
  O  O37  1  0.745815  0.734974  0.579501  1
  O  O38  1  0.236073  0.756869  0.918853  1
  O  O39  1  0.712749  0.264021  0.923158  1
  O  O40  1  0.681542  0.755133  0.763554  1
  O  O41  1  0.709690  0.752806  0.926472  1
