# generated using pymatgen
data_Sr2YGaW2O7
_symmetry_space_group_name_H-M   'P 1'
_cell_length_a   5.78256227
_cell_length_b   6.05911841
_cell_length_c   12.04372634
_cell_angle_alpha   104.55901277
_cell_angle_beta   103.89343564
_cell_angle_gamma   89.99926313
_symmetry_Int_Tables_number   1
_chemical_formula_structural   Sr2YGaW2O7
_chemical_formula_sum   'Sr4 Y2 Ga2 W4 O14'
_cell_volume   395.66111847
_cell_formula_units_Z   2
loop_
 _symmetry_equiv_pos_site_id
 _symmetry_equiv_pos_as_xyz
  1  'x, y, z'
loop_
 _atom_site_type_symbol
 _atom_site_label
 _atom_site_symmetry_multiplicity
 _atom_site_fract_x
 _atom_site_fract_y
 _atom_site_fract_z
 _atom_site_occupancy
  Sr  Sr0  1  0.132603  0.199720  0.319210  1
  Sr  Sr1  1  0.814453  0.804401  0.682671  1
  Sr  Sr2  1  0.632495  0.622412  0.319257  1
  Sr  Sr3  1  0.314250  0.382121  0.682610  1
  Y  Y4  1  0.500690  0.502300  0.000885  1
  Y  Y5  1  0.000656  0.001704  0.000901  1
  Ga  Ga6  1  0.214453  0.832400  0.501297  1
  Ga  Ga7  1  0.714311  0.172121  0.501018  1
  W  W8  1  0.428805  0.933223  0.857835  1
  W  W9  1  0.071826  0.575726  0.143780  1
  W  W10  1  0.928810  0.428092  0.857819  1
  W  W11  1  0.571835  0.071095  0.143815  1
  O  O12  1  0.757508  0.386780  0.147712  1
  O  O13  1  0.887632  0.900543  0.500887  1
  O  O14  1  0.257444  0.264044  0.147657  1
  O  O15  1  0.846753  0.378920  0.644989  1
  O  O16  1  0.748918  0.108429  0.849883  1
  O  O17  1  0.248832  0.244923  0.849787  1
  O  O18  1  0.387670  0.103763  0.501030  1
  O  O19  1  0.110581  0.740033  0.853994  1
  O  O20  1  0.610612  0.617375  0.854009  1
  O  O21  1  0.346481  0.770666  0.645643  1
  O  O22  1  0.205180  0.624479  0.358100  1
  O  O23  1  0.704114  0.235550  0.357386  1
  O  O24  1  0.899440  0.895194  0.151886  1
  O  O25  1  0.399381  0.759653  0.151863  1
