# generated using pymatgen
data_Ca3V6(FeO6)4
_symmetry_space_group_name_H-M   'P 1'
_cell_length_a   6.87977960
_cell_length_b   8.63086966
_cell_length_c   10.10202154
_cell_angle_alpha   105.79233879
_cell_angle_beta   106.08965425
_cell_angle_gamma   103.93796669
_symmetry_Int_Tables_number   1
_chemical_formula_structural   Ca3V6(FeO6)4
_chemical_formula_sum   'Ca3 V6 Fe4 O24'
_cell_volume   521.12909693
_cell_formula_units_Z   1
loop_
 _symmetry_equiv_pos_site_id
 _symmetry_equiv_pos_as_xyz
  1  'x, y, z'
loop_
 _atom_site_type_symbol
 _atom_site_label
 _atom_site_symmetry_multiplicity
 _atom_site_fract_x
 _atom_site_fract_y
 _atom_site_fract_z
 _atom_site_occupancy
  Ca  Ca0  1  -0.000000  0.500000  0.500000  1
  Ca  Ca1  1  0.291238  0.306428  0.795734  1
  Ca  Ca2  1  0.708762  0.693572  0.204266  1
  V  V3  1  0.786990  0.336444  0.738713  1
  V  V4  1  0.213010  0.663556  0.261287  1
  V  V5  1  0.888047  0.905211  0.666366  1
  V  V6  1  0.397015  0.744226  0.863629  1
  V  V7  1  0.111953  0.094789  0.333634  1
  V  V8  1  0.602985  0.255774  0.136371  1
  Fe  Fe9  1  0.374731  0.955920  0.601272  1
  Fe  Fe10  1  0.625269  0.044080  0.398728  1
  Fe  Fe11  1  0.046702  0.210476  0.028043  1
  Fe  Fe12  1  0.953298  0.789524  0.971957  1
  O  O13  1  0.841741  0.698541  0.580815  1
  O  O14  1  0.158259  0.301459  0.419185  1
  O  O15  1  0.252527  0.537065  0.736953  1
  O  O16  1  0.747473  0.462935  0.263047  1
  O  O17  1  0.792520  0.284104  0.557944  1
  O  O18  1  0.207480  0.715896  0.442056  1
  O  O19  1  0.665142  0.960594  0.575301  1
  O  O20  1  0.334858  0.039406  0.424699  1
  O  O21  1  0.644499  0.743800  0.981136  1
  O  O22  1  0.355501  0.256200  0.018864  1
  O  O23  1  0.462197  0.786609  0.272852  1
  O  O24  1  0.537803  0.213391  0.727148  1
  O  O25  1  0.124845  0.017234  0.648709  1
  O  O26  1  0.072072  0.054240  0.143462  1
  O  O27  1  0.927928  0.945760  0.856538  1
  O  O28  1  0.568194  0.128755  0.239873  1
  O  O29  1  0.431806  0.871245  0.760127  1
  O  O30  1  0.178116  0.452618  0.181315  1
  O  O31  1  0.821884  0.547382  0.818685  1
  O  O32  1  0.985719  0.280543  0.850310  1
  O  O33  1  0.014281  0.719457  0.149690  1
  O  O34  1  0.237207  0.797150  0.961290  1
  O  O35  1  0.762793  0.202850  0.038710  1
  O  O36  1  0.875155  0.982766  0.351291  1
