# generated using pymatgen
data_Zn(CuO2)2
_symmetry_space_group_name_H-M   'P 1'
_cell_length_a   2.92628327
_cell_length_b   8.90410908
_cell_length_c   10.34526056
_cell_angle_alpha   90.07609805
_cell_angle_beta   89.99667616
_cell_angle_gamma   89.71858159
_symmetry_Int_Tables_number   1
_chemical_formula_structural   Zn(CuO2)2
_chemical_formula_sum   'Zn4 Cu8 O16'
_cell_volume   269.55205527
_cell_formula_units_Z   4
loop_
 _symmetry_equiv_pos_site_id
 _symmetry_equiv_pos_as_xyz
  1  'x, y, z'
loop_
 _atom_site_type_symbol
 _atom_site_label
 _atom_site_symmetry_multiplicity
 _atom_site_fract_x
 _atom_site_fract_y
 _atom_site_fract_z
 _atom_site_occupancy
  Zn  Zn0  1  0.739774  0.242231  0.344557  1
  Zn  Zn1  1  0.256737  0.756373  0.659568  1
  Zn  Zn2  1  0.752598  0.745399  0.159118  1
  Zn  Zn3  1  0.242361  0.258581  0.840439  1
  Cu  Cu4  1  0.249053  0.413201  0.102531  1
  Cu  Cu5  1  0.753252  0.087400  0.603021  1
  Cu  Cu6  1  0.252586  0.914156  0.397726  1
  Cu  Cu7  1  0.748686  0.588346  0.897829  1
  Cu  Cu8  1  0.748998  0.559066  0.382325  1
  Cu  Cu9  1  0.253034  0.441952  0.617218  1
  Cu  Cu10  1  0.755299  0.062410  0.117224  1
  Cu  Cu11  1  0.253406  0.943117  0.883725  1
  O  O12  1  0.252022  0.905960  0.070986  1
  O  O13  1  0.752795  0.100597  0.929227  1
  O  O14  1  0.246248  0.402785  0.430337  1
  O  O15  1  0.749608  0.599610  0.570361  1
  O  O16  1  0.258490  0.028761  0.716007  1
  O  O17  1  0.750163  0.973602  0.285378  1
  O  O18  1  0.249258  0.529122  0.784621  1
  O  O19  1  0.748390  0.468151  0.216014  1
  O  O20  1  0.244361  0.620920  0.035399  1
  O  O21  1  0.749575  0.381893  0.965085  1
  O  O22  1  0.239678  0.120909  0.465432  1
  O  O23  1  0.762357  0.881834  0.533365  1
  O  O24  1  0.746248  0.789563  0.823783  1
  O  O25  1  0.258888  0.211895  0.175731  1
  O  O26  1  0.258537  0.712928  0.321690  1
  O  O27  1  0.751423  0.288217  0.677422  1
