# generated using pymatgen
data_YMn3O6
_symmetry_space_group_name_H-M   'P 1'
_cell_length_a   19.36250537
_cell_length_b   6.26592501
_cell_length_c   6.26592502
_cell_angle_alpha   62.13759744
_cell_angle_beta   58.10183292
_cell_angle_gamma   58.10183683
_symmetry_Int_Tables_number   1
_chemical_formula_structural   YMn3O6
_chemical_formula_sum   'Y4 Mn12 O24'
_cell_volume   528.94945411
_cell_formula_units_Z   4
loop_
 _symmetry_equiv_pos_site_id
 _symmetry_equiv_pos_as_xyz
  1  'x, y, z'
loop_
 _atom_site_type_symbol
 _atom_site_label
 _atom_site_symmetry_multiplicity
 _atom_site_fract_x
 _atom_site_fract_y
 _atom_site_fract_z
 _atom_site_occupancy
  Y  Y0  1  0.225745  0.610454  0.610454  1
  Y  Y1  1  0.538417  0.614784  0.614784  1
  Y  Y2  1  0.107589  0.389546  0.389546  1
  Y  Y3  1  0.794916  0.385216  0.385216  1
  Mn  Mn4  1  0.995086  0.509801  0.005025  1
  Mn  Mn5  1  0.338247  0.490199  0.994975  1
  Mn  Mn6  1  0.666667  0.500000  0.000000  1
  Mn  Mn7  1  0.001232  0.997274  0.997274  1
  Mn  Mn8  1  0.332101  0.002726  0.002726  1
  Mn  Mn9  1  0.666667  -0.000000  0.000000  1
  Mn  Mn10  1  0.166667  -0.000000  0.000000  1
  Mn  Mn11  1  0.494773  0.998786  0.998786  1
  Mn  Mn12  1  0.838560  0.001214  0.001214  1
  Mn  Mn13  1  0.995086  0.005025  0.509801  1
  Mn  Mn14  1  0.338247  0.994975  0.490199  1
  Mn  Mn15  1  0.666667  -0.000000  0.500000  1
  O  O16  1  0.082977  0.769736  0.769736  1
  O  O17  1  0.402491  0.776611  0.776611  1
  O  O18  1  0.722636  0.750206  0.750206  1
  O  O19  1  0.074722  0.246048  0.800386  1
  O  O20  1  0.413760  0.223252  0.814800  1
  O  O21  1  0.756378  0.219529  0.804177  1
  O  O22  1  0.074722  0.800386  0.246048  1
  O  O23  1  0.413760  0.814800  0.223252  1
  O  O24  1  0.756378  0.804177  0.219529  1
  O  O25  1  0.058567  0.257209  0.257209  1
  O  O26  1  0.400462  0.236537  0.236537  1
  O  O27  1  0.756281  0.234992  0.234992  1
  O  O28  1  0.258611  0.753952  0.199614  1
  O  O29  1  0.576956  0.780471  0.195823  1
  O  O30  1  0.919573  0.776748  0.185200  1
  O  O31  1  0.250357  0.230264  0.230264  1
  O  O32  1  0.610697  0.249794  0.249794  1
  O  O33  1  0.930842  0.223389  0.223389  1
  O  O34  1  0.258611  0.199614  0.753952  1
  O  O35  1  0.576956  0.195823  0.780471  1
  O  O36  1  0.919573  0.185200  0.776748  1
  O  O37  1  0.274766  0.742791  0.742791  1
  O  O38  1  0.577053  0.765008  0.765008  1
  O  O39  1  0.932871  0.763463  0.763463  1
