# generated using pymatgen
data_Mg2Ta2NiO8
_symmetry_space_group_name_H-M   'P 1'
_cell_length_a   5.19330746
_cell_length_b   5.98193207
_cell_length_c   9.95640489
_cell_angle_alpha   107.47358728
_cell_angle_beta   90.30677936
_cell_angle_gamma   90.00523838
_symmetry_Int_Tables_number   1
_chemical_formula_structural   Mg2Ta2NiO8
_chemical_formula_sum   'Mg4 Ta4 Ni2 O16'
_cell_volume   295.02833054
_cell_formula_units_Z   2
loop_
 _symmetry_equiv_pos_site_id
 _symmetry_equiv_pos_as_xyz
  1  'x, y, z'
loop_
 _atom_site_type_symbol
 _atom_site_label
 _atom_site_symmetry_multiplicity
 _atom_site_fract_x
 _atom_site_fract_y
 _atom_site_fract_z
 _atom_site_occupancy
  Mg  Mg0  1  0.755090  0.415994  0.544931  1
  Mg  Mg1  1  0.745796  0.870281  0.453276  1
  Mg  Mg2  1  0.245833  0.583515  0.453266  1
  Mg  Mg3  1  0.255117  0.129302  0.545083  1
  Ta  Ta4  1  0.742997  0.279577  0.229172  1
  Ta  Ta5  1  0.757652  0.049075  0.769122  1
  Ta  Ta6  1  0.257625  0.720212  0.769012  1
  Ta  Ta7  1  0.243009  0.950625  0.229236  1
  Ni  Ni8  1  0.750297  0.641055  0.999071  1
  Ni  Ni9  1  0.250258  0.358897  0.999237  1
  O  O10  1  0.079407  0.183765  0.139880  1
  O  O11  1  0.421283  0.042603  0.858459  1
  O  O12  1  0.921130  0.815778  0.858358  1
  O  O13  1  0.579329  0.957243  0.139799  1
  O  O14  1  0.586244  0.433339  0.114575  1
  O  O15  1  0.914295  0.317315  0.883876  1
  O  O16  1  0.414273  0.566626  0.883747  1
  O  O17  1  0.086231  0.682429  0.114496  1
  O  O18  1  0.455720  0.289087  0.370614  1
  O  O19  1  0.045288  0.917394  0.627785  1
  O  O20  1  0.380218  0.836964  0.381156  1
  O  O21  1  0.120608  0.454678  0.617062  1
  O  O22  1  0.620722  0.162626  0.617103  1
  O  O23  1  0.880289  0.544937  0.381172  1
  O  O24  1  0.955663  0.082299  0.370647  1
  O  O25  1  0.545138  0.710553  0.627634  1
