# generated using pymatgen
data_BaTl(MoO3)2
_symmetry_space_group_name_H-M   'P 1'
_cell_length_a   3.89913089
_cell_length_b   3.90991264
_cell_length_c   22.36503409
_cell_angle_alpha   95.08840726
_cell_angle_beta   95.20308105
_cell_angle_gamma   89.96676761
_symmetry_Int_Tables_number   1
_chemical_formula_structural   BaTl(MoO3)2
_chemical_formula_sum   'Ba2 Tl2 Mo4 O12'
_cell_volume   338.20811277
_cell_formula_units_Z   2
loop_
 _symmetry_equiv_pos_site_id
 _symmetry_equiv_pos_as_xyz
  1  'x, y, z'
loop_
 _atom_site_type_symbol
 _atom_site_label
 _atom_site_symmetry_multiplicity
 _atom_site_fract_x
 _atom_site_fract_y
 _atom_site_fract_z
 _atom_site_occupancy
  Ba  Ba0  1  0.168951  0.159944  0.333724  1
  Ba  Ba1  1  0.838258  0.830429  0.677939  1
  Tl  Tl2  1  0.725649  0.702773  0.452015  1
  Tl  Tl3  1  0.278710  0.212961  0.557615  1
  Mo  Mo4  1  0.537759  0.538439  0.065220  1
  Mo  Mo5  1  0.386760  0.388842  0.789144  1
  Mo  Mo6  1  0.613337  0.607783  0.227057  1
  Mo  Mo7  1  0.460144  0.460555  0.922482  1
  O  O8  1  0.393898  0.879179  0.770414  1
  O  O9  1  0.539224  0.040158  0.068664  1
  O  O10  1  0.232414  0.292709  0.464976  1
  O  O11  1  0.960241  0.460772  0.922786  1
  O  O12  1  0.779500  0.873483  0.557614  1
  O  O13  1  0.111696  0.606567  0.223798  1
  O  O14  1  0.612152  0.106853  0.224751  1
  O  O15  1  0.326681  0.330688  0.653597  1
  O  O16  1  0.889776  0.384166  0.782204  1
  O  O17  1  0.039632  0.540184  0.069053  1
  O  O18  1  0.459719  0.960409  0.922239  1
  O  O19  1  0.660229  0.652937  0.315759  1
