# generated using pymatgen
data_Al4Fe13Si2(SbO14)2
_symmetry_space_group_name_H-M   'P 1'
_cell_length_a   5.55000571
_cell_length_b   9.01228912
_cell_length_c   11.93186934
_cell_angle_alpha   87.66042190
_cell_angle_beta   76.57299822
_cell_angle_gamma   79.73568966
_symmetry_Int_Tables_number   1
_chemical_formula_structural   Al4Fe13Si2(SbO14)2
_chemical_formula_sum   'Al4 Fe13 Si2 Sb2 O28'
_cell_volume   571.20812522
_cell_formula_units_Z   1
loop_
 _symmetry_equiv_pos_site_id
 _symmetry_equiv_pos_as_xyz
  1  'x, y, z'
loop_
 _atom_site_type_symbol
 _atom_site_label
 _atom_site_symmetry_multiplicity
 _atom_site_fract_x
 _atom_site_fract_y
 _atom_site_fract_z
 _atom_site_occupancy
  Al  Al0  1  0.055627  0.678718  0.429217  1
  Al  Al1  1  0.517589  0.322518  0.429171  1
  Al  Al2  1  0.946538  0.322069  0.571267  1
  Al  Al3  1  0.484715  0.678324  0.570977  1
  Fe  Fe4  1  0.927951  0.643802  0.707616  1
  Fe  Fe5  1  0.649663  0.351319  0.139035  1
  Fe  Fe6  1  0.367304  0.357204  0.707659  1
  Fe  Fe7  1  0.074693  0.357376  0.292685  1
  Fe  Fe8  1  0.353582  0.650106  0.861273  1
  Fe  Fe9  1  0.288881  0.000464  0.427059  1
  Fe  Fe10  1  0.214290  0.650555  0.139237  1
  Fe  Fe11  1  0.001803  0.001057  0.000146  1
  Fe  Fe12  1  0.430281  0.000920  0.144072  1
  Fe  Fe13  1  0.788723  0.351361  0.861173  1
  Fe  Fe14  1  0.635454  0.643943  0.292424  1
  Fe  Fe15  1  0.573342  0.000691  0.856293  1
  Fe  Fe16  1  0.715108  0.000229  0.573023  1
  Si  Si17  1  0.235648  0.310492  0.000193  1
  Si  Si18  1  0.767629  0.691170  0.000286  1
  Sb  Sb19  1  0.861777  0.000592  0.280943  1
  Sb  Sb20  1  0.142017  0.000474  0.719255  1
  O  O21  1  0.674183  0.404225  0.302014  1
  O  O22  1  0.184248  0.356544  0.450646  1
  O  O23  1  0.937085  0.353133  0.000277  1
  O  O24  1  0.308468  0.124406  0.999829  1
  O  O25  1  0.818020  0.644288  0.550024  1
  O  O26  1  0.328509  0.596741  0.698354  1
  O  O27  1  0.010535  0.117011  0.585498  1
  O  O28  1  0.988225  0.883732  0.416048  1
  O  O29  1  0.694928  0.877285  0.000527  1
  O  O30  1  0.122644  0.886265  0.153983  1
  O  O31  1  0.288575  0.379088  0.117827  1
  O  O32  1  0.026631  0.596730  0.301979  1
  O  O33  1  0.403009  0.883525  0.583906  1
  O  O34  1  0.727721  0.115449  0.154015  1
  O  O35  1  0.596971  0.622341  0.117686  1
  O  O36  1  0.066162  0.648623  0.000316  1
  O  O37  1  0.276408  0.886023  0.846105  1
  O  O38  1  0.880989  0.115357  0.846190  1
  O  O39  1  0.597177  0.117300  0.414881  1
  O  O40  1  0.126509  0.124308  0.287415  1
  O  O41  1  0.876969  0.876881  0.713386  1
  O  O42  1  0.406233  0.379294  0.882748  1
  O  O43  1  0.412333  0.124604  0.712234  1
  O  O44  1  0.634642  0.357331  0.549838  1
  O  O45  1  0.714791  0.622372  0.882677  1
  O  O46  1  0.591470  0.876672  0.287108  1
  O  O47  1  0.976214  0.404273  0.698322  1
  O  O48  1  0.368066  0.643579  0.450096  1
