# generated using pymatgen
data_MgCo2O5
_symmetry_space_group_name_H-M   'P 1'
_cell_length_a   3.70359514
_cell_length_b   5.44299301
_cell_length_c   11.13142893
_cell_angle_alpha   90.00000000
_cell_angle_beta   90.00000000
_cell_angle_gamma   109.89007881
_symmetry_Int_Tables_number   1
_chemical_formula_structural   MgCo2O5
_chemical_formula_sum   'Mg2 Co4 O10'
_cell_volume   211.00870283
_cell_formula_units_Z   2
loop_
 _symmetry_equiv_pos_site_id
 _symmetry_equiv_pos_as_xyz
  1  'x, y, z'
loop_
 _atom_site_type_symbol
 _atom_site_label
 _atom_site_symmetry_multiplicity
 _atom_site_fract_x
 _atom_site_fract_y
 _atom_site_fract_z
 _atom_site_occupancy
  Mg  Mg0  1  0.889061  0.778120  0.750000  1
  Mg  Mg1  1  0.110940  0.221881  0.250000  1
  Co  Co2  1  0.204709  0.409420  0.597021  1
  Co  Co3  1  0.795292  0.590581  0.402978  1
  Co  Co4  1  0.795292  0.590581  0.097022  1
  Co  Co5  1  0.204709  0.409420  0.902979  1
  O  O6  1  0.697115  0.394229  0.250000  1
  O  O7  1  0.302886  0.605772  0.750000  1
  O  O8  1  0.232684  0.465367  0.080028  1
  O  O9  1  0.767318  0.534634  0.919972  1
  O  O10  1  0.767318  0.534634  0.580028  1
  O  O11  1  0.232684  0.465367  0.419971  1
  O  O12  1  0.042897  0.085794  0.630155  1
  O  O13  1  0.957103  0.914205  0.369845  1
  O  O14  1  0.042897  0.085794  0.869845  1
  O  O15  1  0.957103  0.914205  0.130156  1
