# generated using pymatgen
data_TiZnO2
_symmetry_space_group_name_H-M   'P 1'
_cell_length_a   2.82238575
_cell_length_b   8.89095076
_cell_length_c   9.04950678
_cell_angle_alpha   84.61869834
_cell_angle_beta   81.00361484
_cell_angle_gamma   81.20005216
_symmetry_Int_Tables_number   1
_chemical_formula_structural   TiZnO2
_chemical_formula_sum   'Ti4 Zn4 O8'
_cell_volume   221.08327196
_cell_formula_units_Z   4
loop_
 _symmetry_equiv_pos_site_id
 _symmetry_equiv_pos_as_xyz
  1  'x, y, z'
loop_
 _atom_site_type_symbol
 _atom_site_label
 _atom_site_symmetry_multiplicity
 _atom_site_fract_x
 _atom_site_fract_y
 _atom_site_fract_z
 _atom_site_occupancy
  Ti  Ti0  1  0.664526  0.162809  0.501597  1
  Ti  Ti1  1  0.201691  0.399860  0.193899  1
  Ti  Ti2  1  0.794367  0.580043  0.834302  1
  Ti  Ti3  1  0.331334  0.817296  0.526789  1
  Zn  Zn4  1  0.419029  0.000809  0.185224  1
  Zn  Zn5  1  0.577250  0.978821  0.842535  1
  Zn  Zn6  1  0.052211  0.745851  0.159920  1
  Zn  Zn7  1  0.943935  0.233787  0.868432  1
  O  O8  1  0.815348  0.709938  0.663821  1
  O  O9  1  0.379470  0.428672  0.810662  1
  O  O10  1  0.616484  0.551288  0.217598  1
  O  O11  1  0.180731  0.269881  0.364386  1
  O  O12  1  0.082254  0.194480  0.638325  1
  O  O13  1  0.802266  0.306654  0.082042  1
  O  O14  1  0.913581  0.785702  0.390000  1
  O  O15  1  0.193800  0.673446  0.946085  1
