# generated using pymatgen
data_YCr3O6
_symmetry_space_group_name_H-M   'P 1'
_cell_length_a   18.55565127
_cell_length_b   6.19702228
_cell_length_c   6.19702265
_cell_angle_alpha   60.09782845
_cell_angle_beta   59.99217636
_cell_angle_gamma   59.99218045
_symmetry_Int_Tables_number   1
_chemical_formula_structural   YCr3O6
_chemical_formula_sum   'Y4 Cr12 O24'
_cell_volume   504.19203115
_cell_formula_units_Z   4
loop_
 _symmetry_equiv_pos_site_id
 _symmetry_equiv_pos_as_xyz
  1  'x, y, z'
loop_
 _atom_site_type_symbol
 _atom_site_label
 _atom_site_symmetry_multiplicity
 _atom_site_fract_x
 _atom_site_fract_y
 _atom_site_fract_z
 _atom_site_occupancy
  Y  Y0  1  0.204184  0.628141  0.628141  1
  Y  Y1  1  0.885597  0.614099  0.614099  1
  Y  Y2  1  0.462483  0.371859  0.371859  1
  Y  Y3  1  0.781070  0.385901  0.385901  1
  Cr  Cr4  1  0.001999  0.490553  0.001899  1
  Cr  Cr5  1  0.333333  0.500000  0.000000  1
  Cr  Cr6  1  0.664668  0.509447  0.998101  1
  Cr  Cr7  1  0.001979  0.001833  0.001833  1
  Cr  Cr8  1  0.333333  0.000000  0.000000  1
  Cr  Cr9  1  0.664688  0.998167  0.998167  1
  Cr  Cr10  1  0.162389  0.004107  0.004107  1
  Cr  Cr11  1  0.504278  0.995893  0.995893  1
  Cr  Cr12  1  0.833333  0.000000  0.000000  1
  Cr  Cr13  1  0.001999  0.001899  0.490553  1
  Cr  Cr14  1  0.333333  0.000000  0.500000  1
  Cr  Cr15  1  0.664668  0.998101  0.509447  1
  O  O16  1  0.062992  0.770329  0.770329  1
  O  O17  1  0.394569  0.771904  0.771904  1
  O  O18  1  0.740674  0.759027  0.759027  1
  O  O19  1  0.073416  0.235155  0.809509  1
  O  O20  1  0.412535  0.233177  0.796104  1
  O  O21  1  0.746866  0.228655  0.801819  1
  O  O22  1  0.073416  0.809509  0.235155  1
  O  O23  1  0.412535  0.796104  0.233177  1
  O  O24  1  0.746866  0.801819  0.228655  1
  O  O25  1  0.073451  0.235353  0.235353  1
  O  O26  1  0.412463  0.234283  0.234283  1
  O  O27  1  0.746908  0.228974  0.228974  1
  O  O28  1  0.254130  0.766823  0.203896  1
  O  O29  1  0.593251  0.764845  0.190491  1
  O  O30  1  0.919801  0.771345  0.198181  1
  O  O31  1  0.272098  0.228096  0.228096  1
  O  O32  1  0.603674  0.229671  0.229671  1
  O  O33  1  0.925993  0.240973  0.240973  1
  O  O34  1  0.254130  0.203896  0.766823  1
  O  O35  1  0.593251  0.190491  0.764845  1
  O  O36  1  0.919801  0.198181  0.771345  1
  O  O37  1  0.254204  0.765717  0.765717  1
  O  O38  1  0.593216  0.764647  0.764647  1
  O  O39  1  0.919758  0.771026  0.771026  1
