# generated using pymatgen
data_MgV2O4
_symmetry_space_group_name_H-M   'P 1'
_cell_length_a   5.17637357
_cell_length_b   5.92716996
_cell_length_c   10.31437060
_cell_angle_alpha   89.87265142
_cell_angle_beta   90.10155781
_cell_angle_gamma   90.03322988
_symmetry_Int_Tables_number   1
_chemical_formula_structural   MgV2O4
_chemical_formula_sum   'Mg4 V8 O16'
_cell_volume   316.45640993
_cell_formula_units_Z   4
loop_
 _symmetry_equiv_pos_site_id
 _symmetry_equiv_pos_as_xyz
  1  'x, y, z'
loop_
 _atom_site_type_symbol
 _atom_site_label
 _atom_site_symmetry_multiplicity
 _atom_site_fract_x
 _atom_site_fract_y
 _atom_site_fract_z
 _atom_site_occupancy
  Mg  Mg0  1  0.838485  0.249747  0.750017  1
  Mg  Mg1  1  0.160854  0.750730  0.249817  1
  Mg  Mg2  1  0.519358  0.249858  0.250272  1
  Mg  Mg3  1  0.480896  0.749134  0.749775  1
  V  V4  1  0.516605  0.749000  0.484698  1
  V  V5  1  0.516624  0.750656  0.014951  1
  V  V6  1  0.483264  0.249025  0.515291  1
  V  V7  1  0.483451  0.250172  0.985207  1
  V  V8  1  0.000389  0.501708  0.501655  1
  V  V9  1  0.000795  0.998767  0.998337  1
  V  V10  1  -0.000437  0.001728  0.498197  1
  V  V11  1  -0.000328  0.498701  0.001702  1
  O  O12  1  0.861276  0.751083  0.390384  1
  O  O13  1  0.861497  0.749474  0.108973  1
  O  O14  1  0.138424  0.250406  0.609557  1
  O  O15  1  0.138762  0.250023  0.890616  1
  O  O16  1  0.197908  0.753117  0.596145  1
  O  O17  1  0.197259  0.748125  0.903638  1
  O  O18  1  0.801933  0.254777  0.403819  1
  O  O19  1  0.803132  0.245323  0.096337  1
  O  O20  1  0.664284  0.501823  0.617985  1
  O  O21  1  0.663703  0.997345  0.881932  1
  O  O22  1  0.335451  0.001959  0.382549  1
  O  O23  1  0.335974  0.498870  0.117562  1
  O  O24  1  0.338659  0.494963  0.388440  1
  O  O25  1  0.339678  0.005282  0.112260  1
  O  O26  1  0.661415  0.995116  0.611145  1
  O  O27  1  0.660688  0.503088  0.888738  1
