# generated using pymatgen
data_LaZnCrBiO6
_symmetry_space_group_name_H-M   'P 1'
_cell_length_a   5.65460763
_cell_length_b   6.54227016
_cell_length_c   7.67421932
_cell_angle_alpha   90.00000000
_cell_angle_beta   93.76616721
_cell_angle_gamma   90.00000000
_symmetry_Int_Tables_number   1
_chemical_formula_structural   LaZnCrBiO6
_chemical_formula_sum   'La2 Zn2 Cr2 Bi2 O12'
_cell_volume   283.28674312
_cell_formula_units_Z   2
loop_
 _symmetry_equiv_pos_site_id
 _symmetry_equiv_pos_as_xyz
  1  'x, y, z'
loop_
 _atom_site_type_symbol
 _atom_site_label
 _atom_site_symmetry_multiplicity
 _atom_site_fract_x
 _atom_site_fract_y
 _atom_site_fract_z
 _atom_site_occupancy
  La  La0  1  0.027348  0.896945  0.744854  1
  La  La1  1  0.527348  0.603055  0.244854  1
  Zn  Zn2  1  0.522211  0.612941  0.770607  1
  Zn  Zn3  1  0.022211  0.887059  0.270607  1
  Cr  Cr4  1  0.515050  0.034129  0.489369  1
  Cr  Cr5  1  0.015050  0.465871  0.989369  1
  Bi  Bi6  1  0.530999  0.077163  0.006584  1
  Bi  Bi7  1  0.030999  0.422837  0.506584  1
  O  O8  1  0.105621  0.515309  0.227873  1
  O  O9  1  0.127000  0.228955  0.925087  1
  O  O10  1  0.207804  0.135640  0.555346  1
  O  O11  1  0.289795  0.662014  0.945625  1
  O  O12  1  0.315073  0.653617  0.558129  1
  O  O13  1  0.359094  0.942123  0.276527  1
  O  O14  1  0.605621  0.984691  0.727873  1
  O  O15  1  0.627000  0.271045  0.425087  1
  O  O16  1  0.707804  0.364360  0.055346  1
  O  O17  1  0.789795  0.837986  0.445625  1
  O  O18  1  0.815073  0.846383  0.058129  1
  O  O19  1  0.859094  0.557877  0.776527  1
