# generated using pymatgen
data_YMn2O5
_symmetry_space_group_name_H-M   'P 1'
_cell_length_a   5.77871818
_cell_length_b   7.36810662
_cell_length_c   8.58298061
_cell_angle_alpha   89.99999374
_cell_angle_beta   90.00007947
_cell_angle_gamma   89.99994412
_symmetry_Int_Tables_number   1
_chemical_formula_structural   YMn2O5
_chemical_formula_sum   'Y4 Mn8 O20'
_cell_volume   365.44796523
_cell_formula_units_Z   4
loop_
 _symmetry_equiv_pos_site_id
 _symmetry_equiv_pos_as_xyz
  1  'x, y, z'
loop_
 _atom_site_type_symbol
 _atom_site_label
 _atom_site_symmetry_multiplicity
 _atom_site_fract_x
 _atom_site_fract_y
 _atom_site_fract_z
 _atom_site_occupancy
  Y  Y0  1  0.999995  0.138533  0.170829  1
  Y  Y1  1  0.999999  0.861467  0.829174  1
  Y  Y2  1  0.999997  0.638535  0.329173  1
  Y  Y3  1  0.999999  0.361463  0.670826  1
  Mn  Mn4  1  0.500002  0.410652  0.349421  1
  Mn  Mn5  1  0.499999  0.589350  0.650580  1
  Mn  Mn6  1  0.500006  0.910654  0.150572  1
  Mn  Mn7  1  0.499999  0.089349  0.849425  1
  Mn  Mn8  1  0.254238  -0.000002  0.499999  1
  Mn  Mn9  1  0.745773  0.500002  0.999999  1
  Mn  Mn10  1  0.745760  0.999999  0.500003  1
  Mn  Mn11  1  0.254233  0.499999  0.000002  1
  O  O12  1  0.270616  0.000000  0.999999  1
  O  O13  1  0.729379  0.500001  0.499999  1
  O  O14  1  0.729384  0.000001  0.999999  1
  O  O15  1  0.270618  0.500000  0.500001  1
  O  O16  1  -0.000000  0.163553  0.443299  1
  O  O17  1  0.000000  0.836444  0.556701  1
  O  O18  1  -0.000000  0.663556  0.056699  1
  O  O19  1  -0.000000  0.336445  0.943301  1
  O  O20  1  0.500000  0.152273  0.432034  1
  O  O21  1  0.499999  0.847727  0.567968  1
  O  O22  1  0.500000  0.652273  0.067966  1
  O  O23  1  0.500001  0.347728  0.932033  1
  O  O24  1  0.241818  0.394192  0.207125  1
  O  O25  1  0.241817  0.605804  0.792874  1
  O  O26  1  0.758180  0.894194  0.292874  1
  O  O27  1  0.758181  0.105804  0.707127  1
  O  O28  1  0.758185  0.605806  0.792873  1
  O  O29  1  0.758182  0.394197  0.207125  1
  O  O30  1  0.241820  0.105805  0.707126  1
  O  O31  1  0.241820  0.894196  0.292873  1
