# generated using pymatgen
data_Be3Si3(SbO6)2
_symmetry_space_group_name_H-M   'P 1'
_cell_length_a   8.30997268
_cell_length_b   8.28649292
_cell_length_c   14.34744811
_cell_angle_alpha   90.90449771
_cell_angle_beta   90.00000000
_cell_angle_gamma   90.00000000
_symmetry_Int_Tables_number   1
_chemical_formula_structural   Be3Si3(SbO6)2
_chemical_formula_sum   'Be12 Si12 Sb8 O48'
_cell_volume   987.84977320
_cell_formula_units_Z   4
loop_
 _symmetry_equiv_pos_site_id
 _symmetry_equiv_pos_as_xyz
  1  'x, y, z'
loop_
 _atom_site_type_symbol
 _atom_site_label
 _atom_site_symmetry_multiplicity
 _atom_site_fract_x
 _atom_site_fract_y
 _atom_site_fract_z
 _atom_site_occupancy
  Be  Be0  1  0.846450  0.925653  0.756291  1
  Be  Be1  1  0.659882  0.912252  0.400767  1
  Be  Be2  1  0.159883  0.587748  0.099233  1
  Be  Be3  1  0.340117  0.087747  0.599233  1
  Be  Be4  1  0.840117  0.412252  0.900767  1
  Be  Be5  1  0.162821  0.616102  0.421772  1
  Be  Be6  1  0.662821  0.883898  0.078228  1
  Be  Be7  1  0.837179  0.383897  0.578228  1
  Be  Be8  1  0.337178  0.116102  0.921772  1
  Be  Be9  1  0.653550  0.425653  0.256291  1
  Be  Be10  1  0.153550  0.074346  0.243709  1
  Be  Be11  1  0.346451  0.574347  0.743709  1
  Si  Si12  1  0.224814  0.936625  0.759893  1
  Si  Si13  1  0.724814  0.563375  0.740107  1
  Si  Si14  1  0.775186  0.063374  0.240107  1
  Si  Si15  1  0.275187  0.436625  0.259893  1
  Si  Si16  1  0.718162  0.104993  0.913900  1
  Si  Si17  1  0.218162  0.395008  0.586100  1
  Si  Si18  1  0.281838  0.895007  0.086100  1
  Si  Si19  1  0.781837  0.604993  0.413900  1
  Si  Si20  1  0.209717  0.433574  0.907385  1
  Si  Si21  1  0.709718  0.066425  0.592615  1
  Si  Si22  1  0.790283  0.566426  0.092615  1
  Si  Si23  1  0.290282  0.933574  0.407385  1
  Sb  Sb24  1  0.500812  0.236137  0.093691  1
  Sb  Sb25  1  0.999188  0.736138  0.593691  1
  Sb  Sb26  1  0.499189  0.763863  0.906309  1
  Sb  Sb27  1  0.000812  0.263862  0.406309  1
  Sb  Sb28  1  0.556604  0.243133  0.417216  1
  Sb  Sb29  1  0.056605  0.256866  0.082784  1
  Sb  Sb30  1  0.443396  0.756867  0.582784  1
  Sb  Sb31  1  0.943395  0.743134  0.917216  1
  O  O32  1  0.158211  0.756789  0.047432  1
  O  O33  1  0.037696  0.903418  0.790398  1
  O  O34  1  0.537696  0.596582  0.709602  1
  O  O35  1  0.962304  0.096582  0.209602  1
  O  O36  1  0.462303  0.403417  0.290398  1
  O  O37  1  0.533898  0.171919  0.951884  1
  O  O38  1  0.033898  0.328081  0.548117  1
  O  O39  1  0.466102  0.828081  0.048116  1
  O  O40  1  0.966101  0.671919  0.451883  1
  O  O41  1  0.024656  0.499921  0.886593  1
  O  O42  1  0.524656  0.000079  0.613407  1
  O  O43  1  0.975344  0.500080  0.113407  1
  O  O44  1  0.170095  0.073227  0.360876  1
  O  O45  1  0.670094  0.426774  0.139124  1
  O  O46  1  0.829906  0.926773  0.639124  1
  O  O47  1  0.329906  0.573227  0.860876  1
  O  O48  1  0.658212  0.743211  0.452568  1
  O  O49  1  0.475345  0.999921  0.386593  1
  O  O50  1  0.341789  0.256789  0.547432  1
  O  O51  1  0.841789  0.243210  0.952568  1
  O  O52  1  0.731379  0.063431  0.475646  1
  O  O53  1  0.660264  0.055242  0.141061  1
  O  O54  1  0.839736  0.555241  0.641061  1
  O  O55  1  0.339735  0.944758  0.858939  1
  O  O56  1  0.742982  0.418763  0.809516  1
  O  O57  1  0.242982  0.081236  0.690484  1
  O  O58  1  0.257018  0.581237  0.190484  1
  O  O59  1  0.757017  0.918763  0.309516  1
  O  O60  1  0.732978  0.047357  0.807366  1
  O  O61  1  0.232978  0.452644  0.692634  1
  O  O62  1  0.267021  0.952643  0.192634  1
  O  O63  1  0.767022  0.547357  0.307366  1
  O  O64  1  0.240518  0.251395  0.876408  1
  O  O65  1  0.740517  0.248605  0.623593  1
  O  O66  1  0.759483  0.748604  0.123592  1
  O  O67  1  0.259483  0.751396  0.376407  1
  O  O68  1  0.794432  0.732706  0.793439  1
  O  O69  1  0.294431  0.767294  0.706561  1
  O  O70  1  0.205568  0.267293  0.206561  1
  O  O71  1  0.705569  0.232707  0.293439  1
  O  O72  1  0.729620  0.930744  0.972917  1
  O  O73  1  0.229619  0.569256  0.527083  1
  O  O74  1  0.270380  0.069256  0.027083  1
  O  O75  1  0.770381  0.430743  0.472917  1
  O  O76  1  0.768622  0.563430  0.975646  1
  O  O77  1  0.268622  0.936569  0.524354  1
  O  O78  1  0.231378  0.436570  0.024354  1
  O  O79  1  0.160264  0.444758  0.358939  1
