# generated using pymatgen
data_Ba2AlTlW2O7
_symmetry_space_group_name_H-M   'P 1'
_cell_length_a   4.07484984
_cell_length_b   4.07430660
_cell_length_c   13.58638448
_cell_angle_alpha   89.99665161
_cell_angle_beta   90.00068791
_cell_angle_gamma   89.91895100
_symmetry_Int_Tables_number   1
_chemical_formula_structural   Ba2AlTlW2O7
_chemical_formula_sum   'Ba2 Al1 Tl1 W2 O7'
_cell_volume   225.56347778
_cell_formula_units_Z   1
loop_
 _symmetry_equiv_pos_site_id
 _symmetry_equiv_pos_as_xyz
  1  'x, y, z'
loop_
 _atom_site_type_symbol
 _atom_site_label
 _atom_site_symmetry_multiplicity
 _atom_site_fract_x
 _atom_site_fract_y
 _atom_site_fract_z
 _atom_site_occupancy
  Ba  Ba0  1  0.500353  0.500132  0.187847  1
  Ba  Ba1  1  0.500272  0.500134  0.813349  1
  Al  Al2  1  0.498336  0.500111  0.500515  1
  Tl  Tl3  1  0.001688  0.001218  0.001135  1
  W  W4  1  0.000121  0.999992  0.352895  1
  W  W5  1  0.000023  0.000062  0.646822  1
  O  O6  1  0.000139  0.000029  0.202125  1
  O  O7  1  0.000575  0.499973  0.356859  1
  O  O8  1  0.500215  0.000028  0.356851  1
  O  O9  1  0.500120  0.000085  0.641927  1
  O  O10  1  0.497565  0.498232  0.000364  1
  O  O11  1  0.000497  0.500024  0.641901  1
  O  O12  1  0.000094  0.999980  0.797413  1
