# generated using pymatgen
data_Ti2Be3Zn(SiO4)3
_symmetry_space_group_name_H-M   'P 1'
_cell_length_a   7.61883419
_cell_length_b   8.19978860
_cell_length_c   14.18526240
_cell_angle_alpha   89.85581567
_cell_angle_beta   89.96622871
_cell_angle_gamma   90.04677705
_symmetry_Int_Tables_number   1
_chemical_formula_structural   Ti2Be3Zn(SiO4)3
_chemical_formula_sum   'Ti8 Be12 Zn4 Si12 O48'
_cell_volume   886.19022666
_cell_formula_units_Z   4
loop_
 _symmetry_equiv_pos_site_id
 _symmetry_equiv_pos_as_xyz
  1  'x, y, z'
loop_
 _atom_site_type_symbol
 _atom_site_label
 _atom_site_symmetry_multiplicity
 _atom_site_fract_x
 _atom_site_fract_y
 _atom_site_fract_z
 _atom_site_occupancy
  Ti  Ti0  1  0.443214  0.246426  0.088514  1
  Ti  Ti1  1  0.059504  0.746779  0.588205  1
  Ti  Ti2  1  0.558836  0.752737  0.911999  1
  Ti  Ti3  1  0.941121  0.253246  0.411986  1
  Ti  Ti4  1  0.566618  0.250207  0.423191  1
  Ti  Ti5  1  0.065300  0.249973  0.076938  1
  Ti  Ti6  1  0.433119  0.750085  0.576884  1
  Ti  Ti7  1  0.932987  0.749930  0.923227  1
  Be  Be8  1  0.853319  0.924566  0.763317  1
  Be  Be9  1  0.653730  0.928440  0.405315  1
  Be  Be10  1  0.152891  0.571598  0.095064  1
  Be  Be11  1  0.346188  0.071463  0.594508  1
  Be  Be12  1  0.845663  0.428565  0.905297  1
  Be  Be13  1  0.148672  0.609641  0.415571  1
  Be  Be14  1  0.648039  0.890369  0.083768  1
  Be  Be15  1  0.850897  0.390726  0.583601  1
  Be  Be16  1  0.349213  0.108941  0.916861  1
  Be  Be17  1  0.646545  0.424244  0.263796  1
  Be  Be18  1  0.147103  0.075010  0.236244  1
  Be  Be19  1  0.353835  0.575783  0.736880  1
  Zn  Zn20  1  0.408923  0.753341  0.249611  1
  Zn  Zn21  1  0.914599  0.746294  0.249619  1
  Zn  Zn22  1  0.593131  0.246585  0.749863  1
  Zn  Zn23  1  0.093043  0.253603  0.749915  1
  Si  Si24  1  0.235641  0.916604  0.769650  1
  Si  Si25  1  0.735857  0.583921  0.730354  1
  Si  Si26  1  0.764433  0.082986  0.230880  1
  Si  Si27  1  0.264713  0.415986  0.269060  1
  Si  Si28  1  0.734377  0.109872  0.928030  1
  Si  Si29  1  0.235506  0.390009  0.571960  1
  Si  Si30  1  0.264093  0.889986  0.071751  1
  Si  Si31  1  0.764272  0.610443  0.427892  1
  Si  Si32  1  0.235843  0.449752  0.908066  1
  Si  Si33  1  0.736065  0.050130  0.592295  1
  Si  Si34  1  0.762898  0.550776  0.092511  1
  Si  Si35  1  0.264386  0.949877  0.407438  1
  O  O36  1  0.125722  0.747251  0.039202  1
  O  O37  1  0.041534  0.902031  0.819791  1
  O  O38  1  0.542055  0.599211  0.680104  1
  O  O39  1  0.958508  0.100072  0.180879  1
  O  O40  1  0.457831  0.399209  0.319976  1
  O  O41  1  0.537388  0.176979  0.958125  1
  O  O42  1  0.038698  0.322765  0.543157  1
  O  O43  1  0.460596  0.823458  0.041977  1
  O  O44  1  0.961381  0.676632  0.457360  1
  O  O45  1  0.035949  0.522206  0.890353  1
  O  O46  1  0.535954  0.977939  0.609932  1
  O  O47  1  0.962986  0.478622  0.109085  1
  O  O48  1  0.127944  0.072793  0.352170  1
  O  O49  1  0.626410  0.426285  0.147508  1
  O  O50  1  0.873465  0.928119  0.647603  1
  O  O51  1  0.373443  0.571883  0.852575  1
  O  O52  1  0.626437  0.753088  0.461420  1
  O  O53  1  0.464291  0.022866  0.390853  1
  O  O54  1  0.374198  0.247505  0.539769  1
  O  O55  1  0.872910  0.252670  0.959309  1
  O  O56  1  0.764575  0.066218  0.476176  1
  O  O57  1  0.621753  0.061970  0.144474  1
  O  O58  1  0.879462  0.560517  0.644993  1
  O  O59  1  0.378501  0.939768  0.855298  1
  O  O60  1  0.740108  0.431741  0.805724  1
  O  O61  1  0.240986  0.068546  0.694087  1
  O  O62  1  0.261682  0.567935  0.193645  1
  O  O63  1  0.757182  0.930804  0.305754  1
  O  O64  1  0.743852  0.070183  0.814706  1
  O  O65  1  0.246968  0.429004  0.685344  1
  O  O66  1  0.255588  0.929375  0.185006  1
  O  O67  1  0.750562  0.571863  0.314891  1
  O  O68  1  0.246560  0.261438  0.868865  1
  O  O69  1  0.746237  0.238621  0.631226  1
  O  O70  1  0.749303  0.738324  0.131531  1
  O  O71  1  0.256087  0.761139  0.369158  1
  O  O72  1  0.758763  0.748266  0.798036  1
  O  O73  1  0.258610  0.751801  0.702227  1
  O  O74  1  0.244741  0.251449  0.200591  1
  O  O75  1  0.741633  0.247956  0.298449  1
  O  O76  1  0.759351  0.929572  0.980880  1
  O  O77  1  0.260030  0.570300  0.519005  1
  O  O78  1  0.239319  0.070278  0.018997  1
  O  O79  1  0.739757  0.429752  0.481197  1
  O  O80  1  0.734489  0.565873  0.975998  1
  O  O81  1  0.235332  0.934332  0.523785  1
  O  O82  1  0.265036  0.433705  0.024098  1
  O  O83  1  0.121258  0.438789  0.354648  1
