# generated using pymatgen
data_BiSbO5
_symmetry_space_group_name_H-M   'P 1'
_cell_length_a   5.86225646
_cell_length_b   8.57537053
_cell_length_c   10.53049747
_cell_angle_alpha   90.00000000
_cell_angle_beta   90.00000000
_cell_angle_gamma   105.85613996
_symmetry_Int_Tables_number   1
_chemical_formula_structural   BiSbO5
_chemical_formula_sum   'Bi4 Sb4 O20'
_cell_volume   509.23639047
_cell_formula_units_Z   4
loop_
 _symmetry_equiv_pos_site_id
 _symmetry_equiv_pos_as_xyz
  1  'x, y, z'
loop_
 _atom_site_type_symbol
 _atom_site_label
 _atom_site_symmetry_multiplicity
 _atom_site_fract_x
 _atom_site_fract_y
 _atom_site_fract_z
 _atom_site_occupancy
  Bi  Bi0  1  0.119649  0.132118  0.103727  1
  Bi  Bi1  1  0.880351  0.867882  0.896273  1
  Bi  Bi2  1  0.619649  0.632118  0.396273  1
  Bi  Bi3  1  0.380351  0.367882  0.603727  1
  Sb  Sb4  1  0.817136  0.921587  0.607549  1
  Sb  Sb5  1  0.182864  0.078413  0.392451  1
  Sb  Sb6  1  0.682864  0.578413  0.107549  1
  Sb  Sb7  1  0.317136  0.421587  0.892451  1
  O  O8  1  0.484979  0.360667  0.053544  1
  O  O9  1  0.032359  0.320192  0.989932  1
  O  O10  1  0.512164  0.697557  0.216024  1
  O  O11  1  0.716310  0.534784  0.565033  1
  O  O12  1  0.814267  0.518808  0.266305  1
  O  O13  1  0.314267  0.018808  0.233695  1
  O  O14  1  0.532359  0.820192  0.510068  1
  O  O15  1  0.467641  0.179808  0.489932  1
  O  O16  1  0.283690  0.465216  0.434967  1
  O  O17  1  0.015021  0.139333  0.553544  1
  O  O18  1  0.185733  0.481192  0.733695  1
  O  O19  1  0.515021  0.639333  0.946456  1
  O  O20  1  0.984979  0.860667  0.446456  1
  O  O21  1  0.685733  0.981192  0.766305  1
  O  O22  1  0.783690  0.965216  0.065033  1
  O  O23  1  0.216310  0.034784  0.934967  1
  O  O24  1  0.487836  0.302443  0.783976  1
  O  O25  1  0.967641  0.679808  0.010068  1
  O  O26  1  0.987836  0.802443  0.716024  1
  O  O27  1  0.012164  0.197557  0.283976  1
