# generated using pymatgen
data_Ba2Tl2Sn3O10
_symmetry_space_group_name_H-M   'P 1'
_cell_length_a   3.92988846
_cell_length_b   3.90439548
_cell_length_c   19.64355056
_cell_angle_alpha   91.17413539
_cell_angle_beta   92.19717114
_cell_angle_gamma   89.85799280
_symmetry_Int_Tables_number   1
_chemical_formula_structural   Ba2Tl2Sn3O10
_chemical_formula_sum   'Ba2 Tl2 Sn3 O10'
_cell_volume   301.12221024
_cell_formula_units_Z   1
loop_
 _symmetry_equiv_pos_site_id
 _symmetry_equiv_pos_as_xyz
  1  'x, y, z'
loop_
 _atom_site_type_symbol
 _atom_site_label
 _atom_site_symmetry_multiplicity
 _atom_site_fract_x
 _atom_site_fract_y
 _atom_site_fract_z
 _atom_site_occupancy
  Ba  Ba0  1  0.186250  0.175864  0.293668  1
  Ba  Ba1  1  0.784706  0.734266  0.705560  1
  Tl  Tl2  1  0.667744  0.717478  0.440601  1
  Tl  Tl3  1  0.195266  0.233526  0.559338  1
  Sn  Sn4  1  0.318469  0.239482  0.836943  1
  Sn  Sn5  1  0.673352  0.654558  0.162389  1
  Sn  Sn6  1  0.237423  0.704630  0.997038  1
  O  O7  1  0.310674  0.737039  0.803234  1
  O  O8  1  0.269661  0.238687  0.663366  1
  O  O9  1  0.811919  0.239024  0.802310  1
  O  O10  1  0.824952  0.735439  0.545487  1
  O  O11  1  0.681251  0.642339  0.060017  1
  O  O12  1  0.178064  0.658257  0.195594  1
  O  O13  1  0.685981  0.691149  0.336151  1
  O  O14  1  0.675042  0.158051  0.197728  1
  O  O15  1  0.303665  0.222957  0.453988  1
  O  O16  1  0.346048  0.235959  0.939645  1
