# generated using pymatgen
data_MgCoO2
_symmetry_space_group_name_H-M   'P 1'
_cell_length_a   2.93357955
_cell_length_b   8.19659349
_cell_length_c   8.23840946
_cell_angle_alpha   90.70081482
_cell_angle_beta   80.38015977
_cell_angle_gamma   78.91015620
_symmetry_Int_Tables_number   1
_chemical_formula_structural   MgCoO2
_chemical_formula_sum   'Mg4 Co4 O8'
_cell_volume   191.46118680
_cell_formula_units_Z   4
loop_
 _symmetry_equiv_pos_site_id
 _symmetry_equiv_pos_as_xyz
  1  'x, y, z'
loop_
 _atom_site_type_symbol
 _atom_site_label
 _atom_site_symmetry_multiplicity
 _atom_site_fract_x
 _atom_site_fract_y
 _atom_site_fract_z
 _atom_site_occupancy
  Mg  Mg0  1  0.320577  0.070716  0.255358  1
  Mg  Mg1  1  0.672641  0.913040  0.778243  1
  Mg  Mg2  1  0.089514  0.699679  0.111943  1
  Mg  Mg3  1  0.910250  0.276113  0.919225  1
  Co  Co4  1  0.572264  0.225214  0.605572  1
  Co  Co5  1  0.187484  0.390401  0.249149  1
  Co  Co6  1  0.807971  0.587911  0.775531  1
  Co  Co7  1  0.391840  0.784926  0.438797  1
  O  O8  1  0.851697  0.736912  0.585492  1
  O  O9  1  0.388588  0.407135  0.815388  1
  O  O10  1  0.635319  0.553362  0.182020  1
  O  O11  1  0.140660  0.248686  0.445577  1
  O  O12  1  0.093742  0.088700  0.751306  1
  O  O13  1  0.801410  0.206581  0.143519  1
  O  O14  1  0.905512  0.887211  0.283616  1
  O  O15  1  0.198806  0.762747  0.884880  1
