# generated using pymatgen
data_MgCrO2
_symmetry_space_group_name_H-M   'P 1'
_cell_length_a   2.96751893
_cell_length_b   8.16770859
_cell_length_c   7.83876765
_cell_angle_alpha   98.20626797
_cell_angle_beta   90.00560481
_cell_angle_gamma   68.69083081
_symmetry_Int_Tables_number   1
_chemical_formula_structural   MgCrO2
_chemical_formula_sum   'Mg4 Cr4 O8'
_cell_volume   174.91657292
_cell_formula_units_Z   4
loop_
 _symmetry_equiv_pos_site_id
 _symmetry_equiv_pos_as_xyz
  1  'x, y, z'
loop_
 _atom_site_type_symbol
 _atom_site_label
 _atom_site_symmetry_multiplicity
 _atom_site_fract_x
 _atom_site_fract_y
 _atom_site_fract_z
 _atom_site_occupancy
  Mg  Mg0  1  0.208744  0.029359  0.182664  1
  Mg  Mg1  1  0.787427  0.950553  0.845552  1
  Mg  Mg2  1  0.062838  0.675285  0.079275  1
  Mg  Mg3  1  0.933165  0.304642  0.948929  1
  Cr  Cr4  1  0.558811  0.178894  0.575361  1
  Cr  Cr5  1  0.347379  0.390849  0.294772  1
  Cr  Cr6  1  0.648552  0.589071  0.733394  1
  Cr  Cr7  1  0.437275  0.801010  0.452818  1
  O  O8  1  0.002585  0.735436  0.623795  1
  O  O9  1  0.274841  0.462831  0.850958  1
  O  O10  1  0.721065  0.517150  0.177261  1
  O  O11  1  0.993504  0.244425  0.404361  1
  O  O12  1  0.137938  0.099763  0.730061  1
  O  O13  1  0.579157  0.158775  0.057790  1
  O  O14  1  0.858128  0.880123  0.298143  1
  O  O15  1  0.416865  0.821168  0.970483  1
