# generated using pymatgen
data_CaTi2CoO7
_symmetry_space_group_name_H-M   'P 1'
_cell_length_a   7.02555479
_cell_length_b   11.16892575
_cell_length_c   14.70043979
_cell_angle_alpha   90.00000000
_cell_angle_beta   90.00000000
_cell_angle_gamma   103.83425436
_symmetry_Int_Tables_number   1
_chemical_formula_structural   CaTi2CoO7
_chemical_formula_sum   'Ca8 Ti16 Co8 O56'
_cell_volume   1120.05096360
_cell_formula_units_Z   8
loop_
 _symmetry_equiv_pos_site_id
 _symmetry_equiv_pos_as_xyz
  1  'x, y, z'
loop_
 _atom_site_type_symbol
 _atom_site_label
 _atom_site_symmetry_multiplicity
 _atom_site_fract_x
 _atom_site_fract_y
 _atom_site_fract_z
 _atom_site_occupancy
  Ca  Ca0  1  0.066622  0.730129  0.505445  1
  Ca  Ca1  1  0.327468  0.974283  0.878390  1
  Ca  Ca2  1  0.672532  0.525717  0.378390  1
  Ca  Ca3  1  0.672532  0.025717  0.121610  1
  Ca  Ca4  1  0.327468  0.474283  0.621610  1
  Ca  Ca5  1  0.066622  0.230129  0.994555  1
  Ca  Ca6  1  0.933378  0.269871  0.494555  1
  Ca  Ca7  1  0.933378  0.769871  0.005445  1
  Ti  Ti8  1  0.836035  0.976738  0.865469  1
  Ti  Ti9  1  0.412023  0.687851  0.011357  1
  Ti  Ti10  1  0.412023  0.187851  0.488643  1
  Ti  Ti11  1  0.587977  0.312149  0.988643  1
  Ti  Ti12  1  0.506040  0.793191  0.711958  1
  Ti  Ti13  1  0.493960  0.706809  0.211958  1
  Ti  Ti14  1  0.493960  0.206809  0.288042  1
  Ti  Ti15  1  0.506040  0.293191  0.788042  1
  Ti  Ti16  1  0.587977  0.812149  0.511357  1
  Ti  Ti17  1  0.872871  0.471828  0.142199  1
  Ti  Ti18  1  0.127129  0.028172  0.642199  1
  Ti  Ti19  1  0.127129  0.528172  0.857801  1
  Ti  Ti20  1  0.163965  0.523262  0.365469  1
  Ti  Ti21  1  0.836035  0.476738  0.634531  1
  Ti  Ti22  1  0.163965  0.023262  0.134531  1
  Ti  Ti23  1  0.872871  0.971828  0.357801  1
  Co  Co24  1  0.621852  0.080997  0.671057  1
  Co  Co25  1  0.378148  0.419003  0.171057  1
  Co  Co26  1  0.378148  0.919003  0.328943  1
  Co  Co27  1  0.621852  0.580997  0.828943  1
  Co  Co28  1  0.005944  0.251040  0.756630  1
  Co  Co29  1  0.994056  0.248960  0.256630  1
  Co  Co30  1  0.994056  0.748960  0.243370  1
  Co  Co31  1  0.005944  0.751040  0.743370  1
  O  O32  1  0.778607  0.960700  0.982209  1
  O  O33  1  0.221393  0.539300  0.482209  1
  O  O34  1  0.221393  0.039300  0.017791  1
  O  O35  1  0.778607  0.460700  0.517791  1
  O  O36  1  0.992237  0.867910  0.847343  1
  O  O37  1  0.007763  0.632090  0.347343  1
  O  O38  1  0.007763  0.132090  0.152657  1
  O  O39  1  0.992237  0.367910  0.652657  1
  O  O40  1  0.003215  0.131346  0.850362  1
  O  O41  1  0.996785  0.368655  0.350362  1
  O  O42  1  0.996785  0.868655  0.149638  1
  O  O43  1  0.003215  0.631345  0.649638  1
  O  O44  1  0.643479  0.935912  0.285154  1
  O  O45  1  0.356521  0.564088  0.785154  1
  O  O46  1  0.356521  0.064088  0.714846  1
  O  O47  1  0.643479  0.435912  0.214846  1
  O  O48  1  0.983497  0.136162  0.354435  1
  O  O49  1  0.016503  0.363838  0.854435  1
  O  O50  1  0.016503  0.863838  0.645565  1
  O  O51  1  0.983497  0.636162  0.145565  1
  O  O52  1  0.075395  0.890908  0.334368  1
  O  O53  1  0.381609  0.825564  0.433005  1
  O  O54  1  0.924605  0.609092  0.834368  1
  O  O55  1  0.075395  0.390908  0.165632  1
  O  O56  1  0.724795  0.707589  0.473927  1
  O  O57  1  0.275205  0.792411  0.973927  1
  O  O58  1  0.275205  0.292411  0.526073  1
  O  O59  1  0.724795  0.207589  0.026073  1
  O  O60  1  0.783033  0.955953  0.471281  1
  O  O61  1  0.216968  0.544047  0.971281  1
  O  O62  1  0.216968  0.044047  0.528719  1
  O  O63  1  0.783033  0.455953  0.028719  1
  O  O64  1  0.429970  0.205847  0.894928  1
  O  O65  1  0.570030  0.294153  0.394928  1
  O  O66  1  0.570030  0.794153  0.105072  1
  O  O67  1  0.429970  0.705847  0.605072  1
  O  O68  1  0.704827  0.216628  0.754717  1
  O  O69  1  0.295173  0.283372  0.254717  1
  O  O70  1  0.295173  0.783372  0.245283  1
  O  O71  1  0.704827  0.716628  0.745283  1
  O  O72  1  0.611809  0.446991  0.705933  1
  O  O73  1  0.388191  0.053009  0.205933  1
  O  O74  1  0.388191  0.553009  0.294067  1
  O  O75  1  0.611809  0.946991  0.794067  1
  O  O76  1  0.265247  0.283210  0.729624  1
  O  O77  1  0.734753  0.216790  0.229624  1
  O  O78  1  0.734753  0.716790  0.270376  1
  O  O79  1  0.265247  0.783210  0.770376  1
  O  O80  1  0.589300  0.421460  0.876724  1
  O  O81  1  0.410700  0.078540  0.376724  1
  O  O82  1  0.410700  0.578540  0.123276  1
  O  O83  1  0.589300  0.921460  0.623276  1
  O  O84  1  0.381609  0.325564  0.066995  1
  O  O85  1  0.618391  0.174436  0.566995  1
  O  O86  1  0.618391  0.674436  0.933005  1
  O  O87  1  0.924605  0.109092  0.665632  1
