# generated using pymatgen
data_Ca2Mn3O8
_symmetry_space_group_name_H-M   'P 1'
_cell_length_a   5.02775070
_cell_length_b   5.94482035
_cell_length_c   6.30608963
_cell_angle_alpha   118.12232392
_cell_angle_beta   107.30825027
_cell_angle_gamma   89.99999699
_symmetry_Int_Tables_number   1
_chemical_formula_structural   Ca2Mn3O8
_chemical_formula_sum   'Ca2 Mn3 O8'
_cell_volume   156.48763016
_cell_formula_units_Z   1
loop_
 _symmetry_equiv_pos_site_id
 _symmetry_equiv_pos_as_xyz
  1  'x, y, z'
loop_
 _atom_site_type_symbol
 _atom_site_label
 _atom_site_symmetry_multiplicity
 _atom_site_fract_x
 _atom_site_fract_y
 _atom_site_fract_z
 _atom_site_occupancy
  Ca  Ca0  1  0.663628  0.723027  0.446053  1
  Ca  Ca1  1  0.336371  0.276974  0.553947  1
  Mn  Mn2  1  0.500000  0.999999  0.000000  1
  Mn  Mn3  1  0.999999  0.741977  1.000000  1
  Mn  Mn4  1  0.999999  0.258023  0.000000  1
  O  O5  1  0.042061  0.396585  0.793171  1
  O  O6  1  0.957939  0.603414  0.206829  1
  O  O7  1  0.096729  0.902904  0.805809  1
  O  O8  1  0.903271  0.097095  0.194190  1
  O  O9  1  0.391775  0.323534  0.203230  1
  O  O10  1  0.391775  0.879696  0.203230  1
  O  O11  1  0.608226  0.120303  0.796770  1
  O  O12  1  0.608226  0.676466  0.796770  1
