# generated using pymatgen
data_CaMn2(PO4)2
_symmetry_space_group_name_H-M   'P 1'
_cell_length_a   5.09412396
_cell_length_b   9.10785114
_cell_length_c   15.59101322
_cell_angle_alpha   85.88959260
_cell_angle_beta   80.62708437
_cell_angle_gamma   73.77316764
_symmetry_Int_Tables_number   1
_chemical_formula_structural   CaMn2(PO4)2
_chemical_formula_sum   'Ca4 Mn8 P8 O32'
_cell_volume   685.01761349
_cell_formula_units_Z   4
loop_
 _symmetry_equiv_pos_site_id
 _symmetry_equiv_pos_as_xyz
  1  'x, y, z'
loop_
 _atom_site_type_symbol
 _atom_site_label
 _atom_site_symmetry_multiplicity
 _atom_site_fract_x
 _atom_site_fract_y
 _atom_site_fract_z
 _atom_site_occupancy
  Ca  Ca0  1  0.480367  0.829222  0.855726  1
  Ca  Ca1  1  0.164899  0.672722  0.645413  1
  Ca  Ca2  1  0.833247  0.329547  0.356059  1
  Ca  Ca3  1  0.515811  0.170744  0.145824  1
  Mn  Mn4  1  0.197473  0.224915  0.960468  1
  Mn  Mn5  1  0.383407  0.276595  0.539357  1
  Mn  Mn6  1  0.799961  0.775539  0.039500  1
  Mn  Mn7  1  0.504403  0.494115  0.998756  1
  Mn  Mn8  1  0.614609  0.725173  0.461090  1
  Mn  Mn9  1  0.651827  0.749971  0.249972  1
  Mn  Mn10  1  0.343414  0.250893  0.749783  1
  Mn  Mn11  1  0.001014  0.997872  0.498720  1
  P  P12  1  0.049964  0.567760  0.867292  1
  P  P13  1  0.770265  0.425777  0.609144  1
  P  P14  1  0.947153  0.432479  0.133523  1
  P  P15  1  0.194465  0.924769  0.108051  1
  P  P16  1  0.514257  0.067479  0.367403  1
  P  P17  1  0.485452  0.933765  0.632492  1
  P  P18  1  0.226182  0.576702  0.391071  1
  P  P19  1  0.803274  0.077421  0.890992  1
  O  O20  1  0.698900  0.387562  0.107558  1
  O  O21  1  0.797354  0.915698  0.928514  1
  O  O22  1  0.804232  0.889488  0.604774  1
  O  O23  1  0.805601  0.304808  0.538570  1
  O  O24  1  0.190258  0.393375  0.055379  1
  O  O25  1  0.565271  0.401426  0.688891  1
  O  O26  1  0.648097  0.201799  0.960046  1
  O  O27  1  0.886207  0.920580  0.129569  1
  O  O28  1  0.190987  0.699469  0.460740  1
  O  O29  1  0.640724  0.589123  0.573215  1
  O  O30  1  0.869449  0.608700  0.144669  1
  O  O31  1  0.602959  0.158858  0.287480  1
  O  O32  1  0.199726  0.087402  0.071845  1
  O  O33  1  0.061948  0.420081  0.630729  1
  O  O34  1  0.299894  0.610348  0.893557  1
  O  O35  1  0.124292  0.391809  0.855367  1
  O  O36  1  0.948591  0.660084  0.787448  1
  O  O37  1  0.349560  0.802772  0.038146  1
  O  O38  1  0.374630  0.110053  0.644025  1
  O  O39  1  0.398524  0.842499  0.712731  1
  O  O40  1  0.934136  0.581456  0.370200  1
  O  O41  1  0.356160  0.894787  0.554818  1
  O  O42  1  0.111704  0.081178  0.869527  1
  O  O43  1  0.343205  0.900596  0.188257  1
  O  O44  1  0.356408  0.414198  0.427862  1
  O  O45  1  0.195266  0.112028  0.394669  1
  O  O46  1  0.049319  0.342223  0.213854  1
  O  O47  1  0.642628  0.106070  0.445381  1
  O  O48  1  0.806618  0.606519  0.945400  1
  O  O49  1  0.654638  0.100367  0.810927  1
  O  O50  1  0.429899  0.600070  0.310836  1
  O  O51  1  0.623859  0.891166  0.355605  1
