# generated using pymatgen
data_CaLaFeAgO6
_symmetry_space_group_name_H-M   'P 1'
_cell_length_a   5.78921343
_cell_length_b   5.62221902
_cell_length_c   7.79945959
_cell_angle_alpha   89.45333617
_cell_angle_beta   90.00000000
_cell_angle_gamma   90.00000000
_symmetry_Int_Tables_number   1
_chemical_formula_structural   CaLaFeAgO6
_chemical_formula_sum   'Ca2 La2 Fe2 Ag2 O12'
_cell_volume   253.84701779
_cell_formula_units_Z   2
loop_
 _symmetry_equiv_pos_site_id
 _symmetry_equiv_pos_as_xyz
  1  'x, y, z'
loop_
 _atom_site_type_symbol
 _atom_site_label
 _atom_site_symmetry_multiplicity
 _atom_site_fract_x
 _atom_site_fract_y
 _atom_site_fract_z
 _atom_site_occupancy
  Ca  Ca0  1  0.559529  0.517749  0.251854  1
  Ca  Ca1  1  0.940471  0.017749  0.751854  1
  La  La2  1  0.053116  0.985205  0.248944  1
  La  La3  1  0.446884  0.485205  0.748944  1
  Fe  Fe4  1  0.502768  0.999427  0.000628  1
  Fe  Fe5  1  0.997232  0.499427  0.500628  1
  Ag  Ag6  1  0.500990  0.000208  0.499559  1
  Ag  Ag7  1  0.999010  0.500208  0.999559  1
  O  O8  1  0.036444  0.607448  0.745847  1
  O  O9  1  0.219796  0.186152  0.946456  1
  O  O10  1  0.191241  0.213148  0.552334  1
  O  O11  1  0.308759  0.713148  0.052334  1
  O  O12  1  0.280204  0.686152  0.446456  1
  O  O13  1  0.463556  0.107448  0.245846  1
  O  O14  1  0.542126  0.901045  0.753489  1
  O  O15  1  0.722211  0.308718  0.552937  1
  O  O16  1  0.697358  0.280899  0.947951  1
  O  O17  1  0.802642  0.780899  0.447951  1
  O  O18  1  0.777789  0.808718  0.052937  1
  O  O19  1  0.957874  0.401045  0.253489  1
