# generated using pymatgen
data_Ca(SbO2)2
_symmetry_space_group_name_H-M   'P 1'
_cell_length_a   6.93817802
_cell_length_b   6.93442736
_cell_length_c   6.92998514
_cell_angle_alpha   90.35517790
_cell_angle_beta   119.73586975
_cell_angle_gamma   119.77438392
_symmetry_Int_Tables_number   1
_chemical_formula_structural   Ca(SbO2)2
_chemical_formula_sum   'Ca2 Sb4 O8'
_cell_volume   236.77145403
_cell_formula_units_Z   2
loop_
 _symmetry_equiv_pos_site_id
 _symmetry_equiv_pos_as_xyz
  1  'x, y, z'
loop_
 _atom_site_type_symbol
 _atom_site_label
 _atom_site_symmetry_multiplicity
 _atom_site_fract_x
 _atom_site_fract_y
 _atom_site_fract_z
 _atom_site_occupancy
  Ca  Ca0  1  0.249496  0.124702  0.875076  1
  Ca  Ca1  1  0.750527  0.875303  0.124935  1
  Sb  Sb2  1  0.500178  0.000046  0.499990  1
  Sb  Sb3  1  0.500206  0.500022  0.500108  1
  Sb  Sb4  1  0.999954  0.500127  0.000012  1
  Sb  Sb5  1  0.000064  0.499863  0.499918  1
  O  O6  1  0.020594  0.742285  0.261475  1
  O  O7  1  0.478838  0.741100  0.721833  1
  O  O8  1  0.480350  0.738715  0.258042  1
  O  O9  1  0.978883  0.721679  0.741650  1
  O  O10  1  0.519833  0.261627  0.742086  1
  O  O11  1  0.521137  0.258818  0.278196  1
  O  O12  1  0.020799  0.278338  0.258560  1
  O  O13  1  0.979141  0.257377  0.738119  1
