# generated using pymatgen
data_ZnFeSiO5
_symmetry_space_group_name_H-M   'P 1'
_cell_length_a   5.46669010
_cell_length_b   7.14093839
_cell_length_c   8.11808146
_cell_angle_alpha   90.14708396
_cell_angle_beta   42.28023924
_cell_angle_gamma   71.45893013
_symmetry_Int_Tables_number   1
_chemical_formula_structural   ZnFeSiO5
_chemical_formula_sum   'Zn2 Fe2 Si2 O10'
_cell_volume   187.55864181
_cell_formula_units_Z   2
loop_
 _symmetry_equiv_pos_site_id
 _symmetry_equiv_pos_as_xyz
  1  'x, y, z'
loop_
 _atom_site_type_symbol
 _atom_site_label
 _atom_site_symmetry_multiplicity
 _atom_site_fract_x
 _atom_site_fract_y
 _atom_site_fract_z
 _atom_site_occupancy
  Zn  Zn0  1  0.461199  0.230566  0.700035  1
  Zn  Zn1  1  0.552667  0.721042  0.283007  1
  Fe  Fe2  1  0.499298  0.486601  0.994836  1
  Fe  Fe3  1  0.499909  0.986640  0.996237  1
  Si  Si4  1  0.523323  0.232414  0.334688  1
  Si  Si5  1  0.470699  0.741659  0.658915  1
  O  O6  1  0.512152  0.042652  0.230513  1
  O  O7  1  0.579303  0.408328  0.195099  1
  O  O8  1  0.485012  0.932163  0.760071  1
  O  O9  1  0.406368  0.570797  0.805116  1
  O  O10  1  0.874443  0.626944  0.331263  1
  O  O11  1  0.121306  0.834296  0.682593  1
  O  O12  1  0.123226  0.342573  0.662751  1
  O  O13  1  0.878430  0.137651  0.306212  1
  O  O14  1  0.494676  0.737485  0.075708  1
  O  O15  1  0.504719  0.235315  0.914968  1
