# generated using pymatgen
data_CaCu2(WO4)2
_symmetry_space_group_name_H-M   'P 1'
_cell_length_a   6.80178979
_cell_length_b   9.05856117
_cell_length_c   13.18919680
_cell_angle_alpha   90.00000000
_cell_angle_beta   89.30098180
_cell_angle_gamma   90.00000000
_symmetry_Int_Tables_number   1
_chemical_formula_structural   CaCu2(WO4)2
_chemical_formula_sum   'Ca4 Cu8 W8 O32'
_cell_volume   812.58435050
_cell_formula_units_Z   4
loop_
 _symmetry_equiv_pos_site_id
 _symmetry_equiv_pos_as_xyz
  1  'x, y, z'
loop_
 _atom_site_type_symbol
 _atom_site_label
 _atom_site_symmetry_multiplicity
 _atom_site_fract_x
 _atom_site_fract_y
 _atom_site_fract_z
 _atom_site_occupancy
  Ca  Ca0  1  0.121949  0.164263  0.047413  1
  Ca  Ca1  1  0.878051  0.835737  0.952587  1
  Ca  Ca2  1  0.878051  0.664263  0.452587  1
  Ca  Ca3  1  0.121949  0.335737  0.547413  1
  Cu  Cu4  1  0.765399  0.190361  0.860865  1
  Cu  Cu5  1  0.387136  0.048614  0.621406  1
  Cu  Cu6  1  0.612864  0.951386  0.378594  1
  Cu  Cu7  1  0.234601  0.809639  0.139135  1
  Cu  Cu8  1  0.765399  0.309639  0.360865  1
  Cu  Cu9  1  0.387136  0.451386  0.121406  1
  Cu  Cu10  1  0.234601  0.690361  0.639135  1
  Cu  Cu11  1  0.612864  0.548614  0.878594  1
  W  W12  1  0.094301  0.457515  0.844594  1
  W  W13  1  0.094301  0.042485  0.344594  1
  W  W14  1  0.606524  0.077211  0.136794  1
  W  W15  1  0.905699  0.957515  0.655406  1
  W  W16  1  0.393476  0.922789  0.863206  1
  W  W17  1  0.393476  0.577211  0.363206  1
  W  W18  1  0.606524  0.422789  0.636794  1
  W  W19  1  0.905699  0.542485  0.155406  1
  O  O20  1  0.025258  0.228830  0.390915  1
  O  O21  1  0.668202  0.003053  0.603531  1
  O  O22  1  0.189430  0.566252  0.456226  1
  O  O23  1  0.810570  0.066252  0.043774  1
  O  O24  1  0.025258  0.271170  0.890915  1
  O  O25  1  0.974742  0.771170  0.609085  1
  O  O26  1  0.088911  0.094976  0.610967  1
  O  O27  1  0.488880  0.898290  0.133566  1
  O  O28  1  0.488880  0.601710  0.633566  1
  O  O29  1  0.306570  0.881068  0.735623  1
  O  O30  1  0.693430  0.381068  0.764377  1
  O  O31  1  0.511120  0.101710  0.866434  1
  O  O32  1  0.911089  0.905024  0.389033  1
  O  O33  1  0.878528  0.538094  0.292569  1
  O  O34  1  0.435023  0.279848  0.597010  1
  O  O35  1  0.435023  0.220152  0.097010  1
  O  O36  1  0.121472  0.038094  0.207431  1
  O  O37  1  0.511120  0.398290  0.366434  1
  O  O38  1  0.121472  0.461906  0.707431  1
  O  O39  1  0.810570  0.433748  0.543774  1
  O  O40  1  0.668202  0.496947  0.103531  1
  O  O41  1  0.693430  0.118932  0.264377  1
  O  O42  1  0.974742  0.728830  0.109085  1
  O  O43  1  0.088911  0.405024  0.110967  1
  O  O44  1  0.189430  0.933748  0.956226  1
  O  O45  1  0.564977  0.779848  0.902990  1
  O  O46  1  0.331798  0.996947  0.396469  1
  O  O47  1  0.331798  0.503053  0.896469  1
  O  O48  1  0.911089  0.594976  0.889033  1
  O  O49  1  0.564977  0.720152  0.402990  1
  O  O50  1  0.306570  0.618932  0.235623  1
  O  O51  1  0.878528  0.961906  0.792569  1
