# generated using pymatgen
data_Al(CuO2)3
_symmetry_space_group_name_H-M   'P 1'
_cell_length_a   5.89947749
_cell_length_b   5.89947768
_cell_length_c   17.96411899
_cell_angle_alpha   30.15064863
_cell_angle_beta   30.15064527
_cell_angle_gamma   27.91604910
_symmetry_Int_Tables_number   1
_chemical_formula_structural   Al(CuO2)3
_chemical_formula_sum   'Al1 Cu3 O6'
_cell_volume   132.88328096
_cell_formula_units_Z   1
loop_
 _symmetry_equiv_pos_site_id
 _symmetry_equiv_pos_as_xyz
  1  'x, y, z'
loop_
 _atom_site_type_symbol
 _atom_site_label
 _atom_site_symmetry_multiplicity
 _atom_site_fract_x
 _atom_site_fract_y
 _atom_site_fract_z
 _atom_site_occupancy
  Al  Al0  1  0.500000  0.500000  0.166667  1
  Cu  Cu1  1  0.970304  0.970304  0.020364  1
  Cu  Cu2  1  0.029696  0.029696  0.312969  1
  Cu  Cu3  1  0.000000  0.000000  0.666667  1
  O  O4  1  0.938807  0.938807  0.268990  1
  O  O5  1  0.898342  0.898342  0.633845  1
  O  O6  1  0.847467  0.847467  0.000283  1
  O  O7  1  0.061193  0.061193  0.064343  1
  O  O8  1  0.152533  0.152533  0.333051  1
  O  O9  1  0.101658  0.101658  0.699488  1
