# generated using pymatgen
data_MgBiSbO5
_symmetry_space_group_name_H-M   'P 1'
_cell_length_a   5.23060600
_cell_length_b   10.35825859
_cell_length_c   16.09411601
_cell_angle_alpha   90.00000000
_cell_angle_beta   90.00000000
_cell_angle_gamma   90.00000000
_symmetry_Int_Tables_number   1
_chemical_formula_structural   MgBiSbO5
_chemical_formula_sum   'Mg8 Bi8 Sb8 O40'
_cell_volume   871.97871504
_cell_formula_units_Z   8
loop_
 _symmetry_equiv_pos_site_id
 _symmetry_equiv_pos_as_xyz
  1  'x, y, z'
loop_
 _atom_site_type_symbol
 _atom_site_label
 _atom_site_symmetry_multiplicity
 _atom_site_fract_x
 _atom_site_fract_y
 _atom_site_fract_z
 _atom_site_occupancy
  Mg  Mg0  1  0.533664  0.382530  0.439157  1
  Mg  Mg1  1  0.033664  0.117470  0.439157  1
  Mg  Mg2  1  0.033664  0.617470  0.060843  1
  Mg  Mg3  1  0.966336  0.382530  0.939157  1
  Mg  Mg4  1  0.466336  0.117470  0.939157  1
  Mg  Mg5  1  0.966336  0.882530  0.560843  1
  Mg  Mg6  1  0.466336  0.617470  0.560843  1
  Mg  Mg7  1  0.533664  0.882530  0.060843  1
  Bi  Bi8  1  0.013418  0.859906  0.224221  1
  Bi  Bi9  1  0.986582  0.140094  0.775779  1
  Bi  Bi10  1  0.486582  0.359906  0.775779  1
  Bi  Bi11  1  0.986582  0.640094  0.724221  1
  Bi  Bi12  1  0.513418  0.140094  0.275779  1
  Bi  Bi13  1  0.513418  0.640094  0.224221  1
  Bi  Bi14  1  0.486582  0.859906  0.724221  1
  Bi  Bi15  1  0.013418  0.359906  0.275779  1
  Sb  Sb16  1  0.008809  0.372779  0.584050  1
  Sb  Sb17  1  0.491191  0.872779  0.415950  1
  Sb  Sb18  1  0.991191  0.627221  0.415950  1
  Sb  Sb19  1  0.508809  0.127221  0.584050  1
  Sb  Sb20  1  0.991191  0.127221  0.084050  1
  Sb  Sb21  1  0.008809  0.872779  0.915950  1
  Sb  Sb22  1  0.491191  0.372779  0.084050  1
  Sb  Sb23  1  0.508809  0.627221  0.915950  1
  O  O24  1  0.872089  0.322319  0.692314  1
  O  O25  1  0.248149  0.019297  0.034044  1
  O  O26  1  0.251851  0.519297  0.965956  1
  O  O27  1  0.325952  0.782632  0.147257  1
  O  O28  1  0.174048  0.282632  0.852743  1
  O  O29  1  0.872089  0.822319  0.807686  1
  O  O30  1  0.174048  0.782632  0.647257  1
  O  O31  1  0.627911  0.822319  0.307686  1
  O  O32  1  0.248149  0.519297  0.465956  1
  O  O33  1  0.127911  0.677681  0.307686  1
  O  O34  1  0.627911  0.322319  0.192314  1
  O  O35  1  0.799938  0.220527  0.530052  1
  O  O36  1  0.748149  0.980703  0.465956  1
  O  O37  1  0.674048  0.717368  0.647257  1
  O  O38  1  0.228376  0.004049  0.864110  1
  O  O39  1  0.748149  0.480703  0.034044  1
  O  O40  1  0.127911  0.177681  0.192314  1
  O  O41  1  0.825952  0.217368  0.352743  1
  O  O42  1  0.299938  0.779473  0.969948  1
  O  O43  1  0.251851  0.019297  0.534044  1
  O  O44  1  0.200062  0.779473  0.469948  1
  O  O45  1  0.771624  0.995951  0.135890  1
  O  O46  1  0.674048  0.217368  0.852743  1
  O  O47  1  0.728376  0.995951  0.635890  1
  O  O48  1  0.200062  0.279473  0.030052  1
  O  O49  1  0.299938  0.279473  0.530052  1
  O  O50  1  0.751851  0.480703  0.534044  1
  O  O51  1  0.751851  0.980703  0.965956  1
  O  O52  1  0.728376  0.495951  0.864110  1
  O  O53  1  0.700062  0.720527  0.469948  1
  O  O54  1  0.700062  0.220527  0.030052  1
  O  O55  1  0.799938  0.720527  0.969948  1
  O  O56  1  0.771624  0.495951  0.364110  1
  O  O57  1  0.825952  0.717368  0.147257  1
  O  O58  1  0.325952  0.282632  0.352743  1
  O  O59  1  0.228376  0.504049  0.635890  1
  O  O60  1  0.271624  0.504049  0.135890  1
  O  O61  1  0.372089  0.177681  0.692314  1
  O  O62  1  0.271624  0.004049  0.364110  1
  O  O63  1  0.372089  0.677681  0.807686  1
