# generated using pymatgen
data_MgMo2O7
_symmetry_space_group_name_H-M   'P 1'
_cell_length_a   6.79789877
_cell_length_b   6.45919949
_cell_length_c   8.84305559
_cell_angle_alpha   117.44401001
_cell_angle_beta   90.00000000
_cell_angle_gamma   90.00000000
_symmetry_Int_Tables_number   1
_chemical_formula_structural   MgMo2O7
_chemical_formula_sum   'Mg2 Mo4 O14'
_cell_volume   344.59211298
_cell_formula_units_Z   2
loop_
 _symmetry_equiv_pos_site_id
 _symmetry_equiv_pos_as_xyz
  1  'x, y, z'
loop_
 _atom_site_type_symbol
 _atom_site_label
 _atom_site_symmetry_multiplicity
 _atom_site_fract_x
 _atom_site_fract_y
 _atom_site_fract_z
 _atom_site_occupancy
  Mg  Mg0  1  0.862496  0.543128  0.642539  1
  Mg  Mg1  1  0.362496  0.456872  0.357461  1
  Mo  Mo2  1  0.857437  0.308160  0.206977  1
  Mo  Mo3  1  0.357437  0.691840  0.793023  1
  Mo  Mo4  1  0.314798  0.860844  0.225837  1
  Mo  Mo5  1  0.814798  0.139156  0.774163  1
  O  O6  1  0.622738  0.054074  0.632833  1
  O  O7  1  0.122737  0.945926  0.367167  1
  O  O8  1  0.239421  0.542117  0.584734  1
  O  O9  1  0.739421  0.457883  0.415266  1
  O  O10  1  0.970038  0.320797  0.721603  1
  O  O11  1  0.470038  0.679203  0.278397  1
  O  O12  1  0.601564  0.581380  0.768144  1
  O  O13  1  0.101564  0.418620  0.231856  1
  O  O14  1  0.937761  0.879956  0.751378  1
  O  O15  1  0.437761  0.120044  0.248622  1
  O  O16  1  0.739648  0.312540  0.011720  1
  O  O17  1  0.239648  0.687460  0.988280  1
  O  O18  1  0.879156  0.018239  0.155488  1
  O  O19  1  0.379156  0.981761  0.844512  1
