# generated using pymatgen
data_Al(CoO2)2
_symmetry_space_group_name_H-M   'P 1'
_cell_length_a   5.16096838
_cell_length_b   5.15585622
_cell_length_c   6.14086541
_cell_angle_alpha   114.69388805
_cell_angle_beta   114.72025990
_cell_angle_gamma   90.27660367
_symmetry_Int_Tables_number   1
_chemical_formula_structural   Al(CoO2)2
_chemical_formula_sum   'Al2 Co4 O8'
_cell_volume   131.62627729
_cell_formula_units_Z   2
loop_
 _symmetry_equiv_pos_site_id
 _symmetry_equiv_pos_as_xyz
  1  'x, y, z'
loop_
 _atom_site_type_symbol
 _atom_site_label
 _atom_site_symmetry_multiplicity
 _atom_site_fract_x
 _atom_site_fract_y
 _atom_site_fract_z
 _atom_site_occupancy
  Al  Al0  1  0.877645  0.127645  0.755290  1
  Al  Al1  1  0.122355  0.872355  0.244710  1
  Co  Co2  1  0.500000  0.000000  0.000000  1
  Co  Co3  1  0.500000  0.500000  0.000000  1
  Co  Co4  1  0.000000  0.500000  0.500000  1
  Co  Co5  1  0.500000  0.500000  0.500000  1
  O  O6  1  0.720501  0.464833  0.821542  1
  O  O7  1  0.101041  0.856708  0.821542  1
  O  O8  1  0.279499  0.535167  0.178458  1
  O  O9  1  0.898959  0.143292  0.178458  1
  O  O10  1  0.462914  0.101292  0.320388  1
  O  O11  1  0.857474  0.719096  0.320388  1
  O  O12  1  0.142526  0.280904  0.679612  1
  O  O13  1  0.537086  0.898708  0.679612  1
