# generated using pymatgen
data_ZnCr2O4
_symmetry_space_group_name_H-M   'P 1'
_cell_length_a   5.98626492
_cell_length_b   5.98626464
_cell_length_c   6.03827366
_cell_angle_alpha   59.71218044
_cell_angle_beta   59.71218302
_cell_angle_gamma   62.86417975
_symmetry_Int_Tables_number   1
_chemical_formula_structural   ZnCr2O4
_chemical_formula_sum   'Zn2 Cr4 O8'
_cell_volume   155.32619505
_cell_formula_units_Z   2
loop_
 _symmetry_equiv_pos_site_id
 _symmetry_equiv_pos_as_xyz
  1  'x, y, z'
loop_
 _atom_site_type_symbol
 _atom_site_label
 _atom_site_symmetry_multiplicity
 _atom_site_fract_x
 _atom_site_fract_y
 _atom_site_fract_z
 _atom_site_occupancy
  Zn  Zn0  1  0.125000  0.625000  0.625000  1
  Zn  Zn1  1  0.625000  0.125000  0.625000  1
  Cr  Cr2  1  0.000898  0.000898  0.999102  1
  Cr  Cr3  1  0.249102  0.249102  0.250898  1
  Cr  Cr4  1  0.625000  0.625000  0.125000  1
  Cr  Cr5  1  0.625000  0.625000  0.625000  1
  O  O6  1  0.378770  0.378770  0.383980  1
  O  O7  1  0.413455  0.852629  0.366958  1
  O  O8  1  0.378770  0.378770  0.858480  1
  O  O9  1  0.852629  0.413455  0.366958  1
  O  O10  1  0.397371  0.836545  0.883042  1
  O  O11  1  0.836545  0.397371  0.883042  1
  O  O12  1  0.871230  0.871230  0.391520  1
  O  O13  1  0.871230  0.871230  0.866020  1
