# generated using pymatgen
data_MgMo2O5
_symmetry_space_group_name_H-M   'P 1'
_cell_length_a   3.23808718
_cell_length_b   5.16402464
_cell_length_c   12.34482188
_cell_angle_alpha   94.64182597
_cell_angle_beta   90.54623891
_cell_angle_gamma   90.85783956
_symmetry_Int_Tables_number   1
_chemical_formula_structural   MgMo2O5
_chemical_formula_sum   'Mg2 Mo4 O10'
_cell_volume   205.71262741
_cell_formula_units_Z   2
loop_
 _symmetry_equiv_pos_site_id
 _symmetry_equiv_pos_as_xyz
  1  'x, y, z'
loop_
 _atom_site_type_symbol
 _atom_site_label
 _atom_site_symmetry_multiplicity
 _atom_site_fract_x
 _atom_site_fract_y
 _atom_site_fract_z
 _atom_site_occupancy
  Mg  Mg0  1  0.805358  0.886821  0.226127  1
  Mg  Mg1  1  0.265756  0.133384  0.761687  1
  Mo  Mo2  1  0.287098  0.401570  0.099787  1
  Mo  Mo3  1  0.756651  0.611900  0.895134  1
  Mo  Mo4  1  0.785756  0.592928  0.603782  1
  Mo  Mo5  1  0.268383  0.416342  0.388762  1
  O  O6  1  0.770034  0.375252  0.750506  1
  O  O7  1  0.299566  0.623289  0.247901  1
  O  O8  1  0.784014  0.656037  0.065202  1
  O  O9  1  0.256485  0.362662  0.934147  1
  O  O10  1  0.774634  0.660054  0.445986  1
  O  O11  1  0.282335  0.349091  0.551278  1
  O  O12  1  0.797879  0.191061  0.340334  1
  O  O13  1  0.254963  0.823188  0.652309  1
  O  O14  1  0.300326  0.840636  0.866885  1
  O  O15  1  0.308827  0.083001  0.153630  1
