# generated using pymatgen
data_CaV2O4
_symmetry_space_group_name_H-M   'P 1'
_cell_length_a   6.29879247
_cell_length_b   6.30472739
_cell_length_c   18.91855158
_cell_angle_alpha   59.95105702
_cell_angle_beta   60.25697824
_cell_angle_gamma   59.88870799
_symmetry_Int_Tables_number   1
_chemical_formula_structural   CaV2O4
_chemical_formula_sum   'Ca6 V12 O24'
_cell_volume   531.62274809
_cell_formula_units_Z   6
loop_
 _symmetry_equiv_pos_site_id
 _symmetry_equiv_pos_as_xyz
  1  'x, y, z'
loop_
 _atom_site_type_symbol
 _atom_site_label
 _atom_site_symmetry_multiplicity
 _atom_site_fract_x
 _atom_site_fract_y
 _atom_site_fract_z
 _atom_site_occupancy
  Ca  Ca0  1  0.122122  0.121845  0.044818  1
  Ca  Ca1  1  0.121115  0.122823  0.377528  1
  Ca  Ca2  1  0.499680  0.499997  0.000701  1
  Ca  Ca3  1  0.123897  0.123058  0.710219  1
  Ca  Ca4  1  0.879121  0.879994  0.287556  1
  Ca  Ca5  1  0.874115  0.874090  0.625853  1
  V  V6  1  0.000872  0.494755  0.169646  1
  V  V7  1  0.496055  0.494636  0.169929  1
  V  V8  1  0.000244  0.500771  0.499503  1
  V  V9  1  0.495121  0.000948  0.169989  1
  V  V10  1  0.500147  0.497185  0.334898  1
  V  V11  1  0.498847  0.500720  0.499338  1
  V  V12  1  0.010367  0.500239  0.831074  1
  V  V13  1  0.499222  0.001993  0.499050  1
  V  V14  1  0.498561  0.009412  0.831351  1
  V  V15  1  0.501147  0.505404  0.663028  1
  V  V16  1  0.500086  0.496931  0.831127  1
  V  V17  1  0.878357  0.877453  0.955543  1
  O  O18  1  0.246527  0.244856  0.103781  1
  O  O19  1  0.262972  0.261431  0.238144  1
  O  O20  1  0.244867  0.698203  0.103886  1
  O  O21  1  0.698433  0.243752  0.103901  1
  O  O22  1  0.310576  0.726556  0.244845  1
  O  O23  1  0.272623  0.272162  0.419915  1
  O  O24  1  0.732984  0.309033  0.242209  1
  O  O25  1  0.752306  0.752500  0.080762  1
  O  O26  1  0.260092  0.694807  0.427309  1
  O  O27  1  0.262866  0.257313  0.566817  1
  O  O28  1  0.728423  0.724798  0.245718  1
  O  O29  1  0.693986  0.273112  0.423671  1
  O  O30  1  0.302077  0.731523  0.575256  1
  O  O31  1  0.267914  0.280000  0.751758  1
  O  O32  1  0.736857  0.302953  0.573632  1
  O  O33  1  0.737733  0.742896  0.432376  1
  O  O34  1  0.268510  0.267174  0.897733  1
  O  O35  1  0.277030  0.695319  0.754212  1
  O  O36  1  0.728010  0.731408  0.579341  1
  O  O37  1  0.695075  0.267232  0.753209  1
  O  O38  1  0.264564  0.767186  0.903327  1
  O  O39  1  0.730439  0.731765  0.769990  1
  O  O40  1  0.758088  0.264645  0.903199  1
  O  O41  1  0.767971  0.757123  0.903859  1
