# generated using pymatgen
data_CaSn2(PO4)2
_symmetry_space_group_name_H-M   'P 1'
_cell_length_a   5.27865397
_cell_length_b   9.44528355
_cell_length_c   17.37777561
_cell_angle_alpha   86.78956690
_cell_angle_beta   81.26414954
_cell_angle_gamma   73.77360976
_symmetry_Int_Tables_number   1
_chemical_formula_structural   CaSn2(PO4)2
_chemical_formula_sum   'Ca4 Sn8 P8 O32'
_cell_volume   822.17875040
_cell_formula_units_Z   4
loop_
 _symmetry_equiv_pos_site_id
 _symmetry_equiv_pos_as_xyz
  1  'x, y, z'
loop_
 _atom_site_type_symbol
 _atom_site_label
 _atom_site_symmetry_multiplicity
 _atom_site_fract_x
 _atom_site_fract_y
 _atom_site_fract_z
 _atom_site_occupancy
  Ca  Ca0  1  0.468241  0.830225  0.837440  1
  Ca  Ca1  1  0.135905  0.669775  0.662560  1
  Ca  Ca2  1  0.864095  0.330225  0.337440  1
  Ca  Ca3  1  0.531759  0.169775  0.162560  1
  Sn  Sn4  1  0.182248  0.208550  0.978359  1
  Sn  Sn5  1  0.369155  0.291450  0.521641  1
  Sn  Sn6  1  0.817752  0.791450  0.021641  1
  Sn  Sn7  1  0.500000  0.500000  -0.000000  1
  Sn  Sn8  1  0.630845  0.708550  0.478359  1
  Sn  Sn9  1  0.677141  0.750000  0.250000  1
  Sn  Sn10  1  0.322859  0.250000  0.750000  1
  Sn  Sn11  1  0.000000  -0.000000  0.500000  1
  P  P12  1  0.050174  0.590494  0.865140  1
  P  P13  1  0.721322  0.428240  0.616467  1
  P  P14  1  0.949826  0.409506  0.134860  1
  P  P15  1  0.233971  0.928240  0.116467  1
  P  P16  1  0.494193  0.090494  0.365140  1
  P  P17  1  0.505807  0.909506  0.634860  1
  P  P18  1  0.278678  0.571760  0.383533  1
  P  P19  1  0.766029  0.071760  0.883533  1
  O  O20  1  0.746581  0.339008  0.105943  1
  O  O21  1  0.673223  0.934210  0.919649  1
  O  O22  1  0.808468  0.839008  0.605943  1
  O  O23  1  0.766804  0.299002  0.557866  1
  O  O24  1  0.204182  0.375127  0.069055  1
  O  O25  1  0.563502  0.398965  0.695979  1
  O  O26  1  0.623673  0.200998  0.942134  1
  O  O27  1  0.928197  0.963654  0.125424  1
  O  O28  1  0.233196  0.700998  0.442134  1
  O  O29  1  0.527083  0.565790  0.580351  1
  O  O30  1  0.829465  0.576737  0.140688  1
  O  O31  1  0.591264  0.169002  0.290623  1
  O  O32  1  0.326777  0.065790  0.080351  1
  O  O33  1  0.982726  0.463654  0.625424  1
  O  O34  1  0.253418  0.660992  0.894057  1
  O  O35  1  0.170535  0.423263  0.859312  1
  O  O36  1  0.949111  0.669002  0.790623  1
  O  O37  1  0.376327  0.799002  0.057866  1
  O  O38  1  0.453110  0.076737  0.640688  1
  O  O39  1  0.408736  0.830998  0.709377  1
  O  O40  1  0.017274  0.536346  0.374576  1
  O  O41  1  0.351635  0.875127  0.569055  1
  O  O42  1  0.071803  0.036346  0.874576  1
  O  O43  1  0.341554  0.898965  0.195979  1
  O  O44  1  0.472917  0.434210  0.419649  1
  O  O45  1  0.191532  0.160992  0.394057  1
  O  O46  1  0.050889  0.330998  0.209377  1
  O  O47  1  0.648365  0.124873  0.430945  1
  O  O48  1  0.795818  0.624873  0.930945  1
  O  O49  1  0.658446  0.101035  0.804021  1
  O  O50  1  0.436498  0.601035  0.304021  1
  O  O51  1  0.546890  0.923263  0.359312  1
