# generated using pymatgen
data_Mg4Cu5(TeO6)3
_symmetry_space_group_name_H-M   'P 1'
_cell_length_a   8.75704135
_cell_length_b   8.75704171
_cell_length_c   10.44080009
_cell_angle_alpha   84.36390043
_cell_angle_beta   84.36389825
_cell_angle_gamma   60.85166449
_symmetry_Int_Tables_number   1
_chemical_formula_structural   Mg4Cu5(TeO6)3
_chemical_formula_sum   'Mg8 Cu10 Te6 O36'
_cell_volume   694.71620948
_cell_formula_units_Z   2
loop_
 _symmetry_equiv_pos_site_id
 _symmetry_equiv_pos_as_xyz
  1  'x, y, z'
loop_
 _atom_site_type_symbol
 _atom_site_label
 _atom_site_symmetry_multiplicity
 _atom_site_fract_x
 _atom_site_fract_y
 _atom_site_fract_z
 _atom_site_occupancy
  Mg  Mg0  1  0.868766  0.532980  0.331206  1
  Mg  Mg1  1  0.480739  0.556080  0.215355  1
  Mg  Mg2  1  0.467020  0.131234  0.668794  1
  Mg  Mg3  1  0.443920  0.519261  0.784645  1
  Mg  Mg4  1  0.164600  0.872680  0.715486  1
  Mg  Mg5  1  0.141488  0.260029  0.831200  1
  Mg  Mg6  1  0.739971  0.858512  0.168800  1
  Mg  Mg7  1  0.127320  0.835400  0.284514  1
  Cu  Cu8  1  0.788871  0.513572  0.986748  1
  Cu  Cu9  1  0.121803  0.180699  0.486229  1
  Cu  Cu10  1  0.334055  0.336467  0.304194  1
  Cu  Cu11  1  0.945790  0.725467  0.803978  1
  Cu  Cu12  1  0.663533  0.665945  0.695806  1
  Cu  Cu13  1  0.972708  0.027292  0.000000  1
  Cu  Cu14  1  0.635239  0.364761  0.500000  1
  Cu  Cu15  1  0.274533  0.054211  0.196022  1
  Cu  Cu16  1  0.819301  0.878197  0.513771  1
  Cu  Cu17  1  0.486428  0.211129  0.013252  1
  Te  Te18  1  0.453201  0.861323  0.947699  1
  Te  Te19  1  0.804139  0.195695  0.250099  1
  Te  Te20  1  0.804305  0.195861  0.749901  1
  Te  Te21  1  0.469388  0.844995  0.447598  1
  Te  Te22  1  0.155005  0.530612  0.552402  1
  Te  Te23  1  0.138677  0.546799  0.052301  1
  O  O24  1  0.390071  0.076560  0.844015  1
  O  O25  1  0.706187  0.436663  0.800051  1
  O  O26  1  0.571561  0.622854  0.549987  1
  O  O27  1  0.739894  0.112202  0.416267  1
  O  O28  1  0.563337  0.293813  0.199949  1
  O  O29  1  0.887798  0.260106  0.583733  1
  O  O30  1  0.379268  0.766906  0.322014  1
  O  O31  1  0.032124  0.109376  0.824894  1
  O  O32  1  0.575944  0.283014  0.674450  1
  O  O33  1  0.083873  0.419227  0.424295  1
  O  O34  1  0.553727  0.644394  0.055403  1
  O  O35  1  0.524024  0.973250  0.076140  1
  O  O36  1  0.902196  0.954579  0.700142  1
  O  O37  1  0.692095  0.740971  0.862301  1
  O  O38  1  0.355606  0.446273  0.944597  1
  O  O39  1  0.229071  0.624846  0.177855  1
  O  O40  1  0.054967  0.746959  0.444378  1
  O  O41  1  0.259029  0.307905  0.137699  1
  O  O42  1  0.377146  0.428439  0.450013  1
  O  O43  1  0.253040  0.945033  0.555622  1
  O  O44  1  0.684804  0.781453  0.344161  1
  O  O45  1  0.916413  0.650253  0.637705  1
  O  O46  1  0.890624  0.967876  0.175106  1
  O  O47  1  0.375154  0.770929  0.822145  1
  O  O48  1  0.036619  0.768729  0.950003  1
  O  O49  1  0.719616  0.132228  0.917110  1
  O  O50  1  0.026750  0.475976  0.923860  1
  O  O51  1  0.233094  0.620732  0.677986  1
  O  O52  1  0.045421  0.097804  0.299858  1
  O  O53  1  0.349747  0.083587  0.362295  1
  O  O54  1  0.218547  0.315196  0.655839  1
  O  O55  1  0.867772  0.280384  0.082890  1
  O  O56  1  0.716986  0.424056  0.325550  1
  O  O57  1  0.580773  0.916127  0.575705  1
  O  O58  1  0.231271  0.963381  0.049997  1
  O  O59  1  0.923440  0.609929  0.155985  1
