# generated using pymatgen
data_YSbO3
_symmetry_space_group_name_H-M   'P 1'
_cell_length_a   6.52334715
_cell_length_b   6.52334676
_cell_length_c   12.65341944
_cell_angle_alpha   90.00000000
_cell_angle_beta   90.00000000
_cell_angle_gamma   120.00000194
_symmetry_Int_Tables_number   1
_chemical_formula_structural   YSbO3
_chemical_formula_sum   'Y6 Sb6 O18'
_cell_volume   466.31510465
_cell_formula_units_Z   6
loop_
 _symmetry_equiv_pos_site_id
 _symmetry_equiv_pos_as_xyz
  1  'x, y, z'
loop_
 _atom_site_type_symbol
 _atom_site_label
 _atom_site_symmetry_multiplicity
 _atom_site_fract_x
 _atom_site_fract_y
 _atom_site_fract_z
 _atom_site_occupancy
  Y  Y0  1  0.666667  0.333333  0.236200  1
  Y  Y1  1  0.333333  0.666667  0.736200  1
  Y  Y2  1  0.666667  0.333333  0.736200  1
  Y  Y3  1  0.333333  0.666667  0.236200  1
  Y  Y4  1  0.000000  0.000000  0.768239  1
  Y  Y5  1  0.000000  0.000000  0.268239  1
  Sb  Sb6  1  0.666617  0.000000  0.500675  1
  Sb  Sb7  1  0.666617  0.666617  0.000675  1
  Sb  Sb8  1  1.000000  0.333383  0.000675  1
  Sb  Sb9  1  0.000000  0.666617  0.500675  1
  Sb  Sb10  1  0.333383  0.333383  0.500675  1
  Sb  Sb11  1  0.333383  0.000000  0.000675  1
  O  O12  1  0.666667  0.333333  0.028846  1
  O  O13  1  0.333333  0.666667  0.528846  1
  O  O14  1  0.666667  0.333333  0.528846  1
  O  O15  1  0.333333  0.666667  0.028846  1
  O  O16  1  0.000000  0.000000  0.967161  1
  O  O17  1  0.000000  0.000000  0.467161  1
  O  O18  1  0.360645  0.000000  0.825951  1
  O  O19  1  0.360645  0.360645  0.325951  1
  O  O20  1  0.000000  0.639355  0.325951  1
  O  O21  1  1.000000  0.360645  0.825951  1
  O  O22  1  0.639355  0.639355  0.825951  1
  O  O23  1  0.639355  0.000000  0.325951  1
  O  O24  1  0.308511  0.000000  0.176543  1
  O  O25  1  0.308511  0.308511  0.676543  1
  O  O26  1  1.000000  0.691489  0.676543  1
  O  O27  1  0.000000  0.308511  0.176543  1
  O  O28  1  0.691489  0.691489  0.176543  1
  O  O29  1  0.691489  0.000000  0.676543  1
