# generated using pymatgen
data_Ca4Te3W5O18
_symmetry_space_group_name_H-M   'P 1'
_cell_length_a   10.33049027
_cell_length_b   10.33048985
_cell_length_c   10.03593668
_cell_angle_alpha   89.13513488
_cell_angle_beta   89.13513472
_cell_angle_gamma   67.55571841
_symmetry_Int_Tables_number   1
_chemical_formula_structural   Ca4Te3W5O18
_chemical_formula_sum   'Ca8 Te6 W10 O36'
_cell_volume   989.73330462
_cell_formula_units_Z   2
loop_
 _symmetry_equiv_pos_site_id
 _symmetry_equiv_pos_as_xyz
  1  'x, y, z'
loop_
 _atom_site_type_symbol
 _atom_site_label
 _atom_site_symmetry_multiplicity
 _atom_site_fract_x
 _atom_site_fract_y
 _atom_site_fract_z
 _atom_site_occupancy
  Ca  Ca0  1  0.887848  0.527745  0.366554  1
  Ca  Ca1  1  0.540489  0.469777  0.194470  1
  Ca  Ca2  1  0.472255  0.112152  0.633446  1
  Ca  Ca3  1  0.530223  0.459511  0.805530  1
  Ca  Ca4  1  0.065530  0.936153  0.687341  1
  Ca  Ca5  1  0.137531  0.269181  0.866942  1
  Ca  Ca6  1  0.730819  0.862469  0.133058  1
  Ca  Ca7  1  0.063847  0.934470  0.312659  1
  Te  Te8  1  0.341903  0.809547  0.948912  1
  Te  Te9  1  0.800309  0.205389  0.258480  1
  Te  Te10  1  0.794611  0.199691  0.741520  1
  Te  Te11  1  0.413268  0.738570  0.450004  1
  Te  Te12  1  0.261430  0.586732  0.549996  1
  Te  Te13  1  0.190453  0.658097  0.051088  1
  W  W14  1  0.829567  0.524041  0.987319  1
  W  W15  1  0.137405  0.217928  0.484190  1
  W  W16  1  0.326457  0.336969  0.284483  1
  W  W17  1  0.946254  0.714896  0.789612  1
  W  W18  1  0.663031  0.673543  0.715517  1
  W  W19  1  0.961872  0.038128  0.000000  1
  W  W20  1  0.641897  0.358103  0.500000  1
  W  W21  1  0.285104  0.053747  0.210388  1
  W  W22  1  0.782072  0.862595  0.515810  1
  W  W23  1  0.475959  0.170433  0.012681  1
  O  O24  1  0.383950  0.130919  0.869667  1
  O  O25  1  0.760316  0.498336  0.804941  1
  O  O26  1  0.612903  0.546468  0.587290  1
  O  O27  1  0.667741  0.042023  0.485005  1
  O  O28  1  0.501664  0.239684  0.195059  1
  O  O29  1  0.957977  0.332259  0.514995  1
  O  O30  1  0.304266  0.868165  0.295712  1
  O  O31  1  0.025681  0.115452  0.833916  1
  O  O32  1  0.571573  0.275530  0.660949  1
  O  O33  1  0.142669  0.393686  0.365832  1
  O  O34  1  0.654663  0.537068  0.042021  1
  O  O35  1  0.471228  0.996040  0.133657  1
  O  O36  1  0.847194  0.890157  0.700075  1
  O  O37  1  0.755392  0.731245  0.883136  1
  O  O38  1  0.462932  0.345337  0.957979  1
  O  O39  1  0.303083  0.523927  0.200586  1
  O  O40  1  0.956418  0.857472  0.465521  1
  O  O41  1  0.268755  0.244608  0.116864  1
  O  O42  1  0.453532  0.387097  0.412710  1
  O  O43  1  0.142528  0.043582  0.534479  1
  O  O44  1  0.749907  0.769634  0.370026  1
  O  O45  1  0.855046  0.657141  0.622111  1
  O  O46  1  0.884548  0.974319  0.166084  1
  O  O47  1  0.476073  0.696917  0.799414  1
  O  O48  1  0.989683  0.847583  0.919277  1
  O  O49  1  0.658387  0.060595  0.984634  1
  O  O50  1  0.003960  0.528772  0.866343  1
  O  O51  1  0.131835  0.695734  0.704288  1
  O  O52  1  0.109843  0.152806  0.299925  1
  O  O53  1  0.342859  0.144954  0.377889  1
  O  O54  1  0.230366  0.250093  0.629974  1
  O  O55  1  0.939405  0.341613  0.015366  1
  O  O56  1  0.724470  0.428427  0.339051  1
  O  O57  1  0.606314  0.857331  0.634168  1
  O  O58  1  0.152417  0.010317  0.080723  1
  O  O59  1  0.869081  0.616050  0.130333  1
