# generated using pymatgen
data_LaCrAgO6
_symmetry_space_group_name_H-M   'P 1'
_cell_length_a   4.61538387
_cell_length_b   7.10598373
_cell_length_c   8.69269393
_cell_angle_alpha   90.00000000
_cell_angle_beta   79.60382664
_cell_angle_gamma   90.00000000
_symmetry_Int_Tables_number   1
_chemical_formula_structural   LaCrAgO6
_chemical_formula_sum   'La2 Cr2 Ag2 O12'
_cell_volume   280.41269459
_cell_formula_units_Z   2
loop_
 _symmetry_equiv_pos_site_id
 _symmetry_equiv_pos_as_xyz
  1  'x, y, z'
loop_
 _atom_site_type_symbol
 _atom_site_label
 _atom_site_symmetry_multiplicity
 _atom_site_fract_x
 _atom_site_fract_y
 _atom_site_fract_z
 _atom_site_occupancy
  La  La0  1  0.086003  0.843703  0.763543  1
  La  La1  1  0.586003  0.656297  0.263543  1
  Cr  Cr2  1  0.513528  0.089855  0.430100  1
  Cr  Cr3  1  0.013528  0.410145  0.930100  1
  Ag  Ag4  1  0.502036  0.031044  0.010871  1
  Ag  Ag5  1  0.002036  0.468956  0.510871  1
  O  O6  1  0.083401  0.552811  0.289459  1
  O  O7  1  0.183924  0.200779  0.926659  1
  O  O8  1  0.215288  0.102109  0.567824  1
  O  O9  1  0.223939  0.587031  0.966260  1
  O  O10  1  0.298652  0.661871  0.535409  1
  O  O11  1  0.403259  0.032351  0.260081  1
  O  O12  1  0.583401  0.947189  0.789459  1
  O  O13  1  0.683924  0.299221  0.426658  1
  O  O14  1  0.715288  0.397891  0.067824  1
  O  O15  1  0.723939  0.912969  0.466260  1
  O  O16  1  0.798652  0.838129  0.035409  1
  O  O17  1  0.903259  0.467649  0.760081  1
