# generated using pymatgen
data_Ti2ZnO4
_symmetry_space_group_name_H-M   'P 1'
_cell_length_a   6.12795512
_cell_length_b   5.95940844
_cell_length_c   24.04420479
_cell_angle_alpha   60.28379153
_cell_angle_beta   60.58921275
_cell_angle_gamma   60.90574807
_symmetry_Int_Tables_number   1
_chemical_formula_structural   Ti2ZnO4
_chemical_formula_sum   'Ti16 Zn8 O32'
_cell_volume   629.16760578
_cell_formula_units_Z   8
loop_
 _symmetry_equiv_pos_site_id
 _symmetry_equiv_pos_as_xyz
  1  'x, y, z'
loop_
 _atom_site_type_symbol
 _atom_site_label
 _atom_site_symmetry_multiplicity
 _atom_site_fract_x
 _atom_site_fract_y
 _atom_site_fract_z
 _atom_site_occupancy
  Ti  Ti0  1  0.495696  0.508702  0.127485  1
  Ti  Ti1  1  0.498344  0.510624  0.245102  1
  Ti  Ti2  1  0.495696  0.985663  0.127485  1
  Ti  Ti3  1  0.123067  0.118443  0.535011  1
  Ti  Ti4  1  0.492260  0.491330  0.371211  1
  Ti  Ti5  1  0.859850  0.878621  0.220727  1
  Ti  Ti6  1  0.123357  0.120536  0.783893  1
  Ti  Ti7  1  0.492260  0.031564  0.371211  1
  Ti  Ti8  1  0.501436  0.512992  0.624867  1
  Ti  Ti9  1  0.881388  0.884171  0.462567  1
  Ti  Ti10  1  0.501436  0.986104  0.624867  1
  Ti  Ti11  1  0.501626  0.966304  0.880733  1
  Ti  Ti12  1  0.501626  0.509138  0.880733  1
  Ti  Ti13  1  0.869615  0.880311  0.717440  1
  Ti  Ti14  1  0.495145  0.508297  0.997065  1
  Ti  Ti15  1  0.857728  0.875615  0.972760  1
  Zn  Zn16  1  0.110272  0.131273  0.031796  1
  Zn  Zn17  1  0.021876  0.493626  0.122718  1
  Zn  Zn18  1  0.125952  0.127558  0.279733  1
  Zn  Zn19  1  0.993702  0.509410  0.371870  1
  Zn  Zn20  1  0.002977  0.497749  0.625381  1
  Zn  Zn21  1  0.500344  0.503919  0.497955  1
  Zn  Zn22  1  0.018525  0.487341  0.876698  1
  Zn  Zn23  1  0.508084  0.488836  0.753560  1
  O  O24  1  0.280023  0.245638  0.062473  1
  O  O25  1  0.276609  0.251245  0.180225  1
  O  O26  1  0.280023  0.724447  0.062473  1
  O  O27  1  0.715693  0.261385  0.065385  1
  O  O28  1  0.230238  0.755449  0.189715  1
  O  O29  1  0.265714  0.258697  0.313019  1
  O  O30  1  0.742197  0.263402  0.186182  1
  O  O31  1  0.259889  0.243126  0.438464  1
  O  O32  1  0.265714  0.723514  0.313019  1
  O  O33  1  0.745744  0.741086  0.068021  1
  O  O34  1  0.736061  0.261493  0.310239  1
  O  O35  1  0.742197  0.749672  0.186182  1
  O  O36  1  0.258228  0.249861  0.565283  1
  O  O37  1  0.259070  0.754960  0.432752  1
  O  O38  1  0.740273  0.269193  0.433192  1
  O  O39  1  0.261553  0.244060  0.687582  1
  O  O40  1  0.258228  0.730779  0.565283  1
  O  O41  1  0.729405  0.752187  0.316555  1
  O  O42  1  0.742181  0.246984  0.565963  1
  O  O43  1  0.740273  0.757767  0.433192  1
  O  O44  1  0.246525  0.755737  0.685500  1
  O  O45  1  0.263304  0.240212  0.814542  1
  O  O46  1  0.741210  0.267715  0.685040  1
  O  O47  1  0.280746  0.250403  0.929612  1
  O  O48  1  0.263304  0.738313  0.814542  1
  O  O49  1  0.744713  0.759109  0.559267  1
  O  O50  1  0.749423  0.241731  0.816779  1
  O  O51  1  0.741210  0.750918  0.685040  1
  O  O52  1  0.225821  0.752429  0.942330  1
  O  O53  1  0.747775  0.259701  0.937438  1
  O  O54  1  0.746618  0.747886  0.814402  1
  O  O55  1  0.747775  0.742771  0.937438  1
