# generated using pymatgen
data_CaSn2P2O9
_symmetry_space_group_name_H-M   'P 1'
_cell_length_a   6.72819060
_cell_length_b   8.18147011
_cell_length_c   15.63062616
_cell_angle_alpha   90.00358073
_cell_angle_beta   89.99975518
_cell_angle_gamma   90.00009530
_symmetry_Int_Tables_number   1
_chemical_formula_structural   CaSn2P2O9
_chemical_formula_sum   'Ca4 Sn8 P8 O36'
_cell_volume   860.41110973
_cell_formula_units_Z   4
loop_
 _symmetry_equiv_pos_site_id
 _symmetry_equiv_pos_as_xyz
  1  'x, y, z'
loop_
 _atom_site_type_symbol
 _atom_site_label
 _atom_site_symmetry_multiplicity
 _atom_site_fract_x
 _atom_site_fract_y
 _atom_site_fract_z
 _atom_site_occupancy
  Ca  Ca0  1  0.750002  0.954709  0.777549  1
  Ca  Ca1  1  0.749997  0.545026  0.277600  1
  Ca  Ca2  1  0.249993  0.454711  0.722446  1
  Ca  Ca3  1  0.250002  0.045037  0.222373  1
  Sn  Sn4  1  0.750001  0.363844  0.884336  1
  Sn  Sn5  1  0.249996  0.635966  0.115675  1
  Sn  Sn6  1  0.250000  0.863846  0.615656  1
  Sn  Sn7  1  0.750001  0.135901  0.384339  1
  Sn  Sn8  1  0.499932  0.999992  0.000048  1
  Sn  Sn9  1  0.500066  0.499982  0.499953  1
  Sn  Sn10  1  0.999934  0.499982  0.499953  1
  Sn  Sn11  1  0.000075  0.000042  0.000040  1
  P  P12  1  0.250001  0.388147  0.934375  1
  P  P13  1  0.749999  0.611945  0.065700  1
  P  P14  1  0.750001  0.888089  0.565631  1
  P  P15  1  0.250001  0.111940  0.434300  1
  P  P16  1  0.750000  0.392352  0.705254  1
  P  P17  1  0.750005  0.107757  0.205142  1
  P  P18  1  0.249999  0.892306  0.794753  1
  P  P19  1  0.249995  0.607718  0.294850  1
  O  O20  1  0.057320  0.591134  0.347092  1
  O  O21  1  0.557321  0.408872  0.653030  1
  O  O22  1  0.942677  0.091199  0.152896  1
  O  O23  1  0.442676  0.908829  0.846974  1
  O  O24  1  0.942672  0.408872  0.653028  1
  O  O25  1  0.442672  0.591134  0.347094  1
  O  O26  1  0.057326  0.908833  0.846977  1
  O  O27  1  0.557338  0.091192  0.152893  1
  O  O28  1  0.250001  0.272136  0.485220  1
  O  O29  1  0.750002  0.728354  0.514346  1
  O  O30  1  0.749996  0.772149  0.014791  1
  O  O31  1  0.249999  0.228414  0.985653  1
  O  O32  1  0.750007  0.133813  0.921839  1
  O  O33  1  0.250005  0.866132  0.078493  1
  O  O34  1  0.250000  0.633843  0.578119  1
  O  O35  1  0.749999  0.366033  0.421565  1
  O  O36  1  0.750001  0.228717  0.756977  1
  O  O37  1  0.249999  0.771314  0.243182  1
  O  O38  1  0.249994  0.728683  0.743015  1
  O  O39  1  0.749999  0.271322  0.256840  1
  O  O40  1  0.431061  0.099058  0.371094  1
  O  O41  1  0.931019  0.900554  0.628884  1
  O  O42  1  0.568935  0.599064  0.128906  1
  O  O43  1  0.068977  0.400598  0.871122  1
  O  O44  1  0.568981  0.900551  0.628883  1
  O  O45  1  0.068941  0.099058  0.371094  1
  O  O46  1  0.431027  0.400598  0.871124  1
  O  O47  1  0.931062  0.599068  0.128906  1
  O  O48  1  0.750006  0.461463  0.005136  1
  O  O49  1  0.250001  0.024333  0.719133  1
  O  O50  1  0.249998  0.475676  0.219224  1
  O  O51  1  0.750002  0.524366  0.780882  1
  O  O52  1  0.750002  0.039062  0.505356  1
  O  O53  1  0.250000  0.961469  0.494862  1
  O  O54  1  0.250002  0.539133  0.994650  1
  O  O55  1  0.750001  0.975679  0.280746  1
