# generated using pymatgen
data_CaFe4(CuO4)3
_symmetry_space_group_name_H-M   'P 1'
_cell_length_a   6.43700412
_cell_length_b   6.43708493
_cell_length_c   6.43687161
_cell_angle_alpha   109.47742165
_cell_angle_beta   109.45763249
_cell_angle_gamma   109.47693630
_symmetry_Int_Tables_number   1
_chemical_formula_structural   CaFe4(CuO4)3
_chemical_formula_sum   'Ca1 Fe4 Cu3 O12'
_cell_volume   205.32173608
_cell_formula_units_Z   1
loop_
 _symmetry_equiv_pos_site_id
 _symmetry_equiv_pos_as_xyz
  1  'x, y, z'
loop_
 _atom_site_type_symbol
 _atom_site_label
 _atom_site_symmetry_multiplicity
 _atom_site_fract_x
 _atom_site_fract_y
 _atom_site_fract_z
 _atom_site_occupancy
  Ca  Ca0  1  0.999995  0.000002  -0.000001  1
  Fe  Fe1  1  -0.000003  0.000005  0.499998  1
  Fe  Fe2  1  0.999996  0.499995  0.000002  1
  Fe  Fe3  1  0.499987  0.500003  0.499996  1
  Fe  Fe4  1  0.500004  0.999996  0.999994  1
  Cu  Cu5  1  0.499999  0.499995  -0.000002  1
  Cu  Cu6  1  -0.000000  0.499997  0.499999  1
  Cu  Cu7  1  0.500006  0.999999  0.500005  1
  O  O8  1  0.831744  0.313094  0.144857  1
  O  O9  1  0.168251  0.686910  0.855145  1
  O  O10  1  0.831735  0.686873  0.518595  1
  O  O11  1  0.313126  0.481374  0.168274  1
  O  O12  1  0.481416  0.168307  0.313151  1
  O  O13  1  0.144851  0.831744  0.313151  1
  O  O14  1  0.686878  0.855151  0.168291  1
  O  O15  1  0.518596  0.831697  0.686851  1
  O  O16  1  0.168266  0.313128  0.481410  1
  O  O17  1  0.686878  0.518630  0.831725  1
  O  O18  1  0.855149  0.168251  0.686847  1
  O  O19  1  0.313123  0.144850  0.831711  1
