# generated using pymatgen
data_ZnCu2(NiO4)2
_symmetry_space_group_name_H-M   'P 1'
_cell_length_a   6.37411410
_cell_length_b   8.31920343
_cell_length_c   11.65946219
_cell_angle_alpha   90.00502093
_cell_angle_beta   91.79983127
_cell_angle_gamma   89.99864181
_symmetry_Int_Tables_number   1
_chemical_formula_structural   ZnCu2(NiO4)2
_chemical_formula_sum   'Zn4 Cu8 Ni8 O32'
_cell_volume   617.96771018
_cell_formula_units_Z   4
loop_
 _symmetry_equiv_pos_site_id
 _symmetry_equiv_pos_as_xyz
  1  'x, y, z'
loop_
 _atom_site_type_symbol
 _atom_site_label
 _atom_site_symmetry_multiplicity
 _atom_site_fract_x
 _atom_site_fract_y
 _atom_site_fract_z
 _atom_site_occupancy
  Zn  Zn0  1  0.109178  0.158850  0.048007  1
  Zn  Zn1  1  0.890813  0.841135  0.951990  1
  Zn  Zn2  1  0.890821  0.658854  0.451994  1
  Zn  Zn3  1  0.109178  0.341127  0.548011  1
  Cu  Cu4  1  0.748371  0.190426  0.876172  1
  Cu  Cu5  1  0.382257  0.059821  0.623262  1
  Cu  Cu6  1  0.617746  0.940178  0.376729  1
  Cu  Cu7  1  0.251635  0.809580  0.123822  1
  Cu  Cu8  1  0.748348  0.309581  0.376161  1
  Cu  Cu9  1  0.382259  0.440184  0.123257  1
  Cu  Cu10  1  0.251640  0.690408  0.623848  1
  Cu  Cu11  1  0.617733  0.559815  0.876740  1
  Ni  Ni12  1  0.098595  0.462223  0.840227  1
  Ni  Ni13  1  0.098565  0.037777  0.340217  1
  Ni  Ni14  1  0.606133  0.091772  0.133558  1
  Ni  Ni15  1  0.901435  0.962227  0.659789  1
  Ni  Ni16  1  0.393872  0.908240  0.866430  1
  Ni  Ni17  1  0.393856  0.591743  0.366426  1
  Ni  Ni18  1  0.606135  0.408268  0.633582  1
  Ni  Ni19  1  0.901412  0.537799  0.159772  1
  O  O20  1  0.019685  0.237654  0.395804  1
  O  O21  1  0.657824  0.024066  0.586530  1
  O  O22  1  0.192357  0.577864  0.477200  1
  O  O23  1  0.807656  0.077871  0.022803  1
  O  O24  1  0.019648  0.262341  0.895827  1
  O  O25  1  0.980351  0.762356  0.604181  1
  O  O26  1  0.101386  0.112034  0.622639  1
  O  O27  1  0.518758  0.881527  0.142102  1
  O  O28  1  0.518724  0.618409  0.642070  1
  O  O29  1  0.325713  0.874736  0.711111  1
  O  O30  1  0.674285  0.374734  0.788890  1
  O  O31  1  0.481263  0.118449  0.857912  1
  O  O32  1  0.898579  0.887973  0.377358  1
  O  O33  1  0.854611  0.526987  0.309457  1
  O  O34  1  0.410444  0.269034  0.570895  1
  O  O35  1  0.410412  0.230957  0.070892  1
  O  O36  1  0.145399  0.026981  0.190555  1
  O  O37  1  0.481245  0.381595  0.357919  1
  O  O38  1  0.145400  0.473033  0.690548  1
  O  O39  1  0.807651  0.422144  0.522812  1
  O  O40  1  0.657833  0.475894  0.086552  1
  O  O41  1  0.674270  0.125227  0.288891  1
  O  O42  1  0.980342  0.737672  0.104193  1
  O  O43  1  0.101395  0.387952  0.122641  1
  O  O44  1  0.192364  0.922137  0.977203  1
  O  O45  1  0.589564  0.769040  0.929107  1
  O  O46  1  0.342210  0.975910  0.413451  1
  O  O47  1  0.342158  0.524080  0.913450  1
  O  O48  1  0.898602  0.612049  0.877356  1
  O  O49  1  0.589571  0.730990  0.429106  1
  O  O50  1  0.325720  0.625266  0.211110  1
  O  O51  1  0.854599  0.973030  0.809440  1
