# generated using pymatgen
data_Sr3Mn2Cu2S2O5
_symmetry_space_group_name_H-M   'P 1'
_cell_length_a   3.93917574
_cell_length_b   3.93917574
_cell_length_c   13.85902708
_cell_angle_alpha   98.17030383
_cell_angle_beta   98.17030383
_cell_angle_gamma   90.00000000
_symmetry_Int_Tables_number   1
_chemical_formula_structural   Sr3Mn2Cu2S2O5
_chemical_formula_sum   'Sr3 Mn2 Cu2 S2 O5'
_cell_volume   210.66382423
_cell_formula_units_Z   1
loop_
 _symmetry_equiv_pos_site_id
 _symmetry_equiv_pos_as_xyz
  1  'x, y, z'
loop_
 _atom_site_type_symbol
 _atom_site_label
 _atom_site_symmetry_multiplicity
 _atom_site_fract_x
 _atom_site_fract_y
 _atom_site_fract_z
 _atom_site_occupancy
  Sr  Sr0  1  0.500000  0.500000  -0.000000  1
  Sr  Sr1  1  0.640448  0.640448  0.280895  1
  Sr  Sr2  1  0.359552  0.359552  0.719105  1
  Mn  Mn3  1  0.073291  0.073291  0.146581  1
  Mn  Mn4  1  0.926709  0.926709  0.853419  1
  Cu  Cu5  1  0.250000  0.750000  0.500000  1
  Cu  Cu6  1  0.750000  0.250000  0.500000  1
  S  S7  1  0.198546  0.198546  0.397090  1
  S  S8  1  0.801454  0.801454  0.602910  1
  O  O9  1  0.082491  0.582491  0.164982  1
  O  O10  1  0.582491  0.082491  0.164982  1
  O  O11  1  0.917509  0.417509  0.835018  1
  O  O12  1  0.417509  0.917509  0.835018  1
  O  O13  1  -0.000000  -0.000000  -0.000000  1
