# generated using pymatgen
data_Ti4ZnO8
_symmetry_space_group_name_H-M   'P 1'
_cell_length_a   2.96084358
_cell_length_b   7.47346620
_cell_length_c   7.60880784
_cell_angle_alpha   79.55036842
_cell_angle_beta   78.78565872
_cell_angle_gamma   78.57519510
_symmetry_Int_Tables_number   1
_chemical_formula_structural   Ti4ZnO8
_chemical_formula_sum   'Ti4 Zn1 O8'
_cell_volume   160.08221524
_cell_formula_units_Z   1
loop_
 _symmetry_equiv_pos_site_id
 _symmetry_equiv_pos_as_xyz
  1  'x, y, z'
loop_
 _atom_site_type_symbol
 _atom_site_label
 _atom_site_symmetry_multiplicity
 _atom_site_fract_x
 _atom_site_fract_y
 _atom_site_fract_z
 _atom_site_occupancy
  Ti  Ti0  1  0.625257  0.174702  0.575068  1
  Ti  Ti1  1  0.142342  0.510801  0.204532  1
  Ti  Ti2  1  0.836851  0.486093  0.840375  1
  Ti  Ti3  1  0.354486  0.803616  0.487449  1
  Zn  Zn4  1  0.332261  0.134465  0.201151  1
  O  O5  1  0.856060  0.666575  0.621432  1
  O  O6  1  0.459177  0.327178  0.754475  1
  O  O7  1  0.530403  0.649685  0.289798  1
  O  O8  1  0.140386  0.303602  0.415828  1
  O  O9  1  0.174126  0.005799  0.645913  1
  O  O10  1  0.787525  0.326929  0.098293  1
  O  O11  1  0.838980  0.976629  0.345431  1
  O  O12  1  0.219628  0.610037  0.950901  1
