# generated using pymatgen
data_CaP3W3O13
_symmetry_space_group_name_H-M   'P 1'
_cell_length_a   6.72175357
_cell_length_b   7.86348738
_cell_length_c   10.75517654
_cell_angle_alpha   99.43506803
_cell_angle_beta   90.00000000
_cell_angle_gamma   90.00000000
_symmetry_Int_Tables_number   1
_chemical_formula_structural   CaP3W3O13
_chemical_formula_sum   'Ca2 P6 W6 O26'
_cell_volume   560.78978289
_cell_formula_units_Z   2
loop_
 _symmetry_equiv_pos_site_id
 _symmetry_equiv_pos_as_xyz
  1  'x, y, z'
loop_
 _atom_site_type_symbol
 _atom_site_label
 _atom_site_symmetry_multiplicity
 _atom_site_fract_x
 _atom_site_fract_y
 _atom_site_fract_z
 _atom_site_occupancy
  Ca  Ca0  1  0.750000  0.647067  0.193798  1
  Ca  Ca1  1  0.250000  0.352933  0.806203  1
  P  P2  1  0.250000  0.213944  0.494671  1
  P  P3  1  0.750000  0.786056  0.505329  1
  P  P4  1  0.250000  0.737169  0.766913  1
  P  P5  1  0.750000  0.262831  0.233087  1
  P  P6  1  0.750000  0.317265  0.888299  1
  P  P7  1  0.250000  0.682735  0.111701  1
  W  W8  1  0.250000  0.361082  0.206438  1
  W  W9  1  0.750000  0.638918  0.793562  1
  W  W10  1  0.250000  0.769835  0.442329  1
  W  W11  1  0.500000  0.000000  0.000000  1
  W  W12  1  0.750000  0.230165  0.557671  1
  W  W13  1  -0.000000  0.000000  0.000000  1
  O  O14  1  0.750000  0.354130  0.747837  1
  O  O15  1  0.569144  0.751254  0.413038  1
  O  O16  1  0.250000  0.802831  0.642217  1
  O  O17  1  0.554143  0.220281  0.904004  1
  O  O18  1  0.750000  0.654003  0.597157  1
  O  O19  1  0.750000  0.879395  0.904392  1
  O  O20  1  0.250000  0.345997  0.402843  1
  O  O21  1  0.054143  0.779719  0.095996  1
  O  O22  1  0.250000  0.029774  0.418365  1
  O  O23  1  0.750000  0.970226  0.581635  1
  O  O24  1  0.071362  0.619386  0.786545  1
  O  O25  1  0.250000  0.120605  0.095608  1
  O  O26  1  0.571362  0.380614  0.213455  1
  O  O27  1  0.750000  0.502676  0.965524  1
  O  O28  1  0.750000  0.197169  0.357783  1
  O  O29  1  0.445857  0.779719  0.095996  1
  O  O30  1  0.930856  0.751254  0.413038  1
  O  O31  1  0.430856  0.248746  0.586962  1
  O  O32  1  0.428638  0.619386  0.786545  1
  O  O33  1  0.250000  0.645870  0.252163  1
  O  O34  1  0.750000  0.098091  0.126162  1
  O  O35  1  0.250000  0.901909  0.873838  1
  O  O36  1  0.928638  0.380614  0.213455  1
  O  O37  1  0.945857  0.220281  0.904004  1
  O  O38  1  0.069144  0.248746  0.586962  1
  O  O39  1  0.250000  0.497324  0.034476  1
