# generated using pymatgen
data_Ba2Tl2Ni3O10
_symmetry_space_group_name_H-M   'P 1'
_cell_length_a   3.68127043
_cell_length_b   3.68817423
_cell_length_c   19.78587594
_cell_angle_alpha   93.64294234
_cell_angle_beta   94.58368382
_cell_angle_gamma   89.81491458
_symmetry_Int_Tables_number   1
_chemical_formula_structural   Ba2Tl2Ni3O10
_chemical_formula_sum   'Ba2 Tl2 Ni3 O10'
_cell_volume   267.23541695
_cell_formula_units_Z   1
loop_
 _symmetry_equiv_pos_site_id
 _symmetry_equiv_pos_as_xyz
  1  'x, y, z'
loop_
 _atom_site_type_symbol
 _atom_site_label
 _atom_site_symmetry_multiplicity
 _atom_site_fract_x
 _atom_site_fract_y
 _atom_site_fract_z
 _atom_site_occupancy
  Ba  Ba0  1  0.103624  0.166759  0.280531  1
  Ba  Ba1  1  0.804000  0.825857  0.718725  1
  Tl  Tl2  1  0.680943  0.724404  0.437921  1
  Tl  Tl3  1  0.236645  0.268027  0.561224  1
  Ni  Ni4  1  0.348212  0.365237  0.835747  1
  Ni  Ni5  1  0.548073  0.625602  0.163479  1
  Ni  Ni6  1  0.410917  0.524317  0.999823  1
  O  O7  1  0.342148  0.859480  0.817354  1
  O  O8  1  0.284772  0.306114  0.664093  1
  O  O9  1  0.841875  0.360744  0.819229  1
  O  O10  1  0.765347  0.762696  0.544507  1
  O  O11  1  0.909858  0.524685  0.004166  1
  O  O12  1  0.055290  0.632217  0.181502  1
  O  O13  1  0.633761  0.687156  0.335048  1
  O  O14  1  0.555897  0.131291  0.180439  1
  O  O15  1  0.226562  0.231939  0.454559  1
  O  O16  1  0.402539  0.022178  0.994706  1
