# generated using pymatgen
data_Ca2CuWO6
_symmetry_space_group_name_H-M   'P 1'
_cell_length_a   5.50964221
_cell_length_b   5.72160860
_cell_length_c   7.64119379
_cell_angle_alpha   90.00000000
_cell_angle_beta   90.25266820
_cell_angle_gamma   90.00000000
_symmetry_Int_Tables_number   1
_chemical_formula_structural   Ca2CuWO6
_chemical_formula_sum   'Ca4 Cu2 W2 O12'
_cell_volume   240.87877486
_cell_formula_units_Z   2
loop_
 _symmetry_equiv_pos_site_id
 _symmetry_equiv_pos_as_xyz
  1  'x, y, z'
loop_
 _atom_site_type_symbol
 _atom_site_label
 _atom_site_symmetry_multiplicity
 _atom_site_fract_x
 _atom_site_fract_y
 _atom_site_fract_z
 _atom_site_occupancy
  Ca  Ca0  1  0.986703  0.057347  0.252767  1
  Ca  Ca1  1  0.513297  0.557348  0.247233  1
  Ca  Ca2  1  0.013298  0.942654  0.747233  1
  Ca  Ca3  1  0.486702  0.442653  0.752767  1
  Cu  Cu4  1  0.500000  0.000000  0.000000  1
  Cu  Cu5  1  0.000001  0.499999  0.500000  1
  W  W6  1  0.500000  0.000000  0.499999  1
  W  W7  1  0.000000  0.499999  0.000000  1
  O  O8  1  0.685070  0.281449  0.446185  1
  O  O9  1  0.814930  0.781450  0.053815  1
  O  O10  1  0.314929  0.718551  0.553815  1
  O  O11  1  0.185071  0.218550  0.946185  1
  O  O12  1  0.213059  0.189002  0.546211  1
  O  O13  1  0.286941  0.689001  0.953789  1
  O  O14  1  0.786942  0.810998  0.453789  1
  O  O15  1  0.713058  0.310999  0.046211  1
  O  O16  1  0.095512  0.467383  0.246005  1
  O  O17  1  0.404489  0.967384  0.253994  1
  O  O18  1  0.595512  0.032616  0.746006  1
  O  O19  1  0.904489  0.532617  0.753995  1
