# generated using pymatgen
data_Be3Cu2(SiO4)3
_symmetry_space_group_name_H-M   'P 1'
_cell_length_a   7.55885629
_cell_length_b   8.01232169
_cell_length_c   13.77721808
_cell_angle_alpha   90.03143043
_cell_angle_beta   89.96022641
_cell_angle_gamma   90.03494954
_symmetry_Int_Tables_number   1
_chemical_formula_structural   Be3Cu2(SiO4)3
_chemical_formula_sum   'Be12 Cu8 Si12 O48'
_cell_volume   834.40279163
_cell_formula_units_Z   4
loop_
 _symmetry_equiv_pos_site_id
 _symmetry_equiv_pos_as_xyz
  1  'x, y, z'
loop_
 _atom_site_type_symbol
 _atom_site_label
 _atom_site_symmetry_multiplicity
 _atom_site_fract_x
 _atom_site_fract_y
 _atom_site_fract_z
 _atom_site_occupancy
  Be  Be0  1  0.847914  0.922645  0.766710  1
  Be  Be1  1  0.650954  0.931208  0.402638  1
  Be  Be2  1  0.150878  0.568808  0.097669  1
  Be  Be3  1  0.348369  0.069177  0.597528  1
  Be  Be4  1  0.849061  0.430787  0.902613  1
  Be  Be5  1  0.146542  0.614016  0.416413  1
  Be  Be6  1  0.647359  0.885876  0.083215  1
  Be  Be7  1  0.853130  0.386101  0.583561  1
  Be  Be8  1  0.352655  0.114692  0.916558  1
  Be  Be9  1  0.651608  0.423584  0.266878  1
  Be  Be10  1  0.152097  0.076765  0.233068  1
  Be  Be11  1  0.348350  0.576684  0.733192  1
  Cu  Cu12  1  0.457602  0.241808  0.091770  1
  Cu  Cu13  1  0.043418  0.742689  0.591297  1
  Cu  Cu14  1  0.541513  0.758923  0.908225  1
  Cu  Cu15  1  0.956762  0.257666  0.408558  1
  Cu  Cu16  1  0.560473  0.247559  0.428197  1
  Cu  Cu17  1  0.060800  0.252361  0.071626  1
  Cu  Cu18  1  0.439339  0.752701  0.572059  1
  Cu  Cu19  1  0.939031  0.746834  0.927991  1
  Si  Si20  1  0.224733  0.924993  0.768281  1
  Si  Si21  1  0.724918  0.575406  0.731510  1
  Si  Si22  1  0.775386  0.075583  0.231464  1
  Si  Si23  1  0.275318  0.424528  0.268662  1
  Si  Si24  1  0.736357  0.112865  0.923784  1
  Si  Si25  1  0.235720  0.386527  0.576117  1
  Si  Si26  1  0.263421  0.886680  0.076068  1
  Si  Si27  1  0.763792  0.613739  0.424041  1
  Si  Si28  1  0.234548  0.446705  0.902259  1
  Si  Si29  1  0.734045  0.053051  0.598142  1
  Si  Si30  1  0.766346  0.552974  0.097658  1
  Si  Si31  1  0.266093  0.946724  0.401872  1
  O  O32  1  0.117722  0.746809  0.041239  1
  O  O33  1  0.034443  0.901743  0.824738  1
  O  O34  1  0.534577  0.597593  0.675145  1
  O  O35  1  0.965836  0.097829  0.175167  1
  O  O36  1  0.465604  0.402740  0.324968  1
  O  O37  1  0.540590  0.181591  0.960495  1
  O  O38  1  0.040093  0.317760  0.539700  1
  O  O39  1  0.459235  0.817220  0.039579  1
  O  O40  1  0.959526  0.682382  0.460247  1
  O  O41  1  0.035659  0.528508  0.884361  1
  O  O42  1  0.534812  0.971894  0.615438  1
  O  O43  1  0.964846  0.471142  0.115924  1
  O  O44  1  0.123389  0.075910  0.351560  1
  O  O45  1  0.622795  0.424610  0.148288  1
  O  O46  1  0.876327  0.923739  0.648212  1
  O  O47  1  0.377355  0.575834  0.851950  1
  O  O48  1  0.618351  0.753389  0.459332  1
  O  O49  1  0.465005  0.028367  0.384464  1
  O  O50  1  0.380997  0.246929  0.540734  1
  O  O51  1  0.881653  0.252784  0.959008  1
  O  O52  1  0.755477  0.072507  0.476673  1
  O  O53  1  0.620717  0.058650  0.147389  1
  O  O54  1  0.879313  0.558924  0.647122  1
  O  O55  1  0.379107  0.941520  0.852535  1
  O  O56  1  0.733075  0.424144  0.808167  1
  O  O57  1  0.233231  0.075979  0.691849  1
  O  O58  1  0.267238  0.575745  0.191928  1
  O  O59  1  0.767697  0.924526  0.308405  1
  O  O60  1  0.739610  0.071806  0.809481  1
  O  O61  1  0.239162  0.428214  0.690192  1
  O  O62  1  0.260539  0.927715  0.190244  1
  O  O63  1  0.760788  0.572218  0.309855  1
  O  O64  1  0.249918  0.257743  0.864472  1
  O  O65  1  0.747166  0.243553  0.635147  1
  O  O66  1  0.751352  0.742761  0.135383  1
  O  O67  1  0.252462  0.756350  0.364669  1
  O  O68  1  0.740252  0.746900  0.802021  1
  O  O69  1  0.241204  0.752796  0.697970  1
  O  O70  1  0.260333  0.252772  0.198182  1
  O  O71  1  0.759342  0.247363  0.301904  1
  O  O72  1  0.761333  0.925143  0.977734  1
  O  O73  1  0.260964  0.574830  0.522302  1
  O  O74  1  0.237889  0.074280  0.021981  1
  O  O75  1  0.738293  0.425576  0.477830  1
  O  O76  1  0.745924  0.572133  0.976405  1
  O  O77  1  0.244613  0.927481  0.523243  1
  O  O78  1  0.254937  0.428103  0.023738  1
  O  O79  1  0.120717  0.440831  0.353002  1
