# generated using pymatgen
data_CaV(SiO3)2
_symmetry_space_group_name_H-M   'P 1'
_cell_length_a   5.32863439
_cell_length_b   6.79493020
_cell_length_c   6.79493042
_cell_angle_alpha   84.86841846
_cell_angle_beta   78.63650409
_cell_angle_gamma   78.63650814
_symmetry_Int_Tables_number   1
_chemical_formula_structural   CaV(SiO3)2
_chemical_formula_sum   'Ca2 V2 Si4 O12'
_cell_volume   236.14930289
_cell_formula_units_Z   2
loop_
 _symmetry_equiv_pos_site_id
 _symmetry_equiv_pos_as_xyz
  1  'x, y, z'
loop_
 _atom_site_type_symbol
 _atom_site_label
 _atom_site_symmetry_multiplicity
 _atom_site_fract_x
 _atom_site_fract_y
 _atom_site_fract_z
 _atom_site_occupancy
  Ca  Ca0  1  0.750000  0.295378  0.704622  1
  Ca  Ca1  1  0.250001  0.704622  0.295379  1
  V  V2  1  0.249999  0.092913  0.907088  1
  V  V3  1  0.749999  0.907089  0.092912  1
  Si  Si4  1  0.268614  0.196832  0.379592  1
  Si  Si5  1  0.231385  0.620408  0.803168  1
  Si  Si6  1  0.768614  0.379592  0.196832  1
  Si  Si7  1  0.731386  0.803168  0.620408  1
  O  O8  1  0.505666  0.331110  0.368307  1
  O  O9  1  0.994334  0.631692  0.668891  1
  O  O10  1  0.494335  0.668891  0.631693  1
  O  O11  1  0.005665  0.368308  0.331109  1
  O  O12  1  0.177633  0.115922  0.606341  1
  O  O13  1  0.322367  0.393658  0.884077  1
  O  O14  1  0.822367  0.884078  0.393659  1
  O  O15  1  0.677632  0.606341  0.115923  1
  O  O16  1  0.849279  0.209668  0.031743  1
  O  O17  1  0.650721  0.968257  0.790331  1
  O  O18  1  0.349278  0.031743  0.209669  1
  O  O19  1  0.150722  0.790332  0.968257  1
