# generated using pymatgen
data_Ca(CrS2)2
_symmetry_space_group_name_H-M   'P 1'
_cell_length_a   7.33590097
_cell_length_b   7.33590218
_cell_length_c   7.41638250
_cell_angle_alpha   119.20721801
_cell_angle_beta   120.46938388
_cell_angle_gamma   89.65828727
_symmetry_Int_Tables_number   1
_chemical_formula_structural   Ca(CrS2)2
_chemical_formula_sum   'Ca2 Cr4 S8'
_cell_volume   284.37497517
_cell_formula_units_Z   2
loop_
 _symmetry_equiv_pos_site_id
 _symmetry_equiv_pos_as_xyz
  1  'x, y, z'
loop_
 _atom_site_type_symbol
 _atom_site_label
 _atom_site_symmetry_multiplicity
 _atom_site_fract_x
 _atom_site_fract_y
 _atom_site_fract_z
 _atom_site_occupancy
  Ca  Ca0  1  0.000000  0.500001  0.000001  1
  Ca  Ca1  1  0.000001  0.000000  0.500000  1
  Cr  Cr2  1  0.372522  0.622522  0.750000  1
  Cr  Cr3  1  0.627478  0.377479  0.250000  1
  Cr  Cr4  1  0.500001  0.000000  0.500000  1
  Cr  Cr5  1  0.000000  0.000000  -0.000000  1
  S  S6  1  0.742386  0.761418  0.530183  1
  S  S7  1  0.731235  0.212205  0.969819  1
  S  S8  1  0.251518  0.228503  0.011937  1
  S  S9  1  0.257614  0.238582  0.469818  1
  S  S10  1  0.283434  0.760420  0.511936  1
  S  S11  1  0.268765  0.787796  0.030183  1
  S  S12  1  0.716565  0.239579  0.488063  1
  S  S13  1  0.748482  0.771498  0.988063  1
