# generated using pymatgen
data_V5O7
_symmetry_space_group_name_H-M   'P 1'
_cell_length_a   3.02673297
_cell_length_b   5.33441146
_cell_length_c   18.88380101
_cell_angle_alpha   90.00000000
_cell_angle_beta   90.00000000
_cell_angle_gamma   106.48108920
_symmetry_Int_Tables_number   1
_chemical_formula_structural   V5O7
_chemical_formula_sum   'V10 O14'
_cell_volume   292.36772786
_cell_formula_units_Z   2
loop_
 _symmetry_equiv_pos_site_id
 _symmetry_equiv_pos_as_xyz
  1  'x, y, z'
loop_
 _atom_site_type_symbol
 _atom_site_label
 _atom_site_symmetry_multiplicity
 _atom_site_fract_x
 _atom_site_fract_y
 _atom_site_fract_z
 _atom_site_occupancy
  V  V0  1  0.264336  0.528669  0.576063  1
  V  V1  1  0.000000  0.000000  0.500000  1
  V  V2  1  0.000000  0.000000  0.000000  1
  V  V3  1  0.735664  0.471330  0.423938  1
  V  V4  1  0.735664  0.471330  0.076063  1
  V  V5  1  0.264336  0.528669  0.923937  1
  V  V6  1  0.479733  0.959464  0.158304  1
  V  V7  1  0.520267  0.040535  0.841697  1
  V  V8  1  0.520267  0.040535  0.658303  1
  V  V9  1  0.479733  0.959464  0.341697  1
  O  O10  1  0.647167  0.294333  0.973774  1
  O  O11  1  0.352834  0.705668  0.026226  1
  O  O12  1  0.352834  0.705668  0.473774  1
  O  O13  1  0.647167  0.294333  0.526226  1
  O  O14  1  0.144527  0.289055  0.846719  1
  O  O15  1  0.855473  0.710945  0.153281  1
  O  O16  1  0.855473  0.710945  0.346720  1
  O  O17  1  0.144527  0.289055  0.653281  1
  O  O18  1  0.898623  0.797244  0.896766  1
  O  O19  1  0.101377  0.202756  0.103234  1
  O  O20  1  0.101377  0.202756  0.396766  1
  O  O21  1  0.898623  0.797244  0.603234  1
  O  O22  1  0.474500  0.949002  0.750000  1
  O  O23  1  0.525501  0.051000  0.250000  1
