# generated using pymatgen
data_Mg3Fe2O7
_symmetry_space_group_name_H-M   'P 1'
_cell_length_a   5.37520156
_cell_length_b   5.12959105
_cell_length_c   9.21401532
_cell_angle_alpha   106.16222910
_cell_angle_beta   90.00000000
_cell_angle_gamma   90.00000000
_symmetry_Int_Tables_number   1
_chemical_formula_structural   Mg3Fe2O7
_chemical_formula_sum   'Mg6 Fe4 O14'
_cell_volume   244.01334328
_cell_formula_units_Z   2
loop_
 _symmetry_equiv_pos_site_id
 _symmetry_equiv_pos_as_xyz
  1  'x, y, z'
loop_
 _atom_site_type_symbol
 _atom_site_label
 _atom_site_symmetry_multiplicity
 _atom_site_fract_x
 _atom_site_fract_y
 _atom_site_fract_z
 _atom_site_occupancy
  Mg  Mg0  1  0.683921  0.768388  1.000000  1
  Mg  Mg1  1  0.183921  0.231612  0.000000  1
  Mg  Mg2  1  0.826914  0.566605  0.613664  1
  Mg  Mg3  1  0.326914  0.433395  0.386336  1
  Mg  Mg4  1  0.826914  0.952940  0.386336  1
  Mg  Mg5  1  0.326914  0.047060  0.613664  1
  Fe  Fe6  1  0.751603  0.355264  0.208145  1
  Fe  Fe7  1  0.251603  0.644736  0.791855  1
  Fe  Fe8  1  0.251603  0.852880  0.208145  1
  Fe  Fe9  1  0.751603  0.147120  0.791855  1
  O  O10  1  0.699478  0.924049  0.588324  1
  O  O11  1  0.199478  0.075951  0.411676  1
  O  O12  1  0.199478  0.664274  0.588324  1
  O  O13  1  0.699478  0.335726  0.411676  1
  O  O14  1  0.052704  0.311033  0.731648  1
  O  O15  1  0.552704  0.688967  0.268352  1
  O  O16  1  0.552704  0.420615  0.731648  1
  O  O17  1  0.052704  0.579385  0.268352  1
  O  O18  1  0.933100  0.859480  0.845732  1
  O  O19  1  0.433100  0.140520  0.154268  1
  O  O20  1  0.808483  0.379620  0.000000  1
  O  O21  1  0.308483  0.620380  1.000000  1
  O  O22  1  0.933100  0.013748  0.154268  1
  O  O23  1  0.433100  0.986252  0.845732  1
