# generated using pymatgen
data_ZnSnF5
_symmetry_space_group_name_H-M   'P 1'
_cell_length_a   5.64710880
_cell_length_b   5.64710830
_cell_length_c   8.16414091
_cell_angle_alpha   102.33305155
_cell_angle_beta   108.22265812
_cell_angle_gamma   103.83405782
_symmetry_Int_Tables_number   1
_chemical_formula_structural   ZnSnF5
_chemical_formula_sum   'Zn2 Sn2 F10'
_cell_volume   228.08387169
_cell_formula_units_Z   2
loop_
 _symmetry_equiv_pos_site_id
 _symmetry_equiv_pos_as_xyz
  1  'x, y, z'
loop_
 _atom_site_type_symbol
 _atom_site_label
 _atom_site_symmetry_multiplicity
 _atom_site_fract_x
 _atom_site_fract_y
 _atom_site_fract_z
 _atom_site_occupancy
  Zn  Zn0  1  0.220964  0.470964  0.750000  1
  Zn  Zn1  1  0.779036  0.529036  0.250000  1
  Sn  Sn2  1  0.000000  0.000000  0.000000  1
  Sn  Sn3  1  0.500000  0.000000  0.500000  1
  F  F4  1  0.324502  0.074502  0.250000  1
  F  F5  1  0.675498  0.925498  0.750000  1
  F  F6  1  0.560646  0.668957  0.353393  1
  F  F7  1  0.815563  0.207253  0.146607  1
  F  F8  1  0.780294  0.672465  0.047533  1
  F  F9  1  0.124933  0.732762  0.452467  1
  F  F10  1  0.219706  0.327535  0.952467  1
  F  F11  1  0.875067  0.267238  0.547533  1
  F  F12  1  0.184437  0.792747  0.853393  1
  F  F13  1  0.439354  0.331043  0.646607  1
