# generated using pymatgen
data_Ca3Co2(TeO6)2
_symmetry_space_group_name_H-M   'P 1'
_cell_length_a   5.38699098
_cell_length_b   5.50484187
_cell_length_c   7.81994437
_cell_angle_alpha   90.60186555
_cell_angle_beta   90.87371434
_cell_angle_gamma   92.02575469
_symmetry_Int_Tables_number   1
_chemical_formula_structural   Ca3Co2(TeO6)2
_chemical_formula_sum   'Ca3 Co2 Te2 O12'
_cell_volume   231.71077935
_cell_formula_units_Z   1
loop_
 _symmetry_equiv_pos_site_id
 _symmetry_equiv_pos_as_xyz
  1  'x, y, z'
loop_
 _atom_site_type_symbol
 _atom_site_label
 _atom_site_symmetry_multiplicity
 _atom_site_fract_x
 _atom_site_fract_y
 _atom_site_fract_z
 _atom_site_occupancy
  Ca  Ca0  1  0.989183  0.051978  0.251468  1
  Ca  Ca1  1  0.007677  0.953389  0.749004  1
  Ca  Ca2  1  0.479908  0.443734  0.752746  1
  Co  Co3  1  0.501847  0.992643  0.015552  1
  Co  Co4  1  0.986726  0.501222  0.482952  1
  Te  Te5  1  0.998662  0.504833  0.005624  1
  Te  Te6  1  0.497580  0.985605  0.495663  1
  O  O7  1  0.717222  0.283266  0.461670  1
  O  O8  1  0.198633  0.223089  0.953447  1
  O  O9  1  0.801178  0.813098  0.465104  1
  O  O10  1  0.289818  0.718218  0.946017  1
  O  O11  1  0.908806  0.520325  0.762501  1
  O  O12  1  0.582706  0.021273  0.738437  1
  O  O13  1  0.283432  0.706271  0.555793  1
  O  O14  1  0.220096  0.195073  0.541476  1
  O  O15  1  0.086506  0.476645  0.242443  1
  O  O16  1  0.708824  0.281658  0.037185  1
  O  O17  1  0.407610  0.975137  0.257599  1
  O  O18  1  0.820583  0.800951  0.036462  1
