# generated using pymatgen
data_Ba2AlSb3O8
_symmetry_space_group_name_H-M   'P 1'
_cell_length_a   4.26765465
_cell_length_b   4.26766113
_cell_length_c   11.88901634
_cell_angle_alpha   90.00027755
_cell_angle_beta   90.00000772
_cell_angle_gamma   90.00040357
_symmetry_Int_Tables_number   1
_chemical_formula_structural   Ba2AlSb3O8
_chemical_formula_sum   'Ba2 Al1 Sb3 O8'
_cell_volume   216.53351166
_cell_formula_units_Z   1
loop_
 _symmetry_equiv_pos_site_id
 _symmetry_equiv_pos_as_xyz
  1  'x, y, z'
loop_
 _atom_site_type_symbol
 _atom_site_label
 _atom_site_symmetry_multiplicity
 _atom_site_fract_x
 _atom_site_fract_y
 _atom_site_fract_z
 _atom_site_occupancy
  Ba  Ba0  1  0.499994  0.499991  0.180134  1
  Ba  Ba1  1  0.500017  0.500000  0.819865  1
  Al  Al2  1  0.500082  0.500127  0.500000  1
  Sb  Sb3  1  0.000008  0.000013  0.355704  1
  Sb  Sb4  1  0.999999  0.999996  0.999998  1
  Sb  Sb5  1  0.000010  0.000012  0.644296  1
  O  O6  1  0.999972  0.499993  0.339448  1
  O  O7  1  0.499990  0.999963  0.339445  1
  O  O8  1  0.499996  0.999987  0.999998  1
  O  O9  1  0.999999  0.999991  0.178241  1
  O  O10  1  0.999960  0.499986  0.660554  1
  O  O11  1  0.499989  0.999943  0.660557  1
  O  O12  1  0.999999  0.000002  0.821759  1
  O  O13  1  0.999988  0.499994  0.000000  1
