# generated using pymatgen
data_MgNiSbP2O9
_symmetry_space_group_name_H-M   'P 1'
_cell_length_a   6.49083207
_cell_length_b   7.31408208
_cell_length_c   14.56698271
_cell_angle_alpha   90.09171998
_cell_angle_beta   89.99033798
_cell_angle_gamma   89.99725494
_symmetry_Int_Tables_number   1
_chemical_formula_structural   MgNiSbP2O9
_chemical_formula_sum   'Mg4 Ni4 Sb4 P8 O36'
_cell_volume   691.55901113
_cell_formula_units_Z   4
loop_
 _symmetry_equiv_pos_site_id
 _symmetry_equiv_pos_as_xyz
  1  'x, y, z'
loop_
 _atom_site_type_symbol
 _atom_site_label
 _atom_site_symmetry_multiplicity
 _atom_site_fract_x
 _atom_site_fract_y
 _atom_site_fract_z
 _atom_site_occupancy
  Mg  Mg0  1  0.749988  0.944019  0.803116  1
  Mg  Mg1  1  0.750011  0.554459  0.304107  1
  Mg  Mg2  1  0.250026  0.055775  0.196666  1
  Mg  Mg3  1  0.249991  0.445664  0.695913  1
  Ni  Ni4  1  0.499987  0.999973  0.999942  1
  Ni  Ni5  1  0.499951  0.500153  0.500028  1
  Ni  Ni6  1  0.000013  0.500105  0.500038  1
  Ni  Ni7  1  0.000026  0.999979  0.999946  1
  Sb  Sb8  1  0.750039  0.365598  0.880940  1
  Sb  Sb9  1  0.249978  0.634323  0.118965  1
  Sb  Sb10  1  0.249991  0.867069  0.618567  1
  Sb  Sb11  1  0.749999  0.133383  0.381382  1
  P  P12  1  0.250069  0.363561  0.918307  1
  P  P13  1  0.749945  0.636537  0.081648  1
  P  P14  1  0.749999  0.863160  0.582384  1
  P  P15  1  0.249992  0.136621  0.417791  1
  P  P16  1  0.750009  0.380279  0.687208  1
  P  P17  1  0.249973  0.619631  0.312825  1
  P  P18  1  0.249991  0.880472  0.812786  1
  P  P19  1  0.750016  0.119675  0.187225  1
  O  O20  1  0.046401  0.618445  0.368327  1
  O  O21  1  0.546474  0.381642  0.631758  1
  O  O22  1  0.953658  0.118913  0.131476  1
  O  O23  1  0.453820  0.880981  0.868510  1
  O  O24  1  0.953516  0.381596  0.631740  1
  O  O25  1  0.453569  0.618450  0.368315  1
  O  O26  1  0.046272  0.881021  0.868566  1
  O  O27  1  0.546274  0.118949  0.131526  1
  O  O28  1  0.249974  0.313748  0.474415  1
  O  O29  1  0.750007  0.686131  0.525581  1
  O  O30  1  0.749852  0.814249  0.025381  1
  O  O31  1  0.250161  0.185816  0.974558  1
  O  O32  1  0.750029  0.112050  0.930374  1
  O  O33  1  0.249984  0.888176  0.069648  1
  O  O34  1  0.249985  0.611709  0.569625  1
  O  O35  1  0.749976  0.387994  0.430499  1
  O  O36  1  0.750003  0.207587  0.753269  1
  O  O37  1  0.249982  0.792362  0.246787  1
  O  O38  1  0.249950  0.707937  0.746721  1
  O  O39  1  0.750053  0.292138  0.253298  1
  O  O40  1  0.431984  0.129214  0.347843  1
  O  O41  1  0.931704  0.870704  0.652216  1
  O  O42  1  0.567959  0.628244  0.151302  1
  O  O43  1  0.067888  0.371594  0.848706  1
  O  O44  1  0.568264  0.870707  0.652222  1
  O  O45  1  0.068026  0.129202  0.347853  1
  O  O46  1  0.432215  0.371682  0.848676  1
  O  O47  1  0.931977  0.628323  0.151265  1
  O  O48  1  0.750027  0.956371  0.257064  1
  O  O49  1  0.249973  0.043875  0.743235  1
  O  O50  1  0.249993  0.456913  0.242152  1
  O  O51  1  0.750026  0.542870  0.758078  1
  O  O52  1  0.750024  0.036786  0.522601  1
  O  O53  1  0.249995  0.962917  0.476914  1
  O  O54  1  0.249973  0.536698  0.978304  1
  O  O55  1  0.750036  0.463570  0.021411  1
