# generated using pymatgen
data_Ni3P3O13
_symmetry_space_group_name_H-M   'P 1'
_cell_length_a   6.33924865
_cell_length_b   7.48936953
_cell_length_c   10.57803541
_cell_angle_alpha   99.53669175
_cell_angle_beta   90.00000000
_cell_angle_gamma   90.00000000
_symmetry_Int_Tables_number   1
_chemical_formula_structural   Ni3P3O13
_chemical_formula_sum   'Ni6 P6 O26'
_cell_volume   495.27239592
_cell_formula_units_Z   2
loop_
 _symmetry_equiv_pos_site_id
 _symmetry_equiv_pos_as_xyz
  1  'x, y, z'
loop_
 _atom_site_type_symbol
 _atom_site_label
 _atom_site_symmetry_multiplicity
 _atom_site_fract_x
 _atom_site_fract_y
 _atom_site_fract_z
 _atom_site_occupancy
  Ni  Ni0  1  0.250000  0.363994  0.197993  1
  Ni  Ni1  1  0.750000  0.636006  0.802006  1
  Ni  Ni2  1  0.250000  0.770694  0.444429  1
  Ni  Ni3  1  0.500000  -0.000000  0.000000  1
  Ni  Ni4  1  0.750000  0.229306  0.555570  1
  Ni  Ni5  1  -0.000000  -0.000000  0.000000  1
  P  P6  1  0.250000  0.211433  0.475577  1
  P  P7  1  0.750000  0.788567  0.524423  1
  P  P8  1  0.250000  0.746215  0.766380  1
  P  P9  1  0.750000  0.253785  0.233620  1
  P  P10  1  0.750000  0.304798  0.878399  1
  P  P11  1  0.250000  0.695202  0.121601  1
  O  O12  1  0.750000  0.349724  0.740924  1
  O  O13  1  0.555975  0.739624  0.437596  1
  O  O14  1  0.250000  0.814130  0.637444  1
  O  O15  1  0.548440  0.204283  0.905897  1
  O  O16  1  0.750000  0.644084  0.614870  1
  O  O17  1  0.750000  0.867987  0.904417  1
  O  O18  1  0.250000  0.355916  0.385130  1
  O  O19  1  0.048440  0.795717  0.094103  1
  O  O20  1  0.250000  0.019932  0.401176  1
  O  O21  1  0.750000  0.980068  0.598824  1
  O  O22  1  0.060777  0.623580  0.784002  1
  O  O23  1  0.250000  0.132013  0.095583  1
  O  O24  1  0.560777  0.376420  0.215998  1
  O  O25  1  0.750000  0.498952  0.960841  1
  O  O26  1  0.750000  0.185870  0.362556  1
  O  O27  1  0.451560  0.795717  0.094103  1
  O  O28  1  0.944025  0.739624  0.437596  1
  O  O29  1  0.444025  0.260376  0.562404  1
  O  O30  1  0.439223  0.623580  0.784002  1
  O  O31  1  0.250000  0.650276  0.259076  1
  O  O32  1  0.750000  0.083976  0.125776  1
  O  O33  1  0.250000  0.916024  0.874224  1
  O  O34  1  0.939223  0.376420  0.215998  1
  O  O35  1  0.951560  0.204283  0.905897  1
  O  O36  1  0.055975  0.260376  0.562404  1
  O  O37  1  0.250000  0.501048  0.039159  1
