# generated using pymatgen
data_Ca2TiN2
_symmetry_space_group_name_H-M   'P 1'
_cell_length_a   5.09471397
_cell_length_b   6.00565299
_cell_length_c   7.13413521
_cell_angle_alpha   61.34753500
_cell_angle_beta   69.07988656
_cell_angle_gamma   64.90250627
_symmetry_Int_Tables_number   1
_chemical_formula_structural   Ca2TiN2
_chemical_formula_sum   'Ca4 Ti2 N4'
_cell_volume   170.19391928
_cell_formula_units_Z   2
loop_
 _symmetry_equiv_pos_site_id
 _symmetry_equiv_pos_as_xyz
  1  'x, y, z'
loop_
 _atom_site_type_symbol
 _atom_site_label
 _atom_site_symmetry_multiplicity
 _atom_site_fract_x
 _atom_site_fract_y
 _atom_site_fract_z
 _atom_site_occupancy
  Ca  Ca0  1  0.674838  0.250106  0.400219  1
  Ca  Ca1  1  0.325162  0.749894  0.599781  1
  Ca  Ca2  1  0.018416  0.714974  0.248194  1
  Ca  Ca3  1  0.981584  0.285026  0.751806  1
  Ti  Ti4  1  0.357557  0.167460  0.117428  1
  Ti  Ti5  1  0.642443  0.832540  0.882572  1
  N  N6  1  0.190199  0.244323  0.375280  1
  N  N7  1  0.809801  0.755677  0.624720  1
  N  N8  1  0.498345  0.214730  0.788581  1
  N  N9  1  0.501655  0.785270  0.211419  1
