# generated using pymatgen
data_Ba2YMn2TlO7
_symmetry_space_group_name_H-M   'P 1'
_cell_length_a   3.91927977
_cell_length_b   3.91919932
_cell_length_c   13.39818064
_cell_angle_alpha   90.00001814
_cell_angle_beta   90.00008377
_cell_angle_gamma   89.95859138
_symmetry_Int_Tables_number   1
_chemical_formula_structural   Ba2YMn2TlO7
_chemical_formula_sum   'Ba2 Y1 Mn2 Tl1 O7'
_cell_volume   205.80187702
_cell_formula_units_Z   1
loop_
 _symmetry_equiv_pos_site_id
 _symmetry_equiv_pos_as_xyz
  1  'x, y, z'
loop_
 _atom_site_type_symbol
 _atom_site_label
 _atom_site_symmetry_multiplicity
 _atom_site_fract_x
 _atom_site_fract_y
 _atom_site_fract_z
 _atom_site_occupancy
  Ba  Ba0  1  0.500001  0.499987  0.197751  1
  Ba  Ba1  1  0.500003  0.500011  0.802239  1
  Y  Y2  1  0.500006  0.500014  0.500007  1
  Mn  Mn3  1  0.000007  0.999996  0.359106  1
  Mn  Mn4  1  0.000010  1.000000  0.640897  1
  Tl  Tl5  1  0.000012  0.000006  0.999959  1
  O  O6  1  0.000000  0.999995  0.207351  1
  O  O7  1  -0.000008  0.500002  0.394500  1
  O  O8  1  0.499999  -0.000003  0.394491  1
  O  O9  1  0.500004  0.000008  0.605499  1
  O  O10  1  0.499959  0.499991  0.999995  1
  O  O11  1  0.000004  0.500000  0.605508  1
  O  O12  1  0.000002  -0.000005  0.792698  1
