# generated using pymatgen
data_CaCo3O7
_symmetry_space_group_name_H-M   'P 1'
_cell_length_a   5.26774526
_cell_length_b   10.31589489
_cell_length_c   10.72291330
_cell_angle_alpha   90.00000000
_cell_angle_beta   90.00000000
_cell_angle_gamma   90.00000000
_symmetry_Int_Tables_number   1
_chemical_formula_structural   CaCo3O7
_chemical_formula_sum   'Ca4 Co12 O28'
_cell_volume   582.69926182
_cell_formula_units_Z   4
loop_
 _symmetry_equiv_pos_site_id
 _symmetry_equiv_pos_as_xyz
  1  'x, y, z'
loop_
 _atom_site_type_symbol
 _atom_site_label
 _atom_site_symmetry_multiplicity
 _atom_site_fract_x
 _atom_site_fract_y
 _atom_site_fract_z
 _atom_site_occupancy
  Ca  Ca0  1  0.679501  0.750000  0.930392  1
  Ca  Ca1  1  0.179501  0.250000  0.569608  1
  Ca  Ca2  1  0.320499  0.250000  0.069608  1
  Ca  Ca3  1  0.820499  0.750000  0.430392  1
  Co  Co4  1  0.303966  0.020185  0.299684  1
  Co  Co5  1  0.803966  0.979815  0.200316  1
  Co  Co6  1  0.696034  0.520185  0.700316  1
  Co  Co7  1  0.196034  0.479815  0.799684  1
  Co  Co8  1  0.307957  0.750000  0.214838  1
  Co  Co9  1  0.807957  0.250000  0.285162  1
  Co  Co10  1  0.692043  0.250000  0.785162  1
  Co  Co11  1  0.192043  0.750000  0.714838  1
  Co  Co12  1  0.803966  0.520185  0.200316  1
  Co  Co13  1  0.303966  0.479815  0.299684  1
  Co  Co14  1  0.196034  0.020185  0.799684  1
  Co  Co15  1  0.696034  0.979815  0.700316  1
  O  O16  1  0.936412  0.115863  0.719332  1
  O  O17  1  0.436412  0.884137  0.780668  1
  O  O18  1  0.063588  0.615863  0.280668  1
  O  O19  1  0.563588  0.384137  0.219332  1
  O  O20  1  0.063588  0.884137  0.280668  1
  O  O21  1  0.563588  0.115863  0.219332  1
  O  O22  1  0.936412  0.384137  0.719332  1
  O  O23  1  0.436412  0.615863  0.780668  1
  O  O24  1  0.453190  0.114765  0.715062  1
  O  O25  1  0.953190  0.885235  0.784938  1
  O  O26  1  0.546810  0.614765  0.284938  1
  O  O27  1  0.046810  0.385235  0.215062  1
  O  O28  1  0.546810  0.885235  0.284938  1
  O  O29  1  0.046810  0.114765  0.215062  1
  O  O30  1  0.453190  0.385235  0.715062  1
  O  O31  1  0.953190  0.614765  0.784938  1
  O  O32  1  0.175699  0.750000  0.558663  1
  O  O33  1  0.675699  0.250000  0.941337  1
  O  O34  1  0.824301  0.250000  0.441336  1
  O  O35  1  0.324301  0.750000  0.058664  1
  O  O36  1  0.211295  0.428358  0.946114  1
  O  O37  1  0.711295  0.571642  0.553886  1
  O  O38  1  0.788705  0.928358  0.053886  1
  O  O39  1  0.288705  0.071642  0.446114  1
  O  O40  1  0.788705  0.571642  0.053886  1
  O  O41  1  0.288705  0.428358  0.446114  1
  O  O42  1  0.211295  0.071642  0.946114  1
  O  O43  1  0.711295  0.928358  0.553886  1
