# generated using pymatgen
data_Cu3(MoO3)4
_symmetry_space_group_name_H-M   'P 1'
_cell_length_a   6.55941547
_cell_length_b   6.57547877
_cell_length_c   6.57972631
_cell_angle_alpha   109.55034619
_cell_angle_beta   109.49788522
_cell_angle_gamma   109.41174667
_symmetry_Int_Tables_number   1
_chemical_formula_structural   Cu3(MoO3)4
_chemical_formula_sum   'Cu3 Mo4 O12'
_cell_volume   218.33807609
_cell_formula_units_Z   1
loop_
 _symmetry_equiv_pos_site_id
 _symmetry_equiv_pos_as_xyz
  1  'x, y, z'
loop_
 _atom_site_type_symbol
 _atom_site_label
 _atom_site_symmetry_multiplicity
 _atom_site_fract_x
 _atom_site_fract_y
 _atom_site_fract_z
 _atom_site_occupancy
  Cu  Cu0  1  0.499999  0.500000  0.000002  1
  Cu  Cu1  1  0.000002  0.500001  0.499998  1
  Cu  Cu2  1  0.500000  0.999998  0.499998  1
  Mo  Mo3  1  0.000001  0.000000  0.500000  1
  Mo  Mo4  1  0.999999  0.500000  0.999999  1
  Mo  Mo5  1  0.500000  0.500000  0.500001  1
  Mo  Mo6  1  0.500000  0.000000  1.000000  1
  O  O7  1  0.814101  0.307712  0.132476  1
  O  O8  1  0.185899  0.692288  0.867522  1
  O  O9  1  0.822225  0.691364  0.507612  1
  O  O10  1  0.320039  0.492608  0.185613  1
  O  O11  1  0.492069  0.188303  0.320925  1
  O  O12  1  0.130473  0.815840  0.308005  1
  O  O13  1  0.696460  0.869596  0.189164  1
  O  O14  1  0.507932  0.811697  0.679074  1
  O  O15  1  0.177776  0.308636  0.492387  1
  O  O16  1  0.679958  0.507392  0.814389  1
  O  O17  1  0.869527  0.184161  0.691995  1
  O  O18  1  0.303539  0.130406  0.810838  1
