# generated using pymatgen
data_Cr(WO4)2
_symmetry_space_group_name_H-M   'P 1'
_cell_length_a   5.05224065
_cell_length_b   6.93585573
_cell_length_c   6.21199782
_cell_angle_alpha   106.73409906
_cell_angle_beta   126.77325848
_cell_angle_gamma   87.94178347
_symmetry_Int_Tables_number   1
_chemical_formula_structural   Cr(WO4)2
_chemical_formula_sum   'Cr1 W2 O8'
_cell_volume   164.31560745
_cell_formula_units_Z   1
loop_
 _symmetry_equiv_pos_site_id
 _symmetry_equiv_pos_as_xyz
  1  'x, y, z'
loop_
 _atom_site_type_symbol
 _atom_site_label
 _atom_site_symmetry_multiplicity
 _atom_site_fract_x
 _atom_site_fract_y
 _atom_site_fract_z
 _atom_site_occupancy
  Cr  Cr0  1  0.124717  0.223228  0.099703  1
  W  W1  1  0.905366  0.400477  0.620725  1
  W  W2  1  0.343896  0.045922  0.578595  1
  O  O3  1  0.156878  0.639168  0.809374  1
  O  O4  1  0.492766  0.450924  0.343986  1
  O  O5  1  0.203826  0.189816  0.811419  1
  O  O6  1  0.439184  0.074072  0.326479  1
  O  O7  1  0.756626  0.995578  0.855383  1
  O  O8  1  0.092435  0.807351  0.389970  1
  O  O9  1  0.045573  0.256617  0.387944  1
  O  O10  1  0.810395  0.372479  0.873037  1
