# generated using pymatgen
data_Mg(CuO2)2
_symmetry_space_group_name_H-M   'P 1'
_cell_length_a   5.86500258
_cell_length_b   5.86500241
_cell_length_c   6.00321587
_cell_angle_alpha   59.21733292
_cell_angle_beta   59.21733851
_cell_angle_gamma   61.68017627
_symmetry_Int_Tables_number   1
_chemical_formula_structural   Mg(CuO2)2
_chemical_formula_sum   'Mg2 Cu4 O8'
_cell_volume   145.96150036
_cell_formula_units_Z   2
loop_
 _symmetry_equiv_pos_site_id
 _symmetry_equiv_pos_as_xyz
  1  'x, y, z'
loop_
 _atom_site_type_symbol
 _atom_site_label
 _atom_site_symmetry_multiplicity
 _atom_site_fract_x
 _atom_site_fract_y
 _atom_site_fract_z
 _atom_site_occupancy
  Mg  Mg0  1  0.125000  0.625000  0.625000  1
  Mg  Mg1  1  0.625000  0.125000  0.625000  1
  Cu  Cu2  1  0.989450  0.989450  0.010550  1
  Cu  Cu3  1  0.260550  0.260550  0.239450  1
  Cu  Cu4  1  0.625000  0.625000  0.125000  1
  Cu  Cu5  1  0.625000  0.625000  0.625000  1
  O  O6  1  0.387279  0.387279  0.382953  1
  O  O7  1  0.406503  0.857928  0.367784  1
  O  O8  1  0.387279  0.387279  0.842490  1
  O  O9  1  0.857928  0.406503  0.367784  1
  O  O10  1  0.392072  0.843497  0.882216  1
  O  O11  1  0.843497  0.392072  0.882216  1
  O  O12  1  0.862721  0.862721  0.407510  1
  O  O13  1  0.862721  0.862721  0.867047  1
