# generated using pymatgen
data_Ca5(MnN3)2
_symmetry_space_group_name_H-M   'P 1'
_cell_length_a   4.96343314
_cell_length_b   6.84875595
_cell_length_c   6.36669078
_cell_angle_alpha   103.04930896
_cell_angle_beta   90.00000000
_cell_angle_gamma   90.00000000
_symmetry_Int_Tables_number   1
_chemical_formula_structural   Ca5(MnN3)2
_chemical_formula_sum   'Ca5 Mn2 N6'
_cell_volume   210.83616064
_cell_formula_units_Z   1
loop_
 _symmetry_equiv_pos_site_id
 _symmetry_equiv_pos_as_xyz
  1  'x, y, z'
loop_
 _atom_site_type_symbol
 _atom_site_label
 _atom_site_symmetry_multiplicity
 _atom_site_fract_x
 _atom_site_fract_y
 _atom_site_fract_z
 _atom_site_occupancy
  Ca  Ca0  1  0.250000  0.926619  0.694527  1
  Ca  Ca1  1  0.750000  0.595131  0.376777  1
  Ca  Ca2  1  0.750000  0.658041  0.896635  1
  Ca  Ca3  1  0.250000  0.390914  0.608085  1
  Ca  Ca4  1  0.750000  0.097514  0.294386  1
  Mn  Mn5  1  0.750000  0.203034  0.795899  1
  Mn  Mn6  1  0.250000  0.789702  0.209186  1
  N  N7  1  0.750000  0.946130  0.700517  1
  N  N8  1  0.250000  0.637727  0.394520  1
  N  N9  1  0.750000  0.366776  0.609342  1
  N  N10  1  0.250000  0.697234  0.932640  1
  N  N11  1  0.250000  0.036640  0.339542  1
  N  N12  1  0.750000  0.326004  0.052268  1
