# generated using pymatgen
data_Ca(FeO2)2
_symmetry_space_group_name_H-M   'P 1'
_cell_length_a   6.32761809
_cell_length_b   6.25684580
_cell_length_c   24.91823961
_cell_angle_alpha   59.82289371
_cell_angle_beta   60.29773065
_cell_angle_gamma   60.41636688
_symmetry_Int_Tables_number   1
_chemical_formula_structural   Ca(FeO2)2
_chemical_formula_sum   'Ca8 Fe16 O32'
_cell_volume   700.37258640
_cell_formula_units_Z   8
loop_
 _symmetry_equiv_pos_site_id
 _symmetry_equiv_pos_as_xyz
  1  'x, y, z'
loop_
 _atom_site_type_symbol
 _atom_site_label
 _atom_site_symmetry_multiplicity
 _atom_site_fract_x
 _atom_site_fract_y
 _atom_site_fract_z
 _atom_site_occupancy
  Ca  Ca0  1  0.149215  0.118909  0.028236  1
  Ca  Ca1  1  -0.001351  0.499663  0.126046  1
  Ca  Ca2  1  0.124287  0.118302  0.284618  1
  Ca  Ca3  1  -0.001007  0.499322  0.375409  1
  Ca  Ca4  1  0.998940  0.498829  0.625321  1
  Ca  Ca5  1  0.496523  0.507582  0.497069  1
  Ca  Ca6  1  0.995465  0.501813  0.875251  1
  Ca  Ca7  1  0.495432  0.499593  0.751473  1
  Fe  Fe8  1  0.499147  0.491456  0.125176  1
  Fe  Fe9  1  0.494357  0.500241  0.251856  1
  Fe  Fe10  1  0.498191  0.009894  0.125320  1
  Fe  Fe11  1  0.134302  0.111659  0.534828  1
  Fe  Fe12  1  0.491472  0.499544  0.373421  1
  Fe  Fe13  1  0.857016  0.883497  0.219733  1
  Fe  Fe14  1  0.139957  0.114459  0.782917  1
  Fe  Fe15  1  0.492856  0.015355  0.372601  1
  Fe  Fe16  1  0.499367  0.499695  0.624467  1
  Fe  Fe17  1  0.860115  0.889169  0.465440  1
  Fe  Fe18  1  0.499471  0.002614  0.624179  1
  Fe  Fe19  1  0.502987  0.997153  0.874911  1
  Fe  Fe20  1  0.502599  0.501372  0.874973  1
  Fe  Fe21  1  0.861133  0.887459  0.715754  1
  Fe  Fe22  1  0.500112  0.490729  0.004991  1
  Fe  Fe23  1  0.859762  0.880917  0.969607  1
  O  O24  1  0.300787  0.246222  0.064340  1
  O  O25  1  0.298947  0.246468  0.177072  1
  O  O26  1  0.302443  0.695693  0.064171  1
  O  O27  1  0.715134  0.259022  0.066976  1
  O  O28  1  0.261908  0.748340  0.186294  1
  O  O29  1  0.296317  0.256168  0.312479  1
  O  O30  1  0.720976  0.264514  0.189535  1
  O  O31  1  0.269029  0.236804  0.438223  1
  O  O32  1  0.297315  0.696683  0.312837  1
  O  O33  1  0.725637  0.757726  0.065050  1
  O  O34  1  0.695415  0.271151  0.315953  1
  O  O35  1  0.721995  0.757996  0.189721  1
  O  O36  1  0.269730  0.223522  0.566448  1
  O  O37  1  0.250740  0.768441  0.426584  1
  O  O38  1  0.732018  0.259277  0.429466  1
  O  O39  1  0.281207  0.241050  0.683911  1
  O  O40  1  0.270712  0.737563  0.566759  1
  O  O41  1  0.719688  0.761488  0.314896  1
  O  O42  1  0.738259  0.243589  0.568217  1
  O  O43  1  0.732829  0.789778  0.429581  1
  O  O44  1  0.252770  0.759925  0.681792  1
  O  O45  1  0.265708  0.214844  0.818906  1
  O  O46  1  0.726938  0.260064  0.683459  1
  O  O47  1  0.309714  0.255076  0.919936  1
  O  O48  1  0.266156  0.743571  0.818881  1
  O  O49  1  0.720396  0.759988  0.564872  1
  O  O50  1  0.755781  0.234712  0.818505  1
  O  O51  1  0.728225  0.778769  0.683161  1
  O  O52  1  0.268651  0.736620  0.939725  1
  O  O53  1  0.717738  0.263525  0.941453  1
  O  O54  1  0.718461  0.759040  0.815864  1
  O  O55  1  0.718025  0.753142  0.941340  1
