# generated using pymatgen
data_AlCo3Se2ClO8
_symmetry_space_group_name_H-M   'P 1'
_cell_length_a   5.87335641
_cell_length_b   8.18707383
_cell_length_c   9.76929789
_cell_angle_alpha   83.72129866
_cell_angle_beta   99.32251081
_cell_angle_gamma   91.33765557
_symmetry_Int_Tables_number   1
_chemical_formula_structural   AlCo3Se2ClO8
_chemical_formula_sum   'Al2 Co6 Se4 Cl2 O16'
_cell_volume   460.76986570
_cell_formula_units_Z   2
loop_
 _symmetry_equiv_pos_site_id
 _symmetry_equiv_pos_as_xyz
  1  'x, y, z'
loop_
 _atom_site_type_symbol
 _atom_site_label
 _atom_site_symmetry_multiplicity
 _atom_site_fract_x
 _atom_site_fract_y
 _atom_site_fract_z
 _atom_site_occupancy
  Al  Al0  1  0.298105  0.138808  0.230627  1
  Al  Al1  1  0.702925  0.861315  0.768953  1
  Co  Co2  1  0.498229  0.000182  0.998933  1
  Co  Co3  1  0.500325  0.000079  0.499885  1
  Co  Co4  1  0.998572  0.999352  0.001035  1
  Co  Co5  1  0.802243  0.232621  0.754114  1
  Co  Co6  1  0.198429  0.767157  0.246113  1
  Co  Co7  1  0.000498  0.000472  0.499972  1
  Se  Se8  1  0.787511  0.349885  0.082851  1
  Se  Se9  1  0.212088  0.649767  0.917326  1
  Se  Se10  1  0.710506  0.370792  0.420274  1
  Se  Se11  1  0.289611  0.629653  0.580069  1
  Cl  Cl12  1  0.206199  0.169868  0.805036  1
  Cl  Cl13  1  0.794389  0.830052  0.194288  1
  O  O14  1  0.288705  0.963130  0.130000  1
  O  O15  1  0.233463  0.612168  0.091871  1
  O  O16  1  0.691285  0.385885  0.591146  1
  O  O17  1  0.553582  0.214626  0.105410  1
  O  O18  1  0.529434  0.770295  0.620748  1
  O  O19  1  0.065701  0.757591  0.580198  1
  O  O20  1  0.711116  0.036601  0.869850  1
  O  O21  1  0.027465  0.211362  0.117497  1
  O  O22  1  0.934949  0.243326  0.420038  1
  O  O23  1  0.972018  0.788159  0.882882  1
  O  O24  1  0.221500  0.984230  0.372063  1
  O  O25  1  0.779120  0.016067  0.627751  1
  O  O26  1  0.445581  0.785083  0.894395  1
  O  O27  1  0.471229  0.229849  0.379115  1
  O  O28  1  0.766554  0.387530  0.908331  1
  O  O29  1  0.308663  0.614093  0.409225  1
