# generated using pymatgen
data_CaTiBiO5
_symmetry_space_group_name_H-M   'P 1'
_cell_length_a   5.59075833
_cell_length_b   11.33578233
_cell_length_c   16.00356347
_cell_angle_alpha   90.00000000
_cell_angle_beta   90.00000000
_cell_angle_gamma   90.00000000
_symmetry_Int_Tables_number   1
_chemical_formula_structural   CaTiBiO5
_chemical_formula_sum   'Ca8 Ti8 Bi8 O40'
_cell_volume   1014.23574894
_cell_formula_units_Z   8
loop_
 _symmetry_equiv_pos_site_id
 _symmetry_equiv_pos_as_xyz
  1  'x, y, z'
loop_
 _atom_site_type_symbol
 _atom_site_label
 _atom_site_symmetry_multiplicity
 _atom_site_fract_x
 _atom_site_fract_y
 _atom_site_fract_z
 _atom_site_occupancy
  Ca  Ca0  1  0.495391  0.360568  0.453833  1
  Ca  Ca1  1  0.995391  0.139432  0.453833  1
  Ca  Ca2  1  0.995391  0.639432  0.046167  1
  Ca  Ca3  1  0.004609  0.360568  0.953833  1
  Ca  Ca4  1  0.504609  0.139432  0.953833  1
  Ca  Ca5  1  0.004609  0.860568  0.546167  1
  Ca  Ca6  1  0.504609  0.639432  0.546167  1
  Ca  Ca7  1  0.495391  0.860568  0.046167  1
  Ti  Ti8  1  0.986908  0.399545  0.598320  1
  Ti  Ti9  1  0.513092  0.899545  0.401680  1
  Ti  Ti10  1  0.013092  0.600455  0.401680  1
  Ti  Ti11  1  0.486908  0.100455  0.598320  1
  Ti  Ti12  1  0.013092  0.100455  0.098320  1
  Ti  Ti13  1  0.986908  0.899545  0.901680  1
  Ti  Ti14  1  0.513092  0.399545  0.098320  1
  Ti  Ti15  1  0.486908  0.600455  0.901680  1
  Bi  Bi16  1  0.937917  0.842239  0.229060  1
  Bi  Bi17  1  0.062083  0.157761  0.770940  1
  Bi  Bi18  1  0.562083  0.342239  0.770940  1
  Bi  Bi19  1  0.062083  0.657761  0.729060  1
  Bi  Bi20  1  0.437917  0.157761  0.270940  1
  Bi  Bi21  1  0.437917  0.657761  0.229060  1
  Bi  Bi22  1  0.562083  0.842239  0.729060  1
  Bi  Bi23  1  0.937917  0.342239  0.270940  1
  O  O24  1  0.890270  0.306344  0.693627  1
  O  O25  1  0.283335  0.039182  0.057545  1
  O  O26  1  0.216666  0.539182  0.942455  1
  O  O27  1  0.244481  0.779683  0.154151  1
  O  O28  1  0.255519  0.279683  0.845849  1
  O  O29  1  0.890270  0.806344  0.806373  1
  O  O30  1  0.255519  0.779683  0.654151  1
  O  O31  1  0.609730  0.806344  0.306373  1
  O  O32  1  0.283335  0.539182  0.442455  1
  O  O33  1  0.109730  0.693656  0.306373  1
  O  O34  1  0.609730  0.306344  0.193627  1
  O  O35  1  0.637818  0.190213  0.524943  1
  O  O36  1  0.783335  0.960818  0.442455  1
  O  O37  1  0.755519  0.720317  0.654151  1
  O  O38  1  0.192954  0.018249  0.855694  1
  O  O39  1  0.783335  0.460818  0.057545  1
  O  O40  1  0.109730  0.193656  0.193627  1
  O  O41  1  0.744481  0.220317  0.345849  1
  O  O42  1  0.137818  0.809787  0.975057  1
  O  O43  1  0.216666  0.039182  0.557545  1
  O  O44  1  0.362182  0.809787  0.475057  1
  O  O45  1  0.807046  0.981751  0.144306  1
  O  O46  1  0.755519  0.220317  0.845849  1
  O  O47  1  0.692954  0.981751  0.644306  1
  O  O48  1  0.362182  0.309787  0.024943  1
  O  O49  1  0.137818  0.309787  0.524943  1
  O  O50  1  0.716665  0.460818  0.557545  1
  O  O51  1  0.716665  0.960818  0.942455  1
  O  O52  1  0.692954  0.481751  0.855694  1
  O  O53  1  0.862182  0.690213  0.475057  1
  O  O54  1  0.862182  0.190213  0.024943  1
  O  O55  1  0.637818  0.690213  0.975057  1
  O  O56  1  0.807046  0.481751  0.355694  1
  O  O57  1  0.744481  0.720317  0.154151  1
  O  O58  1  0.244481  0.279683  0.345849  1
  O  O59  1  0.192954  0.518249  0.644306  1
  O  O60  1  0.307046  0.518249  0.144306  1
  O  O61  1  0.390270  0.193656  0.693627  1
  O  O62  1  0.307046  0.018249  0.355694  1
  O  O63  1  0.390270  0.693656  0.806373  1
