# generated using pymatgen
data_CaLaCrWO6
_symmetry_space_group_name_H-M   'P 1'
_cell_length_a   5.57158231
_cell_length_b   5.72425546
_cell_length_c   7.89348362
_cell_angle_alpha   90.00000000
_cell_angle_beta   89.02588385
_cell_angle_gamma   90.00000000
_symmetry_Int_Tables_number   1
_chemical_formula_structural   CaLaCrWO6
_chemical_formula_sum   'Ca2 La2 Cr2 W2 O12'
_cell_volume   251.71175632
_cell_formula_units_Z   2
loop_
 _symmetry_equiv_pos_site_id
 _symmetry_equiv_pos_as_xyz
  1  'x, y, z'
loop_
 _atom_site_type_symbol
 _atom_site_label
 _atom_site_symmetry_multiplicity
 _atom_site_fract_x
 _atom_site_fract_y
 _atom_site_fract_z
 _atom_site_occupancy
  Ca  Ca0  1  0.485616  0.454364  0.748012  1
  Ca  Ca1  1  0.985616  0.045636  0.248012  1
  La  La2  1  0.012891  0.960776  0.753051  1
  La  La3  1  0.512891  0.539224  0.253051  1
  Cr  Cr4  1  0.500569  0.000111  0.499083  1
  Cr  Cr5  1  0.000569  0.499889  0.999083  1
  W  W6  1  0.500073  0.000667  0.000311  1
  W  W7  1  0.000073  0.499333  0.500311  1
  O  O8  1  0.088651  0.471386  0.247343  1
  O  O9  1  0.201846  0.215110  0.947794  1
  O  O10  1  0.207491  0.206569  0.544991  1
  O  O11  1  0.297822  0.703822  0.953419  1
  O  O12  1  0.300965  0.712120  0.554526  1
  O  O13  1  0.404075  0.976487  0.251468  1
  O  O14  1  0.588651  0.028614  0.747344  1
  O  O15  1  0.701846  0.284890  0.447794  1
  O  O16  1  0.707491  0.293431  0.044991  1
  O  O17  1  0.797822  0.796178  0.453419  1
  O  O18  1  0.800965  0.787880  0.054526  1
  O  O19  1  0.904075  0.523513  0.751468  1
