# generated using pymatgen
data_CaVP2O7
_symmetry_space_group_name_H-M   'P 1'
_cell_length_a   6.30417282
_cell_length_b   6.69854594
_cell_length_c   7.20711301
_cell_angle_alpha   83.18016975
_cell_angle_beta   88.29544566
_cell_angle_gamma   68.34280677
_symmetry_Int_Tables_number   1
_chemical_formula_structural   CaVP2O7
_chemical_formula_sum   'Ca2 V2 P4 O14'
_cell_volume   280.82923622
_cell_formula_units_Z   2
loop_
 _symmetry_equiv_pos_site_id
 _symmetry_equiv_pos_as_xyz
  1  'x, y, z'
loop_
 _atom_site_type_symbol
 _atom_site_label
 _atom_site_symmetry_multiplicity
 _atom_site_fract_x
 _atom_site_fract_y
 _atom_site_fract_z
 _atom_site_occupancy
  Ca  Ca0  1  0.303650  0.708840  0.638603  1
  Ca  Ca1  1  0.696351  0.291161  0.361397  1
  V  V2  1  0.257375  0.130987  0.188479  1
  V  V3  1  0.742627  0.869012  0.811521  1
  P  P4  1  0.169205  0.658364  0.120799  1
  P  P5  1  0.830793  0.341636  0.879201  1
  P  P6  1  0.236899  0.219150  0.618575  1
  P  P7  1  0.763102  0.780849  0.381424  1
  O  O8  1  0.086232  0.730719  0.916199  1
  O  O9  1  0.913769  0.269281  0.083801  1
  O  O10  1  0.250209  0.814520  0.205903  1
  O  O11  1  0.749790  0.185479  0.794097  1
  O  O12  1  0.337107  0.422410  0.148264  1
  O  O13  1  0.662895  0.577589  0.851737  1
  O  O14  1  0.638517  0.630705  0.449153  1
  O  O15  1  0.361482  0.369295  0.550848  1
  O  O16  1  0.107061  0.168913  0.462667  1
  O  O17  1  0.892938  0.831087  0.537333  1
  O  O18  1  0.057893  0.348180  0.765313  1
  O  O19  1  0.608179  0.997930  0.274711  1
  O  O20  1  0.391823  0.002069  0.725290  1
  O  O21  1  0.942106  0.651821  0.234686  1
