# generated using pymatgen
data_MnZnP2O7
_symmetry_space_group_name_H-M   'P 1'
_cell_length_a   5.70634224
_cell_length_b   6.51741062
_cell_length_c   7.41508047
_cell_angle_alpha   82.43844595
_cell_angle_beta   86.00659071
_cell_angle_gamma   71.42145104
_symmetry_Int_Tables_number   1
_chemical_formula_structural   MnZnP2O7
_chemical_formula_sum   'Mn2 Zn2 P4 O14'
_cell_volume   259.01419118
_cell_formula_units_Z   2
loop_
 _symmetry_equiv_pos_site_id
 _symmetry_equiv_pos_as_xyz
  1  'x, y, z'
loop_
 _atom_site_type_symbol
 _atom_site_label
 _atom_site_symmetry_multiplicity
 _atom_site_fract_x
 _atom_site_fract_y
 _atom_site_fract_z
 _atom_site_occupancy
  Mn  Mn0  1  0.252103  0.150876  0.205455  1
  Mn  Mn1  1  0.747903  0.849121  0.794566  1
  Zn  Zn2  1  0.338251  0.656645  0.655129  1
  Zn  Zn3  1  0.661751  0.343352  0.344868  1
  P  P4  1  0.192118  0.675113  0.094555  1
  P  P5  1  0.807882  0.324892  0.905444  1
  P  P6  1  0.220387  0.206129  0.616188  1
  P  P7  1  0.779612  0.793867  0.383811  1
  O  O8  1  0.115618  0.692193  0.896402  1
  O  O9  1  0.884383  0.307805  0.103596  1
  O  O10  1  0.296117  0.850332  0.131519  1
  O  O11  1  0.703876  0.149680  0.868482  1
  O  O12  1  0.353346  0.443294  0.164982  1
  O  O13  1  0.646657  0.556714  0.835014  1
  O  O14  1  0.619625  0.641050  0.433997  1
  O  O15  1  0.380374  0.358945  0.565999  1
  O  O16  1  0.045256  0.219860  0.463371  1
  O  O17  1  0.954742  0.780138  0.536627  1
  O  O18  1  0.071562  0.293398  0.796079  1
  O  O19  1  0.622477  0.031980  0.326647  1
  O  O20  1  0.377524  0.968016  0.673350  1
  O  O21  1  0.928438  0.706599  0.203918  1
