# generated using pymatgen
data_Zn3Cu2(GeO4)3
_symmetry_space_group_name_H-M   'P 1'
_cell_length_a   10.41741988
_cell_length_b   10.41741936
_cell_length_c   10.41741949
_cell_angle_alpha   109.47122087
_cell_angle_beta   109.47121986
_cell_angle_gamma   109.47121993
_symmetry_Int_Tables_number   1
_chemical_formula_structural   Zn3Cu2(GeO4)3
_chemical_formula_sum   'Zn12 Cu8 Ge12 O48'
_cell_volume   870.27916226
_cell_formula_units_Z   4
loop_
 _symmetry_equiv_pos_site_id
 _symmetry_equiv_pos_as_xyz
  1  'x, y, z'
loop_
 _atom_site_type_symbol
 _atom_site_label
 _atom_site_symmetry_multiplicity
 _atom_site_fract_x
 _atom_site_fract_y
 _atom_site_fract_z
 _atom_site_occupancy
  Zn  Zn0  1  0.625000  0.250000  0.875000  1
  Zn  Zn1  1  0.875000  0.750000  0.625000  1
  Zn  Zn2  1  0.750000  0.625000  0.875000  1
  Zn  Zn3  1  0.250000  0.875000  0.625000  1
  Zn  Zn4  1  0.875000  0.625000  0.250000  1
  Zn  Zn5  1  0.625000  0.875000  0.750000  1
  Zn  Zn6  1  0.375000  0.750000  0.125000  1
  Zn  Zn7  1  0.125000  0.250000  0.375000  1
  Zn  Zn8  1  0.250000  0.375000  0.125000  1
  Zn  Zn9  1  0.750000  0.125000  0.375000  1
  Zn  Zn10  1  0.125000  0.375000  0.750000  1
  Zn  Zn11  1  0.375000  0.125000  0.250000  1
  Cu  Cu12  1  0.500000  0.500000  0.500000  1
  Cu  Cu13  1  0.500000  0.500000  0.000000  1
  Cu  Cu14  1  0.500000  0.000000  0.500000  1
  Cu  Cu15  1  0.000000  0.500000  0.500000  1
  Cu  Cu16  1  0.500000  0.000000  0.000000  1
  Cu  Cu17  1  0.000000  0.000000  0.500000  1
  Cu  Cu18  1  0.000000  0.500000  0.000000  1
  Cu  Cu19  1  0.000000  0.000000  0.000000  1
  Ge  Ge20  1  0.875000  0.125000  0.750000  1
  Ge  Ge21  1  0.125000  0.875000  0.250000  1
  Ge  Ge22  1  0.250000  0.625000  0.375000  1
  Ge  Ge23  1  0.125000  0.750000  0.875000  1
  Ge  Ge24  1  0.750000  0.875000  0.125000  1
  Ge  Ge25  1  0.375000  0.250000  0.625000  1
  Ge  Ge26  1  0.625000  0.750000  0.375000  1
  Ge  Ge27  1  0.875000  0.250000  0.125000  1
  Ge  Ge28  1  0.250000  0.125000  0.875000  1
  Ge  Ge29  1  0.750000  0.375000  0.625000  1
  Ge  Ge30  1  0.375000  0.625000  0.750000  1
  Ge  Ge31  1  0.625000  0.375000  0.250000  1
  O  O32  1  0.791311  0.419823  0.819804  1
  O  O33  1  0.080177  0.871488  0.399981  1
  O  O34  1  0.680196  0.100019  0.971506  1
  O  O35  1  0.708689  0.528494  0.628512  1
  O  O36  1  0.708689  0.680196  0.080177  1
  O  O37  1  0.528494  0.628512  0.708689  1
  O  O38  1  0.100019  0.628512  0.419823  1
  O  O39  1  0.628512  0.708689  0.528494  1
  O  O40  1  0.399981  0.819804  0.528494  1
  O  O41  1  0.871488  0.971506  0.791311  1
  O  O42  1  0.971506  0.791311  0.871488  1
  O  O43  1  0.080177  0.708689  0.680196  1
  O  O44  1  0.628512  0.419823  0.100019  1
  O  O45  1  0.528494  0.399981  0.819804  1
  O  O46  1  0.680196  0.080177  0.708689  1
  O  O47  1  0.419823  0.100019  0.628512  1
  O  O48  1  0.819804  0.528494  0.399981  1
  O  O49  1  0.399981  0.080177  0.871488  1
  O  O50  1  0.100019  0.971506  0.680196  1
  O  O51  1  0.600019  0.180196  0.471506  1
  O  O52  1  0.971506  0.680196  0.100019  1
  O  O53  1  0.819804  0.791311  0.419823  1
  O  O54  1  0.871488  0.399981  0.080177  1
  O  O55  1  0.791311  0.871488  0.971506  1
  O  O56  1  0.208689  0.580177  0.180196  1
  O  O57  1  0.919823  0.128512  0.600019  1
  O  O58  1  0.319804  0.899981  0.028494  1
  O  O59  1  0.291311  0.471506  0.371488  1
  O  O60  1  0.291311  0.319804  0.919823  1
  O  O61  1  0.471506  0.371488  0.291311  1
  O  O62  1  0.899981  0.371488  0.580177  1
  O  O63  1  0.371488  0.291311  0.471506  1
  O  O64  1  0.208689  0.128512  0.028494  1
  O  O65  1  0.128512  0.600019  0.919823  1
  O  O66  1  0.180196  0.208689  0.580177  1
  O  O67  1  0.580177  0.180196  0.208689  1
  O  O68  1  0.028494  0.319804  0.899981  1
  O  O69  1  0.899981  0.028494  0.319804  1
  O  O70  1  0.600019  0.919823  0.128512  1
  O  O71  1  0.180196  0.471506  0.600019  1
  O  O72  1  0.580177  0.899981  0.371488  1
  O  O73  1  0.319804  0.919823  0.291311  1
  O  O74  1  0.471506  0.600019  0.180196  1
  O  O75  1  0.371488  0.580177  0.899981  1
  O  O76  1  0.919823  0.291311  0.319804  1
  O  O77  1  0.028494  0.208689  0.128512  1
  O  O78  1  0.128512  0.028494  0.208689  1
  O  O79  1  0.419823  0.819804  0.791311  1
