# generated using pymatgen
data_Sr2Cu2MoO7
_symmetry_space_group_name_H-M   'P 1'
_cell_length_a   5.31177257
_cell_length_b   5.34677769
_cell_length_c   13.46833569
_cell_angle_alpha   101.29669887
_cell_angle_beta   101.00580540
_cell_angle_gamma   90.88433626
_symmetry_Int_Tables_number   1
_chemical_formula_structural   Sr2Cu2MoO7
_chemical_formula_sum   'Sr4 Cu4 Mo2 O14'
_cell_volume   367.64768719
_cell_formula_units_Z   2
loop_
 _symmetry_equiv_pos_site_id
 _symmetry_equiv_pos_as_xyz
  1  'x, y, z'
loop_
 _atom_site_type_symbol
 _atom_site_label
 _atom_site_symmetry_multiplicity
 _atom_site_fract_x
 _atom_site_fract_y
 _atom_site_fract_z
 _atom_site_occupancy
  Sr  Sr0  1  0.346387  0.357103  0.731491  1
  Sr  Sr1  1  0.618188  0.643145  0.270641  1
  Sr  Sr2  1  0.844565  0.873134  0.730091  1
  Sr  Sr3  1  0.118677  0.125734  0.269206  1
  Cu  Cu4  1  0.917806  0.441506  0.878524  1
  Cu  Cu5  1  0.045059  0.558512  0.122071  1
  Cu  Cu6  1  0.417326  0.937284  0.878506  1
  Cu  Cu7  1  0.545570  0.062639  0.121968  1
  Mo  Mo8  1  0.249089  0.662896  0.500211  1
  Mo  Mo9  1  0.809824  0.345495  0.500095  1
  O  O10  1  0.181705  0.297849  0.500263  1
  O  O11  1  0.636192  0.666032  0.500271  1
  O  O12  1  0.153903  0.175985  0.851522  1
  O  O13  1  0.310790  0.825734  0.152961  1
  O  O14  1  0.652806  0.173677  0.847916  1
  O  O15  1  0.808223  0.824064  0.148729  1
  O  O16  1  0.652445  0.674005  0.847141  1
  O  O17  1  0.812491  0.328707  0.157470  1
  O  O18  1  0.150100  0.672050  0.843489  1
  O  O19  1  0.310893  0.326558  0.153020  1
  O  O20  1  0.268793  0.844566  0.631690  1
  O  O21  1  0.664441  0.169456  0.371530  1
  O  O22  1  0.790834  0.298089  0.629130  1
  O  O23  1  0.139599  0.713021  0.368974  1
