# generated using pymatgen
data_Ca(CoO2)2
_symmetry_space_group_name_H-M   'P 1'
_cell_length_a   2.91624070
_cell_length_b   8.24346621
_cell_length_c   7.12603216
_cell_angle_alpha   68.94127982
_cell_angle_beta   78.24428937
_cell_angle_gamma   79.87383929
_symmetry_Int_Tables_number   1
_chemical_formula_structural   Ca(CoO2)2
_chemical_formula_sum   'Ca2 Co4 O8'
_cell_volume   155.52465173
_cell_formula_units_Z   2
loop_
 _symmetry_equiv_pos_site_id
 _symmetry_equiv_pos_as_xyz
  1  'x, y, z'
loop_
 _atom_site_type_symbol
 _atom_site_label
 _atom_site_symmetry_multiplicity
 _atom_site_fract_x
 _atom_site_fract_y
 _atom_site_fract_z
 _atom_site_occupancy
  Ca  Ca0  1  0.373242  0.143785  0.095057  1
  Ca  Ca1  1  0.612881  0.836528  0.934035  1
  Co  Co2  1  0.566185  0.224145  0.633049  1
  Co  Co3  1  0.154798  0.474376  0.205803  1
  Co  Co4  1  0.829171  0.506141  0.825605  1
  Co  Co5  1  0.417761  0.757041  0.398164  1
  O  O6  1  0.868144  0.682697  0.572268  1
  O  O7  1  0.416612  0.372606  0.783371  1
  O  O8  1  0.567519  0.608166  0.247555  1
  O  O9  1  0.114786  0.298779  0.459780  1
  O  O10  1  0.051113  0.081042  0.808385  1
  O  O11  1  0.758247  0.353547  0.118464  1
  O  O12  1  0.933126  0.899819  0.223294  1
  O  O13  1  0.226131  0.626231  0.913515  1
