# generated using pymatgen
data_Y4Cr13Si2(SbO14)2
_symmetry_space_group_name_H-M   'P 1'
_cell_length_a   5.88967725
_cell_length_b   8.82802312
_cell_length_c   12.82342438
_cell_angle_alpha   87.60638388
_cell_angle_beta   76.72381129
_cell_angle_gamma   79.52161736
_symmetry_Int_Tables_number   1
_chemical_formula_structural   Y4Cr13Si2(SbO14)2
_chemical_formula_sum   'Y4 Cr13 Si2 Sb2 O28'
_cell_volume   638.10291841
_cell_formula_units_Z   1
loop_
 _symmetry_equiv_pos_site_id
 _symmetry_equiv_pos_as_xyz
  1  'x, y, z'
loop_
 _atom_site_type_symbol
 _atom_site_label
 _atom_site_symmetry_multiplicity
 _atom_site_fract_x
 _atom_site_fract_y
 _atom_site_fract_z
 _atom_site_occupancy
  Y  Y0  1  0.077524  0.659157  0.414777  1
  Y  Y1  1  0.507698  0.340843  0.414777  1
  Y  Y2  1  0.922476  0.340843  0.585223  1
  Y  Y3  1  0.492302  0.659157  0.585223  1
  Cr  Cr4  1  0.893768  0.638941  0.736658  1
  Cr  Cr5  1  0.664570  0.345682  0.117030  1
  Cr  Cr6  1  0.369573  0.361059  0.736658  1
  Cr  Cr7  1  0.106232  0.361059  0.263342  1
  Cr  Cr8  1  0.335430  0.654318  0.882970  1
  Cr  Cr9  1  0.294412  1.000000  0.411177  1
  Cr  Cr10  1  0.218399  0.654318  0.117030  1
  Cr  Cr11  1  0.000000  -0.000000  0.000000  1
  Cr  Cr12  1  0.431828  0.000000  0.136344  1
  Cr  Cr13  1  0.781601  0.345682  0.882970  1
  Cr  Cr14  1  0.630427  0.638941  0.263342  1
  Cr  Cr15  1  0.568172  1.000000  0.863656  1
  Cr  Cr16  1  0.705588  0.000000  0.588823  1
  Si  Si17  1  0.247069  0.315072  0.000000  1
  Si  Si18  1  0.752931  0.684928  1.000000  1
  Sb  Sb19  1  0.862437  0.000000  0.275126  1
  Sb  Sb20  1  0.137563  1.000000  0.724874  1
  O  O21  1  0.714765  0.395566  0.260943  1
  O  O22  1  0.127273  0.382413  0.422357  1
  O  O23  1  0.964479  0.340212  1.000000  1
  O  O24  1  0.350305  0.129867  0.000000  1
  O  O25  1  0.872727  0.617587  0.577643  1
  O  O26  1  0.285235  0.604434  0.739057  1
  O  O27  1  0.000134  0.094867  0.585704  1
  O  O28  1  0.999866  0.905133  0.414296  1
  O  O29  1  0.649695  0.870133  1.000000  1
  O  O30  1  0.166094  0.882780  0.124270  1
  O  O31  1  0.288767  0.400690  0.105376  1
  O  O32  1  0.024292  0.604434  0.260943  1
  O  O33  1  0.414163  0.905133  0.585704  1
  O  O34  1  0.709635  0.117220  0.124270  1
  O  O35  1  0.605856  0.599310  0.105376  1
  O  O36  1  0.035521  0.659788  0.000000  1
  O  O37  1  0.290364  0.882780  0.875730  1
  O  O38  1  0.833906  0.117220  0.875730  1
  O  O39  1  0.585837  0.094867  0.414296  1
  O  O40  1  0.193646  0.126882  0.256906  1
  O  O41  1  0.806354  0.873118  0.743094  1
  O  O42  1  0.394144  0.400690  0.894624  1
  O  O43  1  0.450552  0.126882  0.743094  1
  O  O44  1  0.549630  0.382413  0.577643  1
  O  O45  1  0.711233  0.599310  0.894624  1
  O  O46  1  0.549448  0.873118  0.256906  1
  O  O47  1  0.975708  0.395566  0.739057  1
  O  O48  1  0.450370  0.617587  0.422357  1
