# generated using pymatgen
data_Sr2YNi2O7
_symmetry_space_group_name_H-M   'P 1'
_cell_length_a   12.28995968
_cell_length_b   12.28995968
_cell_length_c   12.28995968
_cell_angle_alpha   36.17737089
_cell_angle_beta   154.69108678
_cell_angle_gamma   154.57892450
_symmetry_Int_Tables_number   1
_chemical_formula_structural   Sr2YNi2O7
_chemical_formula_sum   'Sr4 Y2 Ni4 O14'
_cell_volume   340.21718345
_cell_formula_units_Z   2
loop_
 _symmetry_equiv_pos_site_id
 _symmetry_equiv_pos_as_xyz
  1  'x, y, z'
loop_
 _atom_site_type_symbol
 _atom_site_label
 _atom_site_symmetry_multiplicity
 _atom_site_fract_x
 _atom_site_fract_y
 _atom_site_fract_z
 _atom_site_occupancy
  Sr  Sr0  1  0.976215  0.840861  0.795857  1
  Sr  Sr1  1  0.045004  0.180358  0.204143  1
  Sr  Sr2  1  0.976215  0.680358  0.635355  1
  Sr  Sr3  1  0.045004  0.340861  0.364645  1
  Y  Y4  1  0.016753  0.516753  0.500000  1
  Y  Y5  1  0.016753  0.016753  -0.000000  1
  Ni  Ni6  1  0.523571  0.432712  0.925052  1
  Ni  Ni7  1  0.507659  0.598519  0.074948  1
  Ni  Ni8  1  0.523571  0.098519  0.590862  1
  Ni  Ni9  1  0.507659  0.932712  0.409138  1
  O  O10  1  0.023817  0.013663  0.510153  1
  O  O11  1  0.503510  0.513663  0.489847  1
  O  O12  1  0.515383  0.197323  0.202835  1
  O  O13  1  0.994488  0.312549  0.797165  1
  O  O14  1  0.515383  0.812548  0.818060  1
  O  O15  1  0.994488  0.697323  0.181940  1
  O  O16  1  0.516687  0.711631  0.676519  1
  O  O17  1  0.035113  0.840167  0.323481  1
  O  O18  1  0.516687  0.340167  0.305056  1
  O  O19  1  0.035113  0.211631  0.694944  1
  O  O20  1  0.480021  0.854613  0.304404  1
  O  O21  1  0.550209  0.175615  0.695596  1
  O  O22  1  0.480021  0.675615  0.125408  1
  O  O23  1  0.550209  0.354613  0.874592  1
