# generated using pymatgen
data_Mg(CuO2)2
_symmetry_space_group_name_H-M   'P 1'
_cell_length_a   5.04848055
_cell_length_b   5.75328310
_cell_length_c   10.07995407
_cell_angle_alpha   90.07047319
_cell_angle_beta   90.00370842
_cell_angle_gamma   89.93265102
_symmetry_Int_Tables_number   1
_chemical_formula_structural   Mg(CuO2)2
_chemical_formula_sum   'Mg4 Cu8 O16'
_cell_volume   292.77524711
_cell_formula_units_Z   4
loop_
 _symmetry_equiv_pos_site_id
 _symmetry_equiv_pos_as_xyz
  1  'x, y, z'
loop_
 _atom_site_type_symbol
 _atom_site_label
 _atom_site_symmetry_multiplicity
 _atom_site_fract_x
 _atom_site_fract_y
 _atom_site_fract_z
 _atom_site_occupancy
  Mg  Mg0  1  0.843249  0.249946  0.750203  1
  Mg  Mg1  1  0.156922  0.750051  0.249791  1
  Mg  Mg2  1  0.515751  0.249064  0.249894  1
  Mg  Mg3  1  0.485030  0.751372  0.750157  1
  Cu  Cu4  1  0.515281  0.750183  0.483239  1
  Cu  Cu5  1  0.515105  0.750013  0.016590  1
  Cu  Cu6  1  0.484633  0.250395  0.516980  1
  Cu  Cu7  1  0.484757  0.250104  0.983244  1
  Cu  Cu8  1  -0.000013  0.499634  0.500072  1
  Cu  Cu9  1  -0.000033  0.000117  0.999911  1
  Cu  Cu10  1  -0.000051  -0.000272  0.499963  1
  Cu  Cu11  1  0.000073  0.499921  0.000015  1
  O  O12  1  0.860433  0.749630  0.394881  1
  O  O13  1  0.860225  0.751232  0.105267  1
  O  O14  1  0.139458  0.249380  0.605245  1
  O  O15  1  0.139756  0.248881  0.894723  1
  O  O16  1  0.198354  0.750025  0.595756  1
  O  O17  1  0.198867  0.749889  0.904025  1
  O  O18  1  0.801467  0.249513  0.404378  1
  O  O19  1  0.800813  0.250110  0.095776  1
  O  O20  1  0.665170  0.502833  0.618338  1
  O  O21  1  0.662711  0.998664  0.881052  1
  O  O22  1  0.335335  0.001215  0.381569  1
  O  O23  1  0.335792  0.497664  0.118286  1
  O  O24  1  0.335693  0.497950  0.382132  1
  O  O25  1  0.337439  0.001276  0.118580  1
  O  O26  1  0.663744  0.998218  0.617974  1
  O  O27  1  0.664040  0.502994  0.881959  1
