# generated using pymatgen
data_Mg2Ni3O8
_symmetry_space_group_name_H-M   'P 1'
_cell_length_a   4.78613359
_cell_length_b   5.66688163
_cell_length_c   5.77033176
_cell_angle_alpha   119.40870098
_cell_angle_beta   106.95704205
_cell_angle_gamma   89.99999728
_symmetry_Int_Tables_number   1
_chemical_formula_structural   Mg2Ni3O8
_chemical_formula_sum   'Mg2 Ni3 O8'
_cell_volume   128.47010315
_cell_formula_units_Z   1
loop_
 _symmetry_equiv_pos_site_id
 _symmetry_equiv_pos_as_xyz
  1  'x, y, z'
loop_
 _atom_site_type_symbol
 _atom_site_label
 _atom_site_symmetry_multiplicity
 _atom_site_fract_x
 _atom_site_fract_y
 _atom_site_fract_z
 _atom_site_occupancy
  Mg  Mg0  1  0.649371  0.719803  0.439605  1
  Mg  Mg1  1  0.350628  0.280198  0.560395  1
  Ni  Ni2  1  0.500000  0.999999  0.000000  1
  Ni  Ni3  1  0.999999  0.745167  1.000000  1
  Ni  Ni4  1  0.999999  0.254833  0.000000  1
  O  O5  1  0.054418  0.390251  0.780503  1
  O  O6  1  0.945582  0.609748  0.219497  1
  O  O7  1  0.090556  0.896897  0.793793  1
  O  O8  1  0.909444  0.103102  0.206206  1
  O  O9  1  0.397215  0.337741  0.225592  1
  O  O10  1  0.397215  0.887851  0.225592  1
  O  O11  1  0.602786  0.112148  0.774408  1
  O  O12  1  0.602786  0.662259  0.774408  1
