# generated using pymatgen
data_CaTi3O7
_symmetry_space_group_name_H-M   'P 1'
_cell_length_a   5.44774265
_cell_length_b   10.58726392
_cell_length_c   10.93357608
_cell_angle_alpha   90.00000000
_cell_angle_beta   90.00000000
_cell_angle_gamma   90.00000000
_symmetry_Int_Tables_number   1
_chemical_formula_structural   CaTi3O7
_chemical_formula_sum   'Ca4 Ti12 O28'
_cell_volume   630.61246945
_cell_formula_units_Z   4
loop_
 _symmetry_equiv_pos_site_id
 _symmetry_equiv_pos_as_xyz
  1  'x, y, z'
loop_
 _atom_site_type_symbol
 _atom_site_label
 _atom_site_symmetry_multiplicity
 _atom_site_fract_x
 _atom_site_fract_y
 _atom_site_fract_z
 _atom_site_occupancy
  Ca  Ca0  1  0.674018  0.750000  0.932458  1
  Ca  Ca1  1  0.174018  0.250000  0.567542  1
  Ca  Ca2  1  0.325982  0.250000  0.067542  1
  Ca  Ca3  1  0.825982  0.750000  0.432458  1
  Ti  Ti4  1  0.301150  0.026534  0.307411  1
  Ti  Ti5  1  0.801150  0.973466  0.192589  1
  Ti  Ti6  1  0.698850  0.526534  0.692589  1
  Ti  Ti7  1  0.198850  0.473466  0.807411  1
  Ti  Ti8  1  0.310523  0.750000  0.218605  1
  Ti  Ti9  1  0.810523  0.250000  0.281395  1
  Ti  Ti10  1  0.689477  0.250000  0.781395  1
  Ti  Ti11  1  0.189477  0.750000  0.718605  1
  Ti  Ti12  1  0.801150  0.526534  0.192589  1
  Ti  Ti13  1  0.301150  0.473466  0.307411  1
  Ti  Ti14  1  0.198850  0.026534  0.807411  1
  Ti  Ti15  1  0.698850  0.973466  0.692589  1
  O  O16  1  0.933809  0.119851  0.723729  1
  O  O17  1  0.433809  0.880149  0.776271  1
  O  O18  1  0.066191  0.619851  0.276271  1
  O  O19  1  0.566191  0.380149  0.223729  1
  O  O20  1  0.066191  0.880149  0.276271  1
  O  O21  1  0.566191  0.119851  0.223729  1
  O  O22  1  0.933809  0.380149  0.723729  1
  O  O23  1  0.433809  0.619851  0.776271  1
  O  O24  1  0.457453  0.119237  0.719012  1
  O  O25  1  0.957453  0.880763  0.780988  1
  O  O26  1  0.542547  0.619237  0.280988  1
  O  O27  1  0.042547  0.380763  0.219012  1
  O  O28  1  0.542547  0.880763  0.280988  1
  O  O29  1  0.042547  0.119237  0.219012  1
  O  O30  1  0.457453  0.380763  0.719012  1
  O  O31  1  0.957453  0.619237  0.780988  1
  O  O32  1  0.169173  0.750000  0.564623  1
  O  O33  1  0.669173  0.250000  0.935377  1
  O  O34  1  0.830827  0.250000  0.435377  1
  O  O35  1  0.330827  0.750000  0.064623  1
  O  O36  1  0.217184  0.419974  0.951880  1
  O  O37  1  0.717184  0.580026  0.548120  1
  O  O38  1  0.782816  0.919974  0.048120  1
  O  O39  1  0.282816  0.080026  0.451880  1
  O  O40  1  0.782816  0.580026  0.048120  1
  O  O41  1  0.282816  0.419974  0.451880  1
  O  O42  1  0.217184  0.080026  0.951880  1
  O  O43  1  0.717184  0.919974  0.548120  1
