# generated using pymatgen
data_CaMn2O4
_symmetry_space_group_name_H-M   'P 1'
_cell_length_a   6.56564846
_cell_length_b   6.56363746
_cell_length_c   18.22329212
_cell_angle_alpha   61.72193009
_cell_angle_beta   61.72087111
_cell_angle_gamma   54.37769418
_symmetry_Int_Tables_number   1
_chemical_formula_structural   CaMn2O4
_chemical_formula_sum   'Ca6 Mn12 O24'
_cell_volume   540.29120957
_cell_formula_units_Z   6
loop_
 _symmetry_equiv_pos_site_id
 _symmetry_equiv_pos_as_xyz
  1  'x, y, z'
loop_
 _atom_site_type_symbol
 _atom_site_label
 _atom_site_symmetry_multiplicity
 _atom_site_fract_x
 _atom_site_fract_y
 _atom_site_fract_z
 _atom_site_occupancy
  Ca  Ca0  1  0.124724  0.125115  0.046371  1
  Ca  Ca1  1  0.123070  0.122985  0.379309  1
  Ca  Ca2  1  0.498129  0.498222  0.999551  1
  Ca  Ca3  1  0.119341  0.119599  0.716579  1
  Ca  Ca4  1  0.882054  0.881635  0.285013  1
  Ca  Ca5  1  0.872372  0.872349  0.624262  1
  Mn  Mn6  1  0.003969  0.508022  0.166756  1
  Mn  Mn7  1  0.493659  0.493885  0.175427  1
  Mn  Mn8  1  0.999067  0.498633  0.500189  1
  Mn  Mn9  1  0.507936  0.003910  0.166845  1
  Mn  Mn10  1  0.502273  0.502187  0.335576  1
  Mn  Mn11  1  0.497426  0.497399  0.500512  1
  Mn  Mn12  1  0.003274  0.500100  0.831586  1
  Mn  Mn13  1  0.498742  0.999084  0.500153  1
  Mn  Mn14  1  0.500068  0.003223  0.831600  1
  Mn  Mn15  1  0.499110  0.499210  0.663040  1
  Mn  Mn16  1  0.498309  0.498373  0.827052  1
  Mn  Mn17  1  0.878970  0.879012  0.951204  1
  O  O18  1  0.262353  0.261677  0.095982  1
  O  O19  1  0.257297  0.257605  0.238055  1
  O  O20  1  0.243510  0.705300  0.109364  1
  O  O21  1  0.704547  0.241475  0.109776  1
  O  O22  1  0.309924  0.735688  0.246888  1
  O  O23  1  0.267695  0.267884  0.423206  1
  O  O24  1  0.733738  0.309123  0.247410  1
  O  O25  1  0.759062  0.758930  0.089874  1
  O  O26  1  0.271514  0.697668  0.423362  1
  O  O27  1  0.254878  0.254835  0.569547  1
  O  O28  1  0.732262  0.732914  0.243836  1
  O  O29  1  0.697824  0.271253  0.423408  1
  O  O30  1  0.298811  0.727471  0.575568  1
  O  O31  1  0.271425  0.271518  0.754043  1
  O  O32  1  0.727392  0.298856  0.575589  1
  O  O33  1  0.743987  0.743858  0.430384  1
  O  O34  1  0.256102  0.256116  0.900317  1
  O  O35  1  0.272625  0.696564  0.749014  1
  O  O36  1  0.732540  0.732495  0.575856  1
  O  O37  1  0.696494  0.272597  0.749006  1
  O  O38  1  0.271745  0.749226  0.896628  1
  O  O39  1  0.739254  0.739212  0.766989  1
  O  O40  1  0.749203  0.271705  0.896587  1
  O  O41  1  0.743324  0.743084  0.908289  1
