# generated using pymatgen
data_Zn(MoO2)4
_symmetry_space_group_name_H-M   'P 1'
_cell_length_a   3.23680200
_cell_length_b   7.61823360
_cell_length_c   7.91493368
_cell_angle_alpha   83.99651704
_cell_angle_beta   77.69108859
_cell_angle_gamma   76.47771088
_symmetry_Int_Tables_number   1
_chemical_formula_structural   Zn(MoO2)4
_chemical_formula_sum   'Zn1 Mo4 O8'
_cell_volume   185.09146018
_cell_formula_units_Z   1
loop_
 _symmetry_equiv_pos_site_id
 _symmetry_equiv_pos_as_xyz
  1  'x, y, z'
loop_
 _atom_site_type_symbol
 _atom_site_label
 _atom_site_symmetry_multiplicity
 _atom_site_fract_x
 _atom_site_fract_y
 _atom_site_fract_z
 _atom_site_occupancy
  Zn  Zn0  1  -0.017907  0.069891  0.121041  1
  Mo  Mo1  1  0.652294  0.180696  0.553910  1
  Mo  Mo2  1  0.193681  0.489567  0.210939  1
  Mo  Mo3  1  0.869132  0.501968  0.842012  1
  Mo  Mo4  1  0.378255  0.805398  0.502015  1
  O  O5  1  0.870665  0.682044  0.633513  1
  O  O6  1  0.477847  0.354390  0.745738  1
  O  O7  1  0.561427  0.631085  0.317809  1
  O  O8  1  0.180301  0.301823  0.427441  1
  O  O9  1  0.175134  0.026335  0.652714  1
  O  O10  1  0.838162  0.346969  0.086296  1
  O  O11  1  0.858879  0.963601  0.380425  1
  O  O12  1  0.259610  0.622339  0.956792  1
