# generated using pymatgen
data_Ba2AlMo3O8
_symmetry_space_group_name_H-M   'P 1'
_cell_length_a   4.20191224
_cell_length_b   4.19873492
_cell_length_c   11.70583554
_cell_angle_alpha   89.94134636
_cell_angle_beta   90.28777599
_cell_angle_gamma   91.05632835
_symmetry_Int_Tables_number   1
_chemical_formula_structural   Ba2AlMo3O8
_chemical_formula_sum   'Ba2 Al1 Mo3 O8'
_cell_volume   206.48493647
_cell_formula_units_Z   1
loop_
 _symmetry_equiv_pos_site_id
 _symmetry_equiv_pos_as_xyz
  1  'x, y, z'
loop_
 _atom_site_type_symbol
 _atom_site_label
 _atom_site_symmetry_multiplicity
 _atom_site_fract_x
 _atom_site_fract_y
 _atom_site_fract_z
 _atom_site_occupancy
  Ba  Ba0  1  0.491010  0.505175  0.178237  1
  Ba  Ba1  1  0.491917  0.508534  0.822054  1
  Al  Al2  1  0.355492  0.646356  0.500617  1
  Mo  Mo3  1  0.000969  0.998232  0.363365  1
  Mo  Mo4  1  0.996155  0.002557  0.999802  1
  Mo  Mo5  1  0.998207  0.004365  0.636325  1
  O  O6  1  0.086465  0.490285  0.384606  1
  O  O7  1  0.508223  0.914067  0.384104  1
  O  O8  1  0.497155  0.999122  0.999660  1
  O  O9  1  0.991877  0.002182  0.181426  1
  O  O10  1  0.081705  0.497395  0.616276  1
  O  O11  1  0.504481  0.923189  0.615661  1
  O  O12  1  0.995616  0.006607  0.818139  1
  O  O13  1  0.000728  0.501932  0.999728  1
