# generated using pymatgen
data_Ca2GaFeO5
_symmetry_space_group_name_H-M   'P 1'
_cell_length_a   5.46763515
_cell_length_b   5.68354732
_cell_length_c   14.77263471
_cell_angle_alpha   89.99987725
_cell_angle_beta   90.00292609
_cell_angle_gamma   90.00004462
_symmetry_Int_Tables_number   1
_chemical_formula_structural   Ca2GaFeO5
_chemical_formula_sum   'Ca8 Ga4 Fe4 O20'
_cell_volume   459.06794153
_cell_formula_units_Z   4
loop_
 _symmetry_equiv_pos_site_id
 _symmetry_equiv_pos_as_xyz
  1  'x, y, z'
loop_
 _atom_site_type_symbol
 _atom_site_label
 _atom_site_symmetry_multiplicity
 _atom_site_fract_x
 _atom_site_fract_y
 _atom_site_fract_z
 _atom_site_occupancy
  Ca  Ca0  1  0.981567  0.527628  0.891819  1
  Ca  Ca1  1  0.518408  0.027687  0.391812  1
  Ca  Ca2  1  0.518428  0.027667  0.108188  1
  Ca  Ca3  1  0.481574  0.972335  0.891816  1
  Ca  Ca4  1  0.481559  0.972322  0.608187  1
  Ca  Ca5  1  0.018452  0.472378  0.391809  1
  Ca  Ca6  1  0.018428  0.472357  0.108184  1
  Ca  Ca7  1  0.981541  0.527621  0.608188  1
  Ga  Ga8  1  0.450676  0.429767  0.750037  1
  Ga  Ga9  1  0.049315  0.929789  0.249958  1
  Ga  Ga10  1  0.950689  0.070204  0.750042  1
  Ga  Ga11  1  0.549332  0.570251  0.249963  1
  Fe  Fe12  1  0.500002  0.499999  0.999994  1
  Fe  Fe13  1  0.499997  0.500003  0.500005  1
  Fe  Fe14  1  0.999988  0.999996  0.499998  1
  Fe  Fe15  1  0.000004  -0.000006  -0.000002  1
  O  O16  1  0.398545  0.874994  0.250014  1
  O  O17  1  0.260156  0.761054  0.485156  1
  O  O18  1  0.239853  0.261041  0.985146  1
  O  O19  1  0.531466  0.573787  0.857280  1
  O  O20  1  0.739851  0.238950  0.985142  1
  O  O21  1  0.760155  0.738950  0.014843  1
  O  O22  1  0.760158  0.738953  0.485155  1
  O  O23  1  0.968509  0.073839  0.142715  1
  O  O24  1  0.898563  0.625028  0.250010  1
  O  O25  1  0.101441  0.374968  0.749987  1
  O  O26  1  0.739852  0.238950  0.514868  1
  O  O27  1  0.468514  0.426209  0.142710  1
  O  O28  1  0.531529  0.573850  0.642675  1
  O  O29  1  0.601456  0.125018  0.749985  1
  O  O30  1  0.239855  0.261040  0.514849  1
  O  O31  1  0.968468  0.073911  0.357330  1
  O  O32  1  0.031488  0.926171  0.857273  1
  O  O33  1  0.260160  0.761050  0.014844  1
  O  O34  1  0.468490  0.426154  0.357335  1
  O  O35  1  0.031536  0.926085  0.642685  1
