# generated using pymatgen
data_HoMn2ZnO6
_symmetry_space_group_name_H-M   'P 1'
_cell_length_a   5.17980309
_cell_length_b   5.39778660
_cell_length_c   7.64953427
_cell_angle_alpha   90.00017442
_cell_angle_beta   90.00048062
_cell_angle_gamma   89.99880573
_symmetry_Int_Tables_number   1
_chemical_formula_structural   HoMn2ZnO6
_chemical_formula_sum   'Ho2 Mn4 Zn2 O12'
_cell_volume   213.87693699
_cell_formula_units_Z   2
loop_
 _symmetry_equiv_pos_site_id
 _symmetry_equiv_pos_as_xyz
  1  'x, y, z'
loop_
 _atom_site_type_symbol
 _atom_site_label
 _atom_site_symmetry_multiplicity
 _atom_site_fract_x
 _atom_site_fract_y
 _atom_site_fract_z
 _atom_site_occupancy
  Ho  Ho0  1  0.018046  0.935228  0.749984  1
  Ho  Ho1  1  0.518042  0.564782  0.250009  1
  Mn  Mn2  1  -0.000035  0.490431  0.000151  1
  Mn  Mn3  1  -0.000037  0.490441  0.499848  1
  Mn  Mn4  1  0.499953  0.009548  0.500175  1
  Mn  Mn5  1  0.499955  0.009549  -0.000176  1
  Zn  Zn6  1  0.490967  0.456321  0.750012  1
  Zn  Zn7  1  0.990965  0.043689  0.249991  1
  O  O8  1  0.105990  0.445251  0.249992  1
  O  O9  1  0.196667  0.197210  0.939076  1
  O  O10  1  0.196690  0.197209  0.560922  1
  O  O11  1  0.308861  0.691042  0.938595  1
  O  O12  1  0.308882  0.691029  0.561399  1
  O  O13  1  0.374053  0.962643  0.250003  1
  O  O14  1  0.605999  0.054741  0.750000  1
  O  O15  1  0.696648  0.302759  0.439087  1
  O  O16  1  0.696630  0.302767  0.060912  1
  O  O17  1  0.808840  0.808985  0.061407  1
  O  O18  1  0.808863  0.809004  0.438612  1
  O  O19  1  0.874023  0.537370  0.750002  1
