# generated using pymatgen
data_Mg(FeS2)2
_symmetry_space_group_name_H-M   'P 1'
_cell_length_a   7.14161313
_cell_length_b   6.96846627
_cell_length_c   6.97897720
_cell_angle_alpha   89.04393504
_cell_angle_beta   120.66776408
_cell_angle_gamma   120.84883833
_symmetry_Int_Tables_number   1
_chemical_formula_structural   Mg(FeS2)2
_chemical_formula_sum   'Mg2 Fe4 S8'
_cell_volume   241.96550740
_cell_formula_units_Z   2
loop_
 _symmetry_equiv_pos_site_id
 _symmetry_equiv_pos_as_xyz
  1  'x, y, z'
loop_
 _atom_site_type_symbol
 _atom_site_label
 _atom_site_symmetry_multiplicity
 _atom_site_fract_x
 _atom_site_fract_y
 _atom_site_fract_z
 _atom_site_occupancy
  Mg  Mg0  1  0.999968  0.999983  0.999992  1
  Mg  Mg1  1  0.500040  0.999983  0.000023  1
  Fe  Fe2  1  0.500027  0.000051  0.500023  1
  Fe  Fe3  1  0.500084  0.499978  0.500036  1
  Fe  Fe4  1  0.999973  0.499971  0.999975  1
  Fe  Fe5  1  0.999941  0.499978  0.499993  1
  S  S6  1  0.034902  0.744979  0.255543  1
  S  S7  1  0.492367  0.754527  0.729958  1
  S  S8  1  0.465176  0.744706  0.254939  1
  S  S9  1  0.994348  0.732092  0.756407  1
  S  S10  1  0.534792  0.255283  0.745098  1
  S  S11  1  0.507592  0.245458  0.269968  1
  S  S12  1  0.005715  0.267943  0.243631  1
  S  S13  1  0.965125  0.255033  0.744456  1
