# generated using pymatgen
data_BaTl(SnO3)2
_symmetry_space_group_name_H-M   'P 1'
_cell_length_a   3.88631910
_cell_length_b   3.90170464
_cell_length_c   23.84042697
_cell_angle_alpha   94.72579285
_cell_angle_beta   94.68716457
_cell_angle_gamma   89.84072207
_symmetry_Int_Tables_number   1
_chemical_formula_structural   BaTl(SnO3)2
_chemical_formula_sum   'Ba2 Tl2 Sn4 O12'
_cell_volume   359.06217493
_cell_formula_units_Z   2
loop_
 _symmetry_equiv_pos_site_id
 _symmetry_equiv_pos_as_xyz
  1  'x, y, z'
loop_
 _atom_site_type_symbol
 _atom_site_label
 _atom_site_symmetry_multiplicity
 _atom_site_fract_x
 _atom_site_fract_y
 _atom_site_fract_z
 _atom_site_occupancy
  Ba  Ba0  1  0.162318  0.164601  0.325544  1
  Ba  Ba1  1  0.834376  0.839328  0.674571  1
  Tl  Tl2  1  0.728910  0.729422  0.451113  1
  Tl  Tl3  1  0.261873  0.276309  0.549215  1
  Sn  Sn4  1  0.549314  0.551876  0.092349  1
  Sn  Sn5  1  0.391377  0.394831  0.785689  1
  Sn  Sn6  1  0.606370  0.608876  0.214108  1
  Sn  Sn7  1  0.449894  0.459970  0.907438  1
  O  O8  1  0.375387  0.878785  0.753677  1
  O  O9  1  0.540451  0.040001  0.068903  1
  O  O10  1  0.227994  0.230610  0.461604  1
  O  O11  1  0.963569  0.472997  0.932773  1
  O  O12  1  0.780535  0.772338  0.538568  1
  O  O13  1  0.122781  0.625040  0.246853  1
  O  O14  1  0.622232  0.125041  0.246266  1
  O  O15  1  0.313414  0.320222  0.634544  1
  O  O16  1  0.875102  0.378375  0.753100  1
  O  O17  1  0.036368  0.542348  0.067340  1
  O  O18  1  0.461696  0.972409  0.930521  1
  O  O19  1  0.681673  0.684260  0.365603  1
