# generated using pymatgen
data_CaV4(CuO7)2
_symmetry_space_group_name_H-M   'P 1'
_cell_length_a   8.86949344
_cell_length_b   10.64350483
_cell_length_c   10.22716333
_cell_angle_alpha   91.66279331
_cell_angle_beta   90.00000000
_cell_angle_gamma   90.00000000
_symmetry_Int_Tables_number   1
_chemical_formula_structural   CaV4(CuO7)2
_chemical_formula_sum   'Ca3 V12 Cu6 O42'
_cell_volume   965.06320222
_cell_formula_units_Z   3
loop_
 _symmetry_equiv_pos_site_id
 _symmetry_equiv_pos_as_xyz
  1  'x, y, z'
loop_
 _atom_site_type_symbol
 _atom_site_label
 _atom_site_symmetry_multiplicity
 _atom_site_fract_x
 _atom_site_fract_y
 _atom_site_fract_z
 _atom_site_occupancy
  Ca  Ca0  1  0.939157  0.500000  0.750000  1
  Ca  Ca1  1  0.548280  0.832404  0.433737  1
  Ca  Ca2  1  0.548280  0.167596  0.066263  1
  V  V3  1  0.201473  0.161098  0.291475  1
  V  V4  1  0.750428  0.166280  0.383549  1
  V  V5  1  0.245712  0.168298  0.880155  1
  V  V6  1  0.803358  0.162041  0.788965  1
  V  V7  1  0.298095  0.468886  0.961764  1
  V  V8  1  0.750428  0.833720  0.116451  1
  V  V9  1  0.699150  0.470086  0.456349  1
  V  V10  1  0.245712  0.831702  0.619845  1
  V  V11  1  0.298095  0.531114  0.538236  1
  V  V12  1  0.699150  0.529914  0.043651  1
  V  V13  1  0.803358  0.837959  0.711035  1
  V  V14  1  0.201473  0.838902  0.208525  1
  Cu  Cu15  1  0.932137  0.802885  0.409326  1
  Cu  Cu16  1  0.067161  0.197427  0.589090  1
  Cu  Cu17  1  0.436238  0.500000  0.250000  1
  Cu  Cu18  1  0.932137  0.197115  0.090674  1
  Cu  Cu19  1  0.564128  0.500000  0.750000  1
  Cu  Cu20  1  0.067161  0.802573  0.910910  1
  O  O21  1  0.784144  0.193075  0.961598  1
  O  O22  1  0.776078  0.825122  0.289772  1
  O  O23  1  0.850577  0.000000  0.750000  1
  O  O24  1  0.870719  0.504552  0.094561  1
  O  O25  1  0.370050  0.940859  0.579968  1
  O  O26  1  0.933954  0.266883  0.712453  1
  O  O27  1  0.352892  0.305550  0.942296  1
  O  O28  1  0.124974  0.507854  0.598155  1
  O  O29  1  0.716092  0.485150  0.872719  1
  O  O30  1  0.370050  0.059141  0.920032  1
  O  O31  1  0.716092  0.514850  0.627281  1
  O  O32  1  0.429882  0.557090  0.874547  1
  O  O33  1  0.916788  0.848553  0.028154  1
  O  O34  1  0.063986  0.253514  0.214950  1
  O  O35  1  0.650354  0.692988  0.065595  1
  O  O36  1  0.352892  0.694450  0.557704  1
  O  O37  1  0.933954  0.733117  0.787547  1
  O  O38  1  0.637373  0.044643  0.410000  1
  O  O39  1  0.213189  0.189144  0.460886  1
  O  O40  1  0.573843  0.429498  0.130060  1
  O  O41  1  0.373357  0.807592  0.268233  1
  O  O42  1  0.287361  0.514216  0.126933  1
  O  O43  1  0.080714  0.845284  0.527765  1
  O  O44  1  0.287361  0.485784  0.373067  1
  O  O45  1  0.870719  0.495448  0.405439  1
  O  O46  1  0.573843  0.570502  0.369940  1
  O  O47  1  0.124974  0.492146  0.901845  1
  O  O48  1  0.633162  0.806085  0.761210  1
  O  O49  1  0.633162  0.193915  0.738790  1
  O  O50  1  0.080714  0.154716  0.972235  1
  O  O51  1  0.063986  0.746486  0.285050  1
  O  O52  1  0.784144  0.806925  0.538402  1
  O  O53  1  0.153538  0.000000  0.250000  1
  O  O54  1  0.216811  0.830240  0.789789  1
  O  O55  1  0.637373  0.955357  0.089999  1
  O  O56  1  0.916788  0.151447  0.471846  1
  O  O57  1  0.213189  0.810856  0.039114  1
  O  O58  1  0.776078  0.174878  0.210228  1
  O  O59  1  0.429882  0.442910  0.625453  1
  O  O60  1  0.650354  0.307012  0.434405  1
  O  O61  1  0.216811  0.169760  0.710211  1
  O  O62  1  0.373357  0.192408  0.231767  1
