# generated using pymatgen
data_Ca2TaMnO6
_symmetry_space_group_name_H-M   'P 1'
_cell_length_a   5.52316646
_cell_length_b   5.74303668
_cell_length_c   7.71082677
_cell_angle_alpha   90.00000000
_cell_angle_beta   90.00000000
_cell_angle_gamma   86.02772164
_symmetry_Int_Tables_number   1
_chemical_formula_structural   Ca2TaMnO6
_chemical_formula_sum   'Ca4 Ta2 Mn2 O12'
_cell_volume   243.99790709
_cell_formula_units_Z   2
loop_
 _symmetry_equiv_pos_site_id
 _symmetry_equiv_pos_as_xyz
  1  'x, y, z'
loop_
 _atom_site_type_symbol
 _atom_site_label
 _atom_site_symmetry_multiplicity
 _atom_site_fract_x
 _atom_site_fract_y
 _atom_site_fract_z
 _atom_site_occupancy
  Ca  Ca0  1  0.018150  0.952769  0.250000  1
  Ca  Ca1  1  0.494169  0.433320  0.250000  1
  Ca  Ca2  1  0.505831  0.566680  0.750000  1
  Ca  Ca3  1  0.981850  0.047231  0.750000  1
  Ta  Ta4  1  0.000000  0.500000  0.000000  1
  Ta  Ta5  1  0.000000  0.500000  0.500000  1
  Mn  Mn6  1  0.500000  0.000000  0.000000  1
  Mn  Mn7  1  0.500000  0.000000  0.500000  1
  O  O8  1  0.797795  0.797168  0.547961  1
  O  O9  1  0.280596  0.685157  0.451616  1
  O  O10  1  0.202205  0.202832  0.452039  1
  O  O11  1  0.719404  0.314843  0.951616  1
  O  O12  1  0.097279  0.472860  0.750000  1
  O  O13  1  0.719404  0.314843  0.548384  1
  O  O14  1  0.280596  0.685157  0.048384  1
  O  O15  1  0.797795  0.797168  0.952039  1
  O  O16  1  0.594089  0.026613  0.250000  1
  O  O17  1  0.202205  0.202832  0.047961  1
  O  O18  1  0.405911  0.973387  0.750000  1
  O  O19  1  0.902721  0.527140  0.250000  1
