# generated using pymatgen
data_ZnNi(GeO3)2
_symmetry_space_group_name_H-M   'P 1'
_cell_length_a   5.35564705
_cell_length_b   6.79328150
_cell_length_c   6.79328147
_cell_angle_alpha   85.40078597
_cell_angle_beta   77.79765833
_cell_angle_gamma   77.79765450
_symmetry_Int_Tables_number   1
_chemical_formula_structural   ZnNi(GeO3)2
_chemical_formula_sum   'Zn2 Ni2 Ge4 O12'
_cell_volume   235.95112261
_cell_formula_units_Z   2
loop_
 _symmetry_equiv_pos_site_id
 _symmetry_equiv_pos_as_xyz
  1  'x, y, z'
loop_
 _atom_site_type_symbol
 _atom_site_label
 _atom_site_symmetry_multiplicity
 _atom_site_fract_x
 _atom_site_fract_y
 _atom_site_fract_z
 _atom_site_occupancy
  Zn  Zn0  1  0.750000  0.247800  0.752200  1
  Zn  Zn1  1  0.250000  0.752200  0.247800  1
  Ni  Ni2  1  0.750000  0.905197  0.094803  1
  Ni  Ni3  1  0.250000  0.094803  0.905197  1
  Ge  Ge4  1  0.758441  0.390039  0.208666  1
  Ge  Ge5  1  0.741559  0.791334  0.609961  1
  Ge  Ge6  1  0.241559  0.609961  0.791334  1
  Ge  Ge7  1  0.258441  0.208666  0.390039  1
  O  O8  1  0.538515  0.300881  0.417128  1
  O  O9  1  0.961485  0.582872  0.699119  1
  O  O10  1  0.461485  0.699119  0.582872  1
  O  O11  1  0.038515  0.417128  0.300881  1
  O  O12  1  0.113722  0.132542  0.631238  1
  O  O13  1  0.386278  0.368762  0.867458  1
  O  O14  1  0.886278  0.867458  0.368762  1
  O  O15  1  0.613722  0.631238  0.132542  1
  O  O16  1  0.864232  0.197762  0.030111  1
  O  O17  1  0.635768  0.969889  0.802238  1
  O  O18  1  0.135768  0.802238  0.969889  1
  O  O19  1  0.364232  0.030111  0.197762  1
