# generated using pymatgen
data_BiTeO5
_symmetry_space_group_name_H-M   'P 1'
_cell_length_a   6.17641100
_cell_length_b   11.65213297
_cell_length_c   16.41438261
_cell_angle_alpha   90.00000000
_cell_angle_beta   90.00000000
_cell_angle_gamma   90.00000000
_symmetry_Int_Tables_number   1
_chemical_formula_structural   BiTeO5
_chemical_formula_sum   'Bi8 Te8 O40'
_cell_volume   1181.31623378
_cell_formula_units_Z   8
loop_
 _symmetry_equiv_pos_site_id
 _symmetry_equiv_pos_as_xyz
  1  'x, y, z'
loop_
 _atom_site_type_symbol
 _atom_site_label
 _atom_site_symmetry_multiplicity
 _atom_site_fract_x
 _atom_site_fract_y
 _atom_site_fract_z
 _atom_site_occupancy
  Bi  Bi0  1  0.928711  0.825736  0.211532  1
  Bi  Bi1  1  0.071289  0.174264  0.788468  1
  Bi  Bi2  1  0.571289  0.325736  0.788468  1
  Bi  Bi3  1  0.071289  0.674264  0.711532  1
  Bi  Bi4  1  0.428711  0.174264  0.288468  1
  Bi  Bi5  1  0.428711  0.674264  0.211532  1
  Bi  Bi6  1  0.571289  0.825736  0.711532  1
  Bi  Bi7  1  0.928711  0.325736  0.288468  1
  Te  Te8  1  0.973843  0.391064  0.606971  1
  Te  Te9  1  0.526157  0.891064  0.393029  1
  Te  Te10  1  0.026157  0.608936  0.393029  1
  Te  Te11  1  0.473843  0.108936  0.606971  1
  Te  Te12  1  0.026157  0.108936  0.106971  1
  Te  Te13  1  0.973843  0.891064  0.893029  1
  Te  Te14  1  0.526157  0.391064  0.106971  1
  Te  Te15  1  0.473843  0.608936  0.893029  1
  O  O16  1  0.883380  0.300696  0.702169  1
  O  O17  1  0.271228  0.037438  0.074248  1
  O  O18  1  0.228772  0.537438  0.925752  1
  O  O19  1  0.225177  0.789991  0.152038  1
  O  O20  1  0.274823  0.289991  0.847962  1
  O  O21  1  0.883380  0.800696  0.797831  1
  O  O22  1  0.274823  0.789991  0.652038  1
  O  O23  1  0.616620  0.800696  0.297831  1
  O  O24  1  0.271228  0.537438  0.425752  1
  O  O25  1  0.116620  0.699304  0.297831  1
  O  O26  1  0.616620  0.300696  0.202169  1
  O  O27  1  0.660348  0.193675  0.547106  1
  O  O28  1  0.771228  0.962562  0.425752  1
  O  O29  1  0.774823  0.710009  0.652038  1
  O  O30  1  0.151338  0.999463  0.834967  1
  O  O31  1  0.771228  0.462562  0.074248  1
  O  O32  1  0.116620  0.199304  0.202169  1
  O  O33  1  0.725177  0.210009  0.347962  1
  O  O34  1  0.160348  0.806325  0.952894  1
  O  O35  1  0.228772  0.037438  0.574248  1
  O  O36  1  0.339652  0.806325  0.452894  1
  O  O37  1  0.848662  0.000537  0.165033  1
  O  O38  1  0.774823  0.210009  0.847962  1
  O  O39  1  0.651338  0.000537  0.665033  1
  O  O40  1  0.339652  0.306325  0.047106  1
  O  O41  1  0.160348  0.306325  0.547106  1
  O  O42  1  0.728772  0.462562  0.574248  1
  O  O43  1  0.728772  0.962562  0.925752  1
  O  O44  1  0.651338  0.500537  0.834967  1
  O  O45  1  0.839652  0.693675  0.452894  1
  O  O46  1  0.839652  0.193675  0.047106  1
  O  O47  1  0.660348  0.693675  0.952894  1
  O  O48  1  0.848662  0.500537  0.334967  1
  O  O49  1  0.725177  0.710009  0.152038  1
  O  O50  1  0.225177  0.289991  0.347962  1
  O  O51  1  0.151338  0.499463  0.665033  1
  O  O52  1  0.348662  0.499463  0.165033  1
  O  O53  1  0.383380  0.199304  0.702169  1
  O  O54  1  0.348662  0.999463  0.334967  1
  O  O55  1  0.383380  0.699304  0.797831  1
