# generated using pymatgen
data_YSn3F15
_symmetry_space_group_name_H-M   'P 1'
_cell_length_a   9.92427202
_cell_length_b   5.66253848
_cell_length_c   10.86716231
_cell_angle_alpha   90.00000000
_cell_angle_beta   90.00000000
_cell_angle_gamma   95.71848988
_symmetry_Int_Tables_number   1
_chemical_formula_structural   YSn3F15
_chemical_formula_sum   'Y2 Sn6 F30'
_cell_volume   607.65811643
_cell_formula_units_Z   2
loop_
 _symmetry_equiv_pos_site_id
 _symmetry_equiv_pos_as_xyz
  1  'x, y, z'
loop_
 _atom_site_type_symbol
 _atom_site_label
 _atom_site_symmetry_multiplicity
 _atom_site_fract_x
 _atom_site_fract_y
 _atom_site_fract_z
 _atom_site_occupancy
  Y  Y0  1  0.964845  0.401314  0.250000  1
  Y  Y1  1  0.368488  0.598686  0.750000  1
  Sn  Sn2  1  0.166667  -0.000000  0.500000  1
  Sn  Sn3  1  0.508099  0.989094  0.434417  1
  Sn  Sn4  1  0.825234  0.010906  0.565583  1
  Sn  Sn5  1  0.166667  -0.000000  0.000000  1
  Sn  Sn6  1  0.508099  0.989094  0.065583  1
  Sn  Sn7  1  0.825234  0.010906  0.934417  1
  F  F8  1  0.095007  0.702533  0.250000  1
  F  F9  1  0.511494  0.868476  0.250000  1
  F  F10  1  0.799635  0.573294  0.250000  1
  F  F11  1  0.238326  0.297467  0.750000  1
  F  F12  1  0.533699  0.426706  0.750000  1
  F  F13  1  0.821839  0.131524  0.750000  1
  F  F14  1  0.030792  0.131321  0.617105  1
  F  F15  1  0.352579  0.158899  0.548914  1
  F  F16  1  0.634663  0.122562  0.585224  1
  F  F17  1  0.302542  0.868679  0.382895  1
  F  F18  1  0.698670  0.877438  0.414776  1
  F  F19  1  0.980754  0.841101  0.451086  1
  F  F20  1  0.194272  0.742948  0.882031  1
  F  F21  1  0.463432  0.728363  0.943714  1
  F  F22  1  0.801046  0.694050  0.872715  1
  F  F23  1  0.139062  0.257052  0.117969  1
  F  F24  1  0.532287  0.305950  0.127285  1
  F  F25  1  0.869901  0.271637  0.056286  1
  F  F26  1  0.139062  0.257052  0.382031  1
  F  F27  1  0.532287  0.305950  0.372715  1
  F  F28  1  0.869901  0.271637  0.443714  1
  F  F29  1  0.194272  0.742948  0.617969  1
  F  F30  1  0.463432  0.728363  0.556286  1
  F  F31  1  0.801046  0.694050  0.627285  1
  F  F32  1  0.030792  0.131321  0.882895  1
  F  F33  1  0.352579  0.158899  0.951086  1
  F  F34  1  0.634663  0.122562  0.914776  1
  F  F35  1  0.302542  0.868679  0.117105  1
  F  F36  1  0.698670  0.877438  0.085224  1
  F  F37  1  0.980754  0.841101  0.048914  1
