# generated using pymatgen
data_YCu3(BiO3)4
_symmetry_space_group_name_H-M   'P 1'
_cell_length_a   7.09944200
_cell_length_b   7.09904303
_cell_length_c   7.09902580
_cell_angle_alpha   109.39831877
_cell_angle_beta   109.54049827
_cell_angle_gamma   109.47388701
_symmetry_Int_Tables_number   1
_chemical_formula_structural   YCu3(BiO3)4
_chemical_formula_sum   'Y1 Cu3 Bi4 O12'
_cell_volume   275.42637065
_cell_formula_units_Z   1
loop_
 _symmetry_equiv_pos_site_id
 _symmetry_equiv_pos_as_xyz
  1  'x, y, z'
loop_
 _atom_site_type_symbol
 _atom_site_label
 _atom_site_symmetry_multiplicity
 _atom_site_fract_x
 _atom_site_fract_y
 _atom_site_fract_z
 _atom_site_occupancy
  Y  Y0  1  0.999984  0.999965  0.999971  1
  Cu  Cu1  1  0.500006  0.000030  0.499967  1
  Cu  Cu2  1  0.500015  0.500005  0.999996  1
  Cu  Cu3  1  -0.000010  0.499994  0.499997  1
  Bi  Bi4  1  0.500005  0.000002  0.000003  1
  Bi  Bi5  1  0.000000  -0.000001  0.500003  1
  Bi  Bi6  1  0.000007  0.500002  0.000005  1
  Bi  Bi7  1  0.499988  0.499987  0.499992  1
  O  O8  1  0.848951  0.310690  0.159604  1
  O  O9  1  0.151054  0.689319  0.840408  1
  O  O10  1  0.848965  0.689369  0.538316  1
  O  O11  1  0.310813  0.462135  0.151323  1
  O  O12  1  0.461905  0.151240  0.310661  1
  O  O13  1  0.159423  0.848747  0.310679  1
  O  O14  1  0.689201  0.840515  0.151329  1
  O  O15  1  0.538090  0.848759  0.689344  1
  O  O16  1  0.151035  0.310632  0.461705  1
  O  O17  1  0.689188  0.537867  0.848676  1
  O  O18  1  0.840579  0.151262  0.689347  1
  O  O19  1  0.310801  0.159480  0.848673  1
