# generated using pymatgen
data_ZnCoSiO5
_symmetry_space_group_name_H-M   'P 1'
_cell_length_a   5.45617163
_cell_length_b   6.85211382
_cell_length_c   8.25624089
_cell_angle_alpha   90.09800883
_cell_angle_beta   39.83443519
_cell_angle_gamma   73.15149530
_symmetry_Int_Tables_number   1
_chemical_formula_structural   ZnCoSiO5
_chemical_formula_sum   'Zn2 Co2 Si2 O10'
_cell_volume   176.12040061
_cell_formula_units_Z   2
loop_
 _symmetry_equiv_pos_site_id
 _symmetry_equiv_pos_as_xyz
  1  'x, y, z'
loop_
 _atom_site_type_symbol
 _atom_site_label
 _atom_site_symmetry_multiplicity
 _atom_site_fract_x
 _atom_site_fract_y
 _atom_site_fract_z
 _atom_site_occupancy
  Zn  Zn0  1  0.400160  0.250789  0.731034  1
  Zn  Zn1  1  0.603717  0.718292  0.257613  1
  Co  Co2  1  0.499100  0.485573  0.996145  1
  Co  Co3  1  0.499527  0.985520  0.995455  1
  Si  Si4  1  0.539204  0.229935  0.324282  1
  Si  Si5  1  0.457804  0.741421  0.667716  1
  O  O6  1  0.516250  0.037191  0.225298  1
  O  O7  1  0.658972  0.396314  0.154761  1
  O  O8  1  0.480516  0.934550  0.766403  1
  O  O9  1  0.336772  0.575747  0.838364  1
  O  O10  1  0.897387  0.604806  0.334520  1
  O  O11  1  0.131622  0.838317  0.675172  1
  O  O12  1  0.100865  0.365229  0.657892  1
  O  O13  1  0.867090  0.132161  0.315375  1
  O  O14  1  0.486799  0.739076  0.079529  1
  O  O15  1  0.510944  0.232213  0.912457  1
