# generated using pymatgen
data_YMo(WO4)2
_symmetry_space_group_name_H-M   'P 1'
_cell_length_a   5.19523078
_cell_length_b   5.98008083
_cell_length_c   6.75607263
_cell_angle_alpha   114.06848592
_cell_angle_beta   116.64306960
_cell_angle_gamma   91.81649817
_symmetry_Int_Tables_number   1
_chemical_formula_structural   YMo(WO4)2
_chemical_formula_sum   'Y1 Mo1 W2 O8'
_cell_volume   165.27126283
_cell_formula_units_Z   1
loop_
 _symmetry_equiv_pos_site_id
 _symmetry_equiv_pos_as_xyz
  1  'x, y, z'
loop_
 _atom_site_type_symbol
 _atom_site_label
 _atom_site_symmetry_multiplicity
 _atom_site_fract_x
 _atom_site_fract_y
 _atom_site_fract_z
 _atom_site_occupancy
  Y  Y0  1  0.594970  0.663501  0.111116  1
  Mo  Mo1  1  0.125171  0.211550  0.092944  1
  W  W2  1  0.888681  0.400765  0.594391  1
  W  W3  1  0.387094  0.062234  0.606534  1
  O  O4  1  0.150330  0.711758  0.846142  1
  O  O5  1  0.585807  0.458131  0.322761  1
  O  O6  1  0.201016  0.247696  0.809658  1
  O  O7  1  0.586016  0.028288  0.412896  1
  O  O8  1  0.648366  0.985912  0.845508  1
  O  O9  1  0.096485  0.762361  0.374496  1
  O  O10  1  0.073954  0.220765  0.394611  1
  O  O11  1  0.658110  0.425536  0.785037  1
