# generated using pymatgen
data_Zn3Si3(SbO6)2
_symmetry_space_group_name_H-M   'P 1'
_cell_length_a   10.72892014
_cell_length_b   10.72892044
_cell_length_c   10.72892008
_cell_angle_alpha   109.47122196
_cell_angle_beta   109.47122248
_cell_angle_gamma   109.47121822
_symmetry_Int_Tables_number   1
_chemical_formula_structural   Zn3Si3(SbO6)2
_chemical_formula_sum   'Zn12 Si12 Sb8 O48'
_cell_volume   950.70582086
_cell_formula_units_Z   4
loop_
 _symmetry_equiv_pos_site_id
 _symmetry_equiv_pos_as_xyz
  1  'x, y, z'
loop_
 _atom_site_type_symbol
 _atom_site_label
 _atom_site_symmetry_multiplicity
 _atom_site_fract_x
 _atom_site_fract_y
 _atom_site_fract_z
 _atom_site_occupancy
  Zn  Zn0  1  0.375000  0.750000  0.125000  1
  Zn  Zn1  1  0.125000  0.250000  0.375000  1
  Zn  Zn2  1  0.375000  0.125000  0.250000  1
  Zn  Zn3  1  0.125000  0.375000  0.750000  1
  Zn  Zn4  1  0.875000  0.750000  0.625000  1
  Zn  Zn5  1  0.750000  0.125000  0.375000  1
  Zn  Zn6  1  0.750000  0.625000  0.875000  1
  Zn  Zn7  1  0.625000  0.250000  0.875000  1
  Zn  Zn8  1  0.250000  0.875000  0.625000  1
  Zn  Zn9  1  0.875000  0.625000  0.250000  1
  Zn  Zn10  1  0.625000  0.875000  0.750000  1
  Zn  Zn11  1  0.250000  0.375000  0.125000  1
  Si  Si12  1  0.250000  0.125000  0.875000  1
  Si  Si13  1  0.750000  0.875000  0.125000  1
  Si  Si14  1  0.375000  0.250000  0.625000  1
  Si  Si15  1  0.625000  0.375000  0.250000  1
  Si  Si16  1  0.125000  0.750000  0.875000  1
  Si  Si17  1  0.875000  0.125000  0.750000  1
  Si  Si18  1  0.750000  0.375000  0.625000  1
  Si  Si19  1  0.375000  0.625000  0.750000  1
  Si  Si20  1  0.125000  0.875000  0.250000  1
  Si  Si21  1  0.875000  0.250000  0.125000  1
  Si  Si22  1  0.625000  0.750000  0.375000  1
  Si  Si23  1  0.250000  0.625000  0.375000  1
  Sb  Sb24  1  0.000000  0.000000  0.000000  1
  Sb  Sb25  1  0.000000  0.500000  0.000000  1
  Sb  Sb26  1  0.000000  0.000000  0.500000  1
  Sb  Sb27  1  0.000000  0.500000  0.500000  1
  Sb  Sb28  1  0.500000  0.000000  0.500000  1
  Sb  Sb29  1  0.500000  0.500000  0.000000  1
  Sb  Sb30  1  0.500000  0.500000  0.500000  1
  Sb  Sb31  1  0.500000  0.000000  0.000000  1
  O  O32  1  0.272092  0.476958  0.369439  1
  O  O33  1  0.023042  0.295133  0.892481  1
  O  O34  1  0.130561  0.607519  0.902652  1
  O  O35  1  0.227908  0.597348  0.204867  1
  O  O36  1  0.227908  0.130561  0.023042  1
  O  O37  1  0.597348  0.204867  0.227908  1
  O  O38  1  0.607519  0.204867  0.476958  1
  O  O39  1  0.204867  0.227908  0.597348  1
  O  O40  1  0.892481  0.369439  0.597348  1
  O  O41  1  0.295133  0.902652  0.272092  1
  O  O42  1  0.902652  0.272092  0.295133  1
  O  O43  1  0.023042  0.227908  0.130561  1
  O  O44  1  0.204867  0.476958  0.607519  1
  O  O45  1  0.597348  0.892481  0.369439  1
  O  O46  1  0.130561  0.023042  0.227908  1
  O  O47  1  0.476958  0.607519  0.204867  1
  O  O48  1  0.369439  0.597348  0.892481  1
  O  O49  1  0.892481  0.023042  0.295133  1
  O  O50  1  0.607519  0.902652  0.130561  1
  O  O51  1  0.107519  0.630561  0.402652  1
  O  O52  1  0.902652  0.130561  0.607519  1
  O  O53  1  0.369439  0.272092  0.476958  1
  O  O54  1  0.295133  0.892481  0.023042  1
  O  O55  1  0.272092  0.295133  0.902652  1
  O  O56  1  0.727908  0.523042  0.630561  1
  O  O57  1  0.976958  0.704867  0.107519  1
  O  O58  1  0.869439  0.392481  0.097348  1
  O  O59  1  0.772092  0.402652  0.795133  1
  O  O60  1  0.772092  0.869439  0.976958  1
  O  O61  1  0.402652  0.795133  0.772092  1
  O  O62  1  0.392481  0.795133  0.523042  1
  O  O63  1  0.795133  0.772092  0.402652  1
  O  O64  1  0.727908  0.704867  0.097348  1
  O  O65  1  0.704867  0.107519  0.976958  1
  O  O66  1  0.630561  0.727908  0.523042  1
  O  O67  1  0.523042  0.630561  0.727908  1
  O  O68  1  0.097348  0.869439  0.392481  1
  O  O69  1  0.392481  0.097348  0.869439  1
  O  O70  1  0.107519  0.976958  0.704867  1
  O  O71  1  0.630561  0.402652  0.107519  1
  O  O72  1  0.523042  0.392481  0.795133  1
  O  O73  1  0.869439  0.976958  0.772092  1
  O  O74  1  0.402652  0.107519  0.630561  1
  O  O75  1  0.795133  0.523042  0.392481  1
  O  O76  1  0.976958  0.772092  0.869439  1
  O  O77  1  0.097348  0.727908  0.704867  1
  O  O78  1  0.704867  0.097348  0.727908  1
  O  O79  1  0.476958  0.369439  0.272092  1
