# generated using pymatgen
data_Rb6Al2(Sb2O7)3
_symmetry_space_group_name_H-M   'P 1'
_cell_length_a   5.70398225
_cell_length_b   17.92544880
_cell_length_c   8.45637625
_cell_angle_alpha   90.10368911
_cell_angle_beta   90.00000000
_cell_angle_gamma   118.50977860
_symmetry_Int_Tables_number   1
_chemical_formula_structural   Rb6Al2(Sb2O7)3
_chemical_formula_sum   'Rb6 Al2 Sb6 O21'
_cell_volume   759.78345649
_cell_formula_units_Z   1
loop_
 _symmetry_equiv_pos_site_id
 _symmetry_equiv_pos_as_xyz
  1  'x, y, z'
loop_
 _atom_site_type_symbol
 _atom_site_label
 _atom_site_symmetry_multiplicity
 _atom_site_fract_x
 _atom_site_fract_y
 _atom_site_fract_z
 _atom_site_occupancy
  Rb  Rb0  1  0.650669  0.100446  0.396844  1
  Rb  Rb1  1  0.684639  0.456425  0.392620  1
  Rb  Rb2  1  0.653386  0.768924  0.378158  1
  Rb  Rb3  1  0.349331  0.232887  0.603156  1
  Rb  Rb4  1  0.346614  0.564410  0.621842  1
  Rb  Rb5  1  0.315361  0.876908  0.607380  1
  Al  Al6  1  0.998376  0.998917  0.801245  1
  Al  Al7  1  0.001624  0.334416  0.198755  1
  Sb  Sb8  1  0.328803  0.219202  0.158260  1
  Sb  Sb9  1  0.324484  0.549657  0.138316  1
  Sb  Sb10  1  0.340885  0.893923  0.128625  1
  Sb  Sb11  1  0.671197  0.114131  0.841740  1
  Sb  Sb12  1  0.659115  0.439410  0.871375  1
  Sb  Sb13  1  0.675516  0.783677  0.861684  1
  O  O14  1  0.328190  0.052703  0.729496  1
  O  O15  1  0.387513  0.399855  0.701434  1
  O  O16  1  0.366398  0.726169  0.723348  1
  O  O17  1  0.170083  0.280630  0.270504  1
  O  O18  1  0.187891  0.607164  0.276652  1
  O  O19  1  0.187951  0.933479  0.298566  1
  O  O20  1  0.829917  0.052703  0.729496  1
  O  O21  1  0.812049  0.399855  0.701434  1
  O  O22  1  0.812109  0.726169  0.723348  1
  O  O23  1  0.819827  0.213218  0.710526  1
  O  O24  1  0.812304  0.541536  0.735031  1
  O  O25  1  0.836848  0.891233  0.737382  1
  O  O26  1  0.671810  0.280630  0.270504  1
  O  O27  1  0.633602  0.607164  0.276652  1
  O  O28  1  0.612487  0.933479  0.298566  1
  O  O29  1  0.969116  0.979411  0.009663  1
  O  O30  1  0.030884  0.353922  0.990337  1
  O  O31  1  0.000000  0.666667  0.000000  1
  O  O32  1  0.180173  0.120115  0.289474  1
  O  O33  1  0.163152  0.442101  0.262618  1
  O  O34  1  0.187696  0.791797  0.264968  1
