# generated using pymatgen
data_Ba2Ca2Tl2Cr3O10
_symmetry_space_group_name_H-M   'P 1'
_cell_length_a   3.93726177
_cell_length_b   3.92378050
_cell_length_c   19.16454113
_cell_angle_alpha   96.00965812
_cell_angle_beta   95.89668119
_cell_angle_gamma   89.94477526
_symmetry_Int_Tables_number   1
_chemical_formula_structural   Ba2Ca2Tl2Cr3O10
_chemical_formula_sum   'Ba2 Ca2 Tl2 Cr3 O10'
_cell_volume   292.87259618
_cell_formula_units_Z   1
loop_
 _symmetry_equiv_pos_site_id
 _symmetry_equiv_pos_as_xyz
  1  'x, y, z'
loop_
 _atom_site_type_symbol
 _atom_site_label
 _atom_site_symmetry_multiplicity
 _atom_site_fract_x
 _atom_site_fract_y
 _atom_site_fract_z
 _atom_site_occupancy
  Ba  Ba0  1  0.093597  0.167281  0.290112  1
  Ba  Ba1  1  0.787809  0.831346  0.709445  1
  Ca  Ca2  1  0.881458  0.937701  0.905696  1
  Ca  Ca3  1  0.988209  0.064720  0.092752  1
  Tl  Tl4  1  0.651939  0.720778  0.439893  1
  Tl  Tl5  1  0.209014  0.273148  0.560152  1
  Cr  Cr6  1  0.336779  0.385294  0.813881  1
  Cr  Cr7  1  0.538433  0.614961  0.185246  1
  Cr  Cr8  1  0.430239  0.507676  0.999558  1
  O  O9  1  0.344137  0.893512  0.831578  1
  O  O10  1  0.286522  0.330662  0.712900  1
  O  O11  1  0.847306  0.397494  0.835486  1
  O  O12  1  0.832069  0.777995  0.566689  1
  O  O13  1  0.932464  0.514429  0.006251  1
  O  O14  1  0.030313  0.607015  0.168386  1
  O  O15  1  0.590687  0.668123  0.285623  1
  O  O16  1  0.524978  0.103893  0.162072  1
  O  O17  1  0.270611  0.216742  0.432296  1
  O  O18  1  0.424527  0.005191  0.992945  1
