# generated using pymatgen
data_ZnSn2(PO4)2
_symmetry_space_group_name_H-M   'P 1'
_cell_length_a   5.23296512
_cell_length_b   9.62658762
_cell_length_c   16.51770981
_cell_angle_alpha   87.07365445
_cell_angle_beta   80.85742151
_cell_angle_gamma   74.23665730
_symmetry_Int_Tables_number   1
_chemical_formula_structural   ZnSn2(PO4)2
_chemical_formula_sum   'Zn4 Sn8 P8 O32'
_cell_volume   790.59572103
_cell_formula_units_Z   4
loop_
 _symmetry_equiv_pos_site_id
 _symmetry_equiv_pos_as_xyz
  1  'x, y, z'
loop_
 _atom_site_type_symbol
 _atom_site_label
 _atom_site_symmetry_multiplicity
 _atom_site_fract_x
 _atom_site_fract_y
 _atom_site_fract_z
 _atom_site_occupancy
  Zn  Zn0  1  0.381427  0.848474  0.839771  1
  Zn  Zn1  1  0.072448  0.648969  0.660683  1
  Zn  Zn2  1  0.927420  0.352455  0.339353  1
  Zn  Zn3  1  0.617873  0.148593  0.160963  1
  Sn  Sn4  1  0.188436  0.198113  0.989505  1
  Sn  Sn5  1  0.377793  0.298995  0.510560  1
  Sn  Sn6  1  0.812702  0.797577  0.010432  1
  Sn  Sn7  1  0.500054  0.498647  0.002941  1
  Sn  Sn8  1  0.624101  0.698633  0.489698  1
  Sn  Sn9  1  0.656486  0.752497  0.251368  1
  Sn  Sn10  1  0.341119  0.251027  0.750103  1
  Sn  Sn11  1  0.999090  0.998035  0.501448  1
  P  P12  1  0.088871  0.584980  0.861532  1
  P  P13  1  0.692803  0.443466  0.623468  1
  P  P14  1  0.909010  0.414372  0.138371  1
  P  P15  1  0.239135  0.943861  0.124221  1
  P  P16  1  0.462613  0.087979  0.361647  1
  P  P17  1  0.541334  0.912844  0.638437  1
  P  P18  1  0.307052  0.557326  0.375916  1
  P  P19  1  0.758451  0.055235  0.876075  1
  O  O20  1  0.731470  0.320966  0.110456  1
  O  O21  1  0.644527  0.917613  0.896610  1
  O  O22  1  0.840972  0.821186  0.608971  1
  O  O23  1  0.738624  0.331895  0.553364  1
  O  O24  1  0.167399  0.386016  0.069167  1
  O  O25  1  0.605833  0.383308  0.707847  1
  O  O26  1  0.622788  0.167660  0.945975  1
  O  O27  1  0.935304  0.988161  0.121518  1
  O  O28  1  0.262863  0.669897  0.445469  1
  O  O29  1  0.460306  0.581137  0.603702  1
  O  O30  1  0.754566  0.575096  0.131324  1
  O  O31  1  0.582082  0.139661  0.279247  1
  O  O32  1  0.350198  0.082872  0.105271  1
  O  O33  1  0.953217  0.489777  0.620229  1
  O  O34  1  0.265267  0.677471  0.890769  1
  O  O35  1  0.239682  0.423419  0.867275  1
  O  O36  1  0.003540  0.639207  0.779072  1
  O  O37  1  0.376013  0.833594  0.053566  1
  O  O38  1  0.539422  0.073861  0.631688  1
  O  O39  1  0.429037  0.858295  0.720835  1
  O  O40  1  0.043604  0.514237  0.378461  1
  O  O41  1  0.377426  0.884453  0.570229  1
  O  O42  1  0.062556  0.010077  0.878172  1
  O  O43  1  0.303164  0.882574  0.208260  1
  O  O44  1  0.536687  0.418732  0.396148  1
  O  O45  1  0.166062  0.182566  0.390090  1
  O  O46  1  0.998893  0.362716  0.220491  1
  O  O47  1  0.627835  0.114936  0.429936  1
  O  O48  1  0.827887  0.613161  0.929665  1
  O  O49  1  0.692738  0.115146  0.791929  1
  O  O50  1  0.398574  0.615832  0.291485  1
  O  O51  1  0.461834  0.927094  0.368057  1
