# generated using pymatgen
data_Ca(CrS2)2
_symmetry_space_group_name_H-M   'P 1'
_cell_length_a   7.45773254
_cell_length_b   7.29654444
_cell_length_c   7.29317332
_cell_angle_alpha   88.76256787
_cell_angle_beta   120.72523453
_cell_angle_gamma   120.77633162
_symmetry_Int_Tables_number   1
_chemical_formula_structural   Ca(CrS2)2
_chemical_formula_sum   'Ca2 Cr4 S8'
_cell_volume   277.22511459
_cell_formula_units_Z   2
loop_
 _symmetry_equiv_pos_site_id
 _symmetry_equiv_pos_as_xyz
  1  'x, y, z'
loop_
 _atom_site_type_symbol
 _atom_site_label
 _atom_site_symmetry_multiplicity
 _atom_site_fract_x
 _atom_site_fract_y
 _atom_site_fract_z
 _atom_site_occupancy
  Ca  Ca0  1  0.000036  0.000002  0.000056  1
  Ca  Ca1  1  0.499946  0.999983  0.999940  1
  Cr  Cr2  1  0.500007  -0.000042  0.499991  1
  Cr  Cr3  1  0.500133  0.500026  0.500048  1
  Cr  Cr4  1  0.999910  0.499970  0.999989  1
  Cr  Cr5  1  0.000037  0.500010  0.500059  1
  S  S6  1  0.030031  0.734197  0.265211  1
  S  S7  1  0.468573  0.730047  0.707267  1
  S  S8  1  0.469913  0.734723  0.265662  1
  S  S9  1  0.968564  0.707361  0.729851  1
  S  S10  1  0.530018  0.265265  0.734257  1
  S  S11  1  0.531506  0.269997  0.292745  1
  S  S12  1  0.031349  0.292604  0.270126  1
  S  S13  1  0.970025  0.265822  0.734840  1
