# generated using pymatgen
data_Ta2ZnO6
_symmetry_space_group_name_H-M   'P 1'
_cell_length_a   5.29349721
_cell_length_b   5.47148129
_cell_length_c   7.68604265
_cell_angle_alpha   89.98422938
_cell_angle_beta   90.00051620
_cell_angle_gamma   89.99701127
_symmetry_Int_Tables_number   1
_chemical_formula_structural   Ta2ZnO6
_chemical_formula_sum   'Ta4 Zn2 O12'
_cell_volume   222.61292702
_cell_formula_units_Z   2
loop_
 _symmetry_equiv_pos_site_id
 _symmetry_equiv_pos_as_xyz
  1  'x, y, z'
loop_
 _atom_site_type_symbol
 _atom_site_label
 _atom_site_symmetry_multiplicity
 _atom_site_fract_x
 _atom_site_fract_y
 _atom_site_fract_z
 _atom_site_occupancy
  Ta  Ta0  1  0.506040  0.003539  0.001396  1
  Ta  Ta1  1  0.006047  0.496440  0.998597  1
  Ta  Ta2  1  0.006329  0.496487  0.501493  1
  Ta  Ta3  1  0.506304  0.003519  0.498449  1
  Zn  Zn4  1  0.507518  0.536008  0.249952  1
  Zn  Zn5  1  0.007443  0.963709  0.750006  1
  O  O6  1  0.675862  0.319405  0.437765  1
  O  O7  1  0.175806  0.180602  0.562364  1
  O  O8  1  0.790496  0.787575  0.043374  1
  O  O9  1  0.290632  0.712292  0.956869  1
  O  O10  1  0.291172  0.711977  0.542997  1
  O  O11  1  0.791056  0.787937  0.456782  1
  O  O12  1  0.175608  0.180696  0.937731  1
  O  O13  1  0.675672  0.319266  0.062127  1
  O  O14  1  0.130691  0.470949  0.249974  1
  O  O15  1  0.630664  0.028981  0.750024  1
  O  O16  1  0.427324  0.957754  0.250008  1
  O  O17  1  0.927515  0.542925  0.749985  1
