# generated using pymatgen
data_Mg2MoWO6
_symmetry_space_group_name_H-M   'P 1'
_cell_length_a   5.30903970
_cell_length_b   5.66760023
_cell_length_c   7.81573441
_cell_angle_alpha   95.28680099
_cell_angle_beta   133.56434510
_cell_angle_gamma   117.62366224
_symmetry_Int_Tables_number   1
_chemical_formula_structural   Mg2MoWO6
_chemical_formula_sum   'Mg2 Mo1 W1 O6'
_cell_volume   115.85352293
_cell_formula_units_Z   1
loop_
 _symmetry_equiv_pos_site_id
 _symmetry_equiv_pos_as_xyz
  1  'x, y, z'
loop_
 _atom_site_type_symbol
 _atom_site_label
 _atom_site_symmetry_multiplicity
 _atom_site_fract_x
 _atom_site_fract_y
 _atom_site_fract_z
 _atom_site_occupancy
  Mg  Mg0  1  0.994642  0.559930  0.207524  1
  Mg  Mg1  1  0.001562  0.565696  0.712734  1
  Mo  Mo2  1  0.998193  0.974994  0.501793  1
  W  W3  1  0.997790  0.970858  0.003042  1
  O  O4  1  0.712612  0.791571  0.101069  1
  O  O5  1  0.285608  0.083735  0.905376  1
  O  O6  1  0.367993  0.456798  0.275399  1
  O  O7  1  0.364394  0.812645  0.629154  1
  O  O8  1  0.586166  0.084663  0.386149  1
  O  O9  1  0.704509  0.494034  0.800108  1
