# generated using pymatgen
data_MgSnAs2O7
_symmetry_space_group_name_H-M   'P 1'
_cell_length_a   7.61175019
_cell_length_b   9.32886688
_cell_length_c   9.99900475
_cell_angle_alpha   90.00000000
_cell_angle_beta   118.42579117
_cell_angle_gamma   90.00000000
_symmetry_Int_Tables_number   1
_chemical_formula_structural   MgSnAs2O7
_chemical_formula_sum   'Mg4 Sn4 As8 O28'
_cell_volume   624.41544872
_cell_formula_units_Z   4
loop_
 _symmetry_equiv_pos_site_id
 _symmetry_equiv_pos_as_xyz
  1  'x, y, z'
loop_
 _atom_site_type_symbol
 _atom_site_label
 _atom_site_symmetry_multiplicity
 _atom_site_fract_x
 _atom_site_fract_y
 _atom_site_fract_z
 _atom_site_occupancy
  Mg  Mg0  1  0.268386  0.937994  0.900941  1
  Mg  Mg1  1  0.731614  0.437994  0.599059  1
  Mg  Mg2  1  0.731614  0.062006  0.099059  1
  Mg  Mg3  1  0.268386  0.562006  0.400941  1
  Sn  Sn4  1  0.768976  0.039568  0.629242  1
  Sn  Sn5  1  0.231024  0.539568  0.870758  1
  Sn  Sn6  1  0.231024  0.960432  0.370758  1
  Sn  Sn7  1  0.768976  0.460432  0.129242  1
  As  As8  1  0.429749  0.219710  0.751045  1
  As  As9  1  0.570251  0.719710  0.748955  1
  As  As10  1  0.570251  0.780290  0.248955  1
  As  As11  1  0.429749  0.280290  0.251044  1
  As  As12  1  0.995203  0.254950  0.940889  1
  As  As13  1  0.004797  0.754950  0.559111  1
  As  As14  1  0.004797  0.745050  0.059111  1
  As  As15  1  0.995203  0.245050  0.440889  1
  O  O16  1  0.864071  0.225068  0.036042  1
  O  O17  1  0.135929  0.725068  0.463958  1
  O  O18  1  0.135929  0.774932  0.963958  1
  O  O19  1  0.864071  0.274932  0.536042  1
  O  O20  1  0.365240  0.387178  0.774983  1
  O  O21  1  0.634760  0.887178  0.725017  1
  O  O22  1  0.634760  0.612822  0.225017  1
  O  O23  1  0.365240  0.112822  0.274983  1
  O  O24  1  0.459687  0.095276  0.888356  1
  O  O25  1  0.540313  0.595276  0.611644  1
  O  O26  1  0.540313  0.904724  0.111644  1
  O  O27  1  0.459687  0.404724  0.388356  1
  O  O28  1  0.224127  0.159637  0.576650  1
  O  O29  1  0.775873  0.659637  0.923350  1
  O  O30  1  0.775873  0.840363  0.423350  1
  O  O31  1  0.224127  0.340363  0.076650  1
  O  O32  1  0.936080  0.100783  0.321099  1
  O  O33  1  0.063920  0.600783  0.178901  1
  O  O34  1  0.063920  0.899217  0.678901  1
  O  O35  1  0.936080  0.399217  0.821099  1
  O  O36  1  0.620445  0.277877  0.206061  1
  O  O37  1  0.379555  0.777877  0.293939  1
  O  O38  1  0.379555  0.722123  0.793939  1
  O  O39  1  0.620445  0.222123  0.706061  1
  O  O40  1  0.040457  0.398971  0.366729  1
  O  O41  1  0.959543  0.898971  0.133271  1
  O  O42  1  0.959543  0.601029  0.633271  1
  O  O43  1  0.040457  0.101029  0.866729  1
