# generated using pymatgen
data_Mg2Sn3O8
_symmetry_space_group_name_H-M   'P 1'
_cell_length_a   5.27806589
_cell_length_b   6.26749865
_cell_length_c   6.24238299
_cell_angle_alpha   120.13318427
_cell_angle_beta   108.02423978
_cell_angle_gamma   89.99999663
_symmetry_Int_Tables_number   1
_chemical_formula_structural   Mg2Sn3O8
_chemical_formula_sum   'Mg2 Sn3 O8'
_cell_volume   166.77251914
_cell_formula_units_Z   1
loop_
 _symmetry_equiv_pos_site_id
 _symmetry_equiv_pos_as_xyz
  1  'x, y, z'
loop_
 _atom_site_type_symbol
 _atom_site_label
 _atom_site_symmetry_multiplicity
 _atom_site_fract_x
 _atom_site_fract_y
 _atom_site_fract_z
 _atom_site_occupancy
  Mg  Mg0  1  0.645036  0.714253  0.428506  1
  Mg  Mg1  1  0.354965  0.285748  0.571495  1
  Sn  Sn2  1  0.499999  0.999999  -0.000000  1
  Sn  Sn3  1  0.000000  0.736191  -0.000001  1
  Sn  Sn4  1  0.000000  0.263808  0.999999  1
  O  O5  1  0.089902  0.390508  0.781017  1
  O  O6  1  0.910097  0.609491  0.218983  1
  O  O7  1  0.073730  0.890155  0.780309  1
  O  O8  1  0.926270  0.109845  0.219690  1
  O  O9  1  0.408808  0.346274  0.240414  1
  O  O10  1  0.408808  0.894140  0.240414  1
  O  O11  1  0.591191  0.105859  0.759586  1
  O  O12  1  0.591191  0.653726  0.759586  1
