# generated using pymatgen
data_Ca2WN2
_symmetry_space_group_name_H-M   'P 1'
_cell_length_a   5.17300435
_cell_length_b   6.09622659
_cell_length_c   6.90004439
_cell_angle_alpha   60.76609122
_cell_angle_beta   68.00569352
_cell_angle_gamma   64.89472717
_symmetry_Int_Tables_number   1
_chemical_formula_structural   Ca2WN2
_chemical_formula_sum   'Ca4 W2 N4'
_cell_volume   168.04713246
_cell_formula_units_Z   2
loop_
 _symmetry_equiv_pos_site_id
 _symmetry_equiv_pos_as_xyz
  1  'x, y, z'
loop_
 _atom_site_type_symbol
 _atom_site_label
 _atom_site_symmetry_multiplicity
 _atom_site_fract_x
 _atom_site_fract_y
 _atom_site_fract_z
 _atom_site_occupancy
  Ca  Ca0  1  0.678078  0.274157  0.368596  1
  Ca  Ca1  1  0.324091  0.727741  0.627159  1
  Ca  Ca2  1  0.025782  0.718025  0.230269  1
  Ca  Ca3  1  0.975668  0.282921  0.767358  1
  W  W4  1  0.356649  0.157506  0.128465  1
  W  W5  1  0.643995  0.844113  0.867288  1
  N  N6  1  0.182113  0.248682  0.383580  1
  N  N7  1  0.816361  0.753124  0.613301  1
  N  N8  1  0.499853  0.223974  0.779655  1
  N  N9  1  0.502498  0.778379  0.216217  1
