# generated using pymatgen
data_Ba2YW3O8
_symmetry_space_group_name_H-M   'P 1'
_cell_length_a   4.11975212
_cell_length_b   4.11979655
_cell_length_c   11.99809065
_cell_angle_alpha   90.00510023
_cell_angle_beta   90.00409645
_cell_angle_gamma   90.00981997
_symmetry_Int_Tables_number   1
_chemical_formula_structural   Ba2YW3O8
_chemical_formula_sum   'Ba2 Y1 W3 O8'
_cell_volume   203.63807604
_cell_formula_units_Z   1
loop_
 _symmetry_equiv_pos_site_id
 _symmetry_equiv_pos_as_xyz
  1  'x, y, z'
loop_
 _atom_site_type_symbol
 _atom_site_label
 _atom_site_symmetry_multiplicity
 _atom_site_fract_x
 _atom_site_fract_y
 _atom_site_fract_z
 _atom_site_occupancy
  Ba  Ba0  1  0.499984  0.499989  0.184390  1
  Ba  Ba1  1  0.500022  0.500016  0.816219  1
  Y  Y2  1  0.499984  0.499975  0.500091  1
  W  W3  1  0.999996  0.999994  0.396748  1
  W  W4  1  0.000003  0.000011  0.999970  1
  W  W5  1  0.999996  0.999986  0.603325  1
  O  O6  1  0.000052  0.499983  0.360876  1
  O  O7  1  0.499984  0.000093  0.360874  1
  O  O8  1  0.500003  0.000007  0.999857  1
  O  O9  1  0.999968  0.000026  0.161140  1
  O  O10  1  0.999963  0.499999  0.638961  1
  O  O11  1  0.500008  0.999933  0.638964  1
  O  O12  1  0.000035  0.999980  0.838729  1
  O  O13  1  0.000001  0.500007  0.999857  1
