# generated using pymatgen
data_Ca2NiWO6
_symmetry_space_group_name_H-M   'P 1'
_cell_length_a   5.25259272
_cell_length_b   5.58905384
_cell_length_c   9.80488909
_cell_angle_alpha   90.00000000
_cell_angle_beta   89.51044231
_cell_angle_gamma   90.00000000
_symmetry_Int_Tables_number   1
_chemical_formula_structural   Ca2NiWO6
_chemical_formula_sum   'Ca4 Ni2 W2 O12'
_cell_volume   287.83185224
_cell_formula_units_Z   2
loop_
 _symmetry_equiv_pos_site_id
 _symmetry_equiv_pos_as_xyz
  1  'x, y, z'
loop_
 _atom_site_type_symbol
 _atom_site_label
 _atom_site_symmetry_multiplicity
 _atom_site_fract_x
 _atom_site_fract_y
 _atom_site_fract_z
 _atom_site_occupancy
  Ca  Ca0  1  0.501604  0.500292  0.682470  1
  Ca  Ca1  1  0.001604  0.999708  0.182470  1
  Ca  Ca2  1  0.498396  0.499708  0.317530  1
  Ca  Ca3  1  0.998396  0.000292  0.817530  1
  Ni  Ni4  1  0.500000  0.500000  0.000000  1
  Ni  Ni5  1  0.000000  0.000000  0.500000  1
  W  W6  1  0.000000  0.500000  0.000000  1
  W  W7  1  0.500000  0.000000  0.500000  1
  O  O8  1  0.295353  0.712096  0.501703  1
  O  O9  1  0.234833  0.635364  0.862063  1
  O  O10  1  0.769329  0.369991  0.860408  1
  O  O11  1  0.734833  0.864636  0.362063  1
  O  O12  1  0.204647  0.212096  0.998297  1
  O  O13  1  0.230671  0.630009  0.139592  1
  O  O14  1  0.704647  0.287904  0.498297  1
  O  O15  1  0.269329  0.130009  0.360408  1
  O  O16  1  0.795353  0.787904  0.001703  1
  O  O17  1  0.730671  0.869991  0.639592  1
  O  O18  1  0.765167  0.364636  0.137937  1
  O  O19  1  0.265167  0.135364  0.637937  1
