# generated using pymatgen
data_CaCuBiO5
_symmetry_space_group_name_H-M   'P 1'
_cell_length_a   5.66347042
_cell_length_b   11.18275098
_cell_length_c   15.79529658
_cell_angle_alpha   90.00000000
_cell_angle_beta   90.00000000
_cell_angle_gamma   90.00000000
_symmetry_Int_Tables_number   1
_chemical_formula_structural   CaCuBiO5
_chemical_formula_sum   'Ca8 Cu8 Bi8 O40'
_cell_volume   1000.36635181
_cell_formula_units_Z   8
loop_
 _symmetry_equiv_pos_site_id
 _symmetry_equiv_pos_as_xyz
  1  'x, y, z'
loop_
 _atom_site_type_symbol
 _atom_site_label
 _atom_site_symmetry_multiplicity
 _atom_site_fract_x
 _atom_site_fract_y
 _atom_site_fract_z
 _atom_site_occupancy
  Ca  Ca0  1  0.510356  0.358581  0.445974  1
  Ca  Ca1  1  0.010356  0.141419  0.445974  1
  Ca  Ca2  1  0.010356  0.641419  0.054026  1
  Ca  Ca3  1  0.989644  0.358581  0.945974  1
  Ca  Ca4  1  0.489644  0.141419  0.945974  1
  Ca  Ca5  1  0.989644  0.858581  0.554026  1
  Ca  Ca6  1  0.489644  0.641419  0.554026  1
  Ca  Ca7  1  0.510356  0.858581  0.054026  1
  Cu  Cu8  1  0.980719  0.404105  0.596139  1
  Cu  Cu9  1  0.519281  0.904105  0.403861  1
  Cu  Cu10  1  0.019281  0.595895  0.403861  1
  Cu  Cu11  1  0.480719  0.095895  0.596139  1
  Cu  Cu12  1  0.019281  0.095895  0.096139  1
  Cu  Cu13  1  0.980719  0.904105  0.903861  1
  Cu  Cu14  1  0.519281  0.404105  0.096139  1
  Cu  Cu15  1  0.480719  0.595895  0.903861  1
  Bi  Bi16  1  0.938867  0.843550  0.233660  1
  Bi  Bi17  1  0.061133  0.156450  0.766340  1
  Bi  Bi18  1  0.561133  0.343550  0.766340  1
  Bi  Bi19  1  0.061133  0.656450  0.733660  1
  Bi  Bi20  1  0.438867  0.156450  0.266340  1
  Bi  Bi21  1  0.438867  0.656450  0.233660  1
  Bi  Bi22  1  0.561133  0.843550  0.733660  1
  Bi  Bi23  1  0.938867  0.343550  0.266340  1
  O  O24  1  0.918673  0.322358  0.700627  1
  O  O25  1  0.307764  0.044074  0.064256  1
  O  O26  1  0.192236  0.544074  0.935744  1
  O  O27  1  0.236019  0.774603  0.153531  1
  O  O28  1  0.263981  0.274603  0.846469  1
  O  O29  1  0.918673  0.822358  0.799373  1
  O  O30  1  0.263981  0.774603  0.653531  1
  O  O31  1  0.581327  0.822358  0.299373  1
  O  O32  1  0.307764  0.544074  0.435744  1
  O  O33  1  0.081327  0.677642  0.299373  1
  O  O34  1  0.581327  0.322358  0.200627  1
  O  O35  1  0.644457  0.183148  0.521276  1
  O  O36  1  0.807764  0.955926  0.435744  1
  O  O37  1  0.763981  0.725397  0.653531  1
  O  O38  1  0.180639  0.028195  0.866419  1
  O  O39  1  0.807764  0.455926  0.064256  1
  O  O40  1  0.081327  0.177642  0.200627  1
  O  O41  1  0.736019  0.225397  0.346469  1
  O  O42  1  0.144457  0.816852  0.978724  1
  O  O43  1  0.192236  0.044074  0.564256  1
  O  O44  1  0.355543  0.816852  0.478724  1
  O  O45  1  0.819361  0.971805  0.133581  1
  O  O46  1  0.763981  0.225397  0.846469  1
  O  O47  1  0.680639  0.971805  0.633581  1
  O  O48  1  0.355543  0.316852  0.021276  1
  O  O49  1  0.144457  0.316852  0.521276  1
  O  O50  1  0.692236  0.455926  0.564256  1
  O  O51  1  0.692236  0.955926  0.935744  1
  O  O52  1  0.680639  0.471805  0.866419  1
  O  O53  1  0.855543  0.683148  0.478724  1
  O  O54  1  0.855543  0.183148  0.021276  1
  O  O55  1  0.644457  0.683148  0.978724  1
  O  O56  1  0.819361  0.471805  0.366419  1
  O  O57  1  0.736019  0.725397  0.153531  1
  O  O58  1  0.236019  0.274603  0.346469  1
  O  O59  1  0.180639  0.528195  0.633581  1
  O  O60  1  0.319361  0.528195  0.133581  1
  O  O61  1  0.418673  0.177642  0.700627  1
  O  O62  1  0.319361  0.028195  0.366419  1
  O  O63  1  0.418673  0.677642  0.799373  1
