# generated using pymatgen
data_CaFe(Si2O5)2
_symmetry_space_group_name_H-M   'P 1'
_cell_length_a   7.47581417
_cell_length_b   7.47581417
_cell_length_c   15.38403951
_cell_angle_alpha   90.00000000
_cell_angle_beta   90.00000000
_cell_angle_gamma   90.00000000
_symmetry_Int_Tables_number   1
_chemical_formula_structural   CaFe(Si2O5)2
_chemical_formula_sum   'Ca4 Fe4 Si16 O40'
_cell_volume   859.78008493
_cell_formula_units_Z   4
loop_
 _symmetry_equiv_pos_site_id
 _symmetry_equiv_pos_as_xyz
  1  'x, y, z'
loop_
 _atom_site_type_symbol
 _atom_site_label
 _atom_site_symmetry_multiplicity
 _atom_site_fract_x
 _atom_site_fract_y
 _atom_site_fract_z
 _atom_site_occupancy
  Ca  Ca0  1  0.250000  0.750000  0.500000  1
  Ca  Ca1  1  0.750000  0.250000  0.500000  1
  Ca  Ca2  1  0.750000  0.250000  0.000000  1
  Ca  Ca3  1  0.250000  0.750000  0.000000  1
  Fe  Fe4  1  0.250000  0.250000  0.580115  1
  Fe  Fe5  1  0.750000  0.750000  0.919885  1
  Fe  Fe6  1  0.750000  0.750000  0.419885  1
  Fe  Fe7  1  0.250000  0.250000  0.080115  1
  Si  Si8  1  0.921392  0.502610  0.648168  1
  Si  Si9  1  0.578608  0.997390  0.648168  1
  Si  Si10  1  0.002610  0.421392  0.851832  1
  Si  Si11  1  0.502610  0.578608  0.648168  1
  Si  Si12  1  0.997390  0.921392  0.648168  1
  Si  Si13  1  0.078608  0.002610  0.851832  1
  Si  Si14  1  0.421392  0.497390  0.851832  1
  Si  Si15  1  0.497390  0.078608  0.851832  1
  Si  Si16  1  0.078608  0.497390  0.351832  1
  Si  Si17  1  0.421392  0.002610  0.351832  1
  Si  Si18  1  0.997390  0.578608  0.148168  1
  Si  Si19  1  0.497390  0.421392  0.351832  1
  Si  Si20  1  0.002610  0.078608  0.351832  1
  Si  Si21  1  0.921392  0.997390  0.148168  1
  Si  Si22  1  0.578608  0.502610  0.148168  1
  Si  Si23  1  0.502610  0.921392  0.148168  1
  O  O24  1  0.999686  0.355181  0.582402  1
  O  O25  1  0.500314  0.144819  0.582402  1
  O  O26  1  0.855181  0.499686  0.917598  1
  O  O27  1  0.355181  0.500314  0.582402  1
  O  O28  1  0.144819  0.999686  0.582402  1
  O  O29  1  0.000314  0.855181  0.917598  1
  O  O30  1  0.499686  0.644819  0.917598  1
  O  O31  1  0.644819  0.000314  0.917598  1
  O  O32  1  0.000314  0.644819  0.417598  1
  O  O33  1  0.499686  0.855181  0.417598  1
  O  O34  1  0.144819  0.500314  0.082402  1
  O  O35  1  0.644819  0.499686  0.417598  1
  O  O36  1  0.855181  0.000314  0.417598  1
  O  O37  1  0.999686  0.144819  0.082402  1
  O  O38  1  0.500314  0.355181  0.082402  1
  O  O39  1  0.001447  0.295583  0.371944  1
  O  O40  1  0.355181  0.999686  0.082402  1
  O  O41  1  0.501447  0.795583  0.628056  1
  O  O42  1  0.204417  0.498553  0.871944  1
  O  O43  1  0.704417  0.501447  0.628056  1
  O  O44  1  0.795583  0.998553  0.628056  1
  O  O45  1  0.001447  0.204417  0.871944  1
  O  O46  1  0.498553  0.295583  0.871944  1
  O  O47  1  0.295583  0.001447  0.871944  1
  O  O48  1  0.458339  0.958339  0.250000  1
  O  O49  1  0.541661  0.458339  0.250000  1
  O  O50  1  0.958339  0.041662  0.250000  1
  O  O51  1  0.041662  0.541661  0.250000  1
  O  O52  1  0.541661  0.041662  0.750000  1
  O  O53  1  0.458339  0.541661  0.750000  1
  O  O54  1  0.041662  0.958339  0.750000  1
  O  O55  1  0.958339  0.458339  0.750000  1
  O  O56  1  0.704417  0.998553  0.128056  1
  O  O57  1  0.501447  0.704417  0.128056  1
  O  O58  1  0.998553  0.795583  0.128056  1
  O  O59  1  0.204417  0.001447  0.371944  1
  O  O60  1  0.295583  0.498553  0.371944  1
  O  O61  1  0.795583  0.501447  0.128056  1
  O  O62  1  0.498553  0.204417  0.371944  1
  O  O63  1  0.998553  0.704417  0.628056  1
