# generated using pymatgen
data_Ca3Fe4(MoO4)6
_symmetry_space_group_name_H-M   'P 1'
_cell_length_a   7.24934634
_cell_length_b   8.73702861
_cell_length_c   10.60895088
_cell_angle_alpha   105.34826675
_cell_angle_beta   106.34195303
_cell_angle_gamma   104.24044977
_symmetry_Int_Tables_number   1
_chemical_formula_structural   Ca3Fe4(MoO4)6
_chemical_formula_sum   'Ca3 Fe4 Mo6 O24'
_cell_volume   583.32616744
_cell_formula_units_Z   1
loop_
 _symmetry_equiv_pos_site_id
 _symmetry_equiv_pos_as_xyz
  1  'x, y, z'
loop_
 _atom_site_type_symbol
 _atom_site_label
 _atom_site_symmetry_multiplicity
 _atom_site_fract_x
 _atom_site_fract_y
 _atom_site_fract_z
 _atom_site_occupancy
  Ca  Ca0  1  -0.000000  0.500000  0.500000  1
  Ca  Ca1  1  0.292834  0.301146  0.795908  1
  Ca  Ca2  1  0.707166  0.698854  0.204092  1
  Fe  Fe3  1  0.372841  0.960595  0.599674  1
  Fe  Fe4  1  0.627159  0.039405  0.400326  1
  Fe  Fe5  1  0.043258  0.206536  0.013328  1
  Fe  Fe6  1  0.956742  0.793464  0.986672  1
  Mo  Mo7  1  0.787959  0.339622  0.732808  1
  Mo  Mo8  1  0.212041  0.660378  0.267192  1
  Mo  Mo9  1  0.884930  0.903724  0.670030  1
  Mo  Mo10  1  0.392112  0.746305  0.867647  1
  Mo  Mo11  1  0.115070  0.096276  0.329970  1
  Mo  Mo12  1  0.607888  0.253695  0.132353  1
  O  O13  1  0.841788  0.688499  0.581862  1
  O  O14  1  0.158212  0.311501  0.418138  1
  O  O15  1  0.240856  0.533032  0.739387  1
  O  O16  1  0.759144  0.466968  0.260613  1
  O  O17  1  0.793945  0.283247  0.549218  1
  O  O18  1  0.206055  0.716753  0.450782  1
  O  O19  1  0.670011  0.958411  0.583580  1
  O  O20  1  0.329989  0.041589  0.416420  1
  O  O21  1  0.626485  0.743716  0.988901  1
  O  O22  1  0.373515  0.256284  0.011099  1
  O  O23  1  0.478304  0.781333  0.283709  1
  O  O24  1  0.521696  0.218667  0.716291  1
  O  O25  1  0.115214  0.019822  0.653004  1
  O  O26  1  0.079703  0.059689  0.146968  1
  O  O27  1  0.920297  0.940311  0.853032  1
  O  O28  1  0.564664  0.125450  0.232539  1
  O  O29  1  0.435336  0.874550  0.767461  1
  O  O30  1  0.173686  0.445624  0.164737  1
  O  O31  1  0.826314  0.554376  0.835263  1
  O  O32  1  0.993993  0.273474  0.836505  1
  O  O33  1  0.006007  0.726526  0.163495  1
  O  O34  1  0.244929  0.812924  0.963832  1
  O  O35  1  0.755071  0.187076  0.036168  1
  O  O36  1  0.884786  0.980178  0.346996  1
