# generated using pymatgen
data_Mn(WO4)2
_symmetry_space_group_name_H-M   'P 1'
_cell_length_a   5.02826655
_cell_length_b   5.70526295
_cell_length_c   9.09285252
_cell_angle_alpha   90.00000000
_cell_angle_beta   89.83717276
_cell_angle_gamma   90.00000000
_symmetry_Int_Tables_number   1
_chemical_formula_structural   Mn(WO4)2
_chemical_formula_sum   'Mn2 W4 O16'
_cell_volume   260.85090645
_cell_formula_units_Z   2
loop_
 _symmetry_equiv_pos_site_id
 _symmetry_equiv_pos_as_xyz
  1  'x, y, z'
loop_
 _atom_site_type_symbol
 _atom_site_label
 _atom_site_symmetry_multiplicity
 _atom_site_fract_x
 _atom_site_fract_y
 _atom_site_fract_z
 _atom_site_occupancy
  Mn  Mn0  1  0.750000  0.346594  0.250000  1
  Mn  Mn1  1  0.250000  0.653405  0.750000  1
  W  W2  1  0.233085  0.174318  0.504120  1
  W  W3  1  0.266914  0.174318  0.995881  1
  W  W4  1  0.766915  0.825682  0.495880  1
  W  W5  1  0.733086  0.825682  0.004119  1
  O  O6  1  0.428482  0.350710  0.140080  1
  O  O7  1  0.071517  0.350710  0.359919  1
  O  O8  1  0.571518  0.649289  0.859920  1
  O  O9  1  0.928482  0.649289  0.640081  1
  O  O10  1  0.417893  0.886869  0.610176  1
  O  O11  1  0.082107  0.886869  0.889824  1
  O  O12  1  0.582107  0.113131  0.389824  1
  O  O13  1  0.917893  0.113131  0.110176  1
  O  O14  1  0.869684  0.590793  0.122067  1
  O  O15  1  0.630316  0.590793  0.377933  1
  O  O16  1  0.130316  0.409208  0.877933  1
  O  O17  1  0.369684  0.409208  0.622067  1
  O  O18  1  0.433004  0.890029  0.114639  1
  O  O19  1  0.566996  0.109972  0.885361  1
  O  O20  1  0.066997  0.890029  0.385362  1
  O  O21  1  0.933003  0.109972  0.614638  1
