# generated using pymatgen
data_BaTaF7
_symmetry_space_group_name_H-M   'P 1'
_cell_length_a   5.76189329
_cell_length_b   10.42293196
_cell_length_c   10.18692594
_cell_angle_alpha   90.00000000
_cell_angle_beta   90.00000000
_cell_angle_gamma   92.30972162
_symmetry_Int_Tables_number   1
_chemical_formula_structural   BaTaF7
_chemical_formula_sum   'Ba4 Ta4 F28'
_cell_volume   611.28717779
_cell_formula_units_Z   4
loop_
 _symmetry_equiv_pos_site_id
 _symmetry_equiv_pos_as_xyz
  1  'x, y, z'
loop_
 _atom_site_type_symbol
 _atom_site_label
 _atom_site_symmetry_multiplicity
 _atom_site_fract_x
 _atom_site_fract_y
 _atom_site_fract_z
 _atom_site_occupancy
  Ba  Ba0  1  0.309903  0.490580  0.331051  1
  Ba  Ba1  1  0.690097  0.009420  0.831051  1
  Ba  Ba2  1  0.690097  0.509420  0.668949  1
  Ba  Ba3  1  0.309903  0.990580  0.168949  1
  Ta  Ta4  1  0.184544  0.814510  0.610598  1
  Ta  Ta5  1  0.815456  0.185490  0.389402  1
  Ta  Ta6  1  0.184544  0.314510  0.889402  1
  Ta  Ta7  1  0.815456  0.685490  0.110598  1
  F  F8  1  0.101461  0.119584  0.448684  1
  F  F9  1  0.331486  0.365249  0.050102  1
  F  F10  1  0.468919  0.759402  0.691027  1
  F  F11  1  0.531081  0.240598  0.308973  1
  F  F12  1  0.880458  0.358602  0.454548  1
  F  F13  1  0.255692  0.477239  0.804199  1
  F  F14  1  0.000778  0.759384  0.761711  1
  F  F15  1  0.119542  0.141398  0.954548  1
  F  F16  1  0.331486  0.865249  0.449898  1
  F  F17  1  0.531081  0.740598  0.191027  1
  F  F18  1  0.101461  0.619584  0.051316  1
  F  F19  1  0.898539  0.880416  0.551316  1
  F  F20  1  0.999222  0.740616  0.261711  1
  F  F21  1  0.387965  0.886864  0.958053  1
  F  F22  1  0.119542  0.641398  0.545452  1
  F  F23  1  0.880458  0.858602  0.045452  1
  F  F24  1  0.999222  0.240616  0.238289  1
  F  F25  1  0.898539  0.380416  0.948684  1
  F  F26  1  0.612035  0.613136  0.458053  1
  F  F27  1  0.668514  0.634751  0.949898  1
  F  F28  1  0.612035  0.113136  0.041947  1
  F  F29  1  0.000778  0.259384  0.738289  1
  F  F30  1  0.387965  0.386864  0.541947  1
  F  F31  1  0.744308  0.022761  0.304199  1
  F  F32  1  0.744308  0.522761  0.195801  1
  F  F33  1  0.255692  0.977239  0.695801  1
  F  F34  1  0.668514  0.134751  0.550102  1
  F  F35  1  0.468919  0.259402  0.808973  1
