# generated using pymatgen
data_Li(NiS2)2
_symmetry_space_group_name_H-M   'P 1'
_cell_length_a   6.80829443
_cell_length_b   6.80829472
_cell_length_c   6.84212346
_cell_angle_alpha   124.01605010
_cell_angle_beta   117.19461250
_cell_angle_gamma   88.76863062
_symmetry_Int_Tables_number   1
_chemical_formula_structural   Li(NiS2)2
_chemical_formula_sum   'Li2 Ni4 S8'
_cell_volume   221.71359785
_cell_formula_units_Z   2
loop_
 _symmetry_equiv_pos_site_id
 _symmetry_equiv_pos_as_xyz
  1  'x, y, z'
loop_
 _atom_site_type_symbol
 _atom_site_label
 _atom_site_symmetry_multiplicity
 _atom_site_fract_x
 _atom_site_fract_y
 _atom_site_fract_z
 _atom_site_occupancy
  Li  Li0  1  -0.000000  0.500001  0.000001  1
  Li  Li1  1  0.000001  -0.000000  0.500000  1
  Ni  Ni2  1  0.384613  0.634613  0.750000  1
  Ni  Ni3  1  0.615387  0.365388  0.250000  1
  Ni  Ni4  1  0.500001  0.000000  0.500000  1
  Ni  Ni5  1  0.000000  0.000000  0.000000  1
  S  S6  1  0.753495  0.769560  0.519210  1
  S  S7  1  0.750351  0.234287  0.980792  1
  S  S8  1  0.240104  0.233737  0.002847  1
  S  S9  1  0.246505  0.230440  0.480791  1
  S  S10  1  0.269110  0.762743  0.502846  1
  S  S11  1  0.249649  0.765714  0.019210  1
  S  S12  1  0.730889  0.237256  0.497153  1
  S  S13  1  0.759896  0.766264  0.997153  1
