# generated using pymatgen
data_Ca(NiS2)4
_symmetry_space_group_name_H-M   'P 1'
_cell_length_a   6.91767125
_cell_length_b   6.97223261
_cell_length_c   6.97223336
_cell_angle_alpha   60.00000100
_cell_angle_beta   59.73874391
_cell_angle_gamma   59.73873853
_symmetry_Int_Tables_number   1
_chemical_formula_structural   Ca(NiS2)4
_chemical_formula_sum   'Ca1 Ni4 S8'
_cell_volume   236.84399306
_cell_formula_units_Z   1
loop_
 _symmetry_equiv_pos_site_id
 _symmetry_equiv_pos_as_xyz
  1  'x, y, z'
loop_
 _atom_site_type_symbol
 _atom_site_label
 _atom_site_symmetry_multiplicity
 _atom_site_fract_x
 _atom_site_fract_y
 _atom_site_fract_z
 _atom_site_occupancy
  Ca  Ca0  1  0.500000  0.000000  0.000000  1
  Ni  Ni1  1  0.000000  0.500000  0.500000  1
  Ni  Ni2  1  0.500000  0.500000  0.000000  1
  Ni  Ni3  1  0.500000  0.500000  0.500000  1
  Ni  Ni4  1  0.500000  0.000000  0.500000  1
  S  S5  1  0.258192  0.270742  0.270742  1
  S  S6  1  0.258192  0.270742  0.700325  1
  S  S7  1  0.258192  0.700325  0.270742  1
  S  S8  1  0.704253  0.265249  0.265249  1
  S  S9  1  0.295747  0.734751  0.734751  1
  S  S10  1  0.741808  0.729258  0.299675  1
  S  S11  1  0.741808  0.299675  0.729258  1
  S  S12  1  0.741808  0.729258  0.729258  1
