# generated using pymatgen
data_Mg2CoN2
_symmetry_space_group_name_H-M   'P 1'
_cell_length_a   4.28069511
_cell_length_b   5.46862600
_cell_length_c   6.19850398
_cell_angle_alpha   64.48275910
_cell_angle_beta   69.79985176
_cell_angle_gamma   66.95919035
_symmetry_Int_Tables_number   1
_chemical_formula_structural   Mg2CoN2
_chemical_formula_sum   'Mg4 Co2 N4'
_cell_volume   117.74431543
_cell_formula_units_Z   2
loop_
 _symmetry_equiv_pos_site_id
 _symmetry_equiv_pos_as_xyz
  1  'x, y, z'
loop_
 _atom_site_type_symbol
 _atom_site_label
 _atom_site_symmetry_multiplicity
 _atom_site_fract_x
 _atom_site_fract_y
 _atom_site_fract_z
 _atom_site_occupancy
  Mg  Mg0  1  0.678946  0.232021  0.410089  1
  Mg  Mg1  1  0.321054  0.767979  0.589911  1
  Mg  Mg2  1  0.030813  0.685815  0.252558  1
  Mg  Mg3  1  0.969187  0.314185  0.747442  1
  Co  Co4  1  0.373224  0.134323  0.119231  1
  Co  Co5  1  0.626776  0.865677  0.880769  1
  N  N6  1  0.181231  0.243056  0.394484  1
  N  N7  1  0.818769  0.756944  0.605516  1
  N  N8  1  0.474966  0.262926  0.787141  1
  N  N9  1  0.525034  0.737074  0.212859  1
