# generated using pymatgen
data_SbO2
_symmetry_space_group_name_H-M   'P 1'
_cell_length_a   6.50395494
_cell_length_b   7.63925242
_cell_length_c   20.26402169
_cell_angle_alpha   53.53123442
_cell_angle_beta   61.08293759
_cell_angle_gamma   62.71213151
_symmetry_Int_Tables_number   1
_chemical_formula_structural   SbO2
_chemical_formula_sum   'Sb12 O24'
_cell_volume   687.47766242
_cell_formula_units_Z   12
loop_
 _symmetry_equiv_pos_site_id
 _symmetry_equiv_pos_as_xyz
  1  'x, y, z'
loop_
 _atom_site_type_symbol
 _atom_site_label
 _atom_site_symmetry_multiplicity
 _atom_site_fract_x
 _atom_site_fract_y
 _atom_site_fract_z
 _atom_site_occupancy
  Sb  Sb0  1  0.493195  0.509813  0.154356  1
  Sb  Sb1  1  0.904506  0.560256  0.527546  1
  Sb  Sb2  1  0.516226  0.440772  0.319744  1
  Sb  Sb3  1  0.468123  0.095863  0.163052  1
  Sb  Sb4  1  0.619023  0.402442  0.461990  1
  Sb  Sb5  1  0.000850  0.488263  0.163780  1
  Sb  Sb6  1  0.427338  0.566685  0.677549  1
  Sb  Sb7  1  0.483994  -0.000355  0.497993  1
  Sb  Sb8  1  0.489410  0.492626  0.841976  1
  Sb  Sb9  1  0.504735  0.061604  0.845391  1
  Sb  Sb10  1  0.941046  0.501432  0.850576  1
  Sb  Sb11  1  0.982444  0.859630  0.944145  1
  O  O12  1  0.192942  0.289454  0.112198  1
  O  O13  1  0.227176  0.691505  0.097819  1
  O  O14  1  0.269658  0.272414  0.231935  1
  O  O15  1  0.665916  0.318766  0.099328  1
  O  O16  1  0.311303  0.217983  0.408621  1
  O  O17  1  0.323990  0.634266  0.236265  1
  O  O18  1  0.777553  0.673400  0.083147  1
  O  O19  1  0.721314  0.304850  0.237093  1
  O  O20  1  0.402647  0.605045  0.383515  1
  O  O21  1  0.397905  0.195728  0.546705  1
  O  O22  1  0.733798  0.210288  0.403837  1
  O  O23  1  0.785732  0.607330  0.243419  1
  O  O24  1  0.188466  0.384066  0.761700  1
  O  O25  1  0.247641  0.818024  0.591088  1
  O  O26  1  0.705647  0.798356  0.446235  1
  O  O27  1  0.636591  0.398345  0.610595  1
  O  O28  1  0.327791  0.236131  0.909676  1
  O  O29  1  0.304318  0.701016  0.753051  1
  O  O30  1  0.654784  0.337747  0.757984  1
  O  O31  1  0.698277  0.756999  0.586587  1
  O  O32  1  0.255952  0.624707  0.917682  1
  O  O33  1  0.747535  0.273279  0.904002  1
  O  O34  1  0.707349  0.692066  0.779554  1
  O  O35  1  0.763220  0.857608  0.904765  1
