# generated using pymatgen
data_ZnNi(PO3)4
_symmetry_space_group_name_H-M   'P 1'
_cell_length_a   7.24931790
_cell_length_b   7.23867815
_cell_length_c   9.79760152
_cell_angle_alpha   98.45768834
_cell_angle_beta   110.26194271
_cell_angle_gamma   109.49685375
_symmetry_Int_Tables_number   1
_chemical_formula_structural   ZnNi(PO3)4
_chemical_formula_sum   'Zn2 Ni2 P8 O24'
_cell_volume   434.14425343
_cell_formula_units_Z   2
loop_
 _symmetry_equiv_pos_site_id
 _symmetry_equiv_pos_as_xyz
  1  'x, y, z'
loop_
 _atom_site_type_symbol
 _atom_site_label
 _atom_site_symmetry_multiplicity
 _atom_site_fract_x
 _atom_site_fract_y
 _atom_site_fract_z
 _atom_site_occupancy
  Zn  Zn0  1  0.695866  0.950324  0.748524  1
  Zn  Zn1  1  0.298044  0.049084  0.248158  1
  Ni  Ni2  1  0.499307  0.499393  0.499291  1
  Ni  Ni3  1  0.499422  0.998239  0.999605  1
  P  P4  1  0.506422  0.312771  0.802783  1
  P  P5  1  0.008748  0.703597  0.696653  1
  P  P6  1  0.491726  0.687897  0.197254  1
  P  P7  1  0.987716  0.294940  0.300562  1
  P  P8  1  0.766984  0.727199  0.023181  1
  P  P9  1  0.203798  0.743449  0.476194  1
  P  P10  1  0.232049  0.271558  0.976601  1
  P  P11  1  0.792556  0.253795  0.520788  1
  O  O12  1  0.314858  0.319409  0.847390  1
  O  O13  1  0.968451  0.465898  0.651024  1
  O  O14  1  0.685534  0.684509  0.153912  1
  O  O15  1  0.027068  0.532064  0.345411  1
  O  O16  1  0.720132  0.500588  0.933593  1
  O  O17  1  0.068227  0.786924  0.566707  1
  O  O18  1  0.278859  0.498099  0.067094  1
  O  O19  1  0.927116  0.210124  0.429512  1
  O  O20  1  0.456691  0.341133  0.649952  1
  O  O21  1  0.190348  0.806819  0.849553  1
  O  O22  1  0.539619  0.660013  0.350093  1
  O  O23  1  0.806185  0.191421  0.147789  1
  O  O24  1  0.539436  0.121093  0.825758  1
  O  O25  1  0.794859  0.714154  0.674148  1
  O  O26  1  0.459395  0.879682  0.174080  1
  O  O27  1  0.202443  0.285962  0.323634  1
  O  O28  1  0.623072  0.806473  0.917211  1
  O  O29  1  0.387138  0.702021  0.581196  1
  O  O30  1  0.376874  0.191955  0.081473  1
  O  O31  1  0.608186  0.294453  0.416470  1
  O  O32  1  0.003816  0.843991  0.094665  1
  O  O33  1  0.253445  0.910054  0.406162  1
  O  O34  1  0.995743  0.150921  0.904276  1
  O  O35  1  0.745200  0.087268  0.591300  1
