# generated using pymatgen
data_Nb2Zn2SnO8
_symmetry_space_group_name_H-M   'P 1'
_cell_length_a   5.40533578
_cell_length_b   6.06398238
_cell_length_c   10.91197040
_cell_angle_alpha   106.13578192
_cell_angle_beta   90.92403058
_cell_angle_gamma   90.00399656
_symmetry_Int_Tables_number   1
_chemical_formula_structural   Nb2Zn2SnO8
_chemical_formula_sum   'Nb4 Zn4 Sn2 O16'
_cell_volume   343.53233875
_cell_formula_units_Z   2
loop_
 _symmetry_equiv_pos_site_id
 _symmetry_equiv_pos_as_xyz
  1  'x, y, z'
loop_
 _atom_site_type_symbol
 _atom_site_label
 _atom_site_symmetry_multiplicity
 _atom_site_fract_x
 _atom_site_fract_y
 _atom_site_fract_z
 _atom_site_occupancy
  Nb  Nb0  1  0.727606  0.288320  0.252499  1
  Nb  Nb1  1  0.772654  0.036442  0.748904  1
  Nb  Nb2  1  0.272726  0.712741  0.748649  1
  Nb  Nb3  1  0.227367  0.964619  0.253191  1
  Zn  Zn4  1  0.769592  0.430568  0.558197  1
  Zn  Zn5  1  0.730545  0.873397  0.442948  1
  Zn  Zn6  1  0.229817  0.570510  0.441762  1
  Zn  Zn7  1  0.269806  0.129843  0.559378  1
  Sn  Sn8  1  0.749571  0.691001  0.000804  1
  Sn  Sn9  1  0.249044  0.307918  0.999952  1
  O  O10  1  0.041739  0.173135  0.163656  1
  O  O11  1  0.459130  0.010504  0.838870  1
  O  O12  1  0.959829  0.828912  0.838673  1
  O  O13  1  0.542024  0.989212  0.164363  1
  O  O14  1  0.620035  0.440575  0.135965  1
  O  O15  1  0.879030  0.306833  0.864713  1
  O  O16  1  0.378849  0.556867  0.863675  1
  O  O17  1  0.118380  0.695235  0.137838  1
  O  O18  1  0.427978  0.296064  0.367493  1
  O  O19  1  0.073222  0.929820  0.634605  1
  O  O20  1  0.362323  0.847284  0.398739  1
  O  O21  1  0.138154  0.450379  0.602707  1
  O  O22  1  0.638087  0.155145  0.603670  1
  O  O23  1  0.861916  0.552784  0.397539  1
  O  O24  1  0.928087  0.074246  0.368483  1
  O  O25  1  0.574150  0.706564  0.634694  1
