# generated using pymatgen
data_TaVZn2O6
_symmetry_space_group_name_H-M   'P 1'
_cell_length_a   5.27347136
_cell_length_b   5.34652798
_cell_length_c   7.68878076
_cell_angle_alpha   90.00000000
_cell_angle_beta   90.00000000
_cell_angle_gamma   89.57905631
_symmetry_Int_Tables_number   1
_chemical_formula_structural   TaVZn2O6
_chemical_formula_sum   'Ta2 V2 Zn4 O12'
_cell_volume   216.77749419
_cell_formula_units_Z   2
loop_
 _symmetry_equiv_pos_site_id
 _symmetry_equiv_pos_as_xyz
  1  'x, y, z'
loop_
 _atom_site_type_symbol
 _atom_site_label
 _atom_site_symmetry_multiplicity
 _atom_site_fract_x
 _atom_site_fract_y
 _atom_site_fract_z
 _atom_site_occupancy
  Ta  Ta0  1  0.000000  0.500000  0.000000  1
  Ta  Ta1  1  0.000000  0.500000  0.500000  1
  V  V2  1  0.500000  0.000000  0.000000  1
  V  V3  1  0.500000  0.000000  0.500000  1
  Zn  Zn4  1  0.985399  0.981804  0.250000  1
  Zn  Zn5  1  0.491267  0.450305  0.250000  1
  Zn  Zn6  1  0.508733  0.549695  0.750000  1
  Zn  Zn7  1  0.014601  0.018196  0.750000  1
  O  O8  1  0.833911  0.816788  0.565104  1
  O  O9  1  0.317009  0.676064  0.433231  1
  O  O10  1  0.166089  0.183212  0.434896  1
  O  O11  1  0.682991  0.323936  0.933231  1
  O  O12  1  0.125833  0.442739  0.750000  1
  O  O13  1  0.682991  0.323936  0.566769  1
  O  O14  1  0.317009  0.676064  0.066769  1
  O  O15  1  0.833911  0.816788  0.934896  1
  O  O16  1  0.614025  0.075825  0.250000  1
  O  O17  1  0.166089  0.183212  0.065104  1
  O  O18  1  0.385975  0.924175  0.750000  1
  O  O19  1  0.874167  0.557261  0.250000  1
