# generated using pymatgen
data_Zn3Co2(SiO4)3
_symmetry_space_group_name_H-M   'P 1'
_cell_length_a   10.06046171
_cell_length_b   10.06046196
_cell_length_c   10.06046166
_cell_angle_alpha   109.47122176
_cell_angle_beta   109.47122224
_cell_angle_gamma   109.47121852
_symmetry_Int_Tables_number   1
_chemical_formula_structural   Zn3Co2(SiO4)3
_chemical_formula_sum   'Zn12 Co8 Si12 O48'
_cell_volume   783.84799505
_cell_formula_units_Z   4
loop_
 _symmetry_equiv_pos_site_id
 _symmetry_equiv_pos_as_xyz
  1  'x, y, z'
loop_
 _atom_site_type_symbol
 _atom_site_label
 _atom_site_symmetry_multiplicity
 _atom_site_fract_x
 _atom_site_fract_y
 _atom_site_fract_z
 _atom_site_occupancy
  Zn  Zn0  1  0.375000  0.750000  0.125000  1
  Zn  Zn1  1  0.125000  0.250000  0.375000  1
  Zn  Zn2  1  0.375000  0.125000  0.250000  1
  Zn  Zn3  1  0.125000  0.375000  0.750000  1
  Zn  Zn4  1  0.875000  0.750000  0.625000  1
  Zn  Zn5  1  0.750000  0.125000  0.375000  1
  Zn  Zn6  1  0.750000  0.625000  0.875000  1
  Zn  Zn7  1  0.625000  0.250000  0.875000  1
  Zn  Zn8  1  0.250000  0.875000  0.625000  1
  Zn  Zn9  1  0.875000  0.625000  0.250000  1
  Zn  Zn10  1  0.625000  0.875000  0.750000  1
  Zn  Zn11  1  0.250000  0.375000  0.125000  1
  Co  Co12  1  0.000000  0.000000  0.000000  1
  Co  Co13  1  0.000000  0.500000  0.000000  1
  Co  Co14  1  0.000000  0.000000  0.500000  1
  Co  Co15  1  0.000000  0.500000  0.500000  1
  Co  Co16  1  0.500000  0.000000  0.500000  1
  Co  Co17  1  0.500000  0.500000  0.000000  1
  Co  Co18  1  0.500000  0.500000  0.500000  1
  Co  Co19  1  0.500000  0.000000  0.000000  1
  Si  Si20  1  0.250000  0.125000  0.875000  1
  Si  Si21  1  0.750000  0.875000  0.125000  1
  Si  Si22  1  0.375000  0.250000  0.625000  1
  Si  Si23  1  0.625000  0.375000  0.250000  1
  Si  Si24  1  0.125000  0.750000  0.875000  1
  Si  Si25  1  0.875000  0.125000  0.750000  1
  Si  Si26  1  0.750000  0.375000  0.625000  1
  Si  Si27  1  0.375000  0.625000  0.750000  1
  Si  Si28  1  0.125000  0.875000  0.250000  1
  Si  Si29  1  0.875000  0.250000  0.125000  1
  Si  Si30  1  0.625000  0.750000  0.375000  1
  Si  Si31  1  0.250000  0.625000  0.375000  1
  O  O32  1  0.296278  0.482249  0.378538  1
  O  O33  1  0.017751  0.314029  0.896289  1
  O  O34  1  0.121462  0.603711  0.917740  1
  O  O35  1  0.203722  0.582260  0.185971  1
  O  O36  1  0.203722  0.121462  0.017751  1
  O  O37  1  0.582260  0.185971  0.203722  1
  O  O38  1  0.603711  0.185971  0.482249  1
  O  O39  1  0.185971  0.203722  0.582260  1
  O  O40  1  0.896289  0.378538  0.582260  1
  O  O41  1  0.314029  0.917740  0.296278  1
  O  O42  1  0.917740  0.296278  0.314029  1
  O  O43  1  0.017751  0.203722  0.121462  1
  O  O44  1  0.185971  0.482249  0.603711  1
  O  O45  1  0.582260  0.896289  0.378538  1
  O  O46  1  0.121462  0.017751  0.203722  1
  O  O47  1  0.482249  0.603711  0.185971  1
  O  O48  1  0.378538  0.582260  0.896289  1
  O  O49  1  0.896289  0.017751  0.314029  1
  O  O50  1  0.603711  0.917740  0.121462  1
  O  O51  1  0.103711  0.621462  0.417740  1
  O  O52  1  0.917740  0.121462  0.603711  1
  O  O53  1  0.378538  0.296278  0.482249  1
  O  O54  1  0.314029  0.896289  0.017751  1
  O  O55  1  0.296278  0.314029  0.917740  1
  O  O56  1  0.703722  0.517751  0.621462  1
  O  O57  1  0.982249  0.685971  0.103711  1
  O  O58  1  0.878538  0.396289  0.082260  1
  O  O59  1  0.796278  0.417740  0.814029  1
  O  O60  1  0.796278  0.878538  0.982249  1
  O  O61  1  0.417740  0.814029  0.796278  1
  O  O62  1  0.396289  0.814029  0.517751  1
  O  O63  1  0.814029  0.796278  0.417740  1
  O  O64  1  0.703722  0.685971  0.082260  1
  O  O65  1  0.685971  0.103711  0.982249  1
  O  O66  1  0.621462  0.703722  0.517751  1
  O  O67  1  0.517751  0.621462  0.703722  1
  O  O68  1  0.082260  0.878538  0.396289  1
  O  O69  1  0.396289  0.082260  0.878538  1
  O  O70  1  0.103711  0.982249  0.685971  1
  O  O71  1  0.621462  0.417740  0.103711  1
  O  O72  1  0.517751  0.396289  0.814029  1
  O  O73  1  0.878538  0.982249  0.796278  1
  O  O74  1  0.417740  0.103711  0.621462  1
  O  O75  1  0.814029  0.517751  0.396289  1
  O  O76  1  0.982249  0.796278  0.878538  1
  O  O77  1  0.082260  0.703722  0.685971  1
  O  O78  1  0.685971  0.082260  0.703722  1
  O  O79  1  0.482249  0.378538  0.296278  1
