# generated using pymatgen
data_Ca2CrN2
_symmetry_space_group_name_H-M   'P 1'
_cell_length_a   5.00983912
_cell_length_b   6.02244582
_cell_length_c   6.63783030
_cell_angle_alpha   63.23104029
_cell_angle_beta   67.82911950
_cell_angle_gamma   65.42206834
_symmetry_Int_Tables_number   1
_chemical_formula_structural   Ca2CrN2
_chemical_formula_sum   'Ca4 Cr2 N4'
_cell_volume   158.09235571
_cell_formula_units_Z   2
loop_
 _symmetry_equiv_pos_site_id
 _symmetry_equiv_pos_as_xyz
  1  'x, y, z'
loop_
 _atom_site_type_symbol
 _atom_site_label
 _atom_site_symmetry_multiplicity
 _atom_site_fract_x
 _atom_site_fract_y
 _atom_site_fract_z
 _atom_site_occupancy
  Ca  Ca0  1  0.680596  0.252464  0.386345  1
  Ca  Ca1  1  0.319404  0.747536  0.613655  1
  Ca  Ca2  1  0.038434  0.704017  0.219113  1
  Ca  Ca3  1  0.961566  0.295983  0.780887  1
  Cr  Cr4  1  0.368403  0.128644  0.134551  1
  Cr  Cr5  1  0.631597  0.871356  0.865449  1
  N  N6  1  0.193773  0.240590  0.371864  1
  N  N7  1  0.806227  0.759410  0.628136  1
  N  N8  1  0.488336  0.221618  0.801709  1
  N  N9  1  0.511664  0.778381  0.198291  1
