# generated using pymatgen
data_CaFeF4
_symmetry_space_group_name_H-M   'P 1'
_cell_length_a   5.50640513
_cell_length_b   5.50033944
_cell_length_c   6.64876464
_cell_angle_alpha   114.39837282
_cell_angle_beta   114.49733135
_cell_angle_gamma   89.99017471
_symmetry_Int_Tables_number   1
_chemical_formula_structural   CaFeF4
_chemical_formula_sum   'Ca2 Fe2 F8'
_cell_volume   163.28376882
_cell_formula_units_Z   2
loop_
 _symmetry_equiv_pos_site_id
 _symmetry_equiv_pos_as_xyz
  1  'x, y, z'
loop_
 _atom_site_type_symbol
 _atom_site_label
 _atom_site_symmetry_multiplicity
 _atom_site_fract_x
 _atom_site_fract_y
 _atom_site_fract_z
 _atom_site_occupancy
  Ca  Ca0  1  0.252191  0.251777  0.503022  1
  Ca  Ca1  1  0.751147  0.750495  0.500827  1
  Fe  Fe2  1  0.998281  0.503959  0.001052  1
  Fe  Fe3  1  0.498556  0.998208  0.002571  1
  F  F4  1  0.943078  0.443009  0.259860  1
  F  F5  1  0.685165  0.182241  0.743046  1
  F  F6  1  0.061679  0.562530  0.744699  1
  F  F7  1  0.184921  0.059360  0.743660  1
  F  F8  1  0.318423  0.818494  0.257546  1
  F  F9  1  0.442081  0.317808  0.261033  1
  F  F10  1  0.820619  0.943270  0.260797  1
  F  F11  1  0.564637  0.683570  0.746953  1
