# generated using pymatgen
data_Ca2YNiO5
_symmetry_space_group_name_H-M   'P 1'
_cell_length_a   5.13158145
_cell_length_b   5.56693386
_cell_length_c   9.12011669
_cell_angle_alpha   107.78750535
_cell_angle_beta   106.33827254
_cell_angle_gamma   90.01228743
_symmetry_Int_Tables_number   1
_chemical_formula_structural   Ca2YNiO5
_chemical_formula_sum   'Ca4 Y2 Ni2 O10'
_cell_volume   237.00272611
_cell_formula_units_Z   2
loop_
 _symmetry_equiv_pos_site_id
 _symmetry_equiv_pos_as_xyz
  1  'x, y, z'
loop_
 _atom_site_type_symbol
 _atom_site_label
 _atom_site_symmetry_multiplicity
 _atom_site_fract_x
 _atom_site_fract_y
 _atom_site_fract_z
 _atom_site_occupancy
  Ca  Ca0  1  0.088651  0.623891  0.194737  1
  Ca  Ca1  1  0.395114  0.930711  0.808289  1
  Ca  Ca2  1  0.895558  0.378183  0.808134  1
  Ca  Ca3  1  0.588474  0.071332  0.194647  1
  Y  Y4  1  0.267912  0.288723  0.501311  1
  Y  Y5  1  0.768143  0.713353  0.501629  1
  Ni  Ni6  1  0.484612  0.501260  0.001648  1
  Ni  Ni7  1  0.984443  0.001120  0.001434  1
  O  O8  1  0.716279  0.320143  0.501475  1
  O  O9  1  0.216414  0.681958  0.501425  1
  O  O10  1  0.601248  0.690349  0.254115  1
  O  O11  1  0.347906  0.311616  0.748789  1
  O  O12  1  0.100785  0.064567  0.253550  1
  O  O13  1  0.849295  0.937529  0.749427  1
  O  O14  1  0.221045  0.737888  0.970390  1
  O  O15  1  0.252465  0.264580  0.032978  1
  O  O16  1  0.752126  0.268740  0.032666  1
  O  O17  1  0.720798  0.733003  0.969911  1
