# generated using pymatgen
data_Ba2TlW2O7
_symmetry_space_group_name_H-M   'P 1'
_cell_length_a   3.97541809
_cell_length_b   3.97753867
_cell_length_c   13.09408177
_cell_angle_alpha   90.00002206
_cell_angle_beta   90.00309515
_cell_angle_gamma   90.00005375
_symmetry_Int_Tables_number   1
_chemical_formula_structural   Ba2TlW2O7
_chemical_formula_sum   'Ba2 Tl1 W2 O7'
_cell_volume   207.04858576
_cell_formula_units_Z   1
loop_
 _symmetry_equiv_pos_site_id
 _symmetry_equiv_pos_as_xyz
  1  'x, y, z'
loop_
 _atom_site_type_symbol
 _atom_site_label
 _atom_site_symmetry_multiplicity
 _atom_site_fract_x
 _atom_site_fract_y
 _atom_site_fract_z
 _atom_site_occupancy
  Ba  Ba0  1  0.000187  0.000000  0.695994  1
  Ba  Ba1  1  0.999809  0.000001  0.303991  1
  Tl  Tl2  1  0.499789  0.500002  0.499977  1
  W  W3  1  0.500074  0.500000  0.870638  1
  W  W4  1  0.499846  0.500000  0.129361  1
  O  O5  1  0.000316  0.999998  0.499991  1
  O  O6  1  0.500068  1.000000  0.873636  1
  O  O7  1  0.000097  0.500000  0.873492  1
  O  O8  1  0.499855  0.000000  0.126392  1
  O  O9  1  0.999851  0.500001  0.126490  1
  O  O10  1  0.500233  0.499999  0.714773  1
  O  O11  1  0.499869  0.500001  0.285230  1
