# generated using pymatgen
data_V3O7
_symmetry_space_group_name_H-M   'P 1'
_cell_length_a   5.37062871
_cell_length_b   10.77988661
_cell_length_c   10.47232660
_cell_angle_alpha   90.00000000
_cell_angle_beta   90.00000000
_cell_angle_gamma   90.00000000
_symmetry_Int_Tables_number   1
_chemical_formula_structural   V3O7
_chemical_formula_sum   'V12 O28'
_cell_volume   606.29292435
_cell_formula_units_Z   4
loop_
 _symmetry_equiv_pos_site_id
 _symmetry_equiv_pos_as_xyz
  1  'x, y, z'
loop_
 _atom_site_type_symbol
 _atom_site_label
 _atom_site_symmetry_multiplicity
 _atom_site_fract_x
 _atom_site_fract_y
 _atom_site_fract_z
 _atom_site_occupancy
  V  V0  1  0.297812  0.029007  0.299944  1
  V  V1  1  0.797812  0.970993  0.200056  1
  V  V2  1  0.702188  0.529007  0.700056  1
  V  V3  1  0.202188  0.470993  0.799944  1
  V  V4  1  0.303514  0.750000  0.219890  1
  V  V5  1  0.803514  0.250000  0.280110  1
  V  V6  1  0.696486  0.250000  0.780110  1
  V  V7  1  0.196486  0.750000  0.719890  1
  V  V8  1  0.797812  0.529007  0.200056  1
  V  V9  1  0.297812  0.470993  0.299944  1
  V  V10  1  0.202188  0.029007  0.799944  1
  V  V11  1  0.702188  0.970993  0.700056  1
  O  O12  1  0.930720  0.112298  0.728937  1
  O  O13  1  0.430720  0.887702  0.771063  1
  O  O14  1  0.069280  0.612298  0.271063  1
  O  O15  1  0.569280  0.387702  0.228937  1
  O  O16  1  0.069280  0.887702  0.271063  1
  O  O17  1  0.569280  0.112298  0.228937  1
  O  O18  1  0.930720  0.387702  0.728937  1
  O  O19  1  0.430720  0.612298  0.771063  1
  O  O20  1  0.468043  0.112010  0.723540  1
  O  O21  1  0.968043  0.887990  0.776460  1
  O  O22  1  0.531957  0.612010  0.276460  1
  O  O23  1  0.031957  0.387990  0.223540  1
  O  O24  1  0.531957  0.887990  0.276460  1
  O  O25  1  0.031957  0.112010  0.223540  1
  O  O26  1  0.468043  0.387990  0.723540  1
  O  O27  1  0.968043  0.612010  0.776460  1
  O  O28  1  0.189026  0.750000  0.565817  1
  O  O29  1  0.689026  0.250000  0.934183  1
  O  O30  1  0.810974  0.250000  0.434183  1
  O  O31  1  0.310974  0.750000  0.065817  1
  O  O32  1  0.213589  0.432949  0.947969  1
  O  O33  1  0.713589  0.567051  0.552031  1
  O  O34  1  0.786411  0.932949  0.052031  1
  O  O35  1  0.286411  0.067051  0.447969  1
  O  O36  1  0.786411  0.567051  0.052031  1
  O  O37  1  0.286411  0.432949  0.447969  1
  O  O38  1  0.213589  0.067051  0.947969  1
  O  O39  1  0.713589  0.932949  0.552031  1
