# generated using pymatgen
data_YCr4(CuO4)3
_symmetry_space_group_name_H-M   'P 1'
_cell_length_a   6.40748812
_cell_length_b   6.40748812
_cell_length_c   6.40748812
_cell_angle_alpha   109.47122063
_cell_angle_beta   109.47122063
_cell_angle_gamma   109.47122063
_symmetry_Int_Tables_number   1
_chemical_formula_structural   YCr4(CuO4)3
_chemical_formula_sum   'Y1 Cr4 Cu3 O12'
_cell_volume   202.50769846
_cell_formula_units_Z   1
loop_
 _symmetry_equiv_pos_site_id
 _symmetry_equiv_pos_as_xyz
  1  'x, y, z'
loop_
 _atom_site_type_symbol
 _atom_site_label
 _atom_site_symmetry_multiplicity
 _atom_site_fract_x
 _atom_site_fract_y
 _atom_site_fract_z
 _atom_site_occupancy
  Y  Y0  1  0.000000  -0.000000  0.000000  1
  Cr  Cr1  1  0.000000  -0.000000  0.500000  1
  Cr  Cr2  1  0.500000  -0.000000  0.000000  1
  Cr  Cr3  1  0.000000  0.500000  0.000000  1
  Cr  Cr4  1  0.500000  0.500000  0.500000  1
  Cu  Cu5  1  0.500000  -0.000000  0.500000  1
  Cu  Cu6  1  0.000000  0.500000  0.500000  1
  Cu  Cu7  1  0.500000  0.500000  0.000000  1
  O  O8  1  0.833766  0.693242  0.527008  1
  O  O9  1  0.833766  0.306758  0.140523  1
  O  O10  1  0.166234  0.693242  0.859477  1
  O  O11  1  0.166234  0.306758  0.472992  1
  O  O12  1  0.693242  0.527008  0.833766  1
  O  O13  1  0.306758  0.140523  0.833766  1
  O  O14  1  0.693242  0.859477  0.166234  1
  O  O15  1  0.306758  0.472992  0.166234  1
  O  O16  1  0.527008  0.833766  0.693242  1
  O  O17  1  0.140523  0.833766  0.306758  1
  O  O18  1  0.859477  0.166234  0.693242  1
  O  O19  1  0.472992  0.166234  0.306758  1
