# generated using pymatgen
data_V2ZnO4
_symmetry_space_group_name_H-M   'P 1'
_cell_length_a   6.08021748
_cell_length_b   6.07434421
_cell_length_c   6.07434373
_cell_angle_alpha   59.99999028
_cell_angle_beta   60.03194729
_cell_angle_gamma   60.03194560
_symmetry_Int_Tables_number   1
_chemical_formula_structural   V2ZnO4
_chemical_formula_sum   'V4 Zn2 O8'
_cell_volume   158.71295761
_cell_formula_units_Z   2
loop_
 _symmetry_equiv_pos_site_id
 _symmetry_equiv_pos_as_xyz
  1  'x, y, z'
loop_
 _atom_site_type_symbol
 _atom_site_label
 _atom_site_symmetry_multiplicity
 _atom_site_fract_x
 _atom_site_fract_y
 _atom_site_fract_z
 _atom_site_occupancy
  V  V0  1  0.256699  0.247767  0.247767  1
  V  V1  1  0.626804  0.120789  0.626204  1
  V  V2  1  0.626804  0.626204  0.120789  1
  V  V3  1  0.626804  0.626204  0.626204  1
  Zn  Zn4  1  0.988933  0.003689  0.003689  1
  Zn  Zn5  1  0.122382  0.625872  0.625872  1
  O  O6  1  0.392000  0.376742  0.376742  1
  O  O7  1  0.392000  0.376742  0.854516  1
  O  O8  1  0.392000  0.854516  0.376742  1
  O  O9  1  0.849244  0.383586  0.383586  1
  O  O10  1  0.406564  0.864479  0.864479  1
  O  O11  1  0.856589  0.403721  0.869845  1
  O  O12  1  0.856589  0.869845  0.403721  1
  O  O13  1  0.856589  0.869845  0.869845  1
