# generated using pymatgen
data_AlCu(WO4)2
_symmetry_space_group_name_H-M   'P 1'
_cell_length_a   5.02159247
_cell_length_b   5.67879554
_cell_length_c   9.15478115
_cell_angle_alpha   90.00006431
_cell_angle_beta   90.76094795
_cell_angle_gamma   90.00002481
_symmetry_Int_Tables_number   1
_chemical_formula_structural   AlCu(WO4)2
_chemical_formula_sum   'Al2 Cu2 W4 O16'
_cell_volume   261.04018055
_cell_formula_units_Z   2
loop_
 _symmetry_equiv_pos_site_id
 _symmetry_equiv_pos_as_xyz
  1  'x, y, z'
loop_
 _atom_site_type_symbol
 _atom_site_label
 _atom_site_symmetry_multiplicity
 _atom_site_fract_x
 _atom_site_fract_y
 _atom_site_fract_z
 _atom_site_occupancy
  Al  Al0  1  0.249999  0.661952  0.250000  1
  Al  Al1  1  0.750000  0.338047  0.750000  1
  Cu  Cu2  1  0.749999  0.346389  0.250000  1
  Cu  Cu3  1  0.250001  0.653610  0.750000  1
  W  W4  1  0.256929  0.173241  0.497233  1
  W  W5  1  0.243071  0.173241  0.002767  1
  W  W6  1  0.743071  0.826759  0.502767  1
  W  W7  1  0.756929  0.826759  0.997233  1
  O  O8  1  0.375399  0.404022  0.126726  1
  O  O9  1  0.124600  0.404021  0.373274  1
  O  O10  1  0.624601  0.595977  0.873274  1
  O  O11  1  0.875399  0.595978  0.626726  1
  O  O12  1  0.433123  0.886994  0.614362  1
  O  O13  1  0.066877  0.886993  0.885638  1
  O  O14  1  0.566877  0.113006  0.385638  1
  O  O15  1  0.933123  0.113007  0.114362  1
  O  O16  1  0.929790  0.646938  0.139677  1
  O  O17  1  0.570210  0.646938  0.360323  1
  O  O18  1  0.070210  0.353063  0.860323  1
  O  O19  1  0.429790  0.353063  0.639677  1
  O  O20  1  0.418527  0.884553  0.111179  1
  O  O21  1  0.581473  0.115448  0.888821  1
  O  O22  1  0.081473  0.884553  0.388821  1
  O  O23  1  0.918527  0.115448  0.611179  1
