# generated using pymatgen
data_Zn(FeO2)2
_symmetry_space_group_name_H-M   'P 1'
_cell_length_a   2.92169624
_cell_length_b   9.05041396
_cell_length_c   10.37279716
_cell_angle_alpha   89.99098092
_cell_angle_beta   89.99983713
_cell_angle_gamma   90.00016458
_symmetry_Int_Tables_number   1
_chemical_formula_structural   Zn(FeO2)2
_chemical_formula_sum   'Zn4 Fe8 O16'
_cell_volume   274.28331241
_cell_formula_units_Z   4
loop_
 _symmetry_equiv_pos_site_id
 _symmetry_equiv_pos_as_xyz
  1  'x, y, z'
loop_
 _atom_site_type_symbol
 _atom_site_label
 _atom_site_symmetry_multiplicity
 _atom_site_fract_x
 _atom_site_fract_y
 _atom_site_fract_z
 _atom_site_occupancy
  Zn  Zn0  1  0.750004  0.753375  0.653619  1
  Zn  Zn1  1  0.249999  0.246592  0.346371  1
  Zn  Zn2  1  0.750001  0.253500  0.846418  1
  Zn  Zn3  1  0.249998  0.746591  0.153590  1
  Fe  Fe4  1  0.750002  0.936528  0.880060  1
  Fe  Fe5  1  0.249999  0.063510  0.119947  1
  Fe  Fe6  1  0.750002  0.436477  0.619929  1
  Fe  Fe7  1  0.250002  0.563497  0.380002  1
  Fe  Fe8  1  0.750000  0.914469  0.400951  1
  Fe  Fe9  1  0.249999  0.085538  0.599076  1
  Fe  Fe10  1  0.749998  0.414434  0.099057  1
  Fe  Fe11  1  0.250006  0.585530  0.900947  1
  O  O12  1  0.750004  0.709392  0.326109  1
  O  O13  1  0.250007  0.290621  0.673828  1
  O  O14  1  0.749999  0.209367  0.173822  1
  O  O15  1  0.250005  0.790627  0.826211  1
  O  O16  1  0.750007  0.617221  0.033652  1
  O  O17  1  0.249992  0.382776  0.966362  1
  O  O18  1  0.750001  0.117230  0.466354  1
  O  O19  1  0.250002  0.882755  0.533690  1
  O  O20  1  0.749997  0.536872  0.788900  1
  O  O21  1  0.250001  0.463035  0.211107  1
  O  O22  1  0.750002  0.036890  0.711075  1
  O  O23  1  0.250000  0.963165  0.288965  1
  O  O24  1  0.749997  0.906245  0.072570  1
  O  O25  1  0.249999  0.093794  0.927449  1
  O  O26  1  0.749988  0.406228  0.427433  1
  O  O27  1  0.249989  0.593739  0.572506  1
