# generated using pymatgen
data_MgMnO2
_symmetry_space_group_name_H-M   'P 1'
_cell_length_a   3.09869114
_cell_length_b   8.20240678
_cell_length_c   7.61633530
_cell_angle_alpha   107.94797568
_cell_angle_beta   90.04329307
_cell_angle_gamma   67.77281160
_symmetry_Int_Tables_number   1
_chemical_formula_structural   MgMnO2
_chemical_formula_sum   'Mg4 Mn4 O8'
_cell_volume   168.99649452
_cell_formula_units_Z   4
loop_
 _symmetry_equiv_pos_site_id
 _symmetry_equiv_pos_as_xyz
  1  'x, y, z'
loop_
 _atom_site_type_symbol
 _atom_site_label
 _atom_site_symmetry_multiplicity
 _atom_site_fract_x
 _atom_site_fract_y
 _atom_site_fract_z
 _atom_site_occupancy
  Mg  Mg0  1  0.186067  0.051454  0.196942  1
  Mg  Mg1  1  0.809543  0.928539  0.831532  1
  Mg  Mg2  1  0.057240  0.680129  0.076464  1
  Mg  Mg3  1  0.938880  0.299886  0.951682  1
  Mn  Mn4  1  0.563336  0.175239  0.577191  1
  Mn  Mn5  1  0.311514  0.426511  0.319790  1
  Mn  Mn6  1  0.684893  0.553364  0.708116  1
  Mn  Mn7  1  0.432534  0.804675  0.451117  1
  O  O8  1  0.053239  0.684357  0.585382  1
  O  O9  1  0.312572  0.426002  0.838376  1
  O  O10  1  0.683907  0.553778  0.189384  1
  O  O11  1  0.942883  0.295558  0.442722  1
  O  O12  1  0.186532  0.052301  0.714131  1
  O  O13  1  0.566624  0.171665  0.070062  1
  O  O14  1  0.809238  0.927577  0.314362  1
  O  O15  1  0.429273  0.808301  0.958365  1
