# generated using pymatgen
data_VO2
_symmetry_space_group_name_H-M   'P 1'
_cell_length_a   2.91309813
_cell_length_b   8.94975857
_cell_length_c   10.74619690
_cell_angle_alpha   90.00876754
_cell_angle_beta   89.99993182
_cell_angle_gamma   89.99989438
_symmetry_Int_Tables_number   1
_chemical_formula_structural   VO2
_chemical_formula_sum   'V8 O16'
_cell_volume   280.16973729
_cell_formula_units_Z   8
loop_
 _symmetry_equiv_pos_site_id
 _symmetry_equiv_pos_as_xyz
  1  'x, y, z'
loop_
 _atom_site_type_symbol
 _atom_site_label
 _atom_site_symmetry_multiplicity
 _atom_site_fract_x
 _atom_site_fract_y
 _atom_site_fract_z
 _atom_site_occupancy
  V  V0  1  0.749996  0.946940  0.882914  1
  V  V1  1  0.249994  0.053062  0.117112  1
  V  V2  1  0.750003  0.446945  0.617067  1
  V  V3  1  0.250007  0.553052  0.382900  1
  V  V4  1  0.750010  0.913240  0.398143  1
  V  V5  1  0.249995  0.086754  0.601883  1
  V  V6  1  0.750002  0.413239  0.101836  1
  V  V7  1  0.249998  0.586758  0.898145  1
  O  O8  1  0.749997  0.700826  0.360430  1
  O  O9  1  0.249996  0.299173  0.639544  1
  O  O10  1  0.750001  0.200851  0.139573  1
  O  O11  1  0.250001  0.799162  0.860447  1
  O  O12  1  0.749998  0.612385  0.014644  1
  O  O13  1  0.249999  0.387616  0.985333  1
  O  O14  1  0.750001  0.112362  0.485395  1
  O  O15  1  0.250005  0.887618  0.514633  1
  O  O16  1  0.750001  0.526457  0.784648  1
  O  O17  1  0.249999  0.473550  0.215326  1
  O  O18  1  0.749999  0.026460  0.715364  1
  O  O19  1  0.249996  0.973553  0.284664  1
  O  O20  1  0.749996  0.923261  0.070704  1
  O  O21  1  0.249998  0.076738  0.929323  1
  O  O22  1  0.750004  0.423250  0.429280  1
  O  O23  1  0.250005  0.576747  0.570693  1
