# generated using pymatgen
data_Y2MgMn2S2O5
_symmetry_space_group_name_H-M   'P 1'
_cell_length_a   3.83152099
_cell_length_b   3.83152099
_cell_length_c   14.29840095
_cell_angle_alpha   82.30011364
_cell_angle_beta   97.69988636
_cell_angle_gamma   90.00000000
_symmetry_Int_Tables_number   1
_chemical_formula_structural   Y2MgMn2S2O5
_chemical_formula_sum   'Y2 Mg1 Mn2 S2 O5'
_cell_volume   206.10576180
_cell_formula_units_Z   1
loop_
 _symmetry_equiv_pos_site_id
 _symmetry_equiv_pos_as_xyz
  1  'x, y, z'
loop_
 _atom_site_type_symbol
 _atom_site_label
 _atom_site_symmetry_multiplicity
 _atom_site_fract_x
 _atom_site_fract_y
 _atom_site_fract_z
 _atom_site_occupancy
  Y  Y0  1  0.367013  0.632987  0.734025  1
  Y  Y1  1  0.632987  0.367013  0.265975  1
  Mg  Mg2  1  0.750000  0.750000  0.500000  1
  Mn  Mn3  1  0.065408  0.934592  0.130815  1
  Mn  Mn4  1  0.934592  0.065408  0.869185  1
  S  S5  1  0.193151  0.806849  0.386301  1
  S  S6  1  0.806849  0.193151  0.613699  1
  O  O7  1  0.592812  0.907188  0.185623  1
  O  O8  1  0.907188  0.592812  0.814377  1
  O  O9  1  0.091359  0.408641  0.182717  1
  O  O10  1  0.408641  0.091359  0.817283  1
  O  O11  1  -0.000000  0.000000  -0.000000  1
