# generated using pymatgen
data_Sr2Y2Fe2O7
_symmetry_space_group_name_H-M   'P 1'
_cell_length_a   12.63400871
_cell_length_b   12.63400871
_cell_length_c   12.63400871
_cell_angle_alpha   37.43112833
_cell_angle_beta   153.38536656
_cell_angle_gamma   154.16393976
_symmetry_Int_Tables_number   1
_chemical_formula_structural   Sr2Y2Fe2O7
_chemical_formula_sum   'Sr4 Y4 Fe4 O14'
_cell_volume   393.12822159
_cell_formula_units_Z   2
loop_
 _symmetry_equiv_pos_site_id
 _symmetry_equiv_pos_as_xyz
  1  'x, y, z'
loop_
 _atom_site_type_symbol
 _atom_site_label
 _atom_site_symmetry_multiplicity
 _atom_site_fract_x
 _atom_site_fract_y
 _atom_site_fract_z
 _atom_site_occupancy
  Sr  Sr0  1  0.040803  0.867897  0.885418  1
  Sr  Sr1  1  0.982479  0.155384  0.114582  1
  Sr  Sr2  1  0.040803  0.655384  0.672905  1
  Sr  Sr3  1  0.982479  0.367897  0.327095  1
  Y  Y4  1  0.013922  0.513922  0.500000  1
  Y  Y5  1  0.013922  0.013922  0.000000  1
  Y  Y6  1  0.536994  0.734209  0.302786  1
  Y  Y7  1  0.431423  0.234209  0.697214  1
  Fe  Fe8  1  0.513093  0.444031  0.917297  1
  Fe  Fe9  1  0.526733  0.595796  0.082703  1
  Fe  Fe10  1  0.513093  0.095796  0.569062  1
  Fe  Fe11  1  0.526733  0.944031  0.430938  1
  O  O12  1  0.006708  0.846405  0.660303  1
  O  O13  1  0.186102  0.346405  0.339697  1
  O  O14  1  0.444826  0.185021  0.139075  1
  O  O15  1  0.045947  0.305753  0.860925  1
  O  O16  1  0.444826  0.805753  0.759806  1
  O  O17  1  0.045947  0.685021  0.240194  1
  O  O18  1  0.613683  0.748827  0.733840  1
  O  O19  1  0.014987  0.879842  0.266160  1
  O  O20  1  0.613683  0.379842  0.364856  1
  O  O21  1  0.014987  0.248827  0.635144  1
  O  O22  1  0.514022  0.904329  0.275437  1
  O  O23  1  0.628893  0.238584  0.724563  1
  O  O24  1  0.514022  0.738584  0.109693  1
  O  O25  1  0.628893  0.404329  0.890307  1
