# generated using pymatgen
data_VO2
_symmetry_space_group_name_H-M   'P 1'
_cell_length_a   5.93079576
_cell_length_b   5.89812424
_cell_length_c   5.97907115
_cell_angle_alpha   59.78477540
_cell_angle_beta   59.41957918
_cell_angle_gamma   60.84150504
_symmetry_Int_Tables_number   1
_chemical_formula_structural   VO2
_chemical_formula_sum   'V4 O8'
_cell_volume   147.89412493
_cell_formula_units_Z   4
loop_
 _symmetry_equiv_pos_site_id
 _symmetry_equiv_pos_as_xyz
  1  'x, y, z'
loop_
 _atom_site_type_symbol
 _atom_site_label
 _atom_site_symmetry_multiplicity
 _atom_site_fract_x
 _atom_site_fract_y
 _atom_site_fract_z
 _atom_site_occupancy
  V  V0  1  0.499983  0.500016  0.499995  1
  V  V1  1  0.000051  0.500004  0.499974  1
  V  V2  1  0.500004  0.499998  -0.000019  1
  V  V3  1  0.500037  -0.000045  0.500012  1
  O  O4  1  0.299858  0.736290  0.738469  1
  O  O5  1  0.742755  0.736166  0.722393  1
  O  O6  1  0.727750  0.298941  0.740999  1
  O  O7  1  0.731258  0.728720  0.298312  1
  O  O8  1  0.257225  0.263827  0.277615  1
  O  O9  1  0.700142  0.263719  0.261525  1
  O  O10  1  0.268722  0.271263  0.701723  1
  O  O11  1  0.272213  0.701103  0.259001  1
