# generated using pymatgen
data_CaMn2O5
_symmetry_space_group_name_H-M   'P 1'
_cell_length_a   3.80453633
_cell_length_b   5.75139538
_cell_length_c   11.43346678
_cell_angle_alpha   90.00000000
_cell_angle_beta   90.00000000
_cell_angle_gamma   109.31423670
_symmetry_Int_Tables_number   1
_chemical_formula_structural   CaMn2O5
_chemical_formula_sum   'Ca2 Mn4 O10'
_cell_volume   236.09973496
_cell_formula_units_Z   2
loop_
 _symmetry_equiv_pos_site_id
 _symmetry_equiv_pos_as_xyz
  1  'x, y, z'
loop_
 _atom_site_type_symbol
 _atom_site_label
 _atom_site_symmetry_multiplicity
 _atom_site_fract_x
 _atom_site_fract_y
 _atom_site_fract_z
 _atom_site_occupancy
  Ca  Ca0  1  0.905642  0.811283  0.750000  1
  Ca  Ca1  1  0.094359  0.188718  0.250000  1
  Mn  Mn2  1  0.211795  0.423590  0.596275  1
  Mn  Mn3  1  0.788206  0.576411  0.403724  1
  Mn  Mn4  1  0.788206  0.576411  0.096276  1
  Mn  Mn5  1  0.211795  0.423590  0.903725  1
  O  O6  1  0.718085  0.436170  0.250000  1
  O  O7  1  0.281916  0.563831  0.750000  1
  O  O8  1  0.243440  0.486878  0.075257  1
  O  O9  1  0.756562  0.513123  0.924743  1
  O  O10  1  0.756562  0.513123  0.575257  1
  O  O11  1  0.243440  0.486878  0.424742  1
  O  O12  1  0.056083  0.112163  0.619205  1
  O  O13  1  0.943917  0.887836  0.380795  1
  O  O14  1  0.056083  0.112163  0.880795  1
  O  O15  1  0.943917  0.887836  0.119206  1
