# generated using pymatgen
data_Ba2Mg3Tl2(NiO3)4
_symmetry_space_group_name_H-M   'P 1'
_cell_length_a   3.73507860
_cell_length_b   3.73507854
_cell_length_c   21.10244772
_cell_angle_alpha   95.07724106
_cell_angle_beta   95.07724170
_cell_angle_gamma   89.99999560
_symmetry_Int_Tables_number   1
_chemical_formula_structural   Ba2Mg3Tl2(NiO3)4
_chemical_formula_sum   'Ba2 Mg3 Tl2 Ni4 O12'
_cell_volume   292.08146352
_cell_formula_units_Z   1
loop_
 _symmetry_equiv_pos_site_id
 _symmetry_equiv_pos_as_xyz
  1  'x, y, z'
loop_
 _atom_site_type_symbol
 _atom_site_label
 _atom_site_symmetry_multiplicity
 _atom_site_fract_x
 _atom_site_fract_y
 _atom_site_fract_z
 _atom_site_occupancy
  Ba  Ba0  1  0.152378  0.152378  0.304754  1
  Ba  Ba1  1  0.847622  0.847622  0.695246  1
  Mg  Mg2  1  0.071802  0.071802  0.143605  1
  Mg  Mg3  1  0.928198  0.928198  0.856395  1
  Mg  Mg4  1  0.000000  0.000000  0.000000  1
  Tl  Tl5  1  0.721947  0.721947  0.443894  1
  Tl  Tl6  1  0.278053  0.278053  0.556106  1
  Ni  Ni7  1  0.535315  0.535315  0.070630  1
  Ni  Ni8  1  0.396780  0.396780  0.793559  1
  Ni  Ni9  1  0.603221  0.603221  0.206441  1
  Ni  Ni10  1  0.464685  0.464685  0.929370  1
  O  O11  1  0.397776  0.897776  0.795552  1
  O  O12  1  0.533682  0.033682  0.067364  1
  O  O13  1  0.227017  0.227017  0.454035  1
  O  O14  1  0.966318  0.466318  0.932636  1
  O  O15  1  0.772983  0.772983  0.545965  1
  O  O16  1  0.102224  0.602224  0.204448  1
  O  O17  1  0.602224  0.102224  0.204448  1
  O  O18  1  0.327356  0.327356  0.654713  1
  O  O19  1  0.897776  0.397776  0.795552  1
  O  O20  1  0.033682  0.533682  0.067364  1
  O  O21  1  0.466318  0.966318  0.932636  1
  O  O22  1  0.672644  0.672644  0.345287  1
