# generated using pymatgen
data_CaBiSbO5
_symmetry_space_group_name_H-M   'P 1'
_cell_length_a   5.94312840
_cell_length_b   8.64102313
_cell_length_c   12.20179979
_cell_angle_alpha   90.00000000
_cell_angle_beta   90.00000000
_cell_angle_gamma   110.78974973
_symmetry_Int_Tables_number   1
_chemical_formula_structural   CaBiSbO5
_chemical_formula_sum   'Ca4 Bi4 Sb4 O20'
_cell_volume   585.82016083
_cell_formula_units_Z   4
loop_
 _symmetry_equiv_pos_site_id
 _symmetry_equiv_pos_as_xyz
  1  'x, y, z'
loop_
 _atom_site_type_symbol
 _atom_site_label
 _atom_site_symmetry_multiplicity
 _atom_site_fract_x
 _atom_site_fract_y
 _atom_site_fract_z
 _atom_site_occupancy
  Ca  Ca0  1  0.632814  0.183382  0.914130  1
  Ca  Ca1  1  0.367186  0.816618  0.085870  1
  Ca  Ca2  1  0.867186  0.316618  0.414130  1
  Ca  Ca3  1  0.132814  0.683382  0.585870  1
  Bi  Bi4  1  0.124314  0.157472  0.092580  1
  Bi  Bi5  1  0.875686  0.842528  0.907420  1
  Bi  Bi6  1  0.624314  0.657472  0.407420  1
  Bi  Bi7  1  0.375686  0.342528  0.592580  1
  Sb  Sb8  1  0.806110  0.968164  0.644129  1
  Sb  Sb9  1  0.193890  0.031836  0.355871  1
  Sb  Sb10  1  0.693890  0.531836  0.144129  1
  Sb  Sb11  1  0.306110  0.468164  0.855871  1
  O  O12  1  0.544225  0.326964  0.068663  1
  O  O13  1  0.053412  0.323855  0.944693  1
  O  O14  1  0.472074  0.632239  0.189192  1
  O  O15  1  0.740017  0.513126  0.523936  1
  O  O16  1  0.799882  0.497763  0.287639  1
  O  O17  1  0.299882  0.997763  0.212361  1
  O  O18  1  0.553412  0.823855  0.555307  1
  O  O19  1  0.446588  0.176145  0.444693  1
  O  O20  1  0.259983  0.486874  0.476064  1
  O  O21  1  0.955775  0.173036  0.568663  1
  O  O22  1  0.200118  0.502237  0.712361  1
  O  O23  1  0.455775  0.673036  0.931337  1
  O  O24  1  0.044225  0.826964  0.431337  1
  O  O25  1  0.700118  0.002237  0.787639  1
  O  O26  1  0.759983  0.986874  0.023936  1
  O  O27  1  0.240017  0.013126  0.976064  1
  O  O28  1  0.527926  0.367761  0.810808  1
  O  O29  1  0.946588  0.676145  0.055307  1
  O  O30  1  0.027926  0.867761  0.689192  1
  O  O31  1  0.972074  0.132239  0.310808  1
