# generated using pymatgen
data_Si2MoO6
_symmetry_space_group_name_H-M   'P 1'
_cell_length_a   5.12412607
_cell_length_b   10.89411359
_cell_length_c   19.32762302
_cell_angle_alpha   90.00102368
_cell_angle_beta   90.00504044
_cell_angle_gamma   90.01829914
_symmetry_Int_Tables_number   1
_chemical_formula_structural   Si2MoO6
_chemical_formula_sum   'Si16 Mo8 O48'
_cell_volume   1078.92219545
_cell_formula_units_Z   8
loop_
 _symmetry_equiv_pos_site_id
 _symmetry_equiv_pos_as_xyz
  1  'x, y, z'
loop_
 _atom_site_type_symbol
 _atom_site_label
 _atom_site_symmetry_multiplicity
 _atom_site_fract_x
 _atom_site_fract_y
 _atom_site_fract_z
 _atom_site_occupancy
  Si  Si0  1  0.622799  0.670965  0.223320  1
  Si  Si1  1  0.759634  0.827977  0.527357  1
  Si  Si2  1  0.740819  0.828101  0.027455  1
  Si  Si3  1  0.877090  0.171027  0.776646  1
  Si  Si4  1  0.122874  0.329013  0.276626  1
  Si  Si5  1  0.377171  0.829009  0.723390  1
  Si  Si6  1  0.259522  0.671928  0.527367  1
  Si  Si7  1  0.759419  0.328021  0.972626  1
  Si  Si8  1  0.740496  0.328043  0.472573  1
  Si  Si9  1  0.877090  0.671004  0.723386  1
  Si  Si10  1  0.377162  0.329019  0.776649  1
  Si  Si11  1  0.622791  0.170973  0.276628  1
  Si  Si12  1  0.240379  0.172006  0.472583  1
  Si  Si13  1  0.122867  0.829018  0.223327  1
  Si  Si14  1  0.240700  0.671991  0.027443  1
  Si  Si15  1  0.259295  0.171905  0.972615  1
  Mo  Mo16  1  0.435336  0.048346  0.126274  1
  Mo  Mo17  1  0.564694  0.951612  0.873766  1
  Mo  Mo18  1  0.935105  0.951591  0.373661  1
  Mo  Mo19  1  0.064865  0.048433  0.626303  1
  Mo  Mo20  1  0.435369  0.548400  0.373697  1
  Mo  Mo21  1  0.564651  0.451551  0.626264  1
  Mo  Mo22  1  0.935189  0.451665  0.126310  1
  Mo  Mo23  1  0.064860  0.548395  0.873728  1
  O  O24  1  0.815331  0.547359  0.678989  1
  O  O25  1  0.320990  0.048725  0.928213  1
  O  O26  1  0.184344  0.452663  0.321047  1
  O  O27  1  0.762655  0.353924  0.056034  1
  O  O28  1  0.262551  0.145975  0.056023  1
  O  O29  1  0.965292  0.218113  0.952949  1
  O  O30  1  0.862349  0.641861  0.806398  1
  O  O31  1  0.137683  0.858160  0.306332  1
  O  O32  1  0.762816  0.853755  0.443933  1
  O  O33  1  0.862387  0.141929  0.693629  1
  O  O34  1  0.315660  0.452709  0.821020  1
  O  O35  1  0.737192  0.353855  0.555975  1
  O  O36  1  0.679231  0.951305  0.071880  1
  O  O37  1  0.362336  0.858058  0.806411  1
  O  O38  1  0.684070  0.047307  0.321041  1
  O  O39  1  0.321294  0.548734  0.571744  1
  O  O40  1  0.315594  0.952676  0.679005  1
  O  O41  1  0.169923  0.719822  0.703883  1
  O  O42  1  0.330150  0.719926  0.203838  1
  O  O43  1  0.534690  0.718272  0.047161  1
  O  O44  1  0.737503  0.854030  0.944068  1
  O  O45  1  0.637749  0.641897  0.306332  1
  O  O46  1  0.821368  0.451179  0.928226  1
  O  O47  1  0.169889  0.219862  0.796181  1
  O  O48  1  0.237135  0.146254  0.555994  1
  O  O49  1  0.637801  0.141851  0.193620  1
  O  O50  1  0.678813  0.451272  0.428189  1
  O  O51  1  0.262757  0.646095  0.443949  1
  O  O52  1  0.178894  0.548791  0.071851  1
  O  O53  1  0.669973  0.780204  0.703913  1
  O  O54  1  0.184229  0.952714  0.178938  1
  O  O55  1  0.830201  0.780054  0.203804  1
  O  O56  1  0.830103  0.280125  0.296111  1
  O  O57  1  0.821700  0.951161  0.571723  1
  O  O58  1  0.237350  0.646128  0.944048  1
  O  O59  1  0.178416  0.048781  0.428216  1
  O  O60  1  0.330050  0.219851  0.296085  1
  O  O61  1  0.034745  0.781843  0.047163  1
  O  O62  1  0.465514  0.781816  0.547071  1
  O  O63  1  0.669943  0.280197  0.796138  1
  O  O64  1  0.465354  0.281775  0.952937  1
  O  O65  1  0.534439  0.218198  0.452835  1
  O  O66  1  0.034502  0.281874  0.452851  1
  O  O67  1  0.362289  0.358022  0.693626  1
  O  O68  1  0.683982  0.547263  0.178930  1
  O  O69  1  0.965453  0.718063  0.547053  1
  O  O70  1  0.137776  0.358213  0.193627  1
  O  O71  1  0.815360  0.047361  0.821019  1
