# generated using pymatgen
data_Mg2SnIrO6
_symmetry_space_group_name_H-M   'P 1'
_cell_length_a   5.26739717
_cell_length_b   5.41684175
_cell_length_c   7.72767823
_cell_angle_alpha   90.00000000
_cell_angle_beta   89.83968561
_cell_angle_gamma   90.00000000
_symmetry_Int_Tables_number   1
_chemical_formula_structural   Mg2SnIrO6
_chemical_formula_sum   'Mg4 Sn2 Ir2 O12'
_cell_volume   220.49032856
_cell_formula_units_Z   2
loop_
 _symmetry_equiv_pos_site_id
 _symmetry_equiv_pos_as_xyz
  1  'x, y, z'
loop_
 _atom_site_type_symbol
 _atom_site_label
 _atom_site_symmetry_multiplicity
 _atom_site_fract_x
 _atom_site_fract_y
 _atom_site_fract_z
 _atom_site_occupancy
  Mg  Mg0  1  0.004275  0.948103  0.251126  1
  Mg  Mg1  1  0.495725  0.448103  0.248874  1
  Mg  Mg2  1  0.504275  0.551897  0.751126  1
  Mg  Mg3  1  0.995725  0.051897  0.748874  1
  Sn  Sn4  1  0.000000  0.500000  0.000000  1
  Sn  Sn5  1  0.500000  0.000000  0.500000  1
  Ir  Ir6  1  0.000000  0.500000  0.500000  1
  Ir  Ir7  1  0.500000  0.000000  0.000000  1
  O  O8  1  0.136427  0.415666  0.744418  1
  O  O9  1  0.180014  0.175507  0.074865  1
  O  O10  1  0.169113  0.181754  0.426839  1
  O  O11  1  0.330887  0.681754  0.073161  1
  O  O12  1  0.319986  0.675507  0.425135  1
  O  O13  1  0.363573  0.915666  0.755582  1
  O  O14  1  0.636427  0.084334  0.244418  1
  O  O15  1  0.680014  0.324493  0.574865  1
  O  O16  1  0.669113  0.318246  0.926839  1
  O  O17  1  0.819986  0.824493  0.925135  1
  O  O18  1  0.830887  0.818246  0.573161  1
  O  O19  1  0.863573  0.584334  0.255582  1
