# generated using pymatgen
data_Mg4Te3W5O18
_symmetry_space_group_name_H-M   'P 1'
_cell_length_a   9.50104654
_cell_length_b   9.50104619
_cell_length_c   10.29224028
_cell_angle_alpha   88.71735140
_cell_angle_beta   88.71735034
_cell_angle_gamma   68.10235361
_symmetry_Int_Tables_number   1
_chemical_formula_structural   Mg4Te3W5O18
_chemical_formula_sum   'Mg8 Te6 W10 O36'
_cell_volume   861.73303787
_cell_formula_units_Z   2
loop_
 _symmetry_equiv_pos_site_id
 _symmetry_equiv_pos_as_xyz
  1  'x, y, z'
loop_
 _atom_site_type_symbol
 _atom_site_label
 _atom_site_symmetry_multiplicity
 _atom_site_fract_x
 _atom_site_fract_y
 _atom_site_fract_z
 _atom_site_occupancy
  Mg  Mg0  1  0.879603  0.537930  0.321288  1
  Mg  Mg1  1  0.526152  0.503326  0.229728  1
  Mg  Mg2  1  0.462070  0.120397  0.678712  1
  Mg  Mg3  1  0.496674  0.473848  0.770272  1
  Mg  Mg4  1  0.113538  0.916546  0.719626  1
  Mg  Mg5  1  0.145550  0.270759  0.818182  1
  Mg  Mg6  1  0.729241  0.854450  0.181818  1
  Mg  Mg7  1  0.083454  0.886462  0.280374  1
  Te  Te8  1  0.332883  0.824442  0.934007  1
  Te  Te9  1  0.803251  0.198314  0.252867  1
  Te  Te10  1  0.801686  0.196749  0.747133  1
  Te  Te11  1  0.443777  0.719224  0.443441  1
  Te  Te12  1  0.280776  0.556223  0.556559  1
  Te  Te13  1  0.175558  0.667117  0.065993  1
  W  W14  1  0.795449  0.521530  0.986342  1
  W  W15  1  0.129704  0.189695  0.482783  1
  W  W16  1  0.313400  0.349793  0.295064  1
  W  W17  1  0.957341  0.709369  0.798105  1
  W  W18  1  0.650207  0.686600  0.704936  1
  W  W19  1  0.928794  0.071206  1.000000  1
  W  W20  1  0.684714  0.315286  0.500000  1
  W  W21  1  0.290631  0.042660  0.201895  1
  W  W22  1  0.810305  0.870296  0.517217  1
  W  W23  1  0.478470  0.204551  0.013658  1
  O  O24  1  0.374782  0.146821  0.873609  1
  O  O25  1  0.710402  0.484834  0.822209  1
  O  O26  1  0.622017  0.536008  0.577628  1
  O  O27  1  0.712237  0.074379  0.482354  1
  O  O28  1  0.515166  0.289598  0.177791  1
  O  O29  1  0.925621  0.287763  0.517646  1
  O  O30  1  0.313274  0.842717  0.282723  1
  O  O31  1  0.034052  0.120544  0.819728  1
  O  O32  1  0.569869  0.271959  0.670719  1
  O  O33  1  0.098948  0.392312  0.364841  1
  O  O34  1  0.616141  0.553801  0.070022  1
  O  O35  1  0.503617  0.996328  0.139203  1
  O  O36  1  0.896714  0.911782  0.681523  1
  O  O37  1  0.744987  0.725924  0.875951  1
  O  O38  1  0.446199  0.383859  0.929978  1
  O  O39  1  0.300904  0.560335  0.220408  1
  O  O40  1  0.993257  0.834559  0.436477  1
  O  O41  1  0.274076  0.255013  0.124049  1
  O  O42  1  0.463992  0.377983  0.422372  1
  O  O43  1  0.165441  0.006743  0.563523  1
  O  O44  1  0.754393  0.766252  0.376876  1
  O  O45  1  0.870845  0.667232  0.628632  1
  O  O46  1  0.879456  0.965948  0.180272  1
  O  O47  1  0.439665  0.699096  0.779592  1
  O  O48  1  0.973136  0.848342  0.921957  1
  O  O49  1  0.682092  0.101973  0.981358  1
  O  O50  1  0.003672  0.496383  0.860797  1
  O  O51  1  0.157283  0.686726  0.717277  1
  O  O52  1  0.088218  0.103286  0.318477  1
  O  O53  1  0.332768  0.129155  0.371368  1
  O  O54  1  0.233748  0.245607  0.623124  1
  O  O55  1  0.898027  0.317908  0.018642  1
  O  O56  1  0.728041  0.430131  0.329281  1
  O  O57  1  0.607688  0.901052  0.635159  1
  O  O58  1  0.151658  0.026864  0.078043  1
  O  O59  1  0.853179  0.625218  0.126391  1
