# generated using pymatgen
data_CaCrO2
_symmetry_space_group_name_H-M   'P 1'
_cell_length_a   3.09864845
_cell_length_b   9.25449607
_cell_length_c   10.27447975
_cell_angle_alpha   58.09846942
_cell_angle_beta   81.31809057
_cell_angle_gamma   80.35154244
_symmetry_Int_Tables_number   1
_chemical_formula_structural   CaCrO2
_chemical_formula_sum   'Ca4 Cr4 O8'
_cell_volume   245.90890667
_cell_formula_units_Z   4
loop_
 _symmetry_equiv_pos_site_id
 _symmetry_equiv_pos_as_xyz
  1  'x, y, z'
loop_
 _atom_site_type_symbol
 _atom_site_label
 _atom_site_symmetry_multiplicity
 _atom_site_fract_x
 _atom_site_fract_y
 _atom_site_fract_z
 _atom_site_occupancy
  Ca  Ca0  1  0.326578  0.127210  0.221609  1
  Ca  Ca1  1  0.671224  0.853111  0.806069  1
  Ca  Ca2  1  0.012712  0.762799  0.213187  1
  Ca  Ca3  1  0.985129  0.218090  0.813899  1
  Cr  Cr4  1  0.644728  0.201323  0.510634  1
  Cr  Cr5  1  0.187018  0.475855  0.151677  1
  Cr  Cr6  1  0.810654  0.504401  0.876288  1
  Cr  Cr7  1  0.353174  0.778688  0.517128  1
  O  O8  1  0.814744  0.708613  0.663946  1
  O  O9  1  0.389406  0.372039  0.851360  1
  O  O10  1  0.608277  0.608241  0.176604  1
  O  O11  1  0.183130  0.271465  0.363840  1
  O  O12  1  0.122335  0.079522  0.677233  1
  O  O13  1  0.770408  0.351790  0.109204  1
  O  O14  1  0.875572  0.900625  0.350416  1
  O  O15  1  0.227263  0.628535  0.918725  1
