# generated using pymatgen
data_Ba(CoO2)4
_symmetry_space_group_name_H-M   'P 1'
_cell_length_a   5.58603672
_cell_length_b   5.58603638
_cell_length_c   7.75494107
_cell_angle_alpha   90.00000000
_cell_angle_beta   90.00000000
_cell_angle_gamma   119.99999256
_symmetry_Int_Tables_number   1
_chemical_formula_structural   Ba(CoO2)4
_chemical_formula_sum   'Ba1 Co4 O8'
_cell_volume   209.56401568
_cell_formula_units_Z   1
loop_
 _symmetry_equiv_pos_site_id
 _symmetry_equiv_pos_as_xyz
  1  'x, y, z'
loop_
 _atom_site_type_symbol
 _atom_site_label
 _atom_site_symmetry_multiplicity
 _atom_site_fract_x
 _atom_site_fract_y
 _atom_site_fract_z
 _atom_site_occupancy
  Ba  Ba0  1  -0.000000  -0.000000  0.000000  1
  Co  Co1  1  0.333333  0.666667  0.761087  1
  Co  Co2  1  0.666667  0.333333  0.761087  1
  Co  Co3  1  0.333333  0.666667  0.238913  1
  Co  Co4  1  0.666667  0.333333  0.238913  1
  O  O5  1  0.358049  0.358049  0.716232  1
  O  O6  1  0.641951  0.000000  0.716232  1
  O  O7  1  0.000000  0.641951  0.716232  1
  O  O8  1  0.641951  0.641951  0.283768  1
  O  O9  1  1.000000  0.358049  0.283768  1
  O  O10  1  0.358049  1.000000  0.283768  1
  O  O11  1  0.333333  0.666667  0.000000  1
  O  O12  1  0.666667  0.333333  0.000000  1
