# generated using pymatgen
data_Zn2W3O8
_symmetry_space_group_name_H-M   'P 1'
_cell_length_a   6.35385807
_cell_length_b   6.35385794
_cell_length_c   9.36110573
_cell_angle_alpha   90.00000000
_cell_angle_beta   90.00000000
_cell_angle_gamma   120.00000064
_symmetry_Int_Tables_number   1
_chemical_formula_structural   Zn2W3O8
_chemical_formula_sum   'Zn4 W6 O16'
_cell_volume   327.29004006
_cell_formula_units_Z   2
loop_
 _symmetry_equiv_pos_site_id
 _symmetry_equiv_pos_as_xyz
  1  'x, y, z'
loop_
 _atom_site_type_symbol
 _atom_site_label
 _atom_site_symmetry_multiplicity
 _atom_site_fract_x
 _atom_site_fract_y
 _atom_site_fract_z
 _atom_site_occupancy
  Zn  Zn0  1  0.666667  0.333334  0.040572  1
  Zn  Zn1  1  0.333333  0.666666  0.540573  1
  Zn  Zn2  1  0.666667  0.333334  0.401739  1
  Zn  Zn3  1  0.333333  0.666666  0.901740  1
  W  W4  1  0.670526  0.835264  0.245118  1
  W  W5  1  0.835265  0.164737  0.745118  1
  W  W6  1  0.164737  0.329475  0.245118  1
  W  W7  1  0.835263  0.670526  0.745118  1
  W  W8  1  0.329475  0.164737  0.745118  1
  W  W9  1  0.164737  0.835264  0.245118  1
  O  O10  1  0.833091  0.166910  0.141755  1
  O  O11  1  0.666181  0.833091  0.641754  1
  O  O12  1  0.166910  0.333820  0.641754  1
  O  O13  1  0.833090  0.666181  0.141755  1
  O  O14  1  0.333819  0.166910  0.141755  1
  O  O15  1  0.166910  0.833091  0.641754  1
  O  O16  1  0.513475  0.486524  0.868558  1
  O  O17  1  0.026949  0.513475  0.368557  1
  O  O18  1  0.486525  0.973052  0.368557  1
  O  O19  1  0.513475  0.026949  0.868558  1
  O  O20  1  0.000000  -0.000000  0.353455  1
  O  O21  1  0.000000  -0.000000  0.853455  1
  O  O22  1  0.333333  0.666666  0.131442  1
  O  O23  1  0.973050  0.486524  0.868558  1
  O  O24  1  0.486524  0.513475  0.368557  1
  O  O25  1  0.666667  0.333334  0.631442  1
