# generated using pymatgen
data_Ca2VN2
_symmetry_space_group_name_H-M   'P 1'
_cell_length_a   5.07560516
_cell_length_b   6.02743076
_cell_length_c   6.84998870
_cell_angle_alpha   62.04800150
_cell_angle_beta   68.25461109
_cell_angle_gamma   65.09960147
_symmetry_Int_Tables_number   1
_chemical_formula_structural   Ca2VN2
_chemical_formula_sum   'Ca4 V2 N4'
_cell_volume   163.93899308
_cell_formula_units_Z   2
loop_
 _symmetry_equiv_pos_site_id
 _symmetry_equiv_pos_as_xyz
  1  'x, y, z'
loop_
 _atom_site_type_symbol
 _atom_site_label
 _atom_site_symmetry_multiplicity
 _atom_site_fract_x
 _atom_site_fract_y
 _atom_site_fract_z
 _atom_site_occupancy
  Ca  Ca0  1  0.678971  0.254976  0.387084  1
  Ca  Ca1  1  0.321029  0.745024  0.612916  1
  Ca  Ca2  1  0.030180  0.708963  0.230675  1
  Ca  Ca3  1  0.969820  0.291037  0.769325  1
  V  V4  1  0.363689  0.144228  0.128396  1
  V  V5  1  0.636311  0.855772  0.871604  1
  N  N6  1  0.191975  0.241985  0.374066  1
  N  N7  1  0.808025  0.758015  0.625934  1
  N  N8  1  0.492892  0.219301  0.794914  1
  N  N9  1  0.507108  0.780699  0.205086  1
