# generated using pymatgen
data_YSn3Se2ClO8
_symmetry_space_group_name_H-M   'P 1'
_cell_length_a   7.19555085
_cell_length_b   7.50631863
_cell_length_c   10.44873541
_cell_angle_alpha   90.00021161
_cell_angle_beta   90.00011356
_cell_angle_gamma   90.00048553
_symmetry_Int_Tables_number   1
_chemical_formula_structural   YSn3Se2ClO8
_chemical_formula_sum   'Y2 Sn6 Se4 Cl2 O16'
_cell_volume   564.35811464
_cell_formula_units_Z   2
loop_
 _symmetry_equiv_pos_site_id
 _symmetry_equiv_pos_as_xyz
  1  'x, y, z'
loop_
 _atom_site_type_symbol
 _atom_site_label
 _atom_site_symmetry_multiplicity
 _atom_site_fract_x
 _atom_site_fract_y
 _atom_site_fract_z
 _atom_site_occupancy
  Y  Y0  1  0.250020  0.314966  0.249999  1
  Y  Y1  1  0.749971  0.685033  0.750002  1
  Sn  Sn2  1  0.500000  0.000000  0.000001  1
  Sn  Sn3  1  0.500000  0.000002  0.500000  1
  Sn  Sn4  1  0.000000  0.999999  0.000001  1
  Sn  Sn5  1  0.750002  0.172550  0.750000  1
  Sn  Sn6  1  0.249997  0.827448  0.249999  1
  Sn  Sn7  1  0.999999  0.999998  0.500001  1
  Se  Se8  1  0.750001  0.431071  0.069935  1
  Se  Se9  1  0.249999  0.568928  0.930064  1
  Se  Se10  1  0.750002  0.431077  0.430069  1
  Se  Se11  1  0.250000  0.568927  0.569930  1
  Cl  Cl12  1  0.249987  0.128365  0.750005  1
  Cl  Cl13  1  0.749994  0.871634  0.250005  1
  O  O14  1  0.250002  0.066181  0.125942  1
  O  O15  1  0.250006  0.555192  0.098417  1
  O  O16  1  0.749998  0.444805  0.598423  1
  O  O17  1  0.560998  0.292663  0.098240  1
  O  O18  1  0.439005  0.707334  0.598238  1
  O  O19  1  0.061007  0.707336  0.598233  1
  O  O20  1  0.749999  0.933823  0.874057  1
  O  O21  1  0.938997  0.292664  0.098237  1
  O  O22  1  0.938996  0.292667  0.401765  1
  O  O23  1  0.061005  0.707338  0.901764  1
  O  O24  1  0.250004  0.066174  0.374054  1
  O  O25  1  0.750004  0.933821  0.625943  1
  O  O26  1  0.439005  0.707334  0.901758  1
  O  O27  1  0.560999  0.292667  0.401760  1
  O  O28  1  0.749998  0.444805  0.901581  1
  O  O29  1  0.250006  0.555197  0.401577  1
