# generated using pymatgen
data_Bi2O5
_symmetry_space_group_name_H-M   'P 1'
_cell_length_a   4.25252271
_cell_length_b   4.16881681
_cell_length_c   13.94003689
_cell_angle_alpha   90.01899846
_cell_angle_beta   90.13084248
_cell_angle_gamma   89.97909466
_symmetry_Int_Tables_number   1
_chemical_formula_structural   Bi2O5
_chemical_formula_sum   'Bi4 O10'
_cell_volume   247.12813448
_cell_formula_units_Z   2
loop_
 _symmetry_equiv_pos_site_id
 _symmetry_equiv_pos_as_xyz
  1  'x, y, z'
loop_
 _atom_site_type_symbol
 _atom_site_label
 _atom_site_symmetry_multiplicity
 _atom_site_fract_x
 _atom_site_fract_y
 _atom_site_fract_z
 _atom_site_occupancy
  Bi  Bi0  1  0.016737  0.960698  0.148915  1
  Bi  Bi1  1  0.519720  0.038989  0.351220  1
  Bi  Bi2  1  0.516169  0.038933  0.648790  1
  Bi  Bi3  1  0.020284  0.960936  0.851065  1
  O  O4  1  0.517745  0.990989  0.191064  1
  O  O5  1  0.018943  0.009002  0.309074  1
  O  O6  1  0.017534  0.009044  0.690922  1
  O  O7  1  0.519139  0.991210  0.808947  1
  O  O8  1  0.009011  0.467847  0.854893  1
  O  O9  1  0.529305  0.532199  0.645958  1
  O  O10  1  0.512451  0.532085  0.353754  1
  O  O11  1  0.518226  0.945793  0.500005  1
  O  O12  1  0.018992  0.054631  0.000009  1
  O  O13  1  0.025736  0.467643  0.145382  1
