# generated using pymatgen
data_CaTiCu(PO4)3
_symmetry_space_group_name_H-M   'P 1'
_cell_length_a   8.80521111
_cell_length_b   8.80519818
_cell_length_c   8.80519622
_cell_angle_alpha   58.69458644
_cell_angle_beta   58.69461629
_cell_angle_gamma   58.69451956
_symmetry_Int_Tables_number   1
_chemical_formula_structural   CaTiCu(PO4)3
_chemical_formula_sum   'Ca2 Ti2 Cu2 P6 O24'
_cell_volume   468.32877020
_cell_formula_units_Z   2
loop_
 _symmetry_equiv_pos_site_id
 _symmetry_equiv_pos_as_xyz
  1  'x, y, z'
loop_
 _atom_site_type_symbol
 _atom_site_label
 _atom_site_symmetry_multiplicity
 _atom_site_fract_x
 _atom_site_fract_y
 _atom_site_fract_z
 _atom_site_occupancy
  Ca  Ca0  1  0.996546  0.996547  0.996548  1
  Ca  Ca1  1  0.496546  0.496544  0.496544  1
  Ti  Ti2  1  0.146060  0.146063  0.146062  1
  Ti  Ti3  1  0.646059  0.646061  0.646058  1
  Cu  Cu4  1  0.352361  0.352361  0.352361  1
  Cu  Cu5  1  0.852367  0.852364  0.852366  1
  P  P6  1  0.039389  0.460863  0.751245  1
  P  P7  1  0.460862  0.751246  0.039389  1
  P  P8  1  0.751245  0.039389  0.460862  1
  P  P9  1  0.251238  0.960849  0.539403  1
  P  P10  1  0.539403  0.251238  0.960850  1
  P  P11  1  0.960850  0.539403  0.251238  1
  O  O12  1  0.121253  0.517017  0.292024  1
  O  O13  1  0.292022  0.121254  0.517017  1
  O  O14  1  0.054762  0.271806  0.922417  1
  O  O15  1  0.517017  0.292025  0.121253  1
  O  O16  1  0.016980  0.621343  0.792044  1
  O  O17  1  0.226144  0.439310  0.582188  1
  O  O18  1  0.271805  0.922417  0.054762  1
  O  O19  1  0.439312  0.582187  0.226145  1
  O  O20  1  0.207027  0.999261  0.370311  1
  O  O21  1  0.582188  0.226144  0.439310  1
  O  O22  1  0.082115  0.939288  0.726198  1
  O  O23  1  0.370310  0.207027  0.999262  1
  O  O24  1  0.621343  0.792042  0.016980  1
  O  O25  1  0.922416  0.054762  0.271805  1
  O  O26  1  0.422417  0.771802  0.554763  1
  O  O27  1  0.792045  0.016978  0.621343  1
  O  O28  1  0.554765  0.422415  0.771803  1
  O  O29  1  0.726197  0.082116  0.939285  1
  O  O30  1  0.771801  0.554766  0.422415  1
  O  O31  1  0.999263  0.370311  0.207027  1
  O  O32  1  0.499264  0.707029  0.870308  1
  O  O33  1  0.939285  0.726197  0.082116  1
  O  O34  1  0.707028  0.870306  0.499264  1
  O  O35  1  0.870308  0.499263  0.707028  1
