# generated using pymatgen
data_Ti3Al2(SiO4)3
_symmetry_space_group_name_H-M   'P 1'
_cell_length_a   10.10637751
_cell_length_b   10.10637710
_cell_length_c   10.10637721
_cell_angle_alpha   109.47122083
_cell_angle_beta   109.47122001
_cell_angle_gamma   109.47122210
_symmetry_Int_Tables_number   1
_chemical_formula_structural   Ti3Al2(SiO4)3
_chemical_formula_sum   'Ti12 Al8 Si12 O48'
_cell_volume   794.62938898
_cell_formula_units_Z   4
loop_
 _symmetry_equiv_pos_site_id
 _symmetry_equiv_pos_as_xyz
  1  'x, y, z'
loop_
 _atom_site_type_symbol
 _atom_site_label
 _atom_site_symmetry_multiplicity
 _atom_site_fract_x
 _atom_site_fract_y
 _atom_site_fract_z
 _atom_site_occupancy
  Ti  Ti0  1  0.250000  0.875001  0.625000  1
  Ti  Ti1  1  0.875000  0.625000  0.250000  1
  Ti  Ti2  1  0.625001  0.875001  0.750001  1
  Ti  Ti3  1  0.875001  0.750001  0.625001  1
  Ti  Ti4  1  0.625000  0.250000  0.875000  1
  Ti  Ti5  1  0.750000  0.625000  0.875000  1
  Ti  Ti6  1  0.750000  0.125000  0.375000  1
  Ti  Ti7  1  0.125000  0.375000  0.750000  1
  Ti  Ti8  1  0.375000  0.125000  0.250000  1
  Ti  Ti9  1  0.125000  0.250000  0.375000  1
  Ti  Ti10  1  0.375000  0.750001  0.125000  1
  Ti  Ti11  1  0.250000  0.375000  0.125000  1
  Al  Al12  1  0.500000  0.000000  0.000000  1
  Al  Al13  1  0.000000  0.000000  0.000000  1
  Al  Al14  1  0.000000  0.500000  0.000000  1
  Al  Al15  1  0.000000  0.000000  0.500000  1
  Al  Al16  1  0.000000  0.500000  0.500001  1
  Al  Al17  1  0.500000  0.000000  0.500001  1
  Al  Al18  1  0.500000  0.500000  0.000000  1
  Al  Al19  1  0.500000  0.500000  0.500000  1
  Si  Si20  1  0.250000  0.125000  0.875000  1
  Si  Si21  1  0.875000  0.250000  0.125000  1
  Si  Si22  1  0.625000  0.750001  0.375000  1
  Si  Si23  1  0.250000  0.625000  0.375001  1
  Si  Si24  1  0.375000  0.625000  0.750000  1
  Si  Si25  1  0.750000  0.375000  0.625000  1
  Si  Si26  1  0.875000  0.125000  0.750000  1
  Si  Si27  1  0.125000  0.750001  0.875000  1
  Si  Si28  1  0.125000  0.875001  0.250000  1
  Si  Si29  1  0.625000  0.375000  0.250000  1
  Si  Si30  1  0.375000  0.250000  0.625000  1
  Si  Si31  1  0.750000  0.875001  0.125000  1
  O  O32  1  0.296739  0.484230  0.383474  1
  O  O33  1  0.015770  0.312509  0.899244  1
  O  O34  1  0.116526  0.600756  0.913265  1
  O  O35  1  0.203260  0.586735  0.187491  1
  O  O36  1  0.203260  0.116525  0.015769  1
  O  O37  1  0.586734  0.187490  0.203260  1
  O  O38  1  0.600755  0.187490  0.484230  1
  O  O39  1  0.187491  0.203260  0.586736  1
  O  O40  1  0.899245  0.383474  0.586735  1
  O  O41  1  0.312510  0.913265  0.296740  1
  O  O42  1  0.913265  0.296740  0.312510  1
  O  O43  1  0.015770  0.203260  0.116525  1
  O  O44  1  0.187491  0.484230  0.600756  1
  O  O45  1  0.586735  0.899245  0.383475  1
  O  O46  1  0.116525  0.015769  0.203260  1
  O  O47  1  0.484230  0.600756  0.187490  1
  O  O48  1  0.383474  0.586735  0.899244  1
  O  O49  1  0.899244  0.015769  0.312509  1
  O  O50  1  0.600755  0.913265  0.116526  1
  O  O51  1  0.100755  0.616525  0.413265  1
  O  O52  1  0.484230  0.383474  0.296739  1
  O  O53  1  0.383474  0.296740  0.484230  1
  O  O54  1  0.312510  0.899245  0.015770  1
  O  O55  1  0.296739  0.312509  0.913264  1
  O  O56  1  0.703260  0.515769  0.616526  1
  O  O57  1  0.984230  0.687490  0.100755  1
  O  O58  1  0.883475  0.399245  0.086735  1
  O  O59  1  0.796740  0.413265  0.812510  1
  O  O60  1  0.796739  0.883475  0.984231  1
  O  O61  1  0.413265  0.812509  0.796739  1
  O  O62  1  0.399245  0.812509  0.515769  1
  O  O63  1  0.812510  0.796740  0.413265  1
  O  O64  1  0.703260  0.687490  0.086735  1
  O  O65  1  0.687491  0.100756  0.984230  1
  O  O66  1  0.616525  0.703261  0.515770  1
  O  O67  1  0.515770  0.616525  0.703260  1
  O  O68  1  0.086735  0.883475  0.399244  1
  O  O69  1  0.399244  0.086734  0.883474  1
  O  O70  1  0.100756  0.984230  0.687490  1
  O  O71  1  0.616526  0.413265  0.100755  1
  O  O72  1  0.515770  0.399245  0.812510  1
  O  O73  1  0.883475  0.984230  0.796740  1
  O  O74  1  0.413266  0.100756  0.616526  1
  O  O75  1  0.812509  0.515769  0.399245  1
  O  O76  1  0.984230  0.796740  0.883475  1
  O  O77  1  0.086736  0.703261  0.687491  1
  O  O78  1  0.687490  0.086734  0.703260  1
  O  O79  1  0.913265  0.116525  0.600755  1
