# generated using pymatgen
data_MgTiFe(PO4)3
_symmetry_space_group_name_H-M   'P 1'
_cell_length_a   8.50781773
_cell_length_b   8.50781723
_cell_length_c   8.50781754
_cell_angle_alpha   60.88489752
_cell_angle_beta   60.88489993
_cell_angle_gamma   60.88490061
_symmetry_Int_Tables_number   1
_chemical_formula_structural   MgTiFe(PO4)3
_chemical_formula_sum   'Mg2 Ti2 Fe2 P6 O24'
_cell_volume   444.13746403
_cell_formula_units_Z   2
loop_
 _symmetry_equiv_pos_site_id
 _symmetry_equiv_pos_as_xyz
  1  'x, y, z'
loop_
 _atom_site_type_symbol
 _atom_site_label
 _atom_site_symmetry_multiplicity
 _atom_site_fract_x
 _atom_site_fract_y
 _atom_site_fract_z
 _atom_site_occupancy
  Mg  Mg0  1  0.997981  0.997981  0.997981  1
  Mg  Mg1  1  0.497981  0.497981  0.497981  1
  Ti  Ti2  1  0.144462  0.144462  0.144462  1
  Ti  Ti3  1  0.644462  0.644462  0.644462  1
  Fe  Fe4  1  0.355380  0.355380  0.355380  1
  Fe  Fe5  1  0.855380  0.855380  0.855380  1
  P  P6  1  0.046024  0.455380  0.750870  1
  P  P7  1  0.455380  0.750870  0.046024  1
  P  P8  1  0.750870  0.046024  0.455380  1
  P  P9  1  0.250870  0.955380  0.546024  1
  P  P10  1  0.546024  0.250870  0.955380  1
  P  P11  1  0.955380  0.546024  0.250870  1
  O  O12  1  0.110656  0.503368  0.319408  1
  O  O13  1  0.319408  0.110656  0.503368  1
  O  O14  1  0.053883  0.258294  0.912001  1
  O  O15  1  0.503368  0.319408  0.110656  1
  O  O16  1  0.003368  0.610656  0.819408  1
  O  O17  1  0.241216  0.440043  0.591529  1
  O  O18  1  0.258294  0.912001  0.053883  1
  O  O19  1  0.440043  0.591529  0.241216  1
  O  O20  1  0.185686  0.003793  0.380023  1
  O  O21  1  0.591529  0.241216  0.440043  1
  O  O22  1  0.091529  0.940043  0.741216  1
  O  O23  1  0.380023  0.185686  0.003793  1
  O  O24  1  0.610656  0.819408  0.003368  1
  O  O25  1  0.912001  0.053883  0.258294  1
  O  O26  1  0.412001  0.758294  0.553883  1
  O  O27  1  0.819408  0.003368  0.610656  1
  O  O28  1  0.553883  0.412001  0.758294  1
  O  O29  1  0.741216  0.091529  0.940043  1
  O  O30  1  0.758294  0.553883  0.412001  1
  O  O31  1  0.003793  0.380023  0.185686  1
  O  O32  1  0.503793  0.685686  0.880023  1
  O  O33  1  0.940043  0.741216  0.091529  1
  O  O34  1  0.685686  0.880023  0.503793  1
  O  O35  1  0.880023  0.503793  0.685686  1
