# generated using pymatgen
data_Zn(MoO2)2
_symmetry_space_group_name_H-M   'P 1'
_cell_length_a   6.19932670
_cell_length_b   6.43705455
_cell_length_c   6.19922478
_cell_angle_alpha   90.00692489
_cell_angle_beta   117.44307526
_cell_angle_gamma   121.27046329
_symmetry_Int_Tables_number   1
_chemical_formula_structural   Zn(MoO2)2
_chemical_formula_sum   'Zn2 Mo4 O8'
_cell_volume   178.06409538
_cell_formula_units_Z   2
loop_
 _symmetry_equiv_pos_site_id
 _symmetry_equiv_pos_as_xyz
  1  'x, y, z'
loop_
 _atom_site_type_symbol
 _atom_site_label
 _atom_site_symmetry_multiplicity
 _atom_site_fract_x
 _atom_site_fract_y
 _atom_site_fract_z
 _atom_site_occupancy
  Zn  Zn0  1  0.245291  0.122628  0.877393  1
  Zn  Zn1  1  0.756244  0.878127  0.121884  1
  Mo  Mo2  1  0.500161  0.000015  0.499829  1
  Mo  Mo3  1  0.500156  0.500150  0.499829  1
  Mo  Mo4  1  0.000310  0.500160  -0.000014  1
  Mo  Mo5  1  0.999549  0.499783  0.500267  1
  O  O6  1  0.012185  0.744620  0.255433  1
  O  O7  1  0.489185  0.744616  0.732437  1
  O  O8  1  0.484105  0.742049  0.257843  1
  O  O9  1  0.987560  0.733001  0.745424  1
  O  O10  1  0.516262  0.258143  0.741879  1
  O  O11  1  0.509251  0.254591  0.267030  1
  O  O12  1  0.012191  0.267574  0.255392  1
  O  O13  1  0.987550  0.254543  0.745376  1
