# generated using pymatgen
data_Zn2SnN2
_symmetry_space_group_name_H-M   'P 1'
_cell_length_a   3.40534343
_cell_length_b   6.23881114
_cell_length_c   8.57121279
_cell_angle_alpha   62.00275179
_cell_angle_beta   78.54197526
_cell_angle_gamma   74.16214007
_symmetry_Int_Tables_number   1
_chemical_formula_structural   Zn2SnN2
_chemical_formula_sum   'Zn4 Sn2 N4'
_cell_volume   154.14902929
_cell_formula_units_Z   2
loop_
 _symmetry_equiv_pos_site_id
 _symmetry_equiv_pos_as_xyz
  1  'x, y, z'
loop_
 _atom_site_type_symbol
 _atom_site_label
 _atom_site_symmetry_multiplicity
 _atom_site_fract_x
 _atom_site_fract_y
 _atom_site_fract_z
 _atom_site_occupancy
  Zn  Zn0  1  0.652326  0.206925  0.488425  1
  Zn  Zn1  1  0.347674  0.793075  0.511575  1
  Zn  Zn2  1  0.043788  0.655612  0.256811  1
  Zn  Zn3  1  0.956212  0.344388  0.743189  1
  Sn  Sn4  1  0.330141  0.215039  0.124679  1
  Sn  Sn5  1  0.669859  0.784961  0.875320  1
  N  N6  1  0.182193  0.281917  0.353699  1
  N  N7  1  0.817807  0.718083  0.646301  1
  N  N8  1  0.542165  0.177239  0.738431  1
  N  N9  1  0.457835  0.822761  0.261569  1
