# generated using pymatgen
data_CrSe2
_symmetry_space_group_name_H-M   'P 1'
_cell_length_a   7.11392801
_cell_length_b   7.09218414
_cell_length_c   7.13704783
_cell_angle_alpha   59.77823773
_cell_angle_beta   59.86369269
_cell_angle_gamma   59.97699094
_symmetry_Int_Tables_number   1
_chemical_formula_structural   CrSe2
_chemical_formula_sum   'Cr4 Se8'
_cell_volume   253.88489641
_cell_formula_units_Z   4
loop_
 _symmetry_equiv_pos_site_id
 _symmetry_equiv_pos_as_xyz
  1  'x, y, z'
loop_
 _atom_site_type_symbol
 _atom_site_label
 _atom_site_symmetry_multiplicity
 _atom_site_fract_x
 _atom_site_fract_y
 _atom_site_fract_z
 _atom_site_occupancy
  Cr  Cr0  1  0.498524  0.003085  0.499193  1
  Cr  Cr1  1  0.002176  0.498605  0.499588  1
  Cr  Cr2  1  0.499916  0.499337  0.499491  1
  Cr  Cr3  1  0.499816  0.499450  0.001371  1
  Se  Se4  1  0.249471  0.252559  0.252857  1
  Se  Se5  1  0.749126  0.747070  0.259251  1
  Se  Se6  1  0.255261  0.745282  0.749806  1
  Se  Se7  1  0.747467  0.254452  0.749149  1
  Se  Se8  1  0.747024  0.254568  0.249107  1
  Se  Se9  1  0.252655  0.745654  0.250877  1
  Se  Se10  1  0.249511  0.252751  0.744622  1
  Se  Se11  1  0.749055  0.747187  0.744688  1
