# generated using pymatgen
data_Y(CuO2)2
_symmetry_space_group_name_H-M   'P 1'
_cell_length_a   6.23068866
_cell_length_b   6.23068842
_cell_length_c   6.23068936
_cell_angle_alpha   60.10195102
_cell_angle_beta   60.10195431
_cell_angle_gamma   60.10195280
_symmetry_Int_Tables_number   1
_chemical_formula_structural   Y(CuO2)2
_chemical_formula_sum   'Y2 Cu4 O8'
_cell_volume   171.43333084
_cell_formula_units_Z   2
loop_
 _symmetry_equiv_pos_site_id
 _symmetry_equiv_pos_as_xyz
  1  'x, y, z'
loop_
 _atom_site_type_symbol
 _atom_site_label
 _atom_site_symmetry_multiplicity
 _atom_site_fract_x
 _atom_site_fract_y
 _atom_site_fract_z
 _atom_site_occupancy
  Y  Y0  1  0.624173  0.624173  0.624173  1
  Y  Y1  1  0.375827  0.375827  0.375827  1
  Cu  Cu2  1  0.000000  0.500000  0.000000  1
  Cu  Cu3  1  0.000000  0.000000  0.000000  1
  Cu  Cu4  1  0.500000  0.000000  0.000000  1
  Cu  Cu5  1  0.000000  0.000000  0.500000  1
  O  O6  1  0.200776  0.766177  0.766177  1
  O  O7  1  0.233823  0.233823  0.799224  1
  O  O8  1  0.233823  0.799224  0.233823  1
  O  O9  1  0.235102  0.235102  0.235102  1
  O  O10  1  0.766177  0.766177  0.200776  1
  O  O11  1  0.799224  0.233823  0.233823  1
  O  O12  1  0.766177  0.200776  0.766177  1
  O  O13  1  0.764898  0.764898  0.764898  1
