# generated using pymatgen
data_TiNb2Zn2O8
_symmetry_space_group_name_H-M   'P 1'
_cell_length_a   5.29644216
_cell_length_b   5.93016082
_cell_length_c   10.13955244
_cell_angle_alpha   107.02541160
_cell_angle_beta   89.53605634
_cell_angle_gamma   90.14045784
_symmetry_Int_Tables_number   1
_chemical_formula_structural   TiNb2Zn2O8
_chemical_formula_sum   'Ti2 Nb4 Zn4 O16'
_cell_volume   304.50374004
_cell_formula_units_Z   2
loop_
 _symmetry_equiv_pos_site_id
 _symmetry_equiv_pos_as_xyz
  1  'x, y, z'
loop_
 _atom_site_type_symbol
 _atom_site_label
 _atom_site_symmetry_multiplicity
 _atom_site_fract_x
 _atom_site_fract_y
 _atom_site_fract_z
 _atom_site_occupancy
  Ti  Ti0  1  0.753356  0.633115  0.000628  1
  Ti  Ti1  1  0.245093  0.369171  0.001087  1
  Nb  Nb2  1  0.733358  0.261035  0.228520  1
  Nb  Nb3  1  0.757772  0.030220  0.772282  1
  Nb  Nb4  1  0.264822  0.738093  0.771484  1
  Nb  Nb5  1  0.239723  0.972526  0.229238  1
  Zn  Zn6  1  0.768882  0.430831  0.559910  1
  Zn  Zn7  1  0.728514  0.871771  0.437597  1
  Zn  Zn8  1  0.227979  0.569016  0.439019  1
  Zn  Zn9  1  0.268708  0.129074  0.563710  1
  O  O10  1  0.090635  0.202032  0.131106  1
  O  O11  1  0.408182  0.073140  0.870596  1
  O  O12  1  0.908739  0.801099  0.869501  1
  O  O13  1  0.589078  0.927777  0.128976  1
  O  O14  1  0.582721  0.433547  0.110236  1
  O  O15  1  0.914269  0.322203  0.890015  1
  O  O16  1  0.414130  0.567245  0.890033  1
  O  O17  1  0.081205  0.680559  0.110367  1
  O  O18  1  0.429814  0.281544  0.355655  1
  O  O19  1  0.069693  0.925395  0.648905  1
  O  O20  1  0.360331  0.843488  0.386508  1
  O  O21  1  0.135431  0.454521  0.614380  1
  O  O22  1  0.637176  0.157766  0.614519  1
  O  O23  1  0.861915  0.546767  0.386012  1
  O  O24  1  0.927115  0.076562  0.352731  1
  O  O25  1  0.568056  0.719547  0.645547  1
