# generated using pymatgen
data_Re(WO4)2
_symmetry_space_group_name_H-M   'P 1'
_cell_length_a   5.09010081
_cell_length_b   5.81731089
_cell_length_c   9.39089220
_cell_angle_alpha   90.00000000
_cell_angle_beta   89.73451296
_cell_angle_gamma   90.00000000
_symmetry_Int_Tables_number   1
_chemical_formula_structural   Re(WO4)2
_chemical_formula_sum   'Re2 W4 O16'
_cell_volume   278.06789591
_cell_formula_units_Z   2
loop_
 _symmetry_equiv_pos_site_id
 _symmetry_equiv_pos_as_xyz
  1  'x, y, z'
loop_
 _atom_site_type_symbol
 _atom_site_label
 _atom_site_symmetry_multiplicity
 _atom_site_fract_x
 _atom_site_fract_y
 _atom_site_fract_z
 _atom_site_occupancy
  Re  Re0  1  0.750000  0.351494  0.250000  1
  Re  Re1  1  0.250000  0.648505  0.750000  1
  W  W2  1  0.234936  0.166711  0.503658  1
  W  W3  1  0.265063  0.166711  0.996343  1
  W  W4  1  0.765064  0.833289  0.496342  1
  W  W5  1  0.734937  0.833289  0.003657  1
  O  O6  1  0.424037  0.343135  0.136264  1
  O  O7  1  0.075962  0.343135  0.363735  1
  O  O8  1  0.575963  0.656864  0.863736  1
  O  O9  1  0.924037  0.656864  0.636265  1
  O  O10  1  0.418621  0.888560  0.608228  1
  O  O11  1  0.081379  0.888560  0.891772  1
  O  O12  1  0.581379  0.111440  0.391772  1
  O  O13  1  0.918621  0.111440  0.108228  1
  O  O14  1  0.861504  0.597455  0.119392  1
  O  O15  1  0.638496  0.597455  0.380608  1
  O  O16  1  0.138496  0.402546  0.880608  1
  O  O17  1  0.361504  0.402546  0.619392  1
  O  O18  1  0.434628  0.893299  0.111507  1
  O  O19  1  0.565372  0.106702  0.888493  1
  O  O20  1  0.065373  0.893299  0.388494  1
  O  O21  1  0.934627  0.106702  0.611506  1
