# generated using pymatgen
data_Re2O7
_symmetry_space_group_name_H-M   'P 1'
_cell_length_a   7.20016681
_cell_length_b   7.29318564
_cell_length_c   7.28527037
_cell_angle_alpha   59.26863380
_cell_angle_beta   60.46640120
_cell_angle_gamma   60.46795287
_symmetry_Int_Tables_number   1
_chemical_formula_structural   Re2O7
_chemical_formula_sum   'Re4 O14'
_cell_volume   270.85103653
_cell_formula_units_Z   2
loop_
 _symmetry_equiv_pos_site_id
 _symmetry_equiv_pos_as_xyz
  1  'x, y, z'
loop_
 _atom_site_type_symbol
 _atom_site_label
 _atom_site_symmetry_multiplicity
 _atom_site_fract_x
 _atom_site_fract_y
 _atom_site_fract_z
 _atom_site_occupancy
  Re  Re0  1  0.987252  0.520317  0.004325  1
  Re  Re1  1  0.479146  0.011958  0.011980  1
  Re  Re2  1  0.987630  0.004275  0.519798  1
  Re  Re3  1  0.995879  0.012862  0.010724  1
  O  O4  1  0.620595  0.629357  0.629417  1
  O  O5  1  0.371129  0.377230  0.381392  1
  O  O6  1  0.320341  0.930019  0.929474  1
  O  O7  1  0.068578  0.680960  0.680874  1
  O  O8  1  0.947320  0.309561  0.935289  1
  O  O9  1  0.946202  0.934502  0.309504  1
  O  O10  1  0.310206  0.309962  0.934389  1
  O  O11  1  0.308432  0.935671  0.309391  1
  O  O12  1  0.947759  0.302311  0.302463  1
  O  O13  1  0.690485  0.691988  0.053321  1
  O  O14  1  0.064862  0.053094  0.691837  1
  O  O15  1  0.698416  0.051733  0.051368  1
  O  O16  1  0.689545  0.054504  0.689911  1
  O  O17  1  0.066222  0.689698  0.054542  1
