# generated using pymatgen
data_Mg2TaSbO6
_symmetry_space_group_name_H-M   'P 1'
_cell_length_a   5.52979297
_cell_length_b   5.56231649
_cell_length_c   7.87608888
_cell_angle_alpha   90.00000000
_cell_angle_beta   90.00000000
_cell_angle_gamma   93.02863864
_symmetry_Int_Tables_number   1
_chemical_formula_structural   Mg2TaSbO6
_chemical_formula_sum   'Mg4 Ta2 Sb2 O12'
_cell_volume   241.91798243
_cell_formula_units_Z   2
loop_
 _symmetry_equiv_pos_site_id
 _symmetry_equiv_pos_as_xyz
  1  'x, y, z'
loop_
 _atom_site_type_symbol
 _atom_site_label
 _atom_site_symmetry_multiplicity
 _atom_site_fract_x
 _atom_site_fract_y
 _atom_site_fract_z
 _atom_site_occupancy
  Mg  Mg0  1  0.490001  0.535238  0.750000  1
  Mg  Mg1  1  0.509999  0.464762  0.250000  1
  Mg  Mg2  1  0.015758  0.034781  0.750000  1
  Mg  Mg3  1  0.984242  0.965219  0.250000  1
  Ta  Ta4  1  0.500000  0.000000  0.500000  1
  Ta  Ta5  1  0.500000  0.000000  0.000000  1
  Sb  Sb6  1  0.000000  0.500000  0.500000  1
  Sb  Sb7  1  0.000000  0.500000  0.000000  1
  O  O8  1  0.363507  0.680870  0.429730  1
  O  O9  1  0.194879  0.144372  0.072527  1
  O  O10  1  0.636493  0.319130  0.929730  1
  O  O11  1  0.805121  0.855628  0.572527  1
  O  O12  1  0.194879  0.144372  0.427473  1
  O  O13  1  0.805121  0.855628  0.927473  1
  O  O14  1  0.856598  0.610077  0.250000  1
  O  O15  1  0.363507  0.680870  0.070270  1
  O  O16  1  0.368779  0.917647  0.750000  1
  O  O17  1  0.636493  0.319130  0.570270  1
  O  O18  1  0.143402  0.389923  0.750000  1
  O  O19  1  0.631221  0.082353  0.250000  1
