# generated using pymatgen
data_CaLaFeMoO6
_symmetry_space_group_name_H-M   'P 1'
_cell_length_a   5.69632762
_cell_length_b   5.60513294
_cell_length_c   7.90975318
_cell_angle_alpha   89.23428646
_cell_angle_beta   90.00000000
_cell_angle_gamma   90.00000000
_symmetry_Int_Tables_number   1
_chemical_formula_structural   CaLaFeMoO6
_chemical_formula_sum   'Ca2 La2 Fe2 Mo2 O12'
_cell_volume   252.52537486
_cell_formula_units_Z   2
loop_
 _symmetry_equiv_pos_site_id
 _symmetry_equiv_pos_as_xyz
  1  'x, y, z'
loop_
 _atom_site_type_symbol
 _atom_site_label
 _atom_site_symmetry_multiplicity
 _atom_site_fract_x
 _atom_site_fract_y
 _atom_site_fract_z
 _atom_site_occupancy
  Ca  Ca0  1  0.546613  0.514492  0.250704  1
  Ca  Ca1  1  0.953387  0.014492  0.750704  1
  La  La2  1  0.039743  0.987730  0.247841  1
  La  La3  1  0.460257  0.487730  0.747841  1
  Fe  Fe4  1  0.500269  0.999257  0.000483  1
  Fe  Fe5  1  0.999731  0.499257  0.500483  1
  Mo  Mo6  1  0.500761  0.000095  0.499033  1
  Mo  Mo7  1  0.999239  0.500095  0.999033  1
  O  O8  1  0.022760  0.593598  0.749936  1
  O  O9  1  0.213099  0.198348  0.947749  1
  O  O10  1  0.209562  0.204279  0.547229  1
  O  O11  1  0.290438  0.704279  0.047229  1
  O  O12  1  0.286901  0.698348  0.447749  1
  O  O13  1  0.477240  0.093598  0.249935  1
  O  O14  1  0.527573  0.914420  0.750591  1
  O  O15  1  0.717299  0.296820  0.550966  1
  O  O16  1  0.712235  0.290960  0.955467  1
  O  O17  1  0.787765  0.790960  0.455467  1
  O  O18  1  0.782701  0.796820  0.050966  1
  O  O19  1  0.972427  0.414420  0.250591  1
