# generated using pymatgen
data_Ba2AlNi3O7
_symmetry_space_group_name_H-M   'P 1'
_cell_length_a   3.74659336
_cell_length_b   3.90923720
_cell_length_c   11.32359429
_cell_angle_alpha   89.99328141
_cell_angle_beta   90.09850023
_cell_angle_gamma   89.94450476
_symmetry_Int_Tables_number   1
_chemical_formula_structural   Ba2AlNi3O7
_chemical_formula_sum   'Ba2 Al1 Ni3 O7'
_cell_volume   165.84868563
_cell_formula_units_Z   1
loop_
 _symmetry_equiv_pos_site_id
 _symmetry_equiv_pos_as_xyz
  1  'x, y, z'
loop_
 _atom_site_type_symbol
 _atom_site_label
 _atom_site_symmetry_multiplicity
 _atom_site_fract_x
 _atom_site_fract_y
 _atom_site_fract_z
 _atom_site_occupancy
  Ba  Ba0  1  0.500579  0.499974  0.811679  1
  Ba  Ba1  1  0.499430  0.500032  0.188014  1
  Al  Al2  1  0.500005  0.500006  0.499889  1
  Ni  Ni3  1  0.999710  0.999995  0.647030  1
  Ni  Ni4  1  0.000220  0.000007  0.353038  1
  Ni  Ni5  1  0.000084  0.999977  0.999987  1
  O  O6  1  0.999988  0.499994  0.999974  1
  O  O7  1  0.499513  0.000031  0.610163  1
  O  O8  1  0.500461  0.999976  0.390206  1
  O  O9  1  0.998903  0.500009  0.609571  1
  O  O10  1  0.001086  0.499996  0.390462  1
  O  O11  1  0.001378  0.999952  0.832885  1
  O  O12  1  0.998642  0.000052  0.167101  1
