# generated using pymatgen
data_Mg(TiS2)2
_symmetry_space_group_name_H-M   'P 1'
_cell_length_a   7.35771187
_cell_length_b   7.35771164
_cell_length_c   7.36416969
_cell_angle_alpha   119.03816091
_cell_angle_beta   121.38122352
_cell_angle_gamma   89.59864566
_symmetry_Int_Tables_number   1
_chemical_formula_structural   Mg(TiS2)2
_chemical_formula_sum   'Mg2 Ti4 S8'
_cell_volume   280.97533693
_cell_formula_units_Z   2
loop_
 _symmetry_equiv_pos_site_id
 _symmetry_equiv_pos_as_xyz
  1  'x, y, z'
loop_
 _atom_site_type_symbol
 _atom_site_label
 _atom_site_symmetry_multiplicity
 _atom_site_fract_x
 _atom_site_fract_y
 _atom_site_fract_z
 _atom_site_occupancy
  Mg  Mg0  1  -0.000000  0.500001  0.000001  1
  Mg  Mg1  1  0.000001  -0.000000  0.500000  1
  Ti  Ti2  1  0.376843  0.626843  0.750000  1
  Ti  Ti3  1  0.623157  0.373158  0.250000  1
  Ti  Ti4  1  0.500001  -0.000000  0.500000  1
  Ti  Ti5  1  -0.000000  -0.000000  -0.000000  1
  S  S6  1  0.749645  0.763829  0.514784  1
  S  S7  1  0.749048  0.234864  0.985218  1
  S  S8  1  0.233388  0.238669  0.993367  1
  S  S9  1  0.250355  0.236171  0.485217  1
  S  S10  1  0.254699  0.759979  0.493366  1
  S  S11  1  0.250952  0.765137  0.014784  1
  S  S12  1  0.745300  0.240020  0.506633  1
  S  S13  1  0.766612  0.761332  0.006633  1
