# generated using pymatgen
data_HoMg(MoO3)2
_symmetry_space_group_name_H-M   'P 1'
_cell_length_a   5.39129996
_cell_length_b   5.64076445
_cell_length_c   7.95841430
_cell_angle_alpha   90.00004408
_cell_angle_beta   90.32725484
_cell_angle_gamma   89.99816868
_symmetry_Int_Tables_number   1
_chemical_formula_structural   HoMg(MoO3)2
_chemical_formula_sum   'Ho2 Mg2 Mo4 O12'
_cell_volume   242.01981249
_cell_formula_units_Z   2
loop_
 _symmetry_equiv_pos_site_id
 _symmetry_equiv_pos_as_xyz
  1  'x, y, z'
loop_
 _atom_site_type_symbol
 _atom_site_label
 _atom_site_symmetry_multiplicity
 _atom_site_fract_x
 _atom_site_fract_y
 _atom_site_fract_z
 _atom_site_occupancy
  Ho  Ho0  1  0.010898  0.938700  0.749171  1
  Ho  Ho1  1  0.511073  0.561358  0.249147  1
  Mg  Mg2  1  0.496509  0.458873  0.751003  1
  Mg  Mg3  1  0.996341  0.041246  0.251022  1
  Mo  Mo4  1  0.999468  0.496221  0.000039  1
  Mo  Mo5  1  0.999657  0.493543  0.499711  1
  Mo  Mo6  1  0.499359  0.003786  0.500006  1
  Mo  Mo7  1  0.499617  0.006462  0.999725  1
  O  O8  1  0.128753  0.412723  0.252842  1
  O  O9  1  0.189210  0.183645  0.929392  1
  O  O10  1  0.172821  0.189825  0.568110  1
  O  O11  1  0.331446  0.688100  0.930462  1
  O  O12  1  0.313256  0.678868  0.572911  1
  O  O13  1  0.357997  0.934517  0.246383  1
  O  O14  1  0.628624  0.087372  0.752826  1
  O  O15  1  0.689226  0.316311  0.429371  1
  O  O16  1  0.673050  0.310022  0.068208  1
  O  O17  1  0.813278  0.821124  0.072868  1
  O  O18  1  0.831291  0.811822  0.430407  1
  O  O19  1  0.858123  0.565481  0.746394  1
