# generated using pymatgen
data_Ba2CaMn2CuF14
_symmetry_space_group_name_H-M   'P 1'
_cell_length_a   5.48161764
_cell_length_b   7.45249945
_cell_length_c   15.10340324
_cell_angle_alpha   93.24460326
_cell_angle_beta   89.99257546
_cell_angle_gamma   111.63977140
_symmetry_Int_Tables_number   1
_chemical_formula_structural   Ba2CaMn2CuF14
_chemical_formula_sum   'Ba4 Ca2 Mn4 Cu2 F28'
_cell_volume   572.45236416
_cell_formula_units_Z   2
loop_
 _symmetry_equiv_pos_site_id
 _symmetry_equiv_pos_as_xyz
  1  'x, y, z'
loop_
 _atom_site_type_symbol
 _atom_site_label
 _atom_site_symmetry_multiplicity
 _atom_site_fract_x
 _atom_site_fract_y
 _atom_site_fract_z
 _atom_site_occupancy
  Ba  Ba0  1  0.118797  0.375790  0.625472  1
  Ba  Ba1  1  0.257391  0.376014  0.125695  1
  Ba  Ba2  1  0.877652  0.621772  0.374518  1
  Ba  Ba3  1  0.744980  0.622505  0.874598  1
  Ca  Ca4  1  0.419011  0.999873  0.750155  1
  Ca  Ca5  1  0.580933  0.999734  0.250409  1
  Mn  Mn6  1  0.100011  0.245655  0.876673  1
  Mn  Mn7  1  0.901541  0.753365  0.124306  1
  Mn  Mn8  1  0.146834  0.245356  0.376002  1
  Mn  Mn9  1  0.851046  0.752912  0.623962  1
  Cu  Cu10  1  0.500797  0.998775  0.000222  1
  Cu  Cu11  1  0.498100  0.999619  0.500115  1
  F  F12  1  0.925324  0.990384  0.344482  1
  F  F13  1  0.882614  0.281783  0.453204  1
  F  F14  1  0.112032  0.715409  0.546157  1
  F  F15  1  0.650790  0.493831  0.596582  1
  F  F16  1  0.616473  0.107352  0.618184  1
  F  F17  1  0.512080  0.892334  0.882220  1
  F  F18  1  0.399126  0.281653  0.953972  1
  F  F19  1  0.934852  0.009134  0.155990  1
  F  F20  1  0.378364  0.321844  0.772548  1
  F  F21  1  0.345676  0.504213  0.404630  1
  F  F22  1  0.834475  0.240933  0.791988  1
  F  F23  1  0.159596  0.504245  0.904985  1
  F  F24  1  0.409576  0.242319  0.291621  1
  F  F25  1  0.165667  0.758809  0.209416  1
  F  F26  1  0.488832  0.105397  0.118126  1
  F  F27  1  0.620873  0.677611  0.228119  1
  F  F28  1  0.133956  0.829579  0.011216  1
  F  F29  1  0.074495  0.008626  0.655511  1
  F  F30  1  0.867763  0.167852  0.989506  1
  F  F31  1  0.694632  0.830080  0.511412  1
  F  F32  1  0.603488  0.716938  0.046548  1
  F  F33  1  0.591583  0.758838  0.708804  1
  F  F34  1  0.945921  0.322359  0.272175  1
  F  F35  1  0.299689  0.168473  0.489362  1
  F  F36  1  0.380407  0.892100  0.382117  1
  F  F37  1  0.066547  0.990096  0.844787  1
  F  F38  1  0.055086  0.677056  0.728028  1
  F  F39  1  0.841731  0.494120  0.096972  1
