# generated using pymatgen
data_Ca(CoO2)2
_symmetry_space_group_name_H-M   'P 1'
_cell_length_a   6.34708886
_cell_length_b   5.77344603
_cell_length_c   5.78287498
_cell_angle_alpha   89.84089477
_cell_angle_beta   117.57706894
_cell_angle_gamma   117.53580910
_symmetry_Int_Tables_number   1
_chemical_formula_structural   Ca(CoO2)2
_chemical_formula_sum   'Ca2 Co4 O8'
_cell_volume   160.42967964
_cell_formula_units_Z   2
loop_
 _symmetry_equiv_pos_site_id
 _symmetry_equiv_pos_as_xyz
  1  'x, y, z'
loop_
 _atom_site_type_symbol
 _atom_site_label
 _atom_site_symmetry_multiplicity
 _atom_site_fract_x
 _atom_site_fract_y
 _atom_site_fract_z
 _atom_site_occupancy
  Ca  Ca0  1  0.249660  0.123924  0.873484  1
  Ca  Ca1  1  0.750346  0.876075  0.126497  1
  Co  Co2  1  0.500003  0.000003  0.500069  1
  Co  Co3  1  0.499998  0.499961  0.499916  1
  Co  Co4  1  0.000013  0.499949  0.000022  1
  Co  Co5  1  0.000005  0.500071  0.500015  1
  O  O6  1  0.145512  0.846505  0.183574  1
  O  O7  1  0.355910  0.817441  0.699485  1
  O  O8  1  0.353894  0.540441  0.154496  1
  O  O9  1  0.855463  0.700281  0.536658  1
  O  O10  1  0.646100  0.459459  0.845355  1
  O  O11  1  0.644080  0.182649  0.300659  1
  O  O12  1  0.144527  0.299862  0.463258  1
  O  O13  1  0.854490  0.153378  0.816510  1
