# generated using pymatgen
data_Mg3Co2(GeO4)3
_symmetry_space_group_name_H-M   'P 1'
_cell_length_a   10.27650957
_cell_length_b   10.27650908
_cell_length_c   10.27650920
_cell_angle_alpha   109.47122088
_cell_angle_beta   109.47121993
_cell_angle_gamma   109.47121993
_symmetry_Int_Tables_number   1
_chemical_formula_structural   Mg3Co2(GeO4)3
_chemical_formula_sum   'Mg12 Co8 Ge12 O48'
_cell_volume   835.43943699
_cell_formula_units_Z   4
loop_
 _symmetry_equiv_pos_site_id
 _symmetry_equiv_pos_as_xyz
  1  'x, y, z'
loop_
 _atom_site_type_symbol
 _atom_site_label
 _atom_site_symmetry_multiplicity
 _atom_site_fract_x
 _atom_site_fract_y
 _atom_site_fract_z
 _atom_site_occupancy
  Mg  Mg0  1  0.625000  0.250000  0.875000  1
  Mg  Mg1  1  0.875000  0.750000  0.625000  1
  Mg  Mg2  1  0.750000  0.625000  0.875000  1
  Mg  Mg3  1  0.250000  0.875000  0.625000  1
  Mg  Mg4  1  0.875000  0.625000  0.250000  1
  Mg  Mg5  1  0.625000  0.875000  0.750000  1
  Mg  Mg6  1  0.375000  0.750000  0.125000  1
  Mg  Mg7  1  0.125000  0.250000  0.375000  1
  Mg  Mg8  1  0.250000  0.375000  0.125000  1
  Mg  Mg9  1  0.750000  0.125000  0.375000  1
  Mg  Mg10  1  0.125000  0.375000  0.750000  1
  Mg  Mg11  1  0.375000  0.125000  0.250000  1
  Co  Co12  1  0.500000  0.500000  0.500000  1
  Co  Co13  1  0.500000  0.500000  0.000000  1
  Co  Co14  1  0.500000  0.000000  0.500000  1
  Co  Co15  1  0.000000  0.500000  0.500000  1
  Co  Co16  1  0.500000  0.000000  0.000000  1
  Co  Co17  1  0.000000  0.000000  0.500000  1
  Co  Co18  1  0.000000  0.500000  0.000000  1
  Co  Co19  1  0.000000  0.000000  0.000000  1
  Ge  Ge20  1  0.875000  0.125000  0.750000  1
  Ge  Ge21  1  0.125000  0.875000  0.250000  1
  Ge  Ge22  1  0.250000  0.625000  0.375000  1
  Ge  Ge23  1  0.125000  0.750000  0.875000  1
  Ge  Ge24  1  0.750000  0.875000  0.125000  1
  Ge  Ge25  1  0.375000  0.250000  0.625000  1
  Ge  Ge26  1  0.625000  0.750000  0.375000  1
  Ge  Ge27  1  0.875000  0.250000  0.125000  1
  Ge  Ge28  1  0.250000  0.125000  0.875000  1
  Ge  Ge29  1  0.750000  0.375000  0.625000  1
  Ge  Ge30  1  0.375000  0.625000  0.750000  1
  Ge  Ge31  1  0.625000  0.375000  0.250000  1
  O  O32  1  0.795210  0.420484  0.822769  1
  O  O33  1  0.079516  0.874726  0.402286  1
  O  O34  1  0.677231  0.097714  0.972439  1
  O  O35  1  0.704790  0.527561  0.625274  1
  O  O36  1  0.704790  0.677231  0.079516  1
  O  O37  1  0.527561  0.625274  0.704790  1
  O  O38  1  0.097714  0.625274  0.420484  1
  O  O39  1  0.625274  0.704790  0.527561  1
  O  O40  1  0.402286  0.822769  0.527561  1
  O  O41  1  0.874726  0.972439  0.795210  1
  O  O42  1  0.972439  0.795210  0.874726  1
  O  O43  1  0.079516  0.704790  0.677231  1
  O  O44  1  0.625274  0.420484  0.097714  1
  O  O45  1  0.527561  0.402286  0.822769  1
  O  O46  1  0.677231  0.079516  0.704790  1
  O  O47  1  0.420484  0.097714  0.625274  1
  O  O48  1  0.822769  0.527561  0.402286  1
  O  O49  1  0.402286  0.079516  0.874726  1
  O  O50  1  0.097714  0.972439  0.677231  1
  O  O51  1  0.597714  0.177231  0.472439  1
  O  O52  1  0.972439  0.677231  0.097714  1
  O  O53  1  0.822769  0.795210  0.420484  1
  O  O54  1  0.874726  0.402286  0.079516  1
  O  O55  1  0.795210  0.874726  0.972439  1
  O  O56  1  0.204790  0.579516  0.177231  1
  O  O57  1  0.920484  0.125274  0.597714  1
  O  O58  1  0.322769  0.902286  0.027561  1
  O  O59  1  0.295210  0.472439  0.374726  1
  O  O60  1  0.295210  0.322769  0.920484  1
  O  O61  1  0.472439  0.374726  0.295210  1
  O  O62  1  0.902286  0.374726  0.579516  1
  O  O63  1  0.374726  0.295210  0.472439  1
  O  O64  1  0.204790  0.125274  0.027561  1
  O  O65  1  0.125274  0.597714  0.920484  1
  O  O66  1  0.177231  0.204790  0.579516  1
  O  O67  1  0.579516  0.177231  0.204790  1
  O  O68  1  0.027561  0.322769  0.902286  1
  O  O69  1  0.902286  0.027561  0.322769  1
  O  O70  1  0.597714  0.920484  0.125274  1
  O  O71  1  0.177231  0.472439  0.597714  1
  O  O72  1  0.579516  0.902286  0.374726  1
  O  O73  1  0.322769  0.920484  0.295210  1
  O  O74  1  0.472439  0.597714  0.177231  1
  O  O75  1  0.374726  0.579516  0.902286  1
  O  O76  1  0.920484  0.295210  0.322769  1
  O  O77  1  0.027561  0.204790  0.125274  1
  O  O78  1  0.125274  0.027561  0.204790  1
  O  O79  1  0.420484  0.822769  0.795210  1
