# generated using pymatgen
data_Mn2Zn(PO5)2
_symmetry_space_group_name_H-M   'P 1'
_cell_length_a   6.58792211
_cell_length_b   6.58792168
_cell_length_c   9.14431051
_cell_angle_alpha   102.18939018
_cell_angle_beta   102.18938954
_cell_angle_gamma   114.44675439
_symmetry_Int_Tables_number   1
_chemical_formula_structural   Mn2Zn(PO5)2
_chemical_formula_sum   'Mn4 Zn2 P4 O20'
_cell_volume   332.67685253
_cell_formula_units_Z   2
loop_
 _symmetry_equiv_pos_site_id
 _symmetry_equiv_pos_as_xyz
  1  'x, y, z'
loop_
 _atom_site_type_symbol
 _atom_site_label
 _atom_site_symmetry_multiplicity
 _atom_site_fract_x
 _atom_site_fract_y
 _atom_site_fract_z
 _atom_site_occupancy
  Mn  Mn0  1  0.872561  0.618684  0.251462  1
  Mn  Mn1  1  0.367220  0.621097  0.748538  1
  Mn  Mn2  1  0.871097  0.117220  0.248538  1
  Mn  Mn3  1  0.868684  0.622561  0.751462  1
  Zn  Zn4  1  0.496557  0.996557  0.500000  1
  Zn  Zn5  1  0.246558  0.246558  0.000000  1
  P  P6  1  0.036680  0.037745  0.585031  1
  P  P7  1  0.701650  0.202714  0.914969  1
  P  P8  1  0.452714  0.451650  0.414969  1
  P  P9  1  0.287745  0.786680  0.085031  1
  O  O10  1  0.584877  0.555243  0.306487  1
  O  O11  1  0.661343  0.666287  0.837716  1
  O  O12  1  0.308182  0.583510  0.974911  1
  O  O13  1  0.805243  0.334877  0.806487  1
  O  O14  1  0.214946  0.239172  0.301588  1
  O  O15  1  0.427309  0.652910  0.523008  1
  O  O16  1  0.073627  0.578571  0.662284  1
  O  O17  1  0.828571  0.823627  0.162284  1
  O  O18  1  0.916287  0.411343  0.337716  1
  O  O19  1  0.163357  0.687583  0.198412  1
  O  O20  1  0.248756  0.278390  0.693513  1
  O  O21  1  0.489172  0.964946  0.801588  1
  O  O22  1  0.937583  0.913357  0.698412  1
  O  O23  1  0.154301  0.879902  0.976992  1
  O  O24  1  0.129902  0.904301  0.476992  1
  O  O25  1  0.902910  0.177309  0.023008  1
  O  O26  1  0.833510  0.058182  0.474911  1
  O  O27  1  0.608598  0.333270  0.025089  1
  O  O28  1  0.528390  0.998756  0.193513  1
  O  O29  1  0.583270  0.358598  0.525089  1
