# generated using pymatgen
data_BaV4O7
_symmetry_space_group_name_H-M   'P 1'
_cell_length_a   6.58473887
_cell_length_b   6.58473902
_cell_length_c   10.82968330
_cell_angle_alpha   90.00000000
_cell_angle_beta   90.00000000
_cell_angle_gamma   120.00000774
_symmetry_Int_Tables_number   1
_chemical_formula_structural   BaV4O7
_chemical_formula_sum   'Ba2 V8 O14'
_cell_volume   406.65252908
_cell_formula_units_Z   2
loop_
 _symmetry_equiv_pos_site_id
 _symmetry_equiv_pos_as_xyz
  1  'x, y, z'
loop_
 _atom_site_type_symbol
 _atom_site_label
 _atom_site_symmetry_multiplicity
 _atom_site_fract_x
 _atom_site_fract_y
 _atom_site_fract_z
 _atom_site_occupancy
  Ba  Ba0  1  0.666667  0.333333  0.530700  1
  Ba  Ba1  1  0.333333  0.666667  0.030700  1
  V  V2  1  0.830140  0.169861  0.189649  1
  V  V3  1  0.660281  0.830139  0.689650  1
  V  V4  1  0.169861  0.339719  0.689650  1
  V  V5  1  0.830140  0.660281  0.189649  1
  V  V6  1  0.339718  0.169861  0.189649  1
  V  V7  1  0.169861  0.830139  0.689650  1
  V  V8  1  0.000000  -0.000000  0.445298  1
  V  V9  1  0.000000  0.000000  0.945298  1
  O  O10  1  0.849534  0.150467  0.016435  1
  O  O11  1  0.699070  0.849533  0.516434  1
  O  O12  1  0.150466  0.300929  0.516434  1
  O  O13  1  0.849535  0.699071  0.016435  1
  O  O14  1  0.300929  0.150467  0.016435  1
  O  O15  1  0.150466  0.849533  0.516434  1
  O  O16  1  0.000000  -0.000000  0.758177  1
  O  O17  1  0.000000  -0.000000  0.258178  1
  O  O18  1  0.508400  0.491602  0.233876  1
  O  O19  1  0.016799  0.508400  0.733876  1
  O  O20  1  0.491601  0.983201  0.733876  1
  O  O21  1  0.508400  0.016799  0.233876  1
  O  O22  1  0.491602  0.508400  0.733876  1
  O  O23  1  0.983201  0.491602  0.233876  1
