# generated using pymatgen
data_Al4(CoO4)3
_symmetry_space_group_name_H-M   'P 1'
_cell_length_a   17.11026673
_cell_length_b   5.70941278
_cell_length_c   5.74510698
_cell_angle_alpha   59.79298030
_cell_angle_beta   59.75793724
_cell_angle_gamma   60.13894938
_symmetry_Int_Tables_number   1
_chemical_formula_structural   Al4(CoO4)3
_chemical_formula_sum   'Al8 Co6 O24'
_cell_volume   395.91301276
_cell_formula_units_Z   2
loop_
 _symmetry_equiv_pos_site_id
 _symmetry_equiv_pos_as_xyz
  1  'x, y, z'
loop_
 _atom_site_type_symbol
 _atom_site_label
 _atom_site_symmetry_multiplicity
 _atom_site_fract_x
 _atom_site_fract_y
 _atom_site_fract_z
 _atom_site_occupancy
  Al  Al0  1  0.708333  0.625000  0.625000  1
  Al  Al1  1  0.208333  0.625000  0.125000  1
  Al  Al2  1  0.538309  0.630123  0.130078  1
  Al  Al3  1  0.878358  0.619877  0.119922  1
  Al  Al4  1  0.208333  0.125000  0.625000  1
  Al  Al5  1  0.208333  0.625000  0.625000  1
  Al  Al6  1  0.538309  0.630123  0.624872  1
  Al  Al7  1  0.878358  0.619877  0.625128  1
  Co  Co8  1  0.995053  0.003511  0.005665  1
  Co  Co9  1  0.331455  0.001454  0.002090  1
  Co  Co10  1  0.666948  0.991909  0.003625  1
  Co  Co11  1  0.085211  0.248546  0.247910  1
  Co  Co12  1  0.421614  0.246489  0.244335  1
  Co  Co13  1  0.749719  0.258091  0.246375  1
  O  O14  1  0.278946  0.387930  0.387614  1
  O  O15  1  0.616315  0.408667  0.371195  1
  O  O16  1  0.954334  0.405907  0.365545  1
  O  O17  1  0.281745  0.883149  0.879800  1
  O  O18  1  0.627712  0.842829  0.878139  1
  O  O19  1  0.953976  0.866438  0.898711  1
  O  O20  1  0.134979  0.855005  0.370028  1
  O  O21  1  0.468939  0.854421  0.369381  1
  O  O22  1  0.796150  0.836990  0.387279  1
  O  O23  1  0.134921  0.366851  0.858183  1
  O  O24  1  0.462691  0.383562  0.877074  1
  O  O25  1  0.788955  0.407171  0.854103  1
  O  O26  1  0.281745  0.883149  0.391817  1
  O  O27  1  0.627712  0.842829  0.395897  1
  O  O28  1  0.953976  0.866438  0.372926  1
  O  O29  1  0.281687  0.394995  0.879972  1
  O  O30  1  0.620517  0.413010  0.862721  1
  O  O31  1  0.947728  0.395579  0.880619  1
  O  O32  1  0.134921  0.366851  0.370200  1
  O  O33  1  0.462691  0.383562  0.351289  1
  O  O34  1  0.788955  0.407171  0.371861  1
  O  O35  1  0.137720  0.862070  0.862386  1
  O  O36  1  0.462333  0.844093  0.884455  1
  O  O37  1  0.800352  0.841333  0.878805  1
