# generated using pymatgen
data_YCu3(WO3)4
_symmetry_space_group_name_H-M   'P 1'
_cell_length_a   6.65939412
_cell_length_b   6.76478166
_cell_length_c   6.79194180
_cell_angle_alpha   109.95987391
_cell_angle_beta   109.35840714
_cell_angle_gamma   109.24261807
_symmetry_Int_Tables_number   1
_chemical_formula_structural   YCu3(WO3)4
_chemical_formula_sum   'Y1 Cu3 W4 O12'
_cell_volume   235.10083111
_cell_formula_units_Z   1
loop_
 _symmetry_equiv_pos_site_id
 _symmetry_equiv_pos_as_xyz
  1  'x, y, z'
loop_
 _atom_site_type_symbol
 _atom_site_label
 _atom_site_symmetry_multiplicity
 _atom_site_fract_x
 _atom_site_fract_y
 _atom_site_fract_z
 _atom_site_occupancy
  Y  Y0  1  0.000001  0.999999  0.999998  1
  Cu  Cu1  1  0.499998  0.999996  0.500003  1
  Cu  Cu2  1  0.500000  0.500002  0.999998  1
  Cu  Cu3  1  0.000003  0.500005  0.499994  1
  W  W4  1  0.500001  0.000000  0.000002  1
  W  W5  1  1.000000  0.999999  0.499998  1
  W  W6  1  0.000001  0.500001  0.000002  1
  W  W7  1  0.500000  0.499998  0.500000  1
  O  O8  1  0.824187  0.293895  0.118712  1
  O  O9  1  0.175811  0.706106  0.881289  1
  O  O10  1  0.828994  0.703569  0.536985  1
  O  O11  1  0.290482  0.456357  0.169078  1
  O  O12  1  0.467289  0.170359  0.275345  1
  O  O13  1  0.130229  0.839505  0.294486  1
  O  O14  1  0.705884  0.882396  0.172083  1
  O  O15  1  0.532709  0.829640  0.724654  1
  O  O16  1  0.171005  0.296431  0.463016  1
  O  O17  1  0.709518  0.543642  0.830921  1
  O  O18  1  0.869773  0.160495  0.705517  1
  O  O19  1  0.294116  0.117605  0.827918  1
