# generated using pymatgen
data_Mg3Mo2O7
_symmetry_space_group_name_H-M   'P 1'
_cell_length_a   5.41481394
_cell_length_b   5.35752711
_cell_length_c   9.74352558
_cell_angle_alpha   105.95769108
_cell_angle_beta   90.00000000
_cell_angle_gamma   90.00000000
_symmetry_Int_Tables_number   1
_chemical_formula_structural   Mg3Mo2O7
_chemical_formula_sum   'Mg6 Mo4 O14'
_cell_volume   271.76749571
_cell_formula_units_Z   2
loop_
 _symmetry_equiv_pos_site_id
 _symmetry_equiv_pos_as_xyz
  1  'x, y, z'
loop_
 _atom_site_type_symbol
 _atom_site_label
 _atom_site_symmetry_multiplicity
 _atom_site_fract_x
 _atom_site_fract_y
 _atom_site_fract_z
 _atom_site_occupancy
  Mg  Mg0  1  0.722472  0.732195  0.000000  1
  Mg  Mg1  1  0.222472  0.267805  1.000000  1
  Mg  Mg2  1  0.802521  0.579815  0.599648  1
  Mg  Mg3  1  0.302521  0.420185  0.400352  1
  Mg  Mg4  1  0.802521  0.980167  0.400352  1
  Mg  Mg5  1  0.302521  0.019833  0.599648  1
  Mo  Mo6  1  0.753423  0.355743  0.209741  1
  Mo  Mo7  1  0.253423  0.644257  0.790259  1
  Mo  Mo8  1  0.253423  0.853998  0.209741  1
  Mo  Mo9  1  0.753423  0.146002  0.790259  1
  O  O10  1  0.674439  0.926243  0.584259  1
  O  O11  1  0.174439  0.073757  0.415741  1
  O  O12  1  0.174439  0.658015  0.584259  1
  O  O13  1  0.674439  0.341985  0.415741  1
  O  O14  1  0.070722  0.283454  0.730535  1
  O  O15  1  0.570722  0.716546  0.269465  1
  O  O16  1  0.570722  0.447081  0.730535  1
  O  O17  1  0.070722  0.552919  0.269465  1
  O  O18  1  0.924516  0.832521  0.844614  1
  O  O19  1  0.424516  0.167479  0.155386  1
  O  O20  1  0.846287  0.372617  0.000000  1
  O  O21  1  0.346287  0.627383  1.000000  1
  O  O22  1  0.924516  0.987907  0.155386  1
  O  O23  1  0.424516  0.012093  0.844614  1
