# generated using pymatgen
data_Be3Si3(MoO6)2
_symmetry_space_group_name_H-M   'P 1'
_cell_length_a   7.78183444
_cell_length_b   8.15231187
_cell_length_c   14.07666663
_cell_angle_alpha   89.92780551
_cell_angle_beta   90.00000000
_cell_angle_gamma   90.00000000
_symmetry_Int_Tables_number   1
_chemical_formula_structural   Be3Si3(MoO6)2
_chemical_formula_sum   'Be12 Si12 Mo8 O48'
_cell_volume   893.02219485
_cell_formula_units_Z   4
loop_
 _symmetry_equiv_pos_site_id
 _symmetry_equiv_pos_as_xyz
  1  'x, y, z'
loop_
 _atom_site_type_symbol
 _atom_site_label
 _atom_site_symmetry_multiplicity
 _atom_site_fract_x
 _atom_site_fract_y
 _atom_site_fract_z
 _atom_site_occupancy
  Be  Be0  1  0.855138  0.930742  0.761874  1
  Be  Be1  1  0.649380  0.920247  0.401205  1
  Be  Be2  1  0.149381  0.579753  0.098795  1
  Be  Be3  1  0.350620  0.079752  0.598795  1
  Be  Be4  1  0.850620  0.420247  0.901205  1
  Be  Be5  1  0.146004  0.611315  0.412533  1
  Be  Be6  1  0.646004  0.888685  0.087467  1
  Be  Be7  1  0.853997  0.388685  0.587467  1
  Be  Be8  1  0.353996  0.111314  0.912533  1
  Be  Be9  1  0.644862  0.430741  0.261874  1
  Be  Be10  1  0.144862  0.069258  0.238126  1
  Be  Be11  1  0.355139  0.569258  0.738126  1
  Si  Si12  1  0.234311  0.932895  0.764833  1
  Si  Si13  1  0.734311  0.567105  0.735167  1
  Si  Si14  1  0.765689  0.067105  0.235168  1
  Si  Si15  1  0.265690  0.432894  0.264832  1
  Si  Si16  1  0.729720  0.112149  0.916172  1
  Si  Si17  1  0.229720  0.387852  0.583828  1
  Si  Si18  1  0.270281  0.887851  0.083828  1
  Si  Si19  1  0.770280  0.612149  0.416172  1
  Si  Si20  1  0.233172  0.433020  0.901460  1
  Si  Si21  1  0.733173  0.066979  0.598540  1
  Si  Si22  1  0.766828  0.566981  0.098540  1
  Si  Si23  1  0.266827  0.933019  0.401460  1
  Mo  Mo24  1  0.452051  0.248210  0.088690  1
  Mo  Mo25  1  0.047949  0.748211  0.588690  1
  Mo  Mo26  1  0.547950  0.751790  0.911310  1
  Mo  Mo27  1  0.952051  0.251789  0.411310  1
  Mo  Mo28  1  0.554678  0.248581  0.423850  1
  Mo  Mo29  1  0.054679  0.251418  0.076150  1
  Mo  Mo30  1  0.445322  0.751419  0.576150  1
  Mo  Mo31  1  0.945321  0.748582  0.923850  1
  O  O32  1  0.130740  0.753685  0.040301  1
  O  O33  1  0.044441  0.905373  0.814594  1
  O  O34  1  0.544441  0.594627  0.685406  1
  O  O35  1  0.955559  0.094627  0.185406  1
  O  O36  1  0.455558  0.405372  0.314594  1
  O  O37  1  0.540342  0.179568  0.951675  1
  O  O38  1  0.040342  0.320432  0.548326  1
  O  O39  1  0.459658  0.820433  0.048325  1
  O  O40  1  0.959657  0.679567  0.451674  1
  O  O41  1  0.038545  0.512275  0.889295  1
  O  O42  1  0.538545  0.987725  0.610705  1
  O  O43  1  0.961455  0.487726  0.110705  1
  O  O44  1  0.131398  0.069549  0.355034  1
  O  O45  1  0.631397  0.430452  0.144966  1
  O  O46  1  0.868602  0.930451  0.644966  1
  O  O47  1  0.368602  0.569549  0.855034  1
  O  O48  1  0.630741  0.746315  0.459699  1
  O  O49  1  0.461456  0.012275  0.389295  1
  O  O50  1  0.369260  0.253685  0.540301  1
  O  O51  1  0.869260  0.246314  0.959699  1
  O  O52  1  0.757335  0.074924  0.477707  1
  O  O53  1  0.625746  0.062408  0.146025  1
  O  O54  1  0.874255  0.562407  0.646025  1
  O  O55  1  0.374254  0.937592  0.853975  1
  O  O56  1  0.740293  0.423332  0.811177  1
  O  O57  1  0.240293  0.076667  0.688823  1
  O  O58  1  0.259707  0.576668  0.188823  1
  O  O59  1  0.759706  0.923332  0.311177  1
  O  O60  1  0.745161  0.066215  0.807056  1
  O  O61  1  0.245161  0.433786  0.692944  1
  O  O62  1  0.254838  0.933785  0.192944  1
  O  O63  1  0.754839  0.566215  0.307056  1
  O  O64  1  0.244803  0.247555  0.868033  1
  O  O65  1  0.744802  0.252445  0.631968  1
  O  O66  1  0.755197  0.752444  0.131966  1
  O  O67  1  0.255197  0.747556  0.368033  1
  O  O68  1  0.762659  0.741712  0.800937  1
  O  O69  1  0.262658  0.758288  0.699063  1
  O  O70  1  0.237341  0.258287  0.199063  1
  O  O71  1  0.737342  0.241713  0.300937  1
  O  O72  1  0.746674  0.927450  0.973422  1
  O  O73  1  0.246673  0.572550  0.526578  1
  O  O74  1  0.253325  0.072550  0.026578  1
  O  O75  1  0.753326  0.427449  0.473422  1
  O  O76  1  0.742666  0.574923  0.977707  1
  O  O77  1  0.242666  0.925076  0.522293  1
  O  O78  1  0.257334  0.425077  0.022293  1
  O  O79  1  0.125746  0.437592  0.353975  1
