# generated using pymatgen
data_Ca2Ni3O8
_symmetry_space_group_name_H-M   'P 1'
_cell_length_a   5.82906286
_cell_length_b   5.82906294
_cell_length_c   10.39934948
_cell_angle_alpha   90.00000000
_cell_angle_beta   90.00000000
_cell_angle_gamma   119.99999954
_symmetry_Int_Tables_number   1
_chemical_formula_structural   Ca2Ni3O8
_chemical_formula_sum   'Ca4 Ni6 O16'
_cell_volume   306.00906400
_cell_formula_units_Z   2
loop_
 _symmetry_equiv_pos_site_id
 _symmetry_equiv_pos_as_xyz
  1  'x, y, z'
loop_
 _atom_site_type_symbol
 _atom_site_label
 _atom_site_symmetry_multiplicity
 _atom_site_fract_x
 _atom_site_fract_y
 _atom_site_fract_z
 _atom_site_occupancy
  Ca  Ca0  1  0.666667  0.333334  0.027552  1
  Ca  Ca1  1  0.333333  0.666666  0.527553  1
  Ca  Ca2  1  0.666667  0.333334  0.433892  1
  Ca  Ca3  1  0.333333  0.666666  0.933893  1
  Ni  Ni4  1  0.670166  0.835083  0.246512  1
  Ni  Ni5  1  0.835084  0.164918  0.746512  1
  Ni  Ni6  1  0.164918  0.329835  0.246512  1
  Ni  Ni7  1  0.835082  0.670166  0.746512  1
  Ni  Ni8  1  0.329835  0.164918  0.746512  1
  Ni  Ni9  1  0.164918  0.835083  0.246512  1
  O  O10  1  0.848138  0.151863  0.155143  1
  O  O11  1  0.696276  0.848138  0.655142  1
  O  O12  1  0.151863  0.303725  0.655142  1
  O  O13  1  0.848137  0.696276  0.155143  1
  O  O14  1  0.303724  0.151863  0.155143  1
  O  O15  1  0.151863  0.848138  0.655142  1
  O  O16  1  0.521779  0.478220  0.844870  1
  O  O17  1  0.043560  0.521779  0.344869  1
  O  O18  1  0.478220  0.956441  0.344869  1
  O  O19  1  0.521779  0.043560  0.844870  1
  O  O20  1  -0.000000  0.000000  0.338282  1
  O  O21  1  -0.000000  0.000000  0.838282  1
  O  O22  1  0.333333  0.666666  0.154203  1
  O  O23  1  0.956439  0.478220  0.844870  1
  O  O24  1  0.478220  0.521779  0.344869  1
  O  O25  1  0.666667  0.333334  0.654203  1
