# generated using pymatgen
data_TiAs2O7
_symmetry_space_group_name_H-M   'P 1'
_cell_length_a   7.17855186
_cell_length_b   9.19430236
_cell_length_c   9.59153262
_cell_angle_alpha   90.00000000
_cell_angle_beta   105.45063595
_cell_angle_gamma   90.00000000
_symmetry_Int_Tables_number   1
_chemical_formula_structural   TiAs2O7
_chemical_formula_sum   'Ti4 As8 O28'
_cell_volume   610.17968192
_cell_formula_units_Z   4
loop_
 _symmetry_equiv_pos_site_id
 _symmetry_equiv_pos_as_xyz
  1  'x, y, z'
loop_
 _atom_site_type_symbol
 _atom_site_label
 _atom_site_symmetry_multiplicity
 _atom_site_fract_x
 _atom_site_fract_y
 _atom_site_fract_z
 _atom_site_occupancy
  Ti  Ti0  1  0.809633  0.075737  0.717291  1
  Ti  Ti1  1  0.190367  0.575737  0.782709  1
  Ti  Ti2  1  0.190367  0.924263  0.282709  1
  Ti  Ti3  1  0.809633  0.424263  0.217291  1
  As  As4  1  0.410881  0.251027  0.756509  1
  As  As5  1  0.589119  0.751027  0.743491  1
  As  As6  1  0.589119  0.748973  0.243491  1
  As  As7  1  0.410881  0.248973  0.256509  1
  As  As8  1  0.034360  0.296642  0.967190  1
  As  As9  1  0.965640  0.796642  0.532810  1
  As  As10  1  0.965640  0.703358  0.032810  1
  As  As11  1  0.034360  0.203358  0.467190  1
  O  O12  1  0.855089  0.324035  0.051320  1
  O  O13  1  0.144911  0.824035  0.448680  1
  O  O14  1  0.144911  0.675965  0.948680  1
  O  O15  1  0.855089  0.175965  0.551320  1
  O  O16  1  0.362987  0.436808  0.742018  1
  O  O17  1  0.637013  0.936808  0.757982  1
  O  O18  1  0.637013  0.563192  0.257982  1
  O  O19  1  0.362987  0.063192  0.242018  1
  O  O20  1  0.382710  0.168656  0.900925  1
  O  O21  1  0.617290  0.668656  0.599075  1
  O  O22  1  0.617290  0.831344  0.099075  1
  O  O23  1  0.382710  0.331344  0.400925  1
  O  O24  1  0.251498  0.170072  0.595990  1
  O  O25  1  0.748502  0.670072  0.904010  1
  O  O26  1  0.748502  0.829928  0.404010  1
  O  O27  1  0.251498  0.329928  0.095990  1
  O  O28  1  0.034412  0.084561  0.331564  1
  O  O29  1  0.965588  0.584561  0.168436  1
  O  O30  1  0.965588  0.915439  0.668436  1
  O  O31  1  0.034412  0.415439  0.831564  1
  O  O32  1  0.629211  0.274063  0.215669  1
  O  O33  1  0.370789  0.774063  0.284331  1
  O  O34  1  0.370789  0.725937  0.784331  1
  O  O35  1  0.629211  0.225937  0.715669  1
  O  O36  1  0.988123  0.374578  0.390640  1
  O  O37  1  0.011877  0.874578  0.109360  1
  O  O38  1  0.011877  0.625422  0.609360  1
  O  O39  1  0.988123  0.125422  0.890640  1
