# generated using pymatgen
data_Mg2TaMoO6
_symmetry_space_group_name_H-M   'P 1'
_cell_length_a   5.34384163
_cell_length_b   5.46176961
_cell_length_c   7.74334425
_cell_angle_alpha   90.00000000
_cell_angle_beta   90.00000000
_cell_angle_gamma   88.63400487
_symmetry_Int_Tables_number   1
_chemical_formula_structural   Mg2TaMoO6
_chemical_formula_sum   'Mg4 Ta2 Mo2 O12'
_cell_volume   225.93945894
_cell_formula_units_Z   2
loop_
 _symmetry_equiv_pos_site_id
 _symmetry_equiv_pos_as_xyz
  1  'x, y, z'
loop_
 _atom_site_type_symbol
 _atom_site_label
 _atom_site_symmetry_multiplicity
 _atom_site_fract_x
 _atom_site_fract_y
 _atom_site_fract_z
 _atom_site_occupancy
  Mg  Mg0  1  0.994135  0.965102  0.250000  1
  Mg  Mg1  1  0.500932  0.450892  0.250000  1
  Mg  Mg2  1  0.499068  0.549108  0.750000  1
  Mg  Mg3  1  0.005865  0.034898  0.750000  1
  Ta  Ta4  1  0.000000  0.500000  0.000000  1
  Ta  Ta5  1  0.000000  0.500000  0.500000  1
  Mo  Mo6  1  0.500000  0.000000  0.000000  1
  Mo  Mo7  1  0.500000  0.000000  0.500000  1
  O  O8  1  0.842989  0.813241  0.569758  1
  O  O9  1  0.311732  0.665279  0.431054  1
  O  O10  1  0.157011  0.186759  0.430242  1
  O  O11  1  0.688268  0.334721  0.931054  1
  O  O12  1  0.128899  0.427422  0.750000  1
  O  O13  1  0.688268  0.334721  0.568946  1
  O  O14  1  0.311732  0.665279  0.068946  1
  O  O15  1  0.842989  0.813241  0.930242  1
  O  O16  1  0.638055  0.093788  0.250000  1
  O  O17  1  0.157011  0.186759  0.069758  1
  O  O18  1  0.361945  0.906212  0.750000  1
  O  O19  1  0.871101  0.572578  0.250000  1
