# generated using pymatgen
data_CaCoF4
_symmetry_space_group_name_H-M   'P 1'
_cell_length_a   5.44391124
_cell_length_b   5.44627169
_cell_length_c   6.58722619
_cell_angle_alpha   115.23545448
_cell_angle_beta   114.31700238
_cell_angle_gamma   89.99011233
_symmetry_Int_Tables_number   1
_chemical_formula_structural   CaCoF4
_chemical_formula_sum   'Ca2 Co2 F8'
_cell_volume   157.30571642
_cell_formula_units_Z   2
loop_
 _symmetry_equiv_pos_site_id
 _symmetry_equiv_pos_as_xyz
  1  'x, y, z'
loop_
 _atom_site_type_symbol
 _atom_site_label
 _atom_site_symmetry_multiplicity
 _atom_site_fract_x
 _atom_site_fract_y
 _atom_site_fract_z
 _atom_site_occupancy
  Ca  Ca0  1  0.247226  0.252515  0.502097  1
  Ca  Ca1  1  0.749991  0.752759  0.501957  1
  Co  Co2  1  0.998565  0.502540  0.001907  1
  Co  Co3  1  0.498316  0.002395  0.002163  1
  F  F4  1  0.929619  0.428117  0.249426  1
  F  F5  1  0.679655  0.189268  0.743881  1
  F  F6  1  0.068006  0.577372  0.754683  1
  F  F7  1  0.181180  0.078909  0.756457  1
  F  F8  1  0.317395  0.815846  0.259965  1
  F  F9  1  0.440061  0.316083  0.261612  1
  F  F10  1  0.816049  0.926791  0.248103  1
  F  F11  1  0.557738  0.689138  0.742943  1
