# generated using pymatgen
data_CaBi2O5
_symmetry_space_group_name_H-M   'P 1'
_cell_length_a   4.26727921
_cell_length_b   6.10278645
_cell_length_c   13.12884220
_cell_angle_alpha   90.00000000
_cell_angle_beta   90.00000000
_cell_angle_gamma   110.46390469
_symmetry_Int_Tables_number   1
_chemical_formula_structural   CaBi2O5
_chemical_formula_sum   'Ca2 Bi4 O10'
_cell_volume   320.32842832
_cell_formula_units_Z   2
loop_
 _symmetry_equiv_pos_site_id
 _symmetry_equiv_pos_as_xyz
  1  'x, y, z'
loop_
 _atom_site_type_symbol
 _atom_site_label
 _atom_site_symmetry_multiplicity
 _atom_site_fract_x
 _atom_site_fract_y
 _atom_site_fract_z
 _atom_site_occupancy
  Ca  Ca0  1  0.897694  0.795385  0.750000  1
  Ca  Ca1  1  0.102307  0.204616  0.250000  1
  Bi  Bi2  1  0.197706  0.395412  0.599859  1
  Bi  Bi3  1  0.802295  0.604589  0.400140  1
  Bi  Bi4  1  0.802295  0.604589  0.099860  1
  Bi  Bi5  1  0.197706  0.395412  0.900141  1
  O  O6  1  0.707628  0.415256  0.250000  1
  O  O7  1  0.292373  0.584745  0.750000  1
  O  O8  1  0.243345  0.486691  0.081497  1
  O  O9  1  0.756657  0.513310  0.918503  1
  O  O10  1  0.756657  0.513310  0.581497  1
  O  O11  1  0.243345  0.486691  0.418502  1
  O  O12  1  0.025657  0.051312  0.626447  1
  O  O13  1  0.974343  0.948687  0.373553  1
  O  O14  1  0.025657  0.051312  0.873553  1
  O  O15  1  0.974343  0.948687  0.126448  1
