# generated using pymatgen
data_Ca(CoO2)2
_symmetry_space_group_name_H-M   'P 1'
_cell_length_a   6.26336239
_cell_length_b   6.22564537
_cell_length_c   18.62228290
_cell_angle_alpha   60.50429870
_cell_angle_beta   60.00935616
_cell_angle_gamma   59.45188906
_symmetry_Int_Tables_number   1
_chemical_formula_structural   Ca(CoO2)2
_chemical_formula_sum   'Ca6 Co12 O24'
_cell_volume   513.24341872
_cell_formula_units_Z   6
loop_
 _symmetry_equiv_pos_site_id
 _symmetry_equiv_pos_as_xyz
  1  'x, y, z'
loop_
 _atom_site_type_symbol
 _atom_site_label
 _atom_site_symmetry_multiplicity
 _atom_site_fract_x
 _atom_site_fract_y
 _atom_site_fract_z
 _atom_site_occupancy
  Ca  Ca0  1  0.126038  0.125392  0.041430  1
  Ca  Ca1  1  0.118717  0.120418  0.381497  1
  Ca  Ca2  1  0.502630  0.501405  0.999027  1
  Ca  Ca3  1  0.118741  0.117211  0.715631  1
  Ca  Ca4  1  0.880361  0.879379  0.285890  1
  Ca  Ca5  1  0.873522  0.873942  0.625994  1
  Co  Co6  1  0.996634  0.495946  0.170051  1
  Co  Co7  1  0.494731  0.495088  0.170398  1
  Co  Co8  1  -0.001271  0.500744  0.500946  1
  Co  Co9  1  0.496650  0.996260  0.170105  1
  Co  Co10  1  0.491921  0.496147  0.336085  1
  Co  Co11  1  0.498685  0.500762  0.499884  1
  Co  Co12  1  0.006142  0.499746  0.830609  1
  Co  Co13  1  0.500280  0.999037  0.500566  1
  Co  Co14  1  0.500963  0.008765  0.829733  1
  Co  Co15  1  0.504201  0.503314  0.664574  1
  Co  Co16  1  0.502433  0.500112  0.830742  1
  Co  Co17  1  0.881799  0.881842  0.952030  1
  O  O18  1  0.242560  0.242592  0.106850  1
  O  O19  1  0.259555  0.260534  0.239820  1
  O  O20  1  0.247434  0.696237  0.109047  1
  O  O21  1  0.696372  0.245221  0.108093  1
  O  O22  1  0.312487  0.724948  0.243198  1
  O  O23  1  0.273927  0.271267  0.421160  1
  O  O24  1  0.721433  0.312420  0.243281  1
  O  O25  1  0.746045  0.746763  0.087606  1
  O  O26  1  0.264272  0.691083  0.423617  1
  O  O27  1  0.262314  0.262945  0.567868  1
  O  O28  1  0.727257  0.726830  0.243628  1
  O  O29  1  0.689634  0.271180  0.424749  1
  O  O30  1  0.306695  0.734240  0.571906  1
  O  O31  1  0.273904  0.273826  0.753062  1
  O  O32  1  0.734402  0.308242  0.575323  1
  O  O33  1  0.738187  0.737043  0.431845  1
  O  O34  1  0.268137  0.270762  0.897175  1
  O  O35  1  0.275411  0.692072  0.750094  1
  O  O36  1  0.729871  0.734196  0.577810  1
  O  O37  1  0.693215  0.270774  0.753900  1
  O  O38  1  0.276884  0.764235  0.898178  1
  O  O39  1  0.731921  0.730833  0.768980  1
  O  O40  1  0.768119  0.274232  0.898624  1
  O  O41  1  0.766786  0.762017  0.898994  1
