# generated using pymatgen
data_CaCu2(GeO3)4
_symmetry_space_group_name_H-M   'P 1'
_cell_length_a   5.47996723
_cell_length_b   6.75071121
_cell_length_c   6.75071127
_cell_angle_alpha   83.57652291
_cell_angle_beta   77.65025445
_cell_angle_gamma   77.65024893
_symmetry_Int_Tables_number   1
_chemical_formula_structural   CaCu2(GeO3)4
_chemical_formula_sum   'Ca1 Cu2 Ge4 O12'
_cell_volume   237.73682761
_cell_formula_units_Z   1
loop_
 _symmetry_equiv_pos_site_id
 _symmetry_equiv_pos_as_xyz
  1  'x, y, z'
loop_
 _atom_site_type_symbol
 _atom_site_label
 _atom_site_symmetry_multiplicity
 _atom_site_fract_x
 _atom_site_fract_y
 _atom_site_fract_z
 _atom_site_occupancy
  Ca  Ca0  1  0.750000  0.307936  0.692064  1
  Cu  Cu1  1  0.750000  0.903910  0.096090  1
  Cu  Cu2  1  0.250000  0.089757  0.910243  1
  Ge  Ge3  1  0.778339  0.388082  0.195433  1
  Ge  Ge4  1  0.721661  0.804567  0.611918  1
  Ge  Ge5  1  0.210985  0.617890  0.810504  1
  Ge  Ge6  1  0.289015  0.189496  0.382110  1
  O  O7  1  0.530197  0.323007  0.398009  1
  O  O8  1  0.969803  0.601991  0.676993  1
  O  O9  1  0.489740  0.653363  0.624670  1
  O  O10  1  0.010260  0.375330  0.346637  1
  O  O11  1  0.170164  0.095458  0.631067  1
  O  O12  1  0.329836  0.368934  0.904542  1
  O  O13  1  0.806246  0.922444  0.371348  1
  O  O14  1  0.693754  0.628653  0.077556  1
  O  O15  1  0.873517  0.194529  0.016414  1
  O  O16  1  0.626483  0.983586  0.805471  1
  O  O17  1  0.113519  0.823659  0.971787  1
  O  O18  1  0.386481  0.028213  0.176341  1
