# generated using pymatgen
data_Mg3Ge3(SbO6)2
_symmetry_space_group_name_H-M   'P 1'
_cell_length_a   10.95250509
_cell_length_b   10.95250449
_cell_length_c   10.95250464
_cell_angle_alpha   109.47122090
_cell_angle_beta   109.47121980
_cell_angle_gamma   109.47121985
_symmetry_Int_Tables_number   1
_chemical_formula_structural   Mg3Ge3(SbO6)2
_chemical_formula_sum   'Mg12 Ge12 Sb8 O48'
_cell_volume   1011.38955933
_cell_formula_units_Z   4
loop_
 _symmetry_equiv_pos_site_id
 _symmetry_equiv_pos_as_xyz
  1  'x, y, z'
loop_
 _atom_site_type_symbol
 _atom_site_label
 _atom_site_symmetry_multiplicity
 _atom_site_fract_x
 _atom_site_fract_y
 _atom_site_fract_z
 _atom_site_occupancy
  Mg  Mg0  1  0.625000  0.250000  0.875000  1
  Mg  Mg1  1  0.875000  0.750000  0.625000  1
  Mg  Mg2  1  0.750000  0.625000  0.875000  1
  Mg  Mg3  1  0.250000  0.875000  0.625000  1
  Mg  Mg4  1  0.875000  0.625000  0.250000  1
  Mg  Mg5  1  0.625000  0.875000  0.750000  1
  Mg  Mg6  1  0.375000  0.750000  0.125000  1
  Mg  Mg7  1  0.125000  0.250000  0.375000  1
  Mg  Mg8  1  0.250000  0.375000  0.125000  1
  Mg  Mg9  1  0.750000  0.125000  0.375000  1
  Mg  Mg10  1  0.125000  0.375000  0.750000  1
  Mg  Mg11  1  0.375000  0.125000  0.250000  1
  Ge  Ge12  1  0.875000  0.125000  0.750000  1
  Ge  Ge13  1  0.125000  0.875000  0.250000  1
  Ge  Ge14  1  0.250000  0.625000  0.375000  1
  Ge  Ge15  1  0.125000  0.750000  0.875000  1
  Ge  Ge16  1  0.750000  0.875000  0.125000  1
  Ge  Ge17  1  0.375000  0.250000  0.625000  1
  Ge  Ge18  1  0.625000  0.750000  0.375000  1
  Ge  Ge19  1  0.875000  0.250000  0.125000  1
  Ge  Ge20  1  0.250000  0.125000  0.875000  1
  Ge  Ge21  1  0.750000  0.375000  0.625000  1
  Ge  Ge22  1  0.375000  0.625000  0.750000  1
  Ge  Ge23  1  0.625000  0.375000  0.250000  1
  Sb  Sb24  1  0.500000  0.500000  0.500000  1
  Sb  Sb25  1  0.500000  0.500000  0.000000  1
  Sb  Sb26  1  0.500000  0.000000  0.500000  1
  Sb  Sb27  1  0.000000  0.500000  0.500000  1
  Sb  Sb28  1  0.500000  0.000000  0.000000  1
  Sb  Sb29  1  0.000000  0.000000  0.500000  1
  Sb  Sb30  1  0.000000  0.500000  0.000000  1
  Sb  Sb31  1  0.000000  0.000000  0.000000  1
  O  O32  1  0.773982  0.408035  0.805484  1
  O  O33  1  0.091965  0.865946  0.397449  1
  O  O34  1  0.694516  0.102551  0.968496  1
  O  O35  1  0.726018  0.531504  0.634054  1
  O  O36  1  0.726018  0.694516  0.091965  1
  O  O37  1  0.531504  0.634054  0.726018  1
  O  O38  1  0.102551  0.634054  0.408035  1
  O  O39  1  0.634054  0.726018  0.531504  1
  O  O40  1  0.397449  0.805484  0.531504  1
  O  O41  1  0.865946  0.968496  0.773982  1
  O  O42  1  0.968496  0.773982  0.865946  1
  O  O43  1  0.091965  0.726018  0.694516  1
  O  O44  1  0.634054  0.408035  0.102551  1
  O  O45  1  0.531504  0.397449  0.805484  1
  O  O46  1  0.694516  0.091965  0.726018  1
  O  O47  1  0.408035  0.102551  0.634054  1
  O  O48  1  0.805484  0.531504  0.397449  1
  O  O49  1  0.397449  0.091965  0.865946  1
  O  O50  1  0.102551  0.968496  0.694516  1
  O  O51  1  0.602551  0.194516  0.468496  1
  O  O52  1  0.968496  0.694516  0.102551  1
  O  O53  1  0.805484  0.773982  0.408035  1
  O  O54  1  0.865946  0.397449  0.091965  1
  O  O55  1  0.773982  0.865946  0.968496  1
  O  O56  1  0.226018  0.591965  0.194516  1
  O  O57  1  0.908035  0.134054  0.602551  1
  O  O58  1  0.305484  0.897449  0.031504  1
  O  O59  1  0.273982  0.468496  0.365946  1
  O  O60  1  0.273982  0.305484  0.908035  1
  O  O61  1  0.468496  0.365946  0.273982  1
  O  O62  1  0.897449  0.365946  0.591965  1
  O  O63  1  0.365946  0.273982  0.468496  1
  O  O64  1  0.226018  0.134054  0.031504  1
  O  O65  1  0.134054  0.602551  0.908035  1
  O  O66  1  0.194516  0.226018  0.591965  1
  O  O67  1  0.591965  0.194516  0.226018  1
  O  O68  1  0.031504  0.305484  0.897449  1
  O  O69  1  0.897449  0.031504  0.305484  1
  O  O70  1  0.602551  0.908035  0.134054  1
  O  O71  1  0.194516  0.468496  0.602551  1
  O  O72  1  0.591965  0.897449  0.365946  1
  O  O73  1  0.305484  0.908035  0.273982  1
  O  O74  1  0.468496  0.602551  0.194516  1
  O  O75  1  0.365946  0.591965  0.897449  1
  O  O76  1  0.908035  0.273982  0.305484  1
  O  O77  1  0.031504  0.226018  0.134054  1
  O  O78  1  0.134054  0.031504  0.226018  1
  O  O79  1  0.408035  0.805484  0.773982  1
