# generated using pymatgen
data_Al(CuSe2)3
_symmetry_space_group_name_H-M   'P 1'
_cell_length_a   5.34188743
_cell_length_b   5.34188745
_cell_length_c   19.26340066
_cell_angle_alpha   114.57987145
_cell_angle_beta   114.57987310
_cell_angle_gamma   90.00000635
_symmetry_Int_Tables_number   1
_chemical_formula_structural   Al(CuSe2)3
_chemical_formula_sum   'Al2 Cu6 Se12'
_cell_volume   444.52423790
_cell_formula_units_Z   2
loop_
 _symmetry_equiv_pos_site_id
 _symmetry_equiv_pos_as_xyz
  1  'x, y, z'
loop_
 _atom_site_type_symbol
 _atom_site_label
 _atom_site_symmetry_multiplicity
 _atom_site_fract_x
 _atom_site_fract_y
 _atom_site_fract_z
 _atom_site_occupancy
  Al  Al0  1  0.750000  0.250000  0.833333  1
  Al  Al1  1  0.500000  0.500000  0.333333  1
  Cu  Cu2  1  0.247208  0.747208  0.164806  1
  Cu  Cu3  1  0.252792  0.752792  0.501861  1
  Cu  Cu4  1  0.250000  0.750000  0.833333  1
  Cu  Cu5  1  0.002792  0.002792  0.001861  1
  Cu  Cu6  1  0.000000  0.000000  0.333333  1
  Cu  Cu7  1  0.997208  0.997208  0.664806  1
  Se  Se8  1  0.388794  0.375000  0.083333  1
  Se  Se9  1  0.415815  0.362234  0.427292  1
  Se  Se10  1  0.383939  0.387766  0.739375  1
  Se  Se11  1  0.080359  0.584185  0.239375  1
  Se  Se12  1  0.125000  0.611206  0.583333  1
  Se  Se13  1  0.169641  0.616061  0.927292  1
  Se  Se14  1  0.637766  0.133939  0.239375  1
  Se  Se15  1  0.625000  0.138794  0.583333  1
  Se  Se16  1  0.612234  0.165815  0.927292  1
  Se  Se17  1  0.861206  0.875000  0.083333  1
  Se  Se18  1  0.866061  0.919641  0.427292  1
  Se  Se19  1  0.834185  0.830359  0.739375  1
