# generated using pymatgen
data_Ca(FeS2)2
_symmetry_space_group_name_H-M   'P 1'
_cell_length_a   7.22976666
_cell_length_b   7.23296943
_cell_length_c   7.23261708
_cell_angle_alpha   60.04214244
_cell_angle_beta   59.95924174
_cell_angle_gamma   59.98067868
_symmetry_Int_Tables_number   1
_chemical_formula_structural   Ca(FeS2)2
_chemical_formula_sum   'Ca2 Fe4 S8'
_cell_volume   267.40037722
_cell_formula_units_Z   2
loop_
 _symmetry_equiv_pos_site_id
 _symmetry_equiv_pos_as_xyz
  1  'x, y, z'
loop_
 _atom_site_type_symbol
 _atom_site_label
 _atom_site_symmetry_multiplicity
 _atom_site_fract_x
 _atom_site_fract_y
 _atom_site_fract_z
 _atom_site_occupancy
  Ca  Ca0  1  0.875075  0.875470  0.874783  1
  Ca  Ca1  1  0.124978  0.124570  0.125127  1
  Fe  Fe2  1  0.499928  0.500060  0.500019  1
  Fe  Fe3  1  0.500050  0.500005  0.000032  1
  Fe  Fe4  1  0.000003  0.499971  0.499995  1
  Fe  Fe5  1  0.499931  0.999967  0.500011  1
  S  S6  1  0.727096  0.727334  0.726874  1
  S  S7  1  0.272744  0.273046  0.681405  1
  S  S8  1  0.272770  0.680979  0.273488  1
  S  S9  1  0.680882  0.272835  0.273278  1
  S  S10  1  0.727173  0.319056  0.726518  1
  S  S11  1  0.319131  0.727060  0.726905  1
  S  S12  1  0.272956  0.272709  0.273032  1
  S  S13  1  0.727286  0.726934  0.318536  1
