# generated using pymatgen
data_MgMnF6
_symmetry_space_group_name_H-M   'P 1'
_cell_length_a   5.36269924
_cell_length_b   5.36269870
_cell_length_c   5.36269839
_cell_angle_alpha   58.25306601
_cell_angle_beta   58.25306463
_cell_angle_gamma   58.25306934
_symmetry_Int_Tables_number   1
_chemical_formula_structural   MgMnF6
_chemical_formula_sum   'Mg1 Mn1 F6'
_cell_volume   104.68839462
_cell_formula_units_Z   1
loop_
 _symmetry_equiv_pos_site_id
 _symmetry_equiv_pos_as_xyz
  1  'x, y, z'
loop_
 _atom_site_type_symbol
 _atom_site_label
 _atom_site_symmetry_multiplicity
 _atom_site_fract_x
 _atom_site_fract_y
 _atom_site_fract_z
 _atom_site_occupancy
  Mg  Mg0  1  0.500000  0.500000  0.500000  1
  Mn  Mn1  1  0.000000  0.000000  0.000000  1
  F  F2  1  0.324879  0.151996  0.762880  1
  F  F3  1  0.151996  0.762880  0.324879  1
  F  F4  1  0.237120  0.675122  0.848004  1
  F  F5  1  0.848004  0.237120  0.675122  1
  F  F6  1  0.675122  0.848004  0.237120  1
  F  F7  1  0.762880  0.324879  0.151996  1
