# generated using pymatgen
data_CaNi3O7
_symmetry_space_group_name_H-M   'P 1'
_cell_length_a   5.26551266
_cell_length_b   10.24898962
_cell_length_c   11.42319960
_cell_angle_alpha   90.00000000
_cell_angle_beta   90.00000000
_cell_angle_gamma   90.00000000
_symmetry_Int_Tables_number   1
_chemical_formula_structural   CaNi3O7
_chemical_formula_sum   'Ca4 Ni12 O28'
_cell_volume   616.46649829
_cell_formula_units_Z   4
loop_
 _symmetry_equiv_pos_site_id
 _symmetry_equiv_pos_as_xyz
  1  'x, y, z'
loop_
 _atom_site_type_symbol
 _atom_site_label
 _atom_site_symmetry_multiplicity
 _atom_site_fract_x
 _atom_site_fract_y
 _atom_site_fract_z
 _atom_site_occupancy
  Ca  Ca0  1  0.674133  0.750000  0.914164  1
  Ca  Ca1  1  0.174133  0.250000  0.585836  1
  Ca  Ca2  1  0.325867  0.250000  0.085836  1
  Ca  Ca3  1  0.825867  0.750000  0.414164  1
  Ni  Ni4  1  0.299660  0.024329  0.299789  1
  Ni  Ni5  1  0.799660  0.975671  0.200211  1
  Ni  Ni6  1  0.700340  0.524329  0.700211  1
  Ni  Ni7  1  0.200340  0.475671  0.799789  1
  Ni  Ni8  1  0.324002  0.750000  0.238405  1
  Ni  Ni9  1  0.824002  0.250000  0.261595  1
  Ni  Ni10  1  0.675998  0.250000  0.761595  1
  Ni  Ni11  1  0.175998  0.750000  0.738405  1
  Ni  Ni12  1  0.799660  0.524329  0.200211  1
  Ni  Ni13  1  0.299660  0.475671  0.299789  1
  Ni  Ni14  1  0.200340  0.024329  0.799789  1
  Ni  Ni15  1  0.700340  0.975671  0.700211  1
  O  O16  1  0.928091  0.120582  0.727316  1
  O  O17  1  0.428091  0.879418  0.772684  1
  O  O18  1  0.071909  0.620582  0.272684  1
  O  O19  1  0.571909  0.379418  0.227316  1
  O  O20  1  0.071909  0.879418  0.272684  1
  O  O21  1  0.571909  0.120582  0.227316  1
  O  O22  1  0.928091  0.379418  0.727316  1
  O  O23  1  0.428091  0.620582  0.772684  1
  O  O24  1  0.451753  0.119871  0.706018  1
  O  O25  1  0.951753  0.880129  0.793982  1
  O  O26  1  0.548247  0.619871  0.293982  1
  O  O27  1  0.048247  0.380129  0.206018  1
  O  O28  1  0.548247  0.880129  0.293982  1
  O  O29  1  0.048247  0.119871  0.206018  1
  O  O30  1  0.451753  0.380129  0.706018  1
  O  O31  1  0.951753  0.619871  0.793982  1
  O  O32  1  0.088970  0.750000  0.576163  1
  O  O33  1  0.588970  0.250000  0.923837  1
  O  O34  1  0.911030  0.250000  0.423837  1
  O  O35  1  0.411030  0.750000  0.076163  1
  O  O36  1  0.259385  0.406202  0.940801  1
  O  O37  1  0.759385  0.593798  0.559199  1
  O  O38  1  0.740615  0.906202  0.059199  1
  O  O39  1  0.240615  0.093798  0.440801  1
  O  O40  1  0.740615  0.593798  0.059199  1
  O  O41  1  0.240615  0.406202  0.440801  1
  O  O42  1  0.259385  0.093798  0.940801  1
  O  O43  1  0.759385  0.906202  0.559199  1
