# generated using pymatgen
data_ZnNi(GeO3)2
_symmetry_space_group_name_H-M   'P 1'
_cell_length_a   5.45729209
_cell_length_b   9.15973101
_cell_length_c   9.70314685
_cell_angle_alpha   90.00000000
_cell_angle_beta   102.28553653
_cell_angle_gamma   90.00000000
_symmetry_Int_Tables_number   1
_chemical_formula_structural   ZnNi(GeO3)2
_chemical_formula_sum   'Zn4 Ni4 Ge8 O24'
_cell_volume   473.92676262
_cell_formula_units_Z   4
loop_
 _symmetry_equiv_pos_site_id
 _symmetry_equiv_pos_as_xyz
  1  'x, y, z'
loop_
 _atom_site_type_symbol
 _atom_site_label
 _atom_site_symmetry_multiplicity
 _atom_site_fract_x
 _atom_site_fract_y
 _atom_site_fract_z
 _atom_site_occupancy
  Zn  Zn0  1  0.454310  0.500120  0.246394  1
  Zn  Zn1  1  0.045690  0.000120  0.753606  1
  Zn  Zn2  1  0.545690  0.499880  0.753606  1
  Zn  Zn3  1  0.954310  0.999880  0.246394  1
  Ni  Ni4  1  0.961605  0.655668  0.246677  1
  Ni  Ni5  1  0.538395  0.155668  0.753323  1
  Ni  Ni6  1  0.038395  0.344332  0.753323  1
  Ni  Ni7  1  0.461605  0.844332  0.246677  1
  Ge  Ge8  1  0.814981  0.337810  0.055617  1
  Ge  Ge9  1  0.685019  0.837810  0.944383  1
  Ge  Ge10  1  0.185019  0.662190  0.944383  1
  Ge  Ge11  1  0.314981  0.162190  0.055617  1
  Ge  Ge12  1  0.237918  0.342191  0.454797  1
  Ge  Ge13  1  0.262082  0.842191  0.545203  1
  Ge  Ge14  1  0.762082  0.657809  0.545203  1
  Ge  Ge15  1  0.737918  0.157809  0.454797  1
  O  O16  1  0.495157  0.282131  0.380494  1
  O  O17  1  0.004843  0.782131  0.619506  1
  O  O18  1  0.504843  0.717869  0.619506  1
  O  O19  1  0.995157  0.217869  0.380494  1
  O  O20  1  0.151052  0.316649  0.109276  1
  O  O21  1  0.348948  0.816649  0.890725  1
  O  O22  1  0.848948  0.683351  0.890725  1
  O  O23  1  0.651052  0.183351  0.109276  1
  O  O24  1  0.701064  0.986701  0.374275  1
  O  O25  1  0.798936  0.486701  0.625725  1
  O  O26  1  0.298936  0.013299  0.625725  1
  O  O27  1  0.201064  0.513299  0.374275  1
  O  O28  1  0.228742  0.008999  0.140428  1
  O  O29  1  0.271258  0.508999  0.859572  1
  O  O30  1  0.771258  0.991001  0.859572  1
  O  O31  1  0.728742  0.491001  0.140428  1
  O  O32  1  0.755067  0.334058  0.868436  1
  O  O33  1  0.744933  0.834058  0.131564  1
  O  O34  1  0.244933  0.665942  0.131564  1
  O  O35  1  0.255067  0.165942  0.868436  1
  O  O36  1  0.314982  0.333918  0.640135  1
  O  O37  1  0.185018  0.833918  0.359865  1
  O  O38  1  0.685018  0.666082  0.359865  1
  O  O39  1  0.814982  0.166082  0.640135  1
