# generated using pymatgen
data_YSn(WO4)2
_symmetry_space_group_name_H-M   'P 1'
_cell_length_a   5.22050098
_cell_length_b   6.16680606
_cell_length_c   7.11934414
_cell_angle_alpha   118.59625600
_cell_angle_beta   117.17960211
_cell_angle_gamma   87.69867305
_symmetry_Int_Tables_number   1
_chemical_formula_structural   YSn(WO4)2
_chemical_formula_sum   'Y1 Sn1 W2 O8'
_cell_volume   174.28245094
_cell_formula_units_Z   1
loop_
 _symmetry_equiv_pos_site_id
 _symmetry_equiv_pos_as_xyz
  1  'x, y, z'
loop_
 _atom_site_type_symbol
 _atom_site_label
 _atom_site_symmetry_multiplicity
 _atom_site_fract_x
 _atom_site_fract_y
 _atom_site_fract_z
 _atom_site_occupancy
  Y  Y0  1  0.662287  0.800376  0.081318  1
  Sn  Sn1  1  0.147123  0.319141  0.144393  1
  W  W2  1  0.383200  0.037816  0.596414  1
  W  W3  1  0.882294  0.380795  0.615485  1
  O  O4  1  0.151988  0.683530  0.849602  1
  O  O5  1  0.631005  0.467485  0.390754  1
  O  O6  1  0.172615  0.221907  0.792445  1
  O  O7  1  0.570653  0.016829  0.398043  1
  O  O8  1  0.593026  0.944425  0.825931  1
  O  O9  1  0.090092  0.716218  0.313714  1
  O  O10  1  0.041331  0.182698  0.394211  1
  O  O11  1  0.670387  0.407274  0.793784  1
