# generated using pymatgen
data_CaCu(GeO3)2
_symmetry_space_group_name_H-M   'P 1'
_cell_length_a   5.44908880
_cell_length_b   6.93759955
_cell_length_c   6.93759955
_cell_angle_alpha   83.01392450
_cell_angle_beta   77.22233314
_cell_angle_gamma   77.22233305
_symmetry_Int_Tables_number   1
_chemical_formula_structural   CaCu(GeO3)2
_chemical_formula_sum   'Ca2 Cu2 Ge4 O12'
_cell_volume   248.70729538
_cell_formula_units_Z   2
loop_
 _symmetry_equiv_pos_site_id
 _symmetry_equiv_pos_as_xyz
  1  'x, y, z'
loop_
 _atom_site_type_symbol
 _atom_site_label
 _atom_site_symmetry_multiplicity
 _atom_site_fract_x
 _atom_site_fract_y
 _atom_site_fract_z
 _atom_site_occupancy
  O  O0  1  0.524932  0.328193  0.387139  1
  O  O1  1  0.975068  0.612861  0.671807  1
  O  O2  1  0.475068  0.671807  0.612861  1
  O  O3  1  0.024932  0.387139  0.328193  1
  O  O4  1  0.161400  0.098939  0.619615  1
  O  O5  1  0.338600  0.380385  0.901061  1
  O  O6  1  0.838600  0.901061  0.380385  1
  O  O7  1  0.661400  0.619615  0.098939  1
  O  O8  1  0.881069  0.198503  0.011957  1
  O  O9  1  0.618931  0.988043  0.801497  1
  O  O10  1  0.118931  0.801497  0.988043  1
  O  O11  1  0.381069  0.011957  0.198503  1
  Ca  Ca12  1  0.750000  0.300805  0.699195  1
  Ca  Ca13  1  0.250000  0.699195  0.300805  1
  Cu  Cu14  1  0.750000  0.902389  0.097611  1
  Cu  Cu15  1  0.250000  0.097611  0.902389  1
  Ge  Ge16  1  0.788249  0.380540  0.184229  1
  Ge  Ge17  1  0.711751  0.815771  0.619460  1
  Ge  Ge18  1  0.211751  0.619460  0.815771  1
  Ge  Ge19  1  0.288249  0.184229  0.380540  1
