# generated using pymatgen
data_Ti3AlO6
_symmetry_space_group_name_H-M   'P 1'
_cell_length_a   17.83369200
_cell_length_b   5.95042556
_cell_length_c   5.94986964
_cell_angle_alpha   59.95605007
_cell_angle_beta   59.90873658
_cell_angle_gamma   59.91227521
_symmetry_Int_Tables_number   1
_chemical_formula_structural   Ti3AlO6
_chemical_formula_sum   'Ti12 Al4 O24'
_cell_volume   445.70640439
_cell_formula_units_Z   4
loop_
 _symmetry_equiv_pos_site_id
 _symmetry_equiv_pos_as_xyz
  1  'x, y, z'
loop_
 _atom_site_type_symbol
 _atom_site_label
 _atom_site_symmetry_multiplicity
 _atom_site_fract_x
 _atom_site_fract_y
 _atom_site_fract_z
 _atom_site_occupancy
  Ti  Ti0  1  0.003626  0.481294  0.003725  1
  Ti  Ti1  1  0.329707  0.518706  0.996275  1
  Ti  Ti2  1  0.666667  0.500000  -0.000000  1
  Ti  Ti3  1  0.003632  0.003966  0.003996  1
  Ti  Ti4  1  0.329701  0.996034  0.996004  1
  Ti  Ti5  1  0.666667  0.000000  -0.000000  1
  Ti  Ti6  1  0.166667  0.000000  -0.000000  1
  Ti  Ti7  1  0.486718  0.013334  0.013343  1
  Ti  Ti8  1  0.846615  0.986666  0.986657  1
  Ti  Ti9  1  0.003635  0.003714  0.481261  1
  Ti  Ti10  1  0.329698  0.996286  0.518739  1
  Ti  Ti11  1  0.666667  -0.000000  0.500000  1
  Al  Al12  1  0.207267  0.626188  0.626203  1
  Al  Al13  1  0.542063  0.624754  0.624767  1
  Al  Al14  1  0.126067  0.373812  0.373797  1
  Al  Al15  1  0.791270  0.375246  0.375233  1
  O  O16  1  0.084447  0.748825  0.748828  1
  O  O17  1  0.419795  0.746821  0.746831  1
  O  O18  1  0.731432  0.768555  0.768559  1
  O  O19  1  0.086587  0.250012  0.739761  1
  O  O20  1  0.406645  0.240514  0.798776  1
  O  O21  1  0.751362  0.248161  0.748902  1
  O  O22  1  0.086589  0.739741  0.250012  1
  O  O23  1  0.406648  0.798777  0.240507  1
  O  O24  1  0.751364  0.748887  0.248162  1
  O  O25  1  0.086457  0.250391  0.250381  1
  O  O26  1  0.406612  0.241027  0.241028  1
  O  O27  1  0.751375  0.248572  0.248569  1
  O  O28  1  0.246747  0.749988  0.260239  1
  O  O29  1  0.581971  0.751839  0.251098  1
  O  O30  1  0.926688  0.759486  0.201224  1
  O  O31  1  0.248887  0.251175  0.251171  1
  O  O32  1  0.601901  0.231445  0.231440  1
  O  O33  1  0.913538  0.253179  0.253168  1
  O  O34  1  0.246744  0.260259  0.749988  1
  O  O35  1  0.581969  0.251113  0.751837  1
  O  O36  1  0.926685  0.201223  0.759493  1
  O  O37  1  0.246876  0.749609  0.749619  1
  O  O38  1  0.581958  0.751428  0.751431  1
  O  O39  1  0.926722  0.758973  0.758972  1
