# generated using pymatgen
data_Re2O7
_symmetry_space_group_name_H-M   'P 1'
_cell_length_a   5.24138128
_cell_length_b   5.40592249
_cell_length_c   9.55049627
_cell_angle_alpha   90.00000000
_cell_angle_beta   105.92647453
_cell_angle_gamma   90.00000000
_symmetry_Int_Tables_number   1
_chemical_formula_structural   Re2O7
_chemical_formula_sum   'Re4 O14'
_cell_volume   260.22113337
_cell_formula_units_Z   2
loop_
 _symmetry_equiv_pos_site_id
 _symmetry_equiv_pos_as_xyz
  1  'x, y, z'
loop_
 _atom_site_type_symbol
 _atom_site_label
 _atom_site_symmetry_multiplicity
 _atom_site_fract_x
 _atom_site_fract_y
 _atom_site_fract_z
 _atom_site_occupancy
  Re  Re0  1  0.640012  0.250000  0.789764  1
  Re  Re1  1  0.850247  0.250000  0.210236  1
  Re  Re2  1  0.359988  0.750000  0.210236  1
  Re  Re3  1  0.149753  0.750000  0.789764  1
  O  O4  1  0.150292  0.750000  0.607606  1
  O  O5  1  0.542686  0.750000  0.392394  1
  O  O6  1  0.849708  0.250000  0.392394  1
  O  O7  1  0.457314  0.250000  0.607606  1
  O  O8  1  0.417767  0.500000  0.835533  1
  O  O9  1  0.582233  0.000000  0.164467  1
  O  O10  1  0.582233  0.500000  0.164467  1
  O  O11  1  0.417767  0.000000  0.835533  1
  O  O12  1  0.883425  0.500000  0.766849  1
  O  O13  1  0.116575  0.000000  0.233152  1
  O  O14  1  0.817301  0.250000  1.000000  1
  O  O15  1  0.182699  0.750000  0.000000  1
  O  O16  1  0.883425  0.000000  0.766849  1
  O  O17  1  0.116575  0.500000  0.233152  1
