# generated using pymatgen
data_BaFe4O7
_symmetry_space_group_name_H-M   'P 1'
_cell_length_a   6.48889719
_cell_length_b   6.48889707
_cell_length_c   10.56814577
_cell_angle_alpha   90.00000000
_cell_angle_beta   90.00000000
_cell_angle_gamma   120.00000441
_symmetry_Int_Tables_number   1
_chemical_formula_structural   BaFe4O7
_chemical_formula_sum   'Ba2 Fe8 O14'
_cell_volume   385.36403962
_cell_formula_units_Z   2
loop_
 _symmetry_equiv_pos_site_id
 _symmetry_equiv_pos_as_xyz
  1  'x, y, z'
loop_
 _atom_site_type_symbol
 _atom_site_label
 _atom_site_symmetry_multiplicity
 _atom_site_fract_x
 _atom_site_fract_y
 _atom_site_fract_z
 _atom_site_occupancy
  Ba  Ba0  1  0.666667  0.333333  0.491627  1
  Ba  Ba1  1  0.333333  0.666667  0.991627  1
  Fe  Fe2  1  0.829596  0.170405  0.190505  1
  Fe  Fe3  1  0.659192  0.829595  0.690506  1
  Fe  Fe4  1  0.170405  0.340808  0.690506  1
  Fe  Fe5  1  0.829596  0.659192  0.190505  1
  Fe  Fe6  1  0.340807  0.170405  0.190505  1
  Fe  Fe7  1  0.170405  0.829595  0.690506  1
  Fe  Fe8  1  0.000000  0.000000  0.449309  1
  Fe  Fe9  1  0.000000  -0.000000  0.949309  1
  O  O10  1  0.846151  0.153850  0.014601  1
  O  O11  1  0.692300  0.846150  0.514600  1
  O  O12  1  0.153849  0.307699  0.514600  1
  O  O13  1  0.846152  0.692301  0.014601  1
  O  O14  1  0.307699  0.153850  0.014601  1
  O  O15  1  0.153849  0.846150  0.514600  1
  O  O16  1  0.000000  0.000000  0.759148  1
  O  O17  1  0.000000  -0.000000  0.259149  1
  O  O18  1  0.513545  0.486457  0.246216  1
  O  O19  1  0.027090  0.513545  0.746216  1
  O  O20  1  0.486456  0.972910  0.746216  1
  O  O21  1  0.513545  0.027090  0.246216  1
  O  O22  1  0.486457  0.513545  0.746216  1
  O  O23  1  0.972910  0.486457  0.246216  1
