# generated using pymatgen
data_Te(WO4)2
_symmetry_space_group_name_H-M   'P 1'
_cell_length_a   5.18635325
_cell_length_b   6.26991731
_cell_length_c   6.92457878
_cell_angle_alpha   110.92569251
_cell_angle_beta   122.41141590
_cell_angle_gamma   88.64994250
_symmetry_Int_Tables_number   1
_chemical_formula_structural   Te(WO4)2
_chemical_formula_sum   'Te1 W2 O8'
_cell_volume   173.48794035
_cell_formula_units_Z   1
loop_
 _symmetry_equiv_pos_site_id
 _symmetry_equiv_pos_as_xyz
  1  'x, y, z'
loop_
 _atom_site_type_symbol
 _atom_site_label
 _atom_site_symmetry_multiplicity
 _atom_site_fract_x
 _atom_site_fract_y
 _atom_site_fract_z
 _atom_site_occupancy
  Te  Te0  1  0.081023  0.219313  0.041537  1
  W  W1  1  0.887233  0.410334  0.613208  1
  W  W2  1  0.335593  0.030676  0.557694  1
  O  O3  1  0.159662  0.675229  0.813408  1
  O  O4  1  0.562696  0.487767  0.380398  1
  O  O5  1  0.184752  0.186660  0.796611  1
  O  O6  1  0.523322  0.065899  0.405277  1
  O  O7  1  0.687377  0.977063  0.829363  1
  O  O8  1  0.091038  0.757230  0.367446  1
  O  O9  1  0.056913  0.242597  0.424828  1
  O  O10  1  0.802050  0.402863  0.866845  1
