# generated using pymatgen
data_Ge3(TeO6)2
_symmetry_space_group_name_H-M   'P 1'
_cell_length_a   10.59733657
_cell_length_b   10.59733620
_cell_length_c   10.59733591
_cell_angle_alpha   109.47121828
_cell_angle_beta   109.47121751
_cell_angle_gamma   109.47122180
_symmetry_Int_Tables_number   1
_chemical_formula_structural   Ge3(TeO6)2
_chemical_formula_sum   'Ge12 Te8 O48'
_cell_volume   916.15355927
_cell_formula_units_Z   4
loop_
 _symmetry_equiv_pos_site_id
 _symmetry_equiv_pos_as_xyz
  1  'x, y, z'
loop_
 _atom_site_type_symbol
 _atom_site_label
 _atom_site_symmetry_multiplicity
 _atom_site_fract_x
 _atom_site_fract_y
 _atom_site_fract_z
 _atom_site_occupancy
  Ge  Ge0  1  0.875000  0.125000  0.750000  1
  Ge  Ge1  1  0.125000  0.875000  0.250000  1
  Ge  Ge2  1  0.250000  0.625000  0.375000  1
  Ge  Ge3  1  0.125000  0.750000  0.875000  1
  Ge  Ge4  1  0.750000  0.875000  0.125000  1
  Ge  Ge5  1  0.375000  0.250000  0.625000  1
  Ge  Ge6  1  0.625000  0.750000  0.375000  1
  Ge  Ge7  1  0.875000  0.250000  0.125000  1
  Ge  Ge8  1  0.250000  0.125000  0.875000  1
  Ge  Ge9  1  0.750000  0.375000  0.625000  1
  Ge  Ge10  1  0.375000  0.625000  0.750000  1
  Ge  Ge11  1  0.625000  0.375000  0.250000  1
  Te  Te12  1  0.500000  0.500000  0.500000  1
  Te  Te13  1  0.500000  0.500000  0.000000  1
  Te  Te14  1  0.500000  0.000000  0.500000  1
  Te  Te15  1  0.000000  0.500000  0.500000  1
  Te  Te16  1  0.500000  0.000000  0.000000  1
  Te  Te17  1  0.000000  0.000000  0.500000  1
  Te  Te18  1  0.000000  0.500000  0.000000  1
  Te  Te19  1  0.000000  0.000000  0.000000  1
  O  O20  1  0.804463  0.419395  0.818862  1
  O  O21  1  0.080605  0.885068  0.399467  1
  O  O22  1  0.681138  0.100533  0.985600  1
  O  O23  1  0.695537  0.514400  0.614932  1
  O  O24  1  0.695537  0.681138  0.080605  1
  O  O25  1  0.514400  0.614932  0.695537  1
  O  O26  1  0.100533  0.614932  0.419395  1
  O  O27  1  0.614932  0.695537  0.514400  1
  O  O28  1  0.399467  0.818862  0.514400  1
  O  O29  1  0.885068  0.985600  0.804463  1
  O  O30  1  0.985600  0.804463  0.885068  1
  O  O31  1  0.080605  0.695537  0.681138  1
  O  O32  1  0.614932  0.419395  0.100533  1
  O  O33  1  0.514400  0.399467  0.818862  1
  O  O34  1  0.681138  0.080605  0.695537  1
  O  O35  1  0.419395  0.100533  0.614932  1
  O  O36  1  0.818862  0.514400  0.399467  1
  O  O37  1  0.399467  0.080605  0.885068  1
  O  O38  1  0.100533  0.985600  0.681138  1
  O  O39  1  0.600533  0.181138  0.485600  1
  O  O40  1  0.985600  0.681138  0.100533  1
  O  O41  1  0.818862  0.804463  0.419395  1
  O  O42  1  0.885068  0.399467  0.080605  1
  O  O43  1  0.804463  0.885068  0.985600  1
  O  O44  1  0.195537  0.580605  0.181138  1
  O  O45  1  0.919395  0.114932  0.600533  1
  O  O46  1  0.318862  0.899467  0.014400  1
  O  O47  1  0.304463  0.485600  0.385068  1
  O  O48  1  0.304463  0.318862  0.919395  1
  O  O49  1  0.485600  0.385068  0.304463  1
  O  O50  1  0.899467  0.385068  0.580605  1
  O  O51  1  0.385068  0.304463  0.485600  1
  O  O52  1  0.195537  0.114932  0.014400  1
  O  O53  1  0.114932  0.600533  0.919395  1
  O  O54  1  0.181138  0.195537  0.580605  1
  O  O55  1  0.580605  0.181138  0.195537  1
  O  O56  1  0.014400  0.318862  0.899467  1
  O  O57  1  0.899467  0.014400  0.318862  1
  O  O58  1  0.600533  0.919395  0.114932  1
  O  O59  1  0.181138  0.485600  0.600533  1
  O  O60  1  0.580605  0.899467  0.385068  1
  O  O61  1  0.318862  0.919395  0.304463  1
  O  O62  1  0.485600  0.600533  0.181138  1
  O  O63  1  0.385068  0.580605  0.899467  1
  O  O64  1  0.919395  0.304463  0.318862  1
  O  O65  1  0.014400  0.195537  0.114932  1
  O  O66  1  0.114932  0.014400  0.195537  1
  O  O67  1  0.419395  0.818862  0.804463  1
