# generated using pymatgen
data_CaCuO2
_symmetry_space_group_name_H-M   'P 1'
_cell_length_a   3.03838666
_cell_length_b   8.24787126
_cell_length_c   8.60252527
_cell_angle_alpha   85.21126693
_cell_angle_beta   90.52896827
_cell_angle_gamma   99.68717279
_symmetry_Int_Tables_number   1
_chemical_formula_structural   CaCuO2
_chemical_formula_sum   'Ca4 Cu4 O8'
_cell_volume   211.76291163
_cell_formula_units_Z   4
loop_
 _symmetry_equiv_pos_site_id
 _symmetry_equiv_pos_as_xyz
  1  'x, y, z'
loop_
 _atom_site_type_symbol
 _atom_site_label
 _atom_site_symmetry_multiplicity
 _atom_site_fract_x
 _atom_site_fract_y
 _atom_site_fract_z
 _atom_site_occupancy
  Ca  Ca0  1  0.284851  0.070800  0.335129  1
  Ca  Ca1  1  0.711107  0.909097  0.692878  1
  Ca  Ca2  1  0.160323  0.801808  0.059724  1
  Ca  Ca3  1  0.836078  0.178454  0.968205  1
  Cu  Cu4  1  0.384461  0.262086  0.619202  1
  Cu  Cu5  1  0.942324  0.438442  0.201792  1
  Cu  Cu6  1  0.053974  0.541440  0.826613  1
  Cu  Cu7  1  0.610804  0.717456  0.409237  1
  O  O8  1  0.158965  0.813776  0.512063  1
  O  O9  1  0.481312  0.396030  0.783094  1
  O  O10  1  0.514757  0.583764  0.245290  1
  O  O11  1  0.836591  0.165899  0.516247  1
  O  O12  1  0.262293  0.016542  0.854813  1
  O  O13  1  0.380597  0.299551  0.149752  1
  O  O14  1  0.733963  0.963744  0.173002  1
  O  O15  1  0.615877  0.680444  0.878579  1
