# generated using pymatgen
data_HoZn(FeO3)2
_symmetry_space_group_name_H-M   'P 1'
_cell_length_a   5.21053727
_cell_length_b   5.44679137
_cell_length_c   7.61979087
_cell_angle_alpha   90.00225752
_cell_angle_beta   89.99384119
_cell_angle_gamma   89.99682569
_symmetry_Int_Tables_number   1
_chemical_formula_structural   HoZn(FeO3)2
_chemical_formula_sum   'Ho2 Zn2 Fe4 O12'
_cell_volume   216.25506907
_cell_formula_units_Z   2
loop_
 _symmetry_equiv_pos_site_id
 _symmetry_equiv_pos_as_xyz
  1  'x, y, z'
loop_
 _atom_site_type_symbol
 _atom_site_label
 _atom_site_symmetry_multiplicity
 _atom_site_fract_x
 _atom_site_fract_y
 _atom_site_fract_z
 _atom_site_occupancy
  Ho  Ho0  1  0.016981  0.932052  0.750239  1
  Ho  Ho1  1  0.517031  0.567965  0.250192  1
  Zn  Zn2  1  0.490942  0.462142  0.750203  1
  Zn  Zn3  1  0.990919  0.037918  0.250215  1
  Fe  Fe4  1  0.000986  0.487856  0.000182  1
  Fe  Fe5  1  0.001304  0.487867  0.499730  1
  Fe  Fe6  1  0.500970  0.012138  0.500189  1
  Fe  Fe7  1  0.501259  0.012101  0.999786  1
  O  O8  1  0.107891  0.449264  0.249811  1
  O  O9  1  0.195324  0.195055  0.938502  1
  O  O10  1  0.195269  0.194816  0.561360  1
  O  O11  1  0.309249  0.688607  0.939278  1
  O  O12  1  0.310160  0.689304  0.560464  1
  O  O13  1  0.371897  0.963735  0.250299  1
  O  O14  1  0.607842  0.050727  0.749788  1
  O  O15  1  0.695341  0.304915  0.438427  1
  O  O16  1  0.695314  0.305181  0.061332  1
  O  O17  1  0.810164  0.810712  0.060482  1
  O  O18  1  0.809240  0.811373  0.439261  1
  O  O19  1  0.871915  0.536272  0.750258  1
