# generated using pymatgen
data_BaMo4O7
_symmetry_space_group_name_H-M   'P 1'
_cell_length_a   6.81640334
_cell_length_b   6.81640364
_cell_length_c   11.30111737
_cell_angle_alpha   90.00000000
_cell_angle_beta   90.00000000
_cell_angle_gamma   120.00000788
_symmetry_Int_Tables_number   1
_chemical_formula_structural   BaMo4O7
_chemical_formula_sum   'Ba2 Mo8 O14'
_cell_volume   454.73937737
_cell_formula_units_Z   2
loop_
 _symmetry_equiv_pos_site_id
 _symmetry_equiv_pos_as_xyz
  1  'x, y, z'
loop_
 _atom_site_type_symbol
 _atom_site_label
 _atom_site_symmetry_multiplicity
 _atom_site_fract_x
 _atom_site_fract_y
 _atom_site_fract_z
 _atom_site_occupancy
  Ba  Ba0  1  0.666667  0.333333  0.460462  1
  Ba  Ba1  1  0.333333  0.666667  0.960462  1
  Mo  Mo2  1  0.812860  0.187141  0.183311  1
  Mo  Mo3  1  0.625717  0.812859  0.683312  1
  Mo  Mo4  1  0.187141  0.374283  0.683312  1
  Mo  Mo5  1  0.812860  0.625717  0.183311  1
  Mo  Mo6  1  0.374282  0.187141  0.183311  1
  Mo  Mo7  1  0.187141  0.812859  0.683312  1
  Mo  Mo8  1  -0.000000  -0.000000  0.423140  1
  Mo  Mo9  1  -0.000000  -0.000000  0.923140  1
  O  O10  1  0.858236  0.141765  0.011383  1
  O  O11  1  0.716471  0.858235  0.511382  1
  O  O12  1  0.141764  0.283528  0.511382  1
  O  O13  1  0.858237  0.716472  0.011383  1
  O  O14  1  0.283528  0.141765  0.011383  1
  O  O15  1  0.141764  0.858235  0.511382  1
  O  O16  1  -0.000000  -0.000000  0.745225  1
  O  O17  1  -0.000000  -0.000000  0.245226  1
  O  O18  1  0.524497  0.475505  0.280381  1
  O  O19  1  0.048992  0.524497  0.780381  1
  O  O20  1  0.475504  0.951008  0.780381  1
  O  O21  1  0.524497  0.048992  0.280381  1
  O  O22  1  0.475505  0.524497  0.780381  1
  O  O23  1  0.951008  0.475505  0.280381  1
