# generated using pymatgen
data_Al4(BiSe4)3
_symmetry_space_group_name_H-M   'P 1'
_cell_length_a   7.73923236
_cell_length_b   7.73923236
_cell_length_c   38.72399367
_cell_angle_alpha   90.00000000
_cell_angle_beta   90.00000000
_cell_angle_gamma   90.55846745
_symmetry_Int_Tables_number   1
_chemical_formula_structural   Al4(BiSe4)3
_chemical_formula_sum   'Al16 Bi12 Se48'
_cell_volume   2319.29120801
_cell_formula_units_Z   4
loop_
 _symmetry_equiv_pos_site_id
 _symmetry_equiv_pos_as_xyz
  1  'x, y, z'
loop_
 _atom_site_type_symbol
 _atom_site_label
 _atom_site_symmetry_multiplicity
 _atom_site_fract_x
 _atom_site_fract_y
 _atom_site_fract_z
 _atom_site_occupancy
  Al  Al0  1  0.250000  0.750000  0.993292  1
  Al  Al1  1  0.250000  0.750000  0.664598  1
  Al  Al2  1  0.250000  0.750000  0.413489  1
  Al  Al3  1  0.250000  0.750000  0.744582  1
  Al  Al4  1  0.250000  0.750000  0.164598  1
  Al  Al5  1  0.250000  0.750000  0.493292  1
  Al  Al6  1  0.750000  0.250000  0.255418  1
  Al  Al7  1  0.750000  0.250000  0.586511  1
  Al  Al8  1  0.750000  0.250000  0.506708  1
  Al  Al9  1  0.750000  0.250000  0.835402  1
  Al  Al10  1  0.750000  0.250000  0.006708  1
  Al  Al11  1  0.750000  0.250000  0.335402  1
  Al  Al12  1  0.250000  0.750000  0.244582  1
  Al  Al13  1  0.250000  0.750000  0.913489  1
  Al  Al14  1  0.750000  0.250000  0.086511  1
  Al  Al15  1  0.750000  0.250000  0.755418  1
  Bi  Bi16  1  0.250000  0.250000  0.042497  1
  Bi  Bi17  1  0.250000  0.250000  0.376133  1
  Bi  Bi18  1  0.250000  0.250000  0.708679  1
  Bi  Bi19  1  0.750000  0.750000  0.291321  1
  Bi  Bi20  1  0.750000  0.750000  0.623867  1
  Bi  Bi21  1  0.750000  0.750000  0.957503  1
  Bi  Bi22  1  0.750000  0.750000  0.208679  1
  Bi  Bi23  1  0.750000  0.750000  0.542497  1
  Bi  Bi24  1  0.750000  0.750000  0.876133  1
  Bi  Bi25  1  0.250000  0.250000  0.123867  1
  Bi  Bi26  1  0.250000  0.250000  0.457503  1
  Bi  Bi27  1  0.250000  0.250000  0.791321  1
  Se  Se28  1  0.589781  0.429499  0.044971  1
  Se  Se29  1  0.596506  0.419784  0.375342  1
  Se  Se30  1  0.572205  0.458939  0.722902  1
  Se  Se31  1  0.541061  0.427795  0.222902  1
  Se  Se32  1  0.570501  0.410219  0.544971  1
  Se  Se33  1  0.580216  0.403494  0.875342  1
  Se  Se34  1  0.085593  0.570507  0.206362  1
  Se  Se35  1  0.069448  0.544116  0.526935  1
  Se  Se36  1  0.089685  0.579296  0.874293  1
  Se  Se37  1  0.910219  0.070501  0.044971  1
  Se  Se38  1  0.903494  0.080216  0.375342  1
  Se  Se39  1  0.927795  0.041061  0.722902  1
  Se  Se40  1  0.570507  0.085593  0.293638  1
  Se  Se41  1  0.579296  0.089685  0.625707  1
  Se  Se42  1  0.544116  0.069448  0.973065  1
  Se  Se43  1  0.419784  0.596506  0.124658  1
  Se  Se44  1  0.429499  0.589781  0.455029  1
  Se  Se45  1  0.458939  0.572205  0.777098  1
  Se  Se46  1  0.589685  0.079296  0.125707  1
  Se  Se47  1  0.569448  0.044116  0.473065  1
  Se  Se48  1  0.585593  0.070507  0.793638  1
  Se  Se49  1  0.044116  0.569448  0.026935  1
  Se  Se50  1  0.079296  0.589685  0.374293  1
  Se  Se51  1  0.070507  0.585593  0.706362  1
  Se  Se52  1  0.080216  0.903494  0.124658  1
  Se  Se53  1  0.070501  0.910219  0.455029  1
  Se  Se54  1  0.041061  0.927795  0.777098  1
  Se  Se55  1  0.929493  0.414407  0.293638  1
  Se  Se56  1  0.920704  0.410315  0.625707  1
  Se  Se57  1  0.955884  0.430552  0.973065  1
  Se  Se58  1  0.455884  0.930552  0.026935  1
  Se  Se59  1  0.420704  0.910315  0.374293  1
  Se  Se60  1  0.429493  0.914407  0.706362  1
  Se  Se61  1  0.958939  0.072205  0.222902  1
  Se  Se62  1  0.929499  0.089781  0.544971  1
  Se  Se63  1  0.919784  0.096506  0.875342  1
  Se  Se64  1  0.414407  0.929493  0.206362  1
  Se  Se65  1  0.430552  0.955884  0.526935  1
  Se  Se66  1  0.410315  0.920704  0.874293  1
  Se  Se67  1  0.072205  0.958939  0.277098  1
  Se  Se68  1  0.096506  0.919784  0.624658  1
  Se  Se69  1  0.089781  0.929499  0.955029  1
  Se  Se70  1  0.427795  0.541061  0.277098  1
  Se  Se71  1  0.403494  0.580216  0.624658  1
  Se  Se72  1  0.410219  0.570501  0.955029  1
  Se  Se73  1  0.910315  0.420704  0.125707  1
  Se  Se74  1  0.930552  0.455884  0.473065  1
  Se  Se75  1  0.914407  0.429493  0.793638  1
