# generated using pymatgen
data_Al10(Bi2O9)3
_symmetry_space_group_name_H-M   'P 1'
_cell_length_a   5.79338125
_cell_length_b   22.86532203
_cell_length_c   8.49675859
_cell_angle_alpha   90.00620681
_cell_angle_beta   90.00002138
_cell_angle_gamma   90.00000252
_symmetry_Int_Tables_number   1
_chemical_formula_structural   Al10(Bi2O9)3
_chemical_formula_sum   'Al20 Bi12 O54'
_cell_volume   1125.54459968
_cell_formula_units_Z   2
loop_
 _symmetry_equiv_pos_site_id
 _symmetry_equiv_pos_as_xyz
  1  'x, y, z'
loop_
 _atom_site_type_symbol
 _atom_site_label
 _atom_site_symmetry_multiplicity
 _atom_site_fract_x
 _atom_site_fract_y
 _atom_site_fract_z
 _atom_site_occupancy
  Al  Al0  1  0.500000  0.052307  0.819214  1
  Al  Al1  1  0.500000  0.382003  0.838607  1
  Al  Al2  1  0.500000  0.284638  0.161511  1
  Al  Al3  1  0.500000  0.614351  0.180650  1
  Al  Al4  1  0.500000  0.552296  0.680632  1
  Al  Al5  1  0.500000  0.882088  0.661380  1
  Al  Al6  1  0.500000  0.114327  0.319042  1
  Al  Al7  1  0.500000  0.784625  0.338719  1
  Al  Al8  1  0.256038  0.002104  0.505032  1
  Al  Al9  1  0.248589  0.333354  0.500005  1
  Al  Al10  1  0.256038  0.664535  0.494995  1
  Al  Al11  1  0.743929  0.164540  0.004962  1
  Al  Al12  1  0.743953  0.502141  0.995046  1
  Al  Al13  1  0.752435  0.833322  -0.000009  1
  Al  Al14  1  0.743962  0.002104  0.505032  1
  Al  Al15  1  0.751411  0.333354  0.500005  1
  Al  Al16  1  0.743962  0.664535  0.494995  1
  Al  Al17  1  0.256071  0.164540  0.004962  1
  Al  Al18  1  0.256047  0.502141  0.995046  1
  Al  Al19  1  0.247565  0.833322  -0.000009  1
  Bi  Bi20  1  0.000000  0.117972  0.677219  1
  Bi  Bi21  1  0.000000  0.445638  0.670369  1
  Bi  Bi22  1  -0.000000  0.776020  0.672692  1
  Bi  Bi23  1  0.000000  0.221025  0.329626  1
  Bi  Bi24  1  1.000000  0.548670  0.322653  1
  Bi  Bi25  1  1.000000  0.890553  0.327206  1
  Bi  Bi26  1  0.000000  0.276054  0.827213  1
  Bi  Bi27  1  0.000000  0.618023  0.822726  1
  Bi  Bi28  1  1.000000  0.945612  0.829691  1
  Bi  Bi29  1  0.000000  0.048647  0.177166  1
  Bi  Bi30  1  1.000000  0.390719  0.172704  1
  Bi  Bi31  1  1.000000  0.721073  0.170275  1
  O  O32  1  1.000000  0.113246  0.938103  1
  O  O33  1  0.000000  0.452682  0.926036  1
  O  O34  1  0.000000  0.784427  0.933265  1
  O  O35  1  -0.000001  0.214026  0.073965  1
  O  O36  1  0.000000  0.553454  0.061796  1
  O  O37  1  0.000001  0.882180  0.066725  1
  O  O38  1  1.000000  0.284474  0.566767  1
  O  O39  1  -0.000000  0.613253  0.561726  1
  O  O40  1  0.000000  0.952609  0.573944  1
  O  O41  1  0.000000  0.053378  0.438216  1
  O  O42  1  -0.000000  0.382277  0.433254  1
  O  O43  1  0.000001  0.714026  0.426058  1
  O  O44  1  0.500000  0.119354  0.921501  1
  O  O45  1  0.500000  0.454342  0.917567  1
  O  O46  1  0.500000  0.791344  0.930528  1
  O  O47  1  0.500000  0.212363  0.082379  1
  O  O48  1  0.500000  0.547413  0.078468  1
  O  O49  1  0.500001  0.875379  0.069531  1
  O  O50  1  0.500000  0.291393  0.569473  1
  O  O51  1  0.500000  0.619280  0.578471  1
  O  O52  1  0.500000  0.954181  0.582432  1
  O  O53  1  0.500000  0.047316  0.421440  1
  O  O54  1  0.500001  0.375257  0.430527  1
  O  O55  1  0.500000  0.712411  0.417520  1
  O  O56  1  0.252222  0.291709  0.292537  1
  O  O57  1  0.249682  0.622366  0.299815  1
  O  O58  1  0.221100  0.965527  0.304109  1
  O  O59  1  0.249852  0.044310  0.700260  1
  O  O60  1  0.252196  0.374955  0.707536  1
  O  O61  1  0.221362  0.701122  0.695825  1
  O  O62  1  0.749921  0.122320  0.200304  1
  O  O63  1  0.778535  0.465550  0.195755  1
  O  O64  1  0.747886  0.791713  0.207400  1
  O  O65  1  0.778816  0.201148  0.804217  1
  O  O66  1  0.750207  0.544317  0.799806  1
  O  O67  1  0.747862  0.874969  0.792668  1
  O  O68  1  0.500001  0.004686  0.983311  1
  O  O69  1  0.500000  0.333358  -0.000062  1
  O  O70  1  0.499999  0.662046  0.016921  1
  O  O71  1  0.499999  0.161894  0.483298  1
  O  O72  1  0.500000  0.504680  0.517099  1
  O  O73  1  0.500000  0.833297  0.499920  1
  O  O74  1  0.250079  0.122320  0.200305  1
  O  O75  1  0.221465  0.465550  0.195755  1
  O  O76  1  0.252114  0.791713  0.207400  1
  O  O77  1  0.221183  0.201148  0.804217  1
  O  O78  1  0.249793  0.544317  0.799806  1
  O  O79  1  0.252139  0.874969  0.792668  1
  O  O80  1  0.747778  0.291709  0.292537  1
  O  O81  1  0.750318  0.622366  0.299815  1
  O  O82  1  0.778900  0.965527  0.304109  1
  O  O83  1  0.750148  0.044310  0.700260  1
  O  O84  1  0.747804  0.374955  0.707536  1
  O  O85  1  0.778638  0.701121  0.695825  1
