# generated using pymatgen
data_PrZn(SbO3)2
_symmetry_space_group_name_H-M   'P 1'
_cell_length_a   5.68182953
_cell_length_b   6.37227042
_cell_length_c   8.19735630
_cell_angle_alpha   90.03141381
_cell_angle_beta   90.00203910
_cell_angle_gamma   89.97021818
_symmetry_Int_Tables_number   1
_chemical_formula_structural   PrZn(SbO3)2
_chemical_formula_sum   'Pr2 Zn2 Sb4 O12'
_cell_volume   296.79466159
_cell_formula_units_Z   2
loop_
 _symmetry_equiv_pos_site_id
 _symmetry_equiv_pos_as_xyz
  1  'x, y, z'
loop_
 _atom_site_type_symbol
 _atom_site_label
 _atom_site_symmetry_multiplicity
 _atom_site_fract_x
 _atom_site_fract_y
 _atom_site_fract_z
 _atom_site_occupancy
  Pr  Pr0  1  0.031399  0.907857  0.750275  1
  Pr  Pr1  1  0.531369  0.591388  0.249779  1
  Zn  Zn2  1  0.518311  0.594116  0.750020  1
  Zn  Zn3  1  0.018159  0.906056  0.249993  1
  Sb  Sb4  1  0.015444  0.456629  0.995366  1
  Sb  Sb5  1  0.015800  0.456342  0.504509  1
  Sb  Sb6  1  0.515309  0.043653  0.495487  1
  Sb  Sb7  1  0.515223  0.043534  0.004701  1
  O  O8  1  0.135240  0.478450  0.250509  1
  O  O9  1  0.163011  0.179447  0.936127  1
  O  O10  1  0.164748  0.178850  0.563614  1
  O  O11  1  0.302230  0.666651  0.568966  1
  O  O12  1  0.302471  0.666008  0.930953  1
  O  O13  1  0.355007  0.953142  0.250899  1
  O  O14  1  0.633253  0.021650  0.748953  1
  O  O15  1  0.662050  0.319993  0.064225  1
  O  O16  1  0.662659  0.319722  0.435994  1
  O  O17  1  0.802658  0.834161  0.069117  1
  O  O18  1  0.801392  0.834418  0.430960  1
  O  O19  1  0.854264  0.547935  0.749552  1
