# generated using pymatgen
data_ZnFe3(P2O7)2
_symmetry_space_group_name_H-M   'P 1'
_cell_length_a   7.26040354
_cell_length_b   7.76016789
_cell_length_c   9.59524677
_cell_angle_alpha   90.00000000
_cell_angle_beta   110.66384801
_cell_angle_gamma   90.00000000
_symmetry_Int_Tables_number   1
_chemical_formula_structural   ZnFe3(P2O7)2
_chemical_formula_sum   'Zn2 Fe6 P8 O28'
_cell_volume   505.83547152
_cell_formula_units_Z   2
loop_
 _symmetry_equiv_pos_site_id
 _symmetry_equiv_pos_as_xyz
  1  'x, y, z'
loop_
 _atom_site_type_symbol
 _atom_site_label
 _atom_site_symmetry_multiplicity
 _atom_site_fract_x
 _atom_site_fract_y
 _atom_site_fract_z
 _atom_site_occupancy
  Zn  Zn0  1  0.500000  -0.000000  -0.000000  1
  Zn  Zn1  1  0.500000  0.500000  0.500000  1
  Fe  Fe2  1  0.185341  0.869566  0.514325  1
  Fe  Fe3  1  0.814659  0.369566  0.985675  1
  Fe  Fe4  1  0.814659  0.130434  0.485675  1
  Fe  Fe5  1  0.185341  0.630434  0.014325  1
  Fe  Fe6  1  0.000000  -0.000000  -0.000000  1
  Fe  Fe7  1  0.000000  0.500000  0.500000  1
  P  P8  1  0.578984  0.068367  0.706921  1
  P  P9  1  0.421016  0.568367  0.793079  1
  P  P10  1  0.421016  0.931633  0.293079  1
  P  P11  1  0.578984  0.431633  0.206921  1
  P  P12  1  0.863708  0.794066  0.688902  1
  P  P13  1  0.136292  0.294066  0.811098  1
  P  P14  1  0.136292  0.205934  0.311098  1
  P  P15  1  0.863708  0.705934  0.188902  1
  O  O16  1  0.806549  0.621042  0.607329  1
  O  O17  1  0.193451  0.121042  0.892671  1
  O  O18  1  0.193451  0.378958  0.392671  1
  O  O19  1  0.806549  0.878958  0.107329  1
  O  O20  1  0.315698  0.600209  0.620166  1
  O  O21  1  0.684302  0.100209  0.879834  1
  O  O22  1  0.684302  0.399791  0.379834  1
  O  O23  1  0.315698  0.899791  0.120166  1
  O  O24  1  0.632311  0.205253  0.613102  1
  O  O25  1  0.367689  0.705253  0.886898  1
  O  O26  1  0.367689  0.794747  0.386898  1
  O  O27  1  0.632311  0.294747  0.113102  1
  O  O28  1  0.657659  0.883416  0.671965  1
  O  O29  1  0.342341  0.383416  0.828035  1
  O  O30  1  0.342341  0.116584  0.328035  1
  O  O31  1  0.657659  0.616584  0.171965  1
  O  O32  1  0.363605  0.469124  0.173769  1
  O  O33  1  0.636395  0.969124  0.326231  1
  O  O34  1  0.636395  0.530876  0.826231  1
  O  O35  1  0.363605  0.030876  0.673769  1
  O  O36  1  0.026229  0.211247  0.140552  1
  O  O37  1  0.973771  0.711247  0.359448  1
  O  O38  1  0.973771  0.788753  0.859448  1
  O  O39  1  0.026229  0.288753  0.640552  1
  O  O40  1  0.968395  0.588270  0.112770  1
  O  O41  1  0.031605  0.088270  0.387230  1
  O  O42  1  0.031605  0.411730  0.887230  1
  O  O43  1  0.968395  0.911730  0.612770  1
