# generated using pymatgen
data_Al2V2O7
_symmetry_space_group_name_H-M   'P 1'
_cell_length_a   6.73837935
_cell_length_b   6.73783808
_cell_length_c   6.73939107
_cell_angle_alpha   60.02031332
_cell_angle_beta   60.02276782
_cell_angle_gamma   60.01521947
_symmetry_Int_Tables_number   1
_chemical_formula_structural   Al2V2O7
_chemical_formula_sum   'Al4 V4 O14'
_cell_volume   216.45766582
_cell_formula_units_Z   2
loop_
 _symmetry_equiv_pos_site_id
 _symmetry_equiv_pos_as_xyz
  1  'x, y, z'
loop_
 _atom_site_type_symbol
 _atom_site_label
 _atom_site_symmetry_multiplicity
 _atom_site_fract_x
 _atom_site_fract_y
 _atom_site_fract_z
 _atom_site_occupancy
  Al  Al0  1  0.500000  0.000000  0.500001  1
  Al  Al1  1  0.999999  0.500000  0.500001  1
  Al  Al2  1  0.500000  0.500001  0.000001  1
  Al  Al3  1  0.500000  0.500000  0.500000  1
  V  V4  1  -0.000001  0.500005  0.999994  1
  V  V5  1  0.500004  -0.000007  0.999998  1
  V  V6  1  0.000000  0.999995  0.499998  1
  V  V7  1  0.000002  0.000001  0.999997  1
  O  O8  1  0.625005  0.624991  0.625036  1
  O  O9  1  0.374993  0.375009  0.374966  1
  O  O10  1  0.347873  0.902050  0.902155  1
  O  O11  1  0.097884  0.652034  0.652079  1
  O  O12  1  0.902089  0.347862  0.902151  1
  O  O13  1  0.902098  0.902061  0.347880  1
  O  O14  1  0.347914  0.347930  0.902168  1
  O  O15  1  0.347978  0.902077  0.347948  1
  O  O16  1  0.902115  0.347966  0.347922  1
  O  O17  1  0.652086  0.652072  0.097832  1
  O  O18  1  0.097899  0.097940  0.652121  1
  O  O19  1  0.652126  0.097951  0.097847  1
  O  O20  1  0.652022  0.097922  0.652055  1
  O  O21  1  0.097912  0.652136  0.097850  1
