# generated using pymatgen
data_Si2MoO7
_symmetry_space_group_name_H-M   'P 1'
_cell_length_a   7.94529194
_cell_length_b   10.14423360
_cell_length_c   9.49773433
_cell_angle_alpha   64.17071311
_cell_angle_beta   65.27439772
_cell_angle_gamma   66.94489635
_symmetry_Int_Tables_number   1
_chemical_formula_structural   Si2MoO7
_chemical_formula_sum   'Si8 Mo4 O28'
_cell_volume   604.98888326
_cell_formula_units_Z   4
loop_
 _symmetry_equiv_pos_site_id
 _symmetry_equiv_pos_as_xyz
  1  'x, y, z'
loop_
 _atom_site_type_symbol
 _atom_site_label
 _atom_site_symmetry_multiplicity
 _atom_site_fract_x
 _atom_site_fract_y
 _atom_site_fract_z
 _atom_site_occupancy
  Si  Si0  1  0.468079  0.338498  0.326575  1
  Si  Si1  1  0.866847  0.838498  0.826575  1
  Si  Si2  1  0.461525  0.892968  0.834546  1
  Si  Si3  1  0.810963  0.392968  0.334546  1
  Si  Si4  1  0.133153  0.161502  0.173425  1
  Si  Si5  1  0.538475  0.107032  0.165454  1
  Si  Si6  1  0.189037  0.607032  0.665454  1
  Si  Si7  1  0.531921  0.661502  0.673425  1
  Mo  Mo8  1  0.211953  0.250000  0.750000  1
  Mo  Mo9  1  0.788047  0.750000  0.250000  1
  Mo  Mo10  1  0.000000  0.000000  0.000000  1
  Mo  Mo11  1  0.000000  0.500000  0.500000  1
  O  O12  1  0.114247  0.627918  0.516879  1
  O  O13  1  0.042141  0.603583  0.276242  1
  O  O14  1  0.570532  0.918149  0.251112  1
  O  O15  1  0.078035  0.103583  0.776242  1
  O  O16  1  0.738752  0.659724  0.507986  1
  O  O17  1  0.987993  0.322427  0.200092  1
  O  O18  1  0.260207  0.418149  0.751112  1
  O  O19  1  0.906462  0.840276  0.992014  1
  O  O20  1  0.012007  0.677573  0.799908  1
  O  O21  1  0.371352  0.676778  0.595722  1
  O  O22  1  0.957859  0.396417  0.723758  1
  O  O23  1  0.261248  0.340276  0.492014  1
  O  O24  1  0.510514  0.177573  0.299908  1
  O  O25  1  0.740956  0.127918  0.016879  1
  O  O26  1  0.356147  0.176778  0.095722  1
  O  O27  1  0.093538  0.159724  0.007986  1
  O  O28  1  0.103254  0.011168  0.326139  1
  O  O29  1  0.628648  0.323222  0.404278  1
  O  O30  1  0.440560  0.488832  0.173861  1
  O  O31  1  0.643853  0.823222  0.904278  1
  O  O32  1  0.489486  0.822427  0.700092  1
  O  O33  1  0.921965  0.896417  0.223758  1
  O  O34  1  0.559440  0.511168  0.826139  1
  O  O35  1  0.429468  0.081851  0.748888  1
  O  O36  1  0.896746  0.988832  0.673861  1
  O  O37  1  0.739793  0.581851  0.248888  1
  O  O38  1  0.259044  0.872082  0.983121  1
  O  O39  1  0.885753  0.372082  0.483121  1
