# generated using pymatgen
data_ZnCo2O5
_symmetry_space_group_name_H-M   'P 1'
_cell_length_a   3.58035406
_cell_length_b   5.36279723
_cell_length_c   11.45988914
_cell_angle_alpha   90.00000000
_cell_angle_beta   90.00000000
_cell_angle_gamma   109.50043013
_symmetry_Int_Tables_number   1
_chemical_formula_structural   ZnCo2O5
_chemical_formula_sum   'Zn2 Co4 O10'
_cell_volume   207.41643526
_cell_formula_units_Z   2
loop_
 _symmetry_equiv_pos_site_id
 _symmetry_equiv_pos_as_xyz
  1  'x, y, z'
loop_
 _atom_site_type_symbol
 _atom_site_label
 _atom_site_symmetry_multiplicity
 _atom_site_fract_x
 _atom_site_fract_y
 _atom_site_fract_z
 _atom_site_occupancy
  Zn  Zn0  1  0.902286  0.804570  0.750000  1
  Zn  Zn1  1  0.097715  0.195431  0.250000  1
  Co  Co2  1  0.207599  0.415199  0.599375  1
  Co  Co3  1  0.792402  0.584802  0.400625  1
  Co  Co4  1  0.792402  0.584802  0.099375  1
  Co  Co5  1  0.207599  0.415199  0.900625  1
  O  O6  1  0.699600  0.399200  0.250000  1
  O  O7  1  0.300401  0.600801  0.750000  1
  O  O8  1  0.233612  0.467222  0.077284  1
  O  O9  1  0.766390  0.532779  0.922716  1
  O  O10  1  0.766390  0.532779  0.577284  1
  O  O11  1  0.233612  0.467222  0.422715  1
  O  O12  1  0.043775  0.087549  0.630447  1
  O  O13  1  0.956225  0.912450  0.369553  1
  O  O14  1  0.043775  0.087549  0.869553  1
  O  O15  1  0.956225  0.912450  0.130448  1
