# generated using pymatgen
data_Ba2V3O7
_symmetry_space_group_name_H-M   'P 1'
_cell_length_a   3.90073109
_cell_length_b   3.89435849
_cell_length_c   12.50106098
_cell_angle_alpha   90.21857317
_cell_angle_beta   88.57272663
_cell_angle_gamma   90.19349361
_symmetry_Int_Tables_number   1
_chemical_formula_structural   Ba2V3O7
_chemical_formula_sum   'Ba2 V3 O7'
_cell_volume   189.84036050
_cell_formula_units_Z   1
loop_
 _symmetry_equiv_pos_site_id
 _symmetry_equiv_pos_as_xyz
  1  'x, y, z'
loop_
 _atom_site_type_symbol
 _atom_site_label
 _atom_site_symmetry_multiplicity
 _atom_site_fract_x
 _atom_site_fract_y
 _atom_site_fract_z
 _atom_site_occupancy
  Ba  Ba0  1  0.492283  0.497884  0.809160  1
  Ba  Ba1  1  0.513558  0.501997  0.200872  1
  V  V2  1  0.003792  0.995204  0.662461  1
  V  V3  1  0.000470  0.003842  0.373184  1
  V  V4  1  0.985539  -0.000147  0.987119  1
  O  O5  1  0.960183  0.500378  0.978221  1
  O  O6  1  0.502908  -0.003026  0.658013  1
  O  O7  1  0.501976  0.004214  0.351023  1
  O  O8  1  0.002268  0.496372  0.655674  1
  O  O9  1  0.000612  0.502756  0.356564  1
  O  O10  1  -0.008443  -0.001665  0.826567  1
  O  O11  1  0.025809  0.002275  0.130480  1
