# generated using pymatgen
data_MgMoF5
_symmetry_space_group_name_H-M   'P 1'
_cell_length_a   5.30027831
_cell_length_b   7.87063712
_cell_length_c   10.25154676
_cell_angle_alpha   90.00004571
_cell_angle_beta   89.99997635
_cell_angle_gamma   108.33860584
_symmetry_Int_Tables_number   1
_chemical_formula_structural   MgMoF5
_chemical_formula_sum   'Mg4 Mo4 F20'
_cell_volume   405.94010179
_cell_formula_units_Z   4
loop_
 _symmetry_equiv_pos_site_id
 _symmetry_equiv_pos_as_xyz
  1  'x, y, z'
loop_
 _atom_site_type_symbol
 _atom_site_label
 _atom_site_symmetry_multiplicity
 _atom_site_fract_x
 _atom_site_fract_y
 _atom_site_fract_z
 _atom_site_occupancy
  Mg  Mg0  1  0.490696  0.784604  0.001919  1
  Mg  Mg1  1  0.509306  0.715394  0.501919  1
  Mg  Mg2  1  0.509304  0.215396  0.998081  1
  Mg  Mg3  1  0.490694  0.284606  0.498081  1
  Mo  Mo4  1  0.905450  0.621823  0.757513  1
  Mo  Mo5  1  0.094550  0.878177  0.257513  1
  Mo  Mo6  1  0.094550  0.378177  0.242487  1
  Mo  Mo7  1  0.905450  0.121823  0.742487  1
  F  F8  1  0.601558  0.614228  0.890871  1
  F  F9  1  0.398442  0.885772  0.390871  1
  F  F10  1  0.398442  0.385772  0.109129  1
  F  F11  1  0.601558  0.114228  0.609129  1
  F  F12  1  0.645365  0.511863  0.600836  1
  F  F13  1  0.354636  0.988137  0.100836  1
  F  F14  1  0.354635  0.488137  0.399164  1
  F  F15  1  0.645364  0.011863  0.899164  1
  F  F16  1  0.843059  0.773171  0.410766  1
  F  F17  1  0.156941  0.726829  0.910766  1
  F  F18  1  0.156941  0.226829  0.589234  1
  F  F19  1  0.843059  0.273171  0.089234  1
  F  F20  1  0.765793  0.839134  0.133552  1
  F  F21  1  0.234208  0.660866  0.633552  1
  F  F22  1  0.234207  0.160866  0.866448  1
  F  F23  1  0.765792  0.339134  0.366448  1
  F  F24  1  0.858093  0.858253  0.674959  1
  F  F25  1  0.141907  0.641747  0.174959  1
  F  F26  1  0.141907  0.141747  0.325041  1
  F  F27  1  0.858093  0.358253  0.825041  1
