# generated using pymatgen
data_Zn2Mo2O5
_symmetry_space_group_name_H-M   'P 1'
_cell_length_a   3.38613961
_cell_length_b   5.17007581
_cell_length_c   14.91899445
_cell_angle_alpha   89.98586132
_cell_angle_beta   90.00003657
_cell_angle_gamma   90.00051577
_symmetry_Int_Tables_number   1
_chemical_formula_structural   Zn2Mo2O5
_chemical_formula_sum   'Zn4 Mo4 O10'
_cell_volume   261.18083769
_cell_formula_units_Z   2
loop_
 _symmetry_equiv_pos_site_id
 _symmetry_equiv_pos_as_xyz
  1  'x, y, z'
loop_
 _atom_site_type_symbol
 _atom_site_label
 _atom_site_symmetry_multiplicity
 _atom_site_fract_x
 _atom_site_fract_y
 _atom_site_fract_z
 _atom_site_occupancy
  Zn  Zn0  1  0.500020  0.235577  0.813828  1
  Zn  Zn1  1  0.499996  0.768666  0.196458  1
  Zn  Zn2  1  0.499996  0.731092  0.696229  1
  Zn  Zn3  1  0.499986  0.264445  0.314431  1
  Mo  Mo4  1  0.999994  0.236825  0.596597  1
  Mo  Mo5  1  -0.000011  0.759174  0.407290  1
  Mo  Mo6  1  0.000003  0.262686  0.096921  1
  Mo  Mo7  1  0.000017  0.741750  0.906913  1
  O  O8  1  -0.000023  0.448202  0.498178  1
  O  O9  1  -0.000015  0.105853  0.337725  1
  O  O10  1  -0.000005  0.627050  0.148962  1
  O  O11  1  0.000022  0.394477  0.837577  1
  O  O12  1  0.500002  0.168692  0.173227  1
  O  O13  1  0.500017  0.851762  0.827752  1
  O  O14  1  0.999997  0.872451  0.648658  1
  O  O15  1  0.499998  0.331329  0.673035  1
  O  O16  1  0.000023  0.051920  0.998081  1
  O  O17  1  0.499991  0.648047  0.328139  1
