# generated using pymatgen
data_V2ZnO4
_symmetry_space_group_name_H-M   'P 1'
_cell_length_a   2.92197745
_cell_length_b   7.33651456
_cell_length_c   7.56980400
_cell_angle_alpha   80.59929879
_cell_angle_beta   78.87627022
_cell_angle_gamma   78.50888765
_symmetry_Int_Tables_number   1
_chemical_formula_structural   V2ZnO4
_chemical_formula_sum   'V4 Zn2 O8'
_cell_volume   154.71255689
_cell_formula_units_Z   2
loop_
 _symmetry_equiv_pos_site_id
 _symmetry_equiv_pos_as_xyz
  1  'x, y, z'
loop_
 _atom_site_type_symbol
 _atom_site_label
 _atom_site_symmetry_multiplicity
 _atom_site_fract_x
 _atom_site_fract_y
 _atom_site_fract_z
 _atom_site_occupancy
  V  V0  1  0.637645  0.172402  0.552516  1
  V  V1  1  0.149364  0.498635  0.202764  1
  V  V2  1  0.847742  0.477376  0.827272  1
  V  V3  1  0.357999  0.804382  0.479864  1
  Zn  Zn4  1  0.380603  0.101904  0.136326  1
  Zn  Zn5  1  0.612943  0.871437  0.902647  1
  O  O6  1  0.852679  0.674179  0.620654  1
  O  O7  1  0.464270  0.329769  0.741909  1
  O  O8  1  0.532122  0.647395  0.288429  1
  O  O9  1  0.142695  0.303566  0.411301  1
  O  O10  1  0.166652  0.997265  0.669703  1
  O  O11  1  0.788772  0.336454  0.086248  1
  O  O12  1  0.829412  0.981941  0.359456  1
  O  O13  1  0.205378  0.642630  0.946532  1
