# generated using pymatgen
data_Ca(TiS2)2
_symmetry_space_group_name_H-M   'P 1'
_cell_length_a   7.57230643
_cell_length_b   7.57230672
_cell_length_c   7.56058067
_cell_angle_alpha   119.44505026
_cell_angle_beta   121.60871718
_cell_angle_gamma   89.19031636
_symmetry_Int_Tables_number   1
_chemical_formula_structural   Ca(TiS2)2
_chemical_formula_sum   'Ca2 Ti4 S8'
_cell_volume   303.69029888
_cell_formula_units_Z   2
loop_
 _symmetry_equiv_pos_site_id
 _symmetry_equiv_pos_as_xyz
  1  'x, y, z'
loop_
 _atom_site_type_symbol
 _atom_site_label
 _atom_site_symmetry_multiplicity
 _atom_site_fract_x
 _atom_site_fract_y
 _atom_site_fract_z
 _atom_site_occupancy
  Ca  Ca0  1  0.000000  0.500001  0.000001  1
  Ca  Ca1  1  0.000001  0.000000  0.500000  1
  Ti  Ti2  1  0.375330  0.625330  0.750000  1
  Ti  Ti3  1  0.624670  0.374671  0.250000  1
  Ti  Ti4  1  0.500001  0.000000  0.500000  1
  Ti  Ti5  1  0.000000  0.000000  0.000000  1
  S  S6  1  0.741890  0.760081  0.518606  1
  S  S7  1  0.741476  0.223286  0.981396  1
  S  S8  1  0.250940  0.232748  0.017807  1
  S  S9  1  0.258110  0.239919  0.481395  1
  S  S10  1  0.285059  0.766867  0.517806  1
  S  S11  1  0.258524  0.776715  0.018606  1
  S  S12  1  0.714940  0.233132  0.482193  1
  S  S13  1  0.749060  0.767253  0.982193  1
