# generated using pymatgen
data_Zn(SbO2)2
_symmetry_space_group_name_H-M   'P 1'
_cell_length_a   7.19021086
_cell_length_b   6.52311165
_cell_length_c   20.61529249
_cell_angle_alpha   62.73173482
_cell_angle_beta   60.72181259
_cell_angle_gamma   62.92870273
_symmetry_Int_Tables_number   1
_chemical_formula_structural   Zn(SbO2)2
_chemical_formula_sum   'Zn6 Sb12 O24'
_cell_volume   715.60946131
_cell_formula_units_Z   6
loop_
 _symmetry_equiv_pos_site_id
 _symmetry_equiv_pos_as_xyz
  1  'x, y, z'
loop_
 _atom_site_type_symbol
 _atom_site_label
 _atom_site_symmetry_multiplicity
 _atom_site_fract_x
 _atom_site_fract_y
 _atom_site_fract_z
 _atom_site_occupancy
  Zn  Zn0  1  0.128820  0.104129  0.083402  1
  Zn  Zn1  1  0.333583  0.545107  0.339881  1
  Zn  Zn2  1  0.040821  0.511218  0.165417  1
  Zn  Zn3  1  0.596267  0.378180  0.652050  1
  Zn  Zn4  1  -0.011635  0.447212  0.496494  1
  Zn  Zn5  1  0.078628  0.500997  0.792222  1
  Sb  Sb6  1  0.562043  0.954397  0.177000  1
  Sb  Sb7  1  0.071130  0.196967  0.357869  1
  Sb  Sb8  1  0.336656  0.622152  -0.004067  1
  Sb  Sb9  1  0.554016  0.471756  0.171308  1
  Sb  Sb10  1  0.472246  -0.059682  0.534102  1
  Sb  Sb11  1  0.180486  0.077353  0.717650  1
  Sb  Sb12  1  0.533252  0.492654  0.464231  1
  Sb  Sb13  1  0.579005  -0.011074  0.826496  1
  Sb  Sb14  1  0.768088  0.957003  0.298720  1
  Sb  Sb15  1  0.506646  0.508467  0.822356  1
  Sb  Sb16  1  0.937523  0.826378  0.626925  1
  Sb  Sb17  1  0.823771  0.982647  0.941382  1
  O  O18  1  0.234643  0.338926  0.077542  1
  O  O19  1  0.168120  0.351817  0.243544  1
  O  O20  1  0.172358  0.802944  0.074062  1
  O  O21  1  0.833692  0.169560  0.161886  1
  O  O22  1  0.040750  0.457412  0.391077  1
  O  O23  1  0.345803  0.761053  0.232816  1
  O  O24  1  0.440657  0.032164  0.621630  1
  O  O25  1  0.521997  0.282156  0.285804  1
  O  O26  1  0.267002  0.551081  0.443107  1
  O  O27  1  0.770711  0.657480  0.139480  1
  O  O28  1  0.738181  0.311888  0.384424  1
  O  O29  1  0.664083  0.790892  0.267026  1
  O  O30  1  0.337874  0.242119  0.731428  1
  O  O31  1  0.267545  0.733941  0.599362  1
  O  O32  1  0.892492  0.176369  0.590311  1
  O  O33  1  0.271496  0.695468  0.770864  1
  O  O34  1  0.392757  0.229398  0.896484  1
  O  O35  1  0.549923  0.832242  0.409571  1
  O  O36  1  0.672724  0.297635  0.748595  1
  O  O37  1  0.710972  0.643069  0.558223  1
  O  O38  1  0.126413  0.748037  0.941060  1
  O  O39  1  0.905742  0.262813  0.853986  1
  O  O40  1  0.870921  0.787806  0.737257  1
  O  O41  1  0.811798  0.837867  0.877021  1
