# generated using pymatgen
data_Ca2V3O8
_symmetry_space_group_name_H-M   'P 1'
_cell_length_a   6.04632398
_cell_length_b   6.04632379
_cell_length_c   10.63482750
_cell_angle_alpha   90.00000000
_cell_angle_beta   90.00000000
_cell_angle_gamma   120.00000102
_symmetry_Int_Tables_number   1
_chemical_formula_structural   Ca2V3O8
_chemical_formula_sum   'Ca4 V6 O16'
_cell_volume   336.70060146
_cell_formula_units_Z   2
loop_
 _symmetry_equiv_pos_site_id
 _symmetry_equiv_pos_as_xyz
  1  'x, y, z'
loop_
 _atom_site_type_symbol
 _atom_site_label
 _atom_site_symmetry_multiplicity
 _atom_site_fract_x
 _atom_site_fract_y
 _atom_site_fract_z
 _atom_site_occupancy
  Ca  Ca0  1  0.666667  0.333334  0.025209  1
  Ca  Ca1  1  0.333333  0.666666  0.525210  1
  Ca  Ca2  1  0.666667  0.333334  0.429946  1
  Ca  Ca3  1  0.333333  0.666666  0.929947  1
  V  V4  1  0.673086  0.836543  0.245648  1
  V  V5  1  0.836544  0.163458  0.745648  1
  V  V6  1  0.163458  0.326915  0.245648  1
  V  V7  1  0.836542  0.673086  0.745648  1
  V  V8  1  0.326915  0.163458  0.745648  1
  V  V9  1  0.163458  0.836543  0.245648  1
  O  O10  1  0.845596  0.154405  0.154827  1
  O  O11  1  0.691191  0.845596  0.654826  1
  O  O12  1  0.154405  0.308810  0.654826  1
  O  O13  1  0.845595  0.691191  0.154827  1
  O  O14  1  0.308809  0.154405  0.154827  1
  O  O15  1  0.154405  0.845596  0.654826  1
  O  O16  1  0.524062  0.475937  0.849618  1
  O  O17  1  0.048125  0.524062  0.349617  1
  O  O18  1  0.475938  0.951876  0.349617  1
  O  O19  1  0.524062  0.048125  0.849618  1
  O  O20  1  -0.000000  0.000000  0.343748  1
  O  O21  1  -0.000000  0.000000  0.843748  1
  O  O22  1  0.333333  0.666666  0.144320  1
  O  O23  1  0.951874  0.475937  0.849618  1
  O  O24  1  0.475937  0.524062  0.349617  1
  O  O25  1  0.666667  0.333334  0.644320  1
