# generated using pymatgen
data_Y(NiO2)3
_symmetry_space_group_name_H-M   'P 1'
_cell_length_a   18.31402345
_cell_length_b   6.13422874
_cell_length_c   6.13422834
_cell_angle_alpha   59.99160598
_cell_angle_beta   59.68973831
_cell_angle_gamma   59.68973326
_symmetry_Int_Tables_number   1
_chemical_formula_structural   Y(NiO2)3
_chemical_formula_sum   'Y4 Ni12 O24'
_cell_volume   484.96309611
_cell_formula_units_Z   4
loop_
 _symmetry_equiv_pos_site_id
 _symmetry_equiv_pos_as_xyz
  1  'x, y, z'
loop_
 _atom_site_type_symbol
 _atom_site_label
 _atom_site_symmetry_multiplicity
 _atom_site_fract_x
 _atom_site_fract_y
 _atom_site_fract_z
 _atom_site_occupancy
  Y  Y0  1  0.220198  0.613451  0.613451  1
  Y  Y1  1  0.537791  0.626874  0.626874  1
  Y  Y2  1  0.113135  0.386549  0.386549  1
  Y  Y3  1  0.795542  0.373126  0.373126  1
  Ni  Ni4  1  0.998107  0.505588  0.000321  1
  Ni  Ni5  1  0.335226  0.494412  0.999679  1
  Ni  Ni6  1  0.666667  0.500000  -0.000000  1
  Ni  Ni7  1  0.997971  0.000929  0.000929  1
  Ni  Ni8  1  0.335362  0.999071  0.999071  1
  Ni  Ni9  1  0.666667  0.000000  0.000000  1
  Ni  Ni10  1  0.166667  0.000000  -0.000000  1
  Ni  Ni11  1  0.499275  0.998717  0.998717  1
  Ni  Ni12  1  0.834058  0.001283  0.001283  1
  Ni  Ni13  1  0.998107  0.000321  0.505588  1
  Ni  Ni14  1  0.335226  0.999679  0.494412  1
  Ni  Ni15  1  0.666667  0.000000  0.500000  1
  O  O16  1  0.075553  0.755740  0.755740  1
  O  O17  1  0.400986  0.763621  0.763621  1
  O  O18  1  0.727213  0.763041  0.763041  1
  O  O19  1  0.071407  0.234222  0.808689  1
  O  O20  1  0.412216  0.217431  0.815348  1
  O  O21  1  0.749114  0.227773  0.804060  1
  O  O22  1  0.071407  0.808689  0.234222  1
  O  O23  1  0.412216  0.815348  0.217431  1
  O  O24  1  0.749114  0.804060  0.227773  1
  O  O25  1  0.071989  0.237213  0.237213  1
  O  O26  1  0.413765  0.221123  0.221123  1
  O  O27  1  0.749502  0.226441  0.226441  1
  O  O28  1  0.261926  0.765778  0.191311  1
  O  O29  1  0.584220  0.772227  0.195940  1
  O  O30  1  0.921117  0.782569  0.184652  1
  O  O31  1  0.257781  0.244260  0.244260  1
  O  O32  1  0.606120  0.236959  0.236959  1
  O  O33  1  0.932347  0.236379  0.236379  1
  O  O34  1  0.261926  0.191311  0.765778  1
  O  O35  1  0.584220  0.195940  0.772227  1
  O  O36  1  0.921117  0.184652  0.782569  1
  O  O37  1  0.261345  0.762787  0.762787  1
  O  O38  1  0.583831  0.773559  0.773559  1
  O  O39  1  0.919568  0.778877  0.778877  1
