# generated using pymatgen
data_CaTaBiO5
_symmetry_space_group_name_H-M   'P 1'
_cell_length_a   5.88139810
_cell_length_b   8.63430851
_cell_length_c   12.12697231
_cell_angle_alpha   90.00000000
_cell_angle_beta   90.00000000
_cell_angle_gamma   109.70782790
_symmetry_Int_Tables_number   1
_chemical_formula_structural   CaTaBiO5
_chemical_formula_sum   'Ca4 Ta4 Bi4 O20'
_cell_volume   579.75701577
_cell_formula_units_Z   4
loop_
 _symmetry_equiv_pos_site_id
 _symmetry_equiv_pos_as_xyz
  1  'x, y, z'
loop_
 _atom_site_type_symbol
 _atom_site_label
 _atom_site_symmetry_multiplicity
 _atom_site_fract_x
 _atom_site_fract_y
 _atom_site_fract_z
 _atom_site_occupancy
  Ca  Ca0  1  0.634391  0.178996  0.915093  1
  Ca  Ca1  1  0.365609  0.821004  0.084907  1
  Ca  Ca2  1  0.865609  0.321004  0.415093  1
  Ca  Ca3  1  0.134391  0.678996  0.584907  1
  Ta  Ta4  1  0.805969  0.966853  0.640841  1
  Ta  Ta5  1  0.194031  0.033147  0.359159  1
  Ta  Ta6  1  0.694031  0.533147  0.140841  1
  Ta  Ta7  1  0.305969  0.466853  0.859159  1
  Bi  Bi8  1  0.124670  0.159663  0.090408  1
  Bi  Bi9  1  0.875330  0.840337  0.909592  1
  Bi  Bi10  1  0.624670  0.659663  0.409592  1
  Bi  Bi11  1  0.375330  0.340337  0.590408  1
  O  O12  1  0.535205  0.333023  0.066521  1
  O  O13  1  0.056091  0.319362  0.946641  1
  O  O14  1  0.477224  0.632654  0.183525  1
  O  O15  1  0.740851  0.513202  0.525721  1
  O  O16  1  0.804441  0.495038  0.279180  1
  O  O17  1  0.304441  0.995038  0.220820  1
  O  O18  1  0.556091  0.819362  0.553359  1
  O  O19  1  0.443909  0.180638  0.446641  1
  O  O20  1  0.259149  0.486798  0.474279  1
  O  O21  1  0.964795  0.166977  0.566521  1
  O  O22  1  0.195559  0.504962  0.720820  1
  O  O23  1  0.464795  0.666977  0.933479  1
  O  O24  1  0.035205  0.833023  0.433479  1
  O  O25  1  0.695559  0.004962  0.779180  1
  O  O26  1  0.759149  0.986798  0.025721  1
  O  O27  1  0.240851  0.013202  0.974279  1
  O  O28  1  0.522776  0.367346  0.816475  1
  O  O29  1  0.943909  0.680638  0.053359  1
  O  O30  1  0.022776  0.867346  0.683525  1
  O  O31  1  0.977224  0.132654  0.316475  1
