# generated using pymatgen
data_MgNi2O5
_symmetry_space_group_name_H-M   'P 1'
_cell_length_a   3.86612517
_cell_length_b   5.73553163
_cell_length_c   10.73115626
_cell_angle_alpha   90.00000000
_cell_angle_beta   90.00000000
_cell_angle_gamma   109.69850400
_symmetry_Int_Tables_number   1
_chemical_formula_structural   MgNi2O5
_chemical_formula_sum   'Mg2 Ni4 O10'
_cell_volume   224.03037509
_cell_formula_units_Z   2
loop_
 _symmetry_equiv_pos_site_id
 _symmetry_equiv_pos_as_xyz
  1  'x, y, z'
loop_
 _atom_site_type_symbol
 _atom_site_label
 _atom_site_symmetry_multiplicity
 _atom_site_fract_x
 _atom_site_fract_y
 _atom_site_fract_z
 _atom_site_occupancy
  Mg  Mg0  1  0.878817  0.757641  0.750000  1
  Mg  Mg1  1  0.121184  0.242360  0.250000  1
  Ni  Ni2  1  0.240308  0.480600  0.597306  1
  Ni  Ni3  1  0.759693  0.519401  0.402693  1
  Ni  Ni4  1  0.759693  0.519401  0.097307  1
  Ni  Ni5  1  0.240308  0.480600  0.902694  1
  O  O6  1  0.666275  0.332564  0.250000  1
  O  O7  1  0.333726  0.667437  0.750000  1
  O  O8  1  0.222803  0.445601  0.082045  1
  O  O9  1  0.777199  0.554400  0.917955  1
  O  O10  1  0.777199  0.554400  0.582045  1
  O  O11  1  0.222803  0.445601  0.417954  1
  O  O12  1  0.070087  0.140208  0.686805  1
  O  O13  1  0.929913  0.859791  0.313195  1
  O  O14  1  0.070087  0.140208  0.813195  1
  O  O15  1  0.929913  0.859791  0.186806  1
