# generated using pymatgen
data_Ca4Co5(TeO6)3
_symmetry_space_group_name_H-M   'P 1'
_cell_length_a   9.21722751
_cell_length_b   9.21722795
_cell_length_c   10.65840310
_cell_angle_alpha   85.58216148
_cell_angle_beta   85.58215997
_cell_angle_gamma   60.80075484
_symmetry_Int_Tables_number   1
_chemical_formula_structural   Ca4Co5(TeO6)3
_chemical_formula_sum   'Ca8 Co10 Te6 O36'
_cell_volume   787.28602323
_cell_formula_units_Z   2
loop_
 _symmetry_equiv_pos_site_id
 _symmetry_equiv_pos_as_xyz
  1  'x, y, z'
loop_
 _atom_site_type_symbol
 _atom_site_label
 _atom_site_symmetry_multiplicity
 _atom_site_fract_x
 _atom_site_fract_y
 _atom_site_fract_z
 _atom_site_occupancy
  Ca  Ca0  1  0.866747  0.523618  0.345772  1
  Ca  Ca1  1  0.479278  0.552944  0.202036  1
  Ca  Ca2  1  0.476382  0.133253  0.654228  1
  Ca  Ca3  1  0.447056  0.520722  0.797964  1
  Ca  Ca4  1  0.161275  0.871995  0.700387  1
  Ca  Ca5  1  0.131422  0.257930  0.847099  1
  Ca  Ca6  1  0.742070  0.868578  0.152901  1
  Ca  Ca7  1  0.128005  0.838725  0.299613  1
  Co  Co8  1  0.781808  0.507308  0.975531  1
  Co  Co9  1  0.113857  0.173700  0.475439  1
  Co  Co10  1  0.352978  0.302782  0.314662  1
  Co  Co11  1  0.910800  0.745607  0.814770  1
  Co  Co12  1  0.697218  0.647022  0.685338  1
  Co  Co13  1  0.976104  0.023896  0.000000  1
  Co  Co14  1  0.637511  0.362489  0.500000  1
  Co  Co15  1  0.254393  0.089201  0.185230  1
  Co  Co16  1  0.826300  0.886143  0.524561  1
  Co  Co17  1  0.492692  0.218192  0.024469  1
  Te  Te18  1  0.455533  0.875733  0.942765  1
  Te  Te19  1  0.804535  0.195978  0.249045  1
  Te  Te20  1  0.804022  0.195465  0.750955  1
  Te  Te21  1  0.484502  0.847992  0.442123  1
  Te  Te22  1  0.152008  0.515498  0.557877  1
  Te  Te23  1  0.124267  0.544467  0.057235  1
  O  O24  1  0.398093  0.074352  0.841916  1
  O  O25  1  0.743648  0.425022  0.806163  1
  O  O26  1  0.579481  0.628277  0.541334  1
  O  O27  1  0.754799  0.111935  0.412239  1
  O  O28  1  0.574978  0.256352  0.193837  1
  O  O29  1  0.888065  0.245201  0.587761  1
  O  O30  1  0.389127  0.776228  0.324581  1
  O  O31  1  0.020202  0.093592  0.823910  1
  O  O32  1  0.588271  0.297120  0.676121  1
  O  O33  1  0.107220  0.393903  0.432285  1
  O  O34  1  0.561287  0.669622  0.047836  1
  O  O35  1  0.499698  0.996978  0.068982  1
  O  O36  1  0.864716  0.966081  0.694280  1
  O  O37  1  0.684270  0.760222  0.854019  1
  O  O38  1  0.330378  0.438713  0.952164  1
  O  O39  1  0.218031  0.615882  0.176346  1
  O  O40  1  0.044933  0.721330  0.452346  1
  O  O41  1  0.239778  0.315730  0.145981  1
  O  O42  1  0.371723  0.420519  0.458666  1
  O  O43  1  0.278670  0.955067  0.547654  1
  O  O44  1  0.682354  0.789508  0.340385  1
  O  O45  1  0.924152  0.630291  0.647498  1
  O  O46  1  0.906408  0.979798  0.176090  1
  O  O47  1  0.384118  0.781969  0.823654  1
  O  O48  1  0.028324  0.765057  0.959378  1
  O  O49  1  0.719745  0.144918  0.912878  1
  O  O50  1  0.003022  0.500302  0.931018  1
  O  O51  1  0.223772  0.610873  0.675419  1
  O  O52  1  0.033919  0.135284  0.305720  1
  O  O53  1  0.369709  0.075848  0.352502  1
  O  O54  1  0.210492  0.317646  0.659615  1
  O  O55  1  0.855082  0.280255  0.087122  1
  O  O56  1  0.702880  0.411729  0.323879  1
  O  O57  1  0.606097  0.892780  0.567715  1
  O  O58  1  0.234943  0.971676  0.040622  1
  O  O59  1  0.925648  0.601907  0.158084  1
