# generated using pymatgen
data_ZnNi3P3O13
_symmetry_space_group_name_H-M   'P 1'
_cell_length_a   6.22817657
_cell_length_b   7.39979733
_cell_length_c   10.40621586
_cell_angle_alpha   99.93306753
_cell_angle_beta   90.00000000
_cell_angle_gamma   90.00000000
_symmetry_Int_Tables_number   1
_chemical_formula_structural   ZnNi3P3O13
_chemical_formula_sum   'Zn2 Ni6 P6 O26'
_cell_volume   472.40467134
_cell_formula_units_Z   2
loop_
 _symmetry_equiv_pos_site_id
 _symmetry_equiv_pos_as_xyz
  1  'x, y, z'
loop_
 _atom_site_type_symbol
 _atom_site_label
 _atom_site_symmetry_multiplicity
 _atom_site_fract_x
 _atom_site_fract_y
 _atom_site_fract_z
 _atom_site_occupancy
  Zn  Zn0  1  0.750000  0.628534  0.148075  1
  Zn  Zn1  1  0.250000  0.371466  0.851925  1
  Ni  Ni2  1  0.250000  0.360828  0.204518  1
  Ni  Ni3  1  0.750000  0.639172  0.795482  1
  Ni  Ni4  1  0.250000  0.763870  0.442821  1
  Ni  Ni5  1  0.500000  -0.000000  -0.000000  1
  Ni  Ni6  1  0.750000  0.236130  0.557179  1
  Ni  Ni7  1  -0.000000  -0.000000  -0.000000  1
  P  P8  1  0.250000  0.206757  0.484198  1
  P  P9  1  0.750000  0.793243  0.515802  1
  P  P10  1  0.250000  0.736102  0.765275  1
  P  P11  1  0.750000  0.263898  0.234725  1
  P  P12  1  0.750000  0.315065  0.875533  1
  P  P13  1  0.250000  0.684935  0.124467  1
  O  O14  1  0.750000  0.370298  0.737950  1
  O  O15  1  0.559362  0.760186  0.419045  1
  O  O16  1  0.250000  0.800318  0.634870  1
  O  O17  1  0.537388  0.213028  0.892576  1
  O  O18  1  0.750000  0.648305  0.605227  1
  O  O19  1  0.750000  0.873808  0.904069  1
  O  O20  1  0.250000  0.351695  0.394773  1
  O  O21  1  0.037388  0.786972  0.107424  1
  O  O22  1  0.250000  0.015138  0.399282  1
  O  O23  1  0.750000  0.984862  0.600718  1
  O  O24  1  0.063042  0.605044  0.789720  1
  O  O25  1  0.250000  0.126192  0.095931  1
  O  O26  1  0.563042  0.394956  0.210280  1
  O  O27  1  0.750000  0.510343  0.961751  1
  O  O28  1  0.750000  0.199682  0.365130  1
  O  O29  1  0.462612  0.786972  0.107424  1
  O  O30  1  0.940638  0.760186  0.419045  1
  O  O31  1  0.440638  0.239814  0.580955  1
  O  O32  1  0.436958  0.605044  0.789720  1
  O  O33  1  0.250000  0.629702  0.262050  1
  O  O34  1  0.750000  0.091661  0.123962  1
  O  O35  1  0.250000  0.908339  0.876038  1
  O  O36  1  0.936958  0.394956  0.210280  1
  O  O37  1  0.962612  0.213028  0.892576  1
  O  O38  1  0.059362  0.239814  0.580955  1
  O  O39  1  0.250000  0.489657  0.038249  1
