# generated using pymatgen
data_Mg2Ta2VO8
_symmetry_space_group_name_H-M   'P 1'
_cell_length_a   5.23882528
_cell_length_b   6.02339328
_cell_length_c   10.09320568
_cell_angle_alpha   107.34283069
_cell_angle_beta   90.16826346
_cell_angle_gamma   90.00219674
_symmetry_Int_Tables_number   1
_chemical_formula_structural   Mg2Ta2VO8
_chemical_formula_sum   'Mg4 Ta4 V2 O16'
_cell_volume   304.01535189
_cell_formula_units_Z   2
loop_
 _symmetry_equiv_pos_site_id
 _symmetry_equiv_pos_as_xyz
  1  'x, y, z'
loop_
 _atom_site_type_symbol
 _atom_site_label
 _atom_site_symmetry_multiplicity
 _atom_site_fract_x
 _atom_site_fract_y
 _atom_site_fract_z
 _atom_site_occupancy
  Mg  Mg0  1  0.755417  0.414777  0.546839  1
  Mg  Mg1  1  0.745459  0.867832  0.453343  1
  Mg  Mg2  1  0.245457  0.581296  0.452945  1
  Mg  Mg3  1  0.255372  0.128280  0.546472  1
  Ta  Ta4  1  0.744474  0.278327  0.234941  1
  Ta  Ta5  1  0.756059  0.043362  0.764976  1
  Ta  Ta6  1  0.256100  0.717959  0.764813  1
  Ta  Ta7  1  0.244564  0.952861  0.234866  1
  V  V8  1  0.750186  0.645530  0.999872  1
  V  V9  1  0.250272  0.350856  0.999953  1
  O  O10  1  0.077580  0.180558  0.145543  1
  O  O11  1  0.423005  0.034816  0.854414  1
  O  O12  1  0.922946  0.815618  0.854240  1
  O  O13  1  0.577541  0.961555  0.145324  1
  O  O14  1  0.597381  0.430701  0.119722  1
  O  O15  1  0.903064  0.310741  0.880373  1
  O  O16  1  0.403086  0.565759  0.880163  1
  O  O17  1  0.097349  0.685585  0.119472  1
  O  O18  1  0.454811  0.288909  0.372972  1
  O  O19  1  0.045824  0.916256  0.626882  1
  O  O20  1  0.380400  0.837119  0.384169  1
  O  O21  1  0.120709  0.452955  0.615428  1
  O  O22  1  0.620456  0.158914  0.615552  1
  O  O23  1  0.880104  0.543142  0.384399  1
  O  O24  1  0.955009  0.079906  0.372993  1
  O  O25  1  0.545921  0.707209  0.626821  1
