# generated using pymatgen
data_CaFe3O7
_symmetry_space_group_name_H-M   'P 1'
_cell_length_a   5.33172944
_cell_length_b   10.48452287
_cell_length_c   11.21685451
_cell_angle_alpha   90.00000000
_cell_angle_beta   90.00000000
_cell_angle_gamma   90.00000000
_symmetry_Int_Tables_number   1
_chemical_formula_structural   CaFe3O7
_chemical_formula_sum   'Ca4 Fe12 O28'
_cell_volume   627.02933749
_cell_formula_units_Z   4
loop_
 _symmetry_equiv_pos_site_id
 _symmetry_equiv_pos_as_xyz
  1  'x, y, z'
loop_
 _atom_site_type_symbol
 _atom_site_label
 _atom_site_symmetry_multiplicity
 _atom_site_fract_x
 _atom_site_fract_y
 _atom_site_fract_z
 _atom_site_occupancy
  Ca  Ca0  1  0.685555  0.750000  0.918128  1
  Ca  Ca1  1  0.185555  0.250000  0.581872  1
  Ca  Ca2  1  0.314445  0.250000  0.081872  1
  Ca  Ca3  1  0.814445  0.750000  0.418128  1
  Fe  Fe4  1  0.305295  0.024474  0.309674  1
  Fe  Fe5  1  0.805295  0.975526  0.190326  1
  Fe  Fe6  1  0.694705  0.524474  0.690326  1
  Fe  Fe7  1  0.194705  0.475526  0.809674  1
  Fe  Fe8  1  0.312843  0.750000  0.215939  1
  Fe  Fe9  1  0.812843  0.250000  0.284061  1
  Fe  Fe10  1  0.687157  0.250000  0.784061  1
  Fe  Fe11  1  0.187157  0.750000  0.715939  1
  Fe  Fe12  1  0.805295  0.524474  0.190326  1
  Fe  Fe13  1  0.305295  0.475526  0.309674  1
  Fe  Fe14  1  0.194705  0.024474  0.809674  1
  Fe  Fe15  1  0.694705  0.975526  0.690326  1
  O  O16  1  0.932344  0.120742  0.724655  1
  O  O17  1  0.432344  0.879258  0.775345  1
  O  O18  1  0.067656  0.620742  0.275345  1
  O  O19  1  0.567656  0.379258  0.224655  1
  O  O20  1  0.067656  0.879258  0.275345  1
  O  O21  1  0.567656  0.120742  0.224655  1
  O  O22  1  0.932344  0.379258  0.724655  1
  O  O23  1  0.432344  0.620742  0.775345  1
  O  O24  1  0.452553  0.119052  0.718381  1
  O  O25  1  0.952553  0.880948  0.781619  1
  O  O26  1  0.547447  0.619052  0.281619  1
  O  O27  1  0.047447  0.380948  0.218381  1
  O  O28  1  0.547447  0.880948  0.281619  1
  O  O29  1  0.047447  0.119052  0.218381  1
  O  O30  1  0.452553  0.380948  0.718381  1
  O  O31  1  0.952553  0.619052  0.781619  1
  O  O32  1  0.135823  0.750000  0.557849  1
  O  O33  1  0.635823  0.250000  0.942151  1
  O  O34  1  0.864177  0.250000  0.442151  1
  O  O35  1  0.364177  0.750000  0.057849  1
  O  O36  1  0.220115  0.417893  0.958370  1
  O  O37  1  0.720115  0.582107  0.541630  1
  O  O38  1  0.779885  0.917893  0.041630  1
  O  O39  1  0.279885  0.082107  0.458370  1
  O  O40  1  0.779885  0.582107  0.041630  1
  O  O41  1  0.279885  0.417893  0.458370  1
  O  O42  1  0.220115  0.082107  0.958370  1
  O  O43  1  0.720115  0.917893  0.541630  1
