# generated using pymatgen
data_Ca(TiS2)2
_symmetry_space_group_name_H-M   'P 1'
_cell_length_a   7.37932509
_cell_length_b   7.37932632
_cell_length_c   7.69818970
_cell_angle_alpha   118.63901703
_cell_angle_beta   118.63902183
_cell_angle_gamma   89.99999342
_symmetry_Int_Tables_number   1
_chemical_formula_structural   Ca(TiS2)2
_chemical_formula_sum   'Ca2 Ti4 S8'
_cell_volume   308.20883022
_cell_formula_units_Z   2
loop_
 _symmetry_equiv_pos_site_id
 _symmetry_equiv_pos_as_xyz
  1  'x, y, z'
loop_
 _atom_site_type_symbol
 _atom_site_label
 _atom_site_symmetry_multiplicity
 _atom_site_fract_x
 _atom_site_fract_y
 _atom_site_fract_z
 _atom_site_occupancy
  Ca  Ca0  1  0.375000  0.625000  0.750000  1
  Ca  Ca1  1  0.625000  0.375000  0.250000  1
  Ti  Ti2  1  0.000000  0.000000  0.500000  1
  Ti  Ti3  1  0.000000  0.500000  0.000000  1
  Ti  Ti4  1  0.500000  0.000000  0.500000  1
  Ti  Ti5  1  0.000000  0.000000  0.000000  1
  S  S6  1  0.776151  0.796467  0.552302  1
  S  S7  1  0.744166  0.223849  0.947698  1
  S  S8  1  0.203533  0.223849  0.947698  1
  S  S9  1  0.223849  0.203533  0.447698  1
  S  S10  1  0.223849  0.744166  0.447698  1
  S  S11  1  0.255834  0.776151  0.052302  1
  S  S12  1  0.776151  0.255834  0.552302  1
  S  S13  1  0.796467  0.776151  0.052302  1
