# generated using pymatgen
data_ZnAgBiO5
_symmetry_space_group_name_H-M   'P 1'
_cell_length_a   5.47424359
_cell_length_b   8.34093768
_cell_length_c   10.66219167
_cell_angle_alpha   90.00000000
_cell_angle_beta   90.00000000
_cell_angle_gamma   100.33335445
_symmetry_Int_Tables_number   1
_chemical_formula_structural   ZnAgBiO5
_chemical_formula_sum   'Zn4 Ag4 Bi4 O20'
_cell_volume   478.94298284
_cell_formula_units_Z   4
loop_
 _symmetry_equiv_pos_site_id
 _symmetry_equiv_pos_as_xyz
  1  'x, y, z'
loop_
 _atom_site_type_symbol
 _atom_site_label
 _atom_site_symmetry_multiplicity
 _atom_site_fract_x
 _atom_site_fract_y
 _atom_site_fract_z
 _atom_site_occupancy
  Zn  Zn0  1  0.570575  0.165776  0.918640  1
  Zn  Zn1  1  0.429425  0.834224  0.081360  1
  Zn  Zn2  1  0.929425  0.334224  0.418640  1
  Zn  Zn3  1  0.070575  0.665776  0.581360  1
  Ag  Ag4  1  0.692916  0.978508  0.618266  1
  Ag  Ag5  1  0.307084  0.021492  0.381734  1
  Ag  Ag6  1  0.807084  0.521492  0.118266  1
  Ag  Ag7  1  0.192916  0.478508  0.881734  1
  Bi  Bi8  1  0.125872  0.141902  0.112550  1
  Bi  Bi9  1  0.874128  0.858098  0.887450  1
  Bi  Bi10  1  0.625872  0.641902  0.387450  1
  Bi  Bi11  1  0.374128  0.358098  0.612550  1
  O  O12  1  0.468876  0.276379  0.064214  1
  O  O13  1  0.986361  0.352838  0.031119  1
  O  O14  1  0.609140  0.690450  0.190971  1
  O  O15  1  0.732332  0.486815  0.545785  1
  O  O16  1  0.734342  0.427641  0.296055  1
  O  O17  1  0.234342  0.927641  0.203945  1
  O  O18  1  0.486361  0.852838  0.468881  1
  O  O19  1  0.513639  0.147162  0.531119  1
  O  O20  1  0.267668  0.513185  0.454215  1
  O  O21  1  0.031124  0.223622  0.564214  1
  O  O22  1  0.265658  0.572359  0.703945  1
  O  O23  1  0.531124  0.723622  0.935786  1
  O  O24  1  0.968876  0.776378  0.435786  1
  O  O25  1  0.765658  0.072359  0.796055  1
  O  O26  1  0.767668  0.013185  0.045785  1
  O  O27  1  0.232332  0.986815  0.954215  1
  O  O28  1  0.390860  0.309550  0.809029  1
  O  O29  1  0.013639  0.647162  0.968881  1
  O  O30  1  0.890860  0.809550  0.690971  1
  O  O31  1  0.109140  0.190450  0.309029  1
