# generated using pymatgen
data_TaBiO5
_symmetry_space_group_name_H-M   'P 1'
_cell_length_a   5.48394902
_cell_length_b   8.19932321
_cell_length_c   9.81865724
_cell_angle_alpha   90.00000000
_cell_angle_beta   90.00000000
_cell_angle_gamma   98.40136372
_symmetry_Int_Tables_number   1
_chemical_formula_structural   TaBiO5
_chemical_formula_sum   'Ta4 Bi4 O20'
_cell_volume   436.75496603
_cell_formula_units_Z   4
loop_
 _symmetry_equiv_pos_site_id
 _symmetry_equiv_pos_as_xyz
  1  'x, y, z'
loop_
 _atom_site_type_symbol
 _atom_site_label
 _atom_site_symmetry_multiplicity
 _atom_site_fract_x
 _atom_site_fract_y
 _atom_site_fract_z
 _atom_site_occupancy
  Ta  Ta0  1  0.753051  0.990475  0.589045  1
  Ta  Ta1  1  0.246949  0.009525  0.410955  1
  Ta  Ta2  1  0.746949  0.509525  0.089045  1
  Ta  Ta3  1  0.253051  0.490475  0.910955  1
  Bi  Bi4  1  0.142346  0.130213  0.105626  1
  Bi  Bi5  1  0.857654  0.869788  0.894374  1
  Bi  Bi6  1  0.642346  0.630212  0.394374  1
  Bi  Bi7  1  0.357654  0.369787  0.605626  1
  O  O8  1  0.446331  0.354807  0.055369  1
  O  O9  1  0.981039  0.348350  0.015222  1
  O  O10  1  0.579477  0.678897  0.190482  1
  O  O11  1  0.710389  0.519968  0.578747  1
  O  O12  1  0.847642  0.475303  0.266788  1
  O  O13  1  0.347642  0.975303  0.233212  1
  O  O14  1  0.481039  0.848350  0.484778  1
  O  O15  1  0.518961  0.151650  0.515222  1
  O  O16  1  0.289611  0.480032  0.421253  1
  O  O17  1  0.053669  0.145194  0.555369  1
  O  O18  1  0.152358  0.524697  0.733212  1
  O  O19  1  0.553669  0.645194  0.944631  1
  O  O20  1  0.946331  0.854806  0.444631  1
  O  O21  1  0.652358  0.024697  0.766788  1
  O  O22  1  0.789611  0.980032  0.078747  1
  O  O23  1  0.210389  0.019968  0.921253  1
  O  O24  1  0.420523  0.321103  0.809518  1
  O  O25  1  0.018961  0.651650  0.984778  1
  O  O26  1  0.920523  0.821103  0.690482  1
  O  O27  1  0.079477  0.178897  0.309518  1
