# generated using pymatgen
data_ZnCr2O4
_symmetry_space_group_name_H-M   'P 1'
_cell_length_a   5.99541274
_cell_length_b   5.99541302
_cell_length_c   5.99541282
_cell_angle_alpha   60.00000109
_cell_angle_beta   59.99999958
_cell_angle_gamma   60.00000442
_symmetry_Int_Tables_number   1
_chemical_formula_structural   ZnCr2O4
_chemical_formula_sum   'Zn2 Cr4 O8'
_cell_volume   152.38502984
_cell_formula_units_Z   2
loop_
 _symmetry_equiv_pos_site_id
 _symmetry_equiv_pos_as_xyz
  1  'x, y, z'
loop_
 _atom_site_type_symbol
 _atom_site_label
 _atom_site_symmetry_multiplicity
 _atom_site_fract_x
 _atom_site_fract_y
 _atom_site_fract_z
 _atom_site_occupancy
  Zn  Zn0  1  0.875000  0.875000  0.875000  1
  Zn  Zn1  1  0.125000  0.125000  0.125000  1
  Cr  Cr2  1  0.500000  0.000000  0.500000  1
  Cr  Cr3  1  0.000000  0.500000  0.500000  1
  Cr  Cr4  1  0.500000  0.500000  0.000000  1
  Cr  Cr5  1  0.500000  0.500000  0.500000  1
  O  O6  1  0.738453  0.738453  0.738453  1
  O  O7  1  0.261547  0.261547  0.715360  1
  O  O8  1  0.261547  0.715360  0.261547  1
  O  O9  1  0.715360  0.261547  0.261547  1
  O  O10  1  0.738453  0.284640  0.738453  1
  O  O11  1  0.284640  0.738453  0.738453  1
  O  O12  1  0.261547  0.261547  0.261547  1
  O  O13  1  0.738453  0.738453  0.284640  1
