# generated using pymatgen
data_Mn5O7
_symmetry_space_group_name_H-M   'P 1'
_cell_length_a   3.03953528
_cell_length_b   5.37428309
_cell_length_c   18.82480423
_cell_angle_alpha   90.00000000
_cell_angle_beta   90.00000000
_cell_angle_gamma   106.42650384
_symmetry_Int_Tables_number   1
_chemical_formula_structural   Mn5O7
_chemical_formula_sum   'Mn10 O14'
_cell_volume   294.95773516
_cell_formula_units_Z   2
loop_
 _symmetry_equiv_pos_site_id
 _symmetry_equiv_pos_as_xyz
  1  'x, y, z'
loop_
 _atom_site_type_symbol
 _atom_site_label
 _atom_site_symmetry_multiplicity
 _atom_site_fract_x
 _atom_site_fract_y
 _atom_site_fract_z
 _atom_site_occupancy
  Mn  Mn0  1  0.267862  0.535721  0.576148  1
  Mn  Mn1  1  0.000000  0.000000  0.500000  1
  Mn  Mn2  1  0.000000  0.000000  0.000000  1
  Mn  Mn3  1  0.732138  0.464278  0.423852  1
  Mn  Mn4  1  0.732138  0.464278  0.076148  1
  Mn  Mn5  1  0.267862  0.535721  0.923852  1
  Mn  Mn6  1  0.471713  0.943424  0.158098  1
  Mn  Mn7  1  0.528287  0.056575  0.841903  1
  Mn  Mn8  1  0.528287  0.056575  0.658097  1
  Mn  Mn9  1  0.471713  0.943424  0.341903  1
  O  O10  1  0.642653  0.285306  0.974246  1
  O  O11  1  0.357348  0.714695  0.025754  1
  O  O12  1  0.357348  0.714695  0.474246  1
  O  O13  1  0.642653  0.285306  0.525754  1
  O  O14  1  0.148261  0.296522  0.843675  1
  O  O15  1  0.851739  0.703478  0.156325  1
  O  O16  1  0.851739  0.703478  0.343676  1
  O  O17  1  0.148261  0.296522  0.656325  1
  O  O18  1  0.907159  0.814317  0.894883  1
  O  O19  1  0.092841  0.185683  0.105117  1
  O  O20  1  0.092841  0.185683  0.394883  1
  O  O21  1  0.907159  0.814317  0.605117  1
  O  O22  1  0.461856  0.923713  0.750000  1
  O  O23  1  0.538145  0.076289  0.250000  1
