# generated using pymatgen
data_LaFeMoO6
_symmetry_space_group_name_H-M   'P 1'
_cell_length_a   5.56540133
_cell_length_b   5.51675537
_cell_length_c   7.83304916
_cell_angle_alpha   90.04199673
_cell_angle_beta   90.00005832
_cell_angle_gamma   90.00009862
_symmetry_Int_Tables_number   1
_chemical_formula_structural   LaFeMoO6
_chemical_formula_sum   'La2 Fe2 Mo2 O12'
_cell_volume   240.49771224
_cell_formula_units_Z   2
loop_
 _symmetry_equiv_pos_site_id
 _symmetry_equiv_pos_as_xyz
  1  'x, y, z'
loop_
 _atom_site_type_symbol
 _atom_site_label
 _atom_site_symmetry_multiplicity
 _atom_site_fract_x
 _atom_site_fract_y
 _atom_site_fract_z
 _atom_site_occupancy
  La  La0  1  0.030430  0.993585  0.247529  1
  La  La1  1  0.469565  0.493579  0.747534  1
  Fe  Fe2  1  0.504521  0.996369  0.998024  1
  Fe  Fe3  1  0.995493  0.496375  0.498035  1
  Mo  Mo4  1  0.506729  0.998269  0.497956  1
  Mo  Mo5  1  0.993270  0.498267  0.997956  1
  O  O6  1  0.009296  0.542093  0.755648  1
  O  O7  1  0.224797  0.236121  0.977366  1
  O  O8  1  0.238975  0.227318  0.526261  1
  O  O9  1  0.261022  0.727319  0.026262  1
  O  O10  1  0.275204  0.736120  0.477368  1
  O  O11  1  0.490702  0.042094  0.255648  1
  O  O12  1  0.507965  0.930796  0.745256  1
  O  O13  1  0.713672  0.276218  0.534037  1
  O  O14  1  0.719542  0.288836  0.968104  1
  O  O15  1  0.780458  0.788840  0.468102  1
  O  O16  1  0.786326  0.776214  0.034035  1
  O  O17  1  0.992035  0.430791  0.245255  1
