# generated using pymatgen
data_Nb2Zn2CoO8
_symmetry_space_group_name_H-M   'P 1'
_cell_length_a   5.28515252
_cell_length_b   5.96180179
_cell_length_c   10.14245460
_cell_angle_alpha   107.16211625
_cell_angle_beta   89.72125790
_cell_angle_gamma   89.97343821
_symmetry_Int_Tables_number   1
_chemical_formula_structural   Nb2Zn2CoO8
_chemical_formula_sum   'Nb4 Zn4 Co2 O16'
_cell_volume   305.34503268
_cell_formula_units_Z   2
loop_
 _symmetry_equiv_pos_site_id
 _symmetry_equiv_pos_as_xyz
  1  'x, y, z'
loop_
 _atom_site_type_symbol
 _atom_site_label
 _atom_site_symmetry_multiplicity
 _atom_site_fract_x
 _atom_site_fract_y
 _atom_site_fract_z
 _atom_site_occupancy
  Nb  Nb0  1  0.735830  0.277752  0.228737  1
  Nb  Nb1  1  0.765679  0.048123  0.772633  1
  Nb  Nb2  1  0.266109  0.723054  0.772305  1
  Nb  Nb3  1  0.236313  0.953876  0.229473  1
  Zn  Zn4  1  0.765273  0.432522  0.559570  1
  Zn  Zn5  1  0.736272  0.874980  0.441328  1
  Zn  Zn6  1  0.235148  0.567842  0.441614  1
  Zn  Zn7  1  0.265015  0.125515  0.560785  1
  Co  Co8  1  0.752146  0.645795  0.000616  1
  Co  Co9  1  0.251637  0.356383  0.000462  1
  O  O10  1  0.076113  0.188599  0.140053  1
  O  O11  1  0.425826  0.048136  0.861575  1
  O  O12  1  0.926442  0.814213  0.862020  1
  O  O13  1  0.576351  0.954062  0.139825  1
  O  O14  1  0.588796  0.433916  0.114613  1
  O  O15  1  0.914860  0.317964  0.886483  1
  O  O16  1  0.415329  0.568561  0.886766  1
  O  O17  1  0.089089  0.684018  0.114405  1
  O  O18  1  0.439322  0.284657  0.358413  1
  O  O19  1  0.061501  0.923416  0.642360  1
  O  O20  1  0.366682  0.840184  0.387206  1
  O  O21  1  0.134682  0.452113  0.614663  1
  O  O22  1  0.634734  0.160610  0.614392  1
  O  O23  1  0.866149  0.548266  0.387560  1
  O  O24  1  0.939578  0.076439  0.358873  1
  O  O25  1  0.562192  0.716685  0.643265  1
