# generated using pymatgen
data_Ba2Cu2HgO6
_symmetry_space_group_name_H-M   'P 1'
_cell_length_a   3.71796889
_cell_length_b   3.71944069
_cell_length_c   13.71012914
_cell_angle_alpha   90.00002283
_cell_angle_beta   90.00005488
_cell_angle_gamma   90.00007488
_symmetry_Int_Tables_number   1
_chemical_formula_structural   Ba2Cu2HgO6
_chemical_formula_sum   'Ba2 Cu2 Hg1 O6'
_cell_volume   189.59415089
_cell_formula_units_Z   1
loop_
 _symmetry_equiv_pos_site_id
 _symmetry_equiv_pos_as_xyz
  1  'x, y, z'
loop_
 _atom_site_type_symbol
 _atom_site_label
 _atom_site_symmetry_multiplicity
 _atom_site_fract_x
 _atom_site_fract_y
 _atom_site_fract_z
 _atom_site_occupancy
  Ba  Ba0  1  0.499999  0.500000  0.227585  1
  Ba  Ba1  1  0.500001  0.500000  0.772925  1
  Cu  Cu2  1  1.000000  1.000000  0.398104  1
  Cu  Cu3  1  -0.000000  1.000000  0.601610  1
  Hg  Hg4  1  0.000000  1.000000  -0.000484  1
  O  O5  1  -0.000000  0.000001  0.853653  1
  O  O6  1  0.000000  1.000000  0.146800  1
  O  O7  1  0.500000  -0.000000  0.630909  1
  O  O8  1  0.000001  0.500000  0.630758  1
  O  O9  1  0.500000  -0.000000  0.369004  1
  O  O10  1  1.000000  0.500000  0.369137  1
