# generated using pymatgen
data_LaMgCrWO6
_symmetry_space_group_name_H-M   'P 1'
_cell_length_a   5.45614167
_cell_length_b   5.65278942
_cell_length_c   7.82078956
_cell_angle_alpha   90.00000000
_cell_angle_beta   88.81232752
_cell_angle_gamma   90.00000000
_symmetry_Int_Tables_number   1
_chemical_formula_structural   LaMgCrWO6
_chemical_formula_sum   'La2 Mg2 Cr2 W2 O12'
_cell_volume   241.16025515
_cell_formula_units_Z   2
loop_
 _symmetry_equiv_pos_site_id
 _symmetry_equiv_pos_as_xyz
  1  'x, y, z'
loop_
 _atom_site_type_symbol
 _atom_site_label
 _atom_site_symmetry_multiplicity
 _atom_site_fract_x
 _atom_site_fract_y
 _atom_site_fract_z
 _atom_site_occupancy
  La  La0  1  0.012906  0.957979  0.753948  1
  La  La1  1  0.512906  0.542021  0.253948  1
  Mg  Mg2  1  0.474726  0.448404  0.749756  1
  Mg  Mg3  1  0.974726  0.051596  0.249756  1
  Cr  Cr4  1  0.500475  0.999572  0.499341  1
  Cr  Cr5  1  0.000475  0.500428  0.999341  1
  W  W6  1  0.498493  0.002979  0.002308  1
  W  W7  1  0.998493  0.497021  0.502308  1
  O  O8  1  0.090808  0.447961  0.247753  1
  O  O9  1  0.207940  0.225733  0.934786  1
  O  O10  1  0.215220  0.214920  0.556193  1
  O  O11  1  0.313883  0.691641  0.939447  1
  O  O12  1  0.321858  0.692771  0.565616  1
  O  O13  1  0.363689  0.974071  0.250852  1
  O  O14  1  0.590808  0.052039  0.747753  1
  O  O15  1  0.707940  0.274267  0.434786  1
  O  O16  1  0.715220  0.285080  0.056193  1
  O  O17  1  0.813883  0.808359  0.439447  1
  O  O18  1  0.821858  0.807229  0.065616  1
  O  O19  1  0.863689  0.525929  0.750852  1
