# generated using pymatgen
data_Zn(WO2)2
_symmetry_space_group_name_H-M   'P 1'
_cell_length_a   6.40218509
_cell_length_b   6.40217881
_cell_length_c   6.40292967
_cell_angle_alpha   90.14822352
_cell_angle_beta   119.93499279
_cell_angle_gamma   119.93859108
_symmetry_Int_Tables_number   1
_chemical_formula_structural   Zn(WO2)2
_chemical_formula_sum   'Zn2 W4 O8'
_cell_volume   185.68909036
_cell_formula_units_Z   2
loop_
 _symmetry_equiv_pos_site_id
 _symmetry_equiv_pos_as_xyz
  1  'x, y, z'
loop_
 _atom_site_type_symbol
 _atom_site_label
 _atom_site_symmetry_multiplicity
 _atom_site_fract_x
 _atom_site_fract_y
 _atom_site_fract_z
 _atom_site_occupancy
  Zn  Zn0  1  0.250148  0.125110  0.875188  1
  Zn  Zn1  1  0.749926  0.874619  0.125245  1
  W  W2  1  0.500049  0.000083  0.500057  1
  W  W3  1  0.499972  0.500038  0.500026  1
  W  W4  1  0.999950  0.499952  0.999877  1
  W  W5  1  0.000011  0.499989  0.499938  1
  O  O6  1  0.014716  0.742859  0.257853  1
  O  O7  1  0.485325  0.743327  0.728227  1
  O  O8  1  0.485240  0.742072  0.257104  1
  O  O9  1  0.985243  0.728160  0.743125  1
  O  O10  1  0.514629  0.258026  0.742874  1
  O  O11  1  0.514786  0.256872  0.271921  1
  O  O12  1  0.014619  0.271751  0.256608  1
  O  O13  1  0.985387  0.257140  0.741957  1
