# generated using pymatgen
data_BaCr4O7
_symmetry_space_group_name_H-M   'P 1'
_cell_length_a   6.68976514
_cell_length_b   6.68976535
_cell_length_c   10.55129558
_cell_angle_alpha   90.00000000
_cell_angle_beta   90.00000000
_cell_angle_gamma   120.00000260
_symmetry_Int_Tables_number   1
_chemical_formula_structural   BaCr4O7
_chemical_formula_sum   'Ba2 Cr8 O14'
_cell_volume   408.93865607
_cell_formula_units_Z   2
loop_
 _symmetry_equiv_pos_site_id
 _symmetry_equiv_pos_as_xyz
  1  'x, y, z'
loop_
 _atom_site_type_symbol
 _atom_site_label
 _atom_site_symmetry_multiplicity
 _atom_site_fract_x
 _atom_site_fract_y
 _atom_site_fract_z
 _atom_site_occupancy
  Ba  Ba0  1  0.666667  0.333333  0.475714  1
  Ba  Ba1  1  0.333333  0.666667  0.975714  1
  Cr  Cr2  1  0.828100  0.171901  0.190651  1
  Cr  Cr3  1  0.656200  0.828099  0.690652  1
  Cr  Cr4  1  0.171901  0.343800  0.690652  1
  Cr  Cr5  1  0.828100  0.656200  0.190651  1
  Cr  Cr6  1  0.343799  0.171901  0.190651  1
  Cr  Cr7  1  0.171901  0.828099  0.690652  1
  Cr  Cr8  1  -0.000000  -0.000000  0.442353  1
  Cr  Cr9  1  -0.000000  -0.000000  0.942353  1
  O  O10  1  0.855637  0.144364  0.017324  1
  O  O11  1  0.711273  0.855636  0.517323  1
  O  O12  1  0.144363  0.288726  0.517323  1
  O  O13  1  0.855638  0.711274  0.017324  1
  O  O14  1  0.288726  0.144364  0.017324  1
  O  O15  1  0.144363  0.855636  0.517323  1
  O  O16  1  -0.000000  -0.000000  0.745363  1
  O  O17  1  -0.000000  -0.000000  0.245364  1
  O  O18  1  0.527338  0.472664  0.255565  1
  O  O19  1  0.054673  0.527338  0.755565  1
  O  O20  1  0.472664  0.945327  0.755565  1
  O  O21  1  0.527338  0.054673  0.255565  1
  O  O22  1  0.472664  0.527338  0.755565  1
  O  O23  1  0.945327  0.472664  0.255565  1
