# generated using pymatgen
data_TiRe(PO4)3
_symmetry_space_group_name_H-M   'P 1'
_cell_length_a   8.81873446
_cell_length_b   8.81873391
_cell_length_c   8.81873446
_cell_angle_alpha   59.00998267
_cell_angle_beta   59.00998294
_cell_angle_gamma   59.00998107
_symmetry_Int_Tables_number   1
_chemical_formula_structural   TiRe(PO4)3
_chemical_formula_sum   'Ti2 Re2 P6 O24'
_cell_volume   474.00655514
_cell_formula_units_Z   2
loop_
 _symmetry_equiv_pos_site_id
 _symmetry_equiv_pos_as_xyz
  1  'x, y, z'
loop_
 _atom_site_type_symbol
 _atom_site_label
 _atom_site_symmetry_multiplicity
 _atom_site_fract_x
 _atom_site_fract_y
 _atom_site_fract_z
 _atom_site_occupancy
  Ti  Ti0  1  0.138670  0.138670  0.138670  1
  Ti  Ti1  1  0.638670  0.638670  0.638670  1
  Re  Re2  1  0.358699  0.358699  0.358699  1
  Re  Re3  1  0.858699  0.858699  0.858699  1
  P  P4  1  0.033305  0.467819  0.746324  1
  P  P5  1  0.467819  0.746324  0.033305  1
  P  P6  1  0.746324  0.033305  0.467819  1
  P  P7  1  0.246325  0.967819  0.533305  1
  P  P8  1  0.533305  0.246325  0.967819  1
  P  P9  1  0.967819  0.533305  0.246325  1
  O  O10  1  0.139037  0.508351  0.277123  1
  O  O11  1  0.277123  0.139037  0.508351  1
  O  O12  1  0.063713  0.289704  0.916515  1
  O  O13  1  0.508351  0.277123  0.139037  1
  O  O14  1  0.008351  0.639037  0.777123  1
  O  O15  1  0.216321  0.445567  0.573504  1
  O  O16  1  0.289704  0.916515  0.063713  1
  O  O17  1  0.445567  0.573504  0.216321  1
  O  O18  1  0.206674  0.003746  0.366672  1
  O  O19  1  0.573504  0.216321  0.445567  1
  O  O20  1  0.073504  0.945567  0.716321  1
  O  O21  1  0.366672  0.206674  0.003746  1
  O  O22  1  0.639037  0.777123  0.008351  1
  O  O23  1  0.916515  0.063713  0.289704  1
  O  O24  1  0.416515  0.789704  0.563713  1
  O  O25  1  0.777123  0.008351  0.639037  1
  O  O26  1  0.563713  0.416515  0.789704  1
  O  O27  1  0.716321  0.073504  0.945567  1
  O  O28  1  0.789704  0.563713  0.416515  1
  O  O29  1  0.003746  0.366672  0.206674  1
  O  O30  1  0.503746  0.706674  0.866672  1
  O  O31  1  0.945567  0.716321  0.073504  1
  O  O32  1  0.706674  0.866672  0.503746  1
  O  O33  1  0.866672  0.503746  0.706674  1
