# generated using pymatgen
data_MgNiO2
_symmetry_space_group_name_H-M   'P 1'
_cell_length_a   2.93685381
_cell_length_b   8.17314245
_cell_length_c   8.15107284
_cell_angle_alpha   89.19019340
_cell_angle_beta   79.93671942
_cell_angle_gamma   79.65027588
_symmetry_Int_Tables_number   1
_chemical_formula_structural   MgNiO2
_chemical_formula_sum   'Mg4 Ni4 O8'
_cell_volume   189.47831626
_cell_formula_units_Z   4
loop_
 _symmetry_equiv_pos_site_id
 _symmetry_equiv_pos_as_xyz
  1  'x, y, z'
loop_
 _atom_site_type_symbol
 _atom_site_label
 _atom_site_symmetry_multiplicity
 _atom_site_fract_x
 _atom_site_fract_y
 _atom_site_fract_z
 _atom_site_occupancy
  Mg  Mg0  1  0.327356  0.071877  0.256520  1
  Mg  Mg1  1  0.668136  0.908025  0.771733  1
  Mg  Mg2  1  0.077774  0.710959  0.127876  1
  Mg  Mg3  1  0.918772  0.268829  0.900299  1
  Ni  Ni4  1  0.593989  0.218136  0.594535  1
  Ni  Ni5  1  0.182427  0.389549  0.238745  1
  Ni  Ni6  1  0.814132  0.590498  0.789275  1
  Ni  Ni7  1  0.402096  0.761470  0.433619  1
  O  O8  1  0.842244  0.730602  0.590030  1
  O  O9  1  0.398783  0.404269  0.802876  1
  O  O10  1  0.597299  0.575814  0.225799  1
  O  O11  1  0.153575  0.249444  0.438187  1
  O  O12  1  0.095767  0.081877  0.740426  1
  O  O13  1  0.812285  0.222300  0.136212  1
  O  O14  1  0.899983  0.897932  0.287563  1
  O  O15  1  0.183657  0.757753  0.891919  1
