# generated using pymatgen
data_SrTi(PO4)2
_symmetry_space_group_name_H-M   'P 1'
_cell_length_a   5.49568144
_cell_length_b   7.23009301
_cell_length_c   9.22316824
_cell_angle_alpha   108.47883417
_cell_angle_beta   101.72808610
_cell_angle_gamma   98.52265503
_symmetry_Int_Tables_number   1
_chemical_formula_structural   SrTi(PO4)2
_chemical_formula_sum   'Sr2 Ti2 P4 O16'
_cell_volume   331.28357025
_cell_formula_units_Z   2
loop_
 _symmetry_equiv_pos_site_id
 _symmetry_equiv_pos_as_xyz
  1  'x, y, z'
loop_
 _atom_site_type_symbol
 _atom_site_label
 _atom_site_symmetry_multiplicity
 _atom_site_fract_x
 _atom_site_fract_y
 _atom_site_fract_z
 _atom_site_occupancy
  Sr  Sr0  1  0.238806  0.769434  0.042772  1
  Sr  Sr1  1  0.761194  0.230566  0.957228  1
  Ti  Ti2  1  0.660279  0.836758  0.559448  1
  Ti  Ti3  1  0.339721  0.163242  0.440552  1
  P  P4  1  0.419473  0.436438  0.230312  1
  P  P5  1  0.580527  0.563562  0.769688  1
  P  P6  1  0.843988  0.034010  0.304753  1
  P  P7  1  0.156012  0.965990  0.695247  1
  O  O8  1  0.825245  0.553358  0.875510  1
  O  O9  1  0.649111  0.461457  0.168341  1
  O  O10  1  0.620196  0.766149  0.733892  1
  O  O11  1  0.944459  0.090890  0.694464  1
  O  O12  1  0.350889  0.538543  0.831659  1
  O  O13  1  0.983583  0.758425  0.573084  1
  O  O14  1  0.016417  0.241575  0.426916  1
  O  O15  1  0.279060  0.983498  0.863278  1
  O  O16  1  0.379805  0.233851  0.266108  1
  O  O17  1  0.720940  0.016502  0.136722  1
  O  O18  1  0.174755  0.446642  0.124490  1
  O  O19  1  0.472138  0.609035  0.399392  1
  O  O20  1  0.527862  0.390965  0.600608  1
  O  O21  1  0.622756  0.975578  0.381978  1
  O  O22  1  0.055541  0.909110  0.305536  1
  O  O23  1  0.377244  0.024422  0.618022  1
