# generated using pymatgen
data_Ba2Co3O7
_symmetry_space_group_name_H-M   'P 1'
_cell_length_a   3.73390626
_cell_length_b   3.74828179
_cell_length_c   12.99713510
_cell_angle_alpha   90.03764792
_cell_angle_beta   90.23658255
_cell_angle_gamma   89.96143078
_symmetry_Int_Tables_number   1
_chemical_formula_structural   Ba2Co3O7
_chemical_formula_sum   'Ba2 Co3 O7'
_cell_volume   181.90279967
_cell_formula_units_Z   1
loop_
 _symmetry_equiv_pos_site_id
 _symmetry_equiv_pos_as_xyz
  1  'x, y, z'
loop_
 _atom_site_type_symbol
 _atom_site_label
 _atom_site_symmetry_multiplicity
 _atom_site_fract_x
 _atom_site_fract_y
 _atom_site_fract_z
 _atom_site_occupancy
  Ba  Ba0  1  0.496922  0.494754  0.807433  1
  Ba  Ba1  1  0.499430  0.495536  0.193322  1
  Co  Co2  1  0.994292  0.994863  0.625415  1
  Co  Co3  1  0.001356  0.996326  0.372975  1
  Co  Co4  1  0.000335  0.994907  0.000151  1
  O  O5  1  0.002632  0.494897  0.999867  1
  O  O6  1  0.494450  0.994937  0.641950  1
  O  O7  1  0.501107  0.996339  0.352893  1
  O  O8  1  0.994500  0.494921  0.639659  1
  O  O9  1  0.001407  0.496367  0.368480  1
  O  O10  1  0.997652  0.994642  0.861332  1
  O  O11  1  0.998736  0.995212  0.138456  1
