# generated using pymatgen
data_Zn3Si4(NiO7)2
_symmetry_space_group_name_H-M   'P 1'
_cell_length_a   7.55202297
_cell_length_b   9.45479141
_cell_length_c   9.13958808
_cell_angle_alpha   62.80863557
_cell_angle_beta   65.59719649
_cell_angle_gamma   66.46085824
_symmetry_Int_Tables_number   1
_chemical_formula_structural   Zn3Si4(NiO7)2
_chemical_formula_sum   'Zn6 Si8 Ni4 O28'
_cell_volume   510.43836158
_cell_formula_units_Z   2
loop_
 _symmetry_equiv_pos_site_id
 _symmetry_equiv_pos_as_xyz
  1  'x, y, z'
loop_
 _atom_site_type_symbol
 _atom_site_label
 _atom_site_symmetry_multiplicity
 _atom_site_fract_x
 _atom_site_fract_y
 _atom_site_fract_z
 _atom_site_occupancy
  Zn  Zn0  1  0.927877  0.894714  0.440924  1
  Zn  Zn1  1  0.263514  0.605286  0.059076  1
  Zn  Zn2  1  0.736486  0.394714  0.940924  1
  Zn  Zn3  1  0.618519  0.250000  0.750000  1
  Zn  Zn4  1  0.072123  0.105286  0.559076  1
  Zn  Zn5  1  0.381481  0.750000  0.250000  1
  Si  Si6  1  0.463438  0.293679  0.341769  1
  Si  Si7  1  0.901114  0.793679  0.841769  1
  Si  Si8  1  0.472449  0.900279  0.859620  1
  Si  Si9  1  0.767653  0.400279  0.359620  1
  Si  Si10  1  0.098886  0.206321  0.158231  1
  Si  Si11  1  0.527551  0.099721  0.140380  1
  Si  Si12  1  0.232347  0.599721  0.640380  1
  Si  Si13  1  0.536562  0.706321  0.658231  1
  Ni  Ni14  1  0.214990  0.250000  0.750000  1
  Ni  Ni15  1  0.785010  0.750000  0.250000  1
  Ni  Ni16  1  0.000000  0.000000  0.000000  1
  Ni  Ni17  1  0.000000  0.500000  0.500000  1
  O  O18  1  0.158662  0.667594  0.465579  1
  O  O19  1  0.024641  0.582899  0.267940  1
  O  O20  1  0.540991  0.908203  0.189939  1
  O  O21  1  0.124519  0.082899  0.767940  1
  O  O22  1  0.759316  0.685425  0.520217  1
  O  O23  1  0.947116  0.378189  0.186986  1
  O  O24  1  0.360865  0.408203  0.689939  1
  O  O25  1  0.964958  0.814575  0.979783  1
  O  O26  1  0.052884  0.621811  0.813014  1
  O  O27  1  0.366063  0.729165  0.577355  1
  O  O28  1  0.975359  0.417101  0.732060  1
  O  O29  1  0.240684  0.314575  0.479783  1
  O  O30  1  0.512292  0.121811  0.313014  1
  O  O31  1  0.708164  0.167594  0.965579  1
  O  O32  1  0.327417  0.229165  0.077355  1
  O  O33  1  0.035042  0.185425  0.020217  1
  O  O34  1  0.092387  0.058522  0.343363  1
  O  O35  1  0.633937  0.270835  0.422645  1
  O  O36  1  0.494272  0.441478  0.156637  1
  O  O37  1  0.672583  0.770835  0.922645  1
  O  O38  1  0.487708  0.878189  0.686986  1
  O  O39  1  0.875481  0.917101  0.232060  1
  O  O40  1  0.505728  0.558522  0.843363  1
  O  O41  1  0.459008  0.091797  0.810061  1
  O  O42  1  0.907613  0.941478  0.656637  1
  O  O43  1  0.639135  0.591797  0.310061  1
  O  O44  1  0.291836  0.832406  0.034421  1
  O  O45  1  0.841338  0.332406  0.534421  1
