# generated using pymatgen
data_Ca2NiWO6
_symmetry_space_group_name_H-M   'P 1'
_cell_length_a   5.59163175
_cell_length_b   5.65580701
_cell_length_c   7.87905493
_cell_angle_alpha   89.80844601
_cell_angle_beta   134.97175929
_cell_angle_gamma   120.46354865
_symmetry_Int_Tables_number   1
_chemical_formula_structural   Ca2NiWO6
_chemical_formula_sum   'Ca2 Ni1 W1 O6'
_cell_volume   123.54704398
_cell_formula_units_Z   1
loop_
 _symmetry_equiv_pos_site_id
 _symmetry_equiv_pos_as_xyz
  1  'x, y, z'
loop_
 _atom_site_type_symbol
 _atom_site_label
 _atom_site_symmetry_multiplicity
 _atom_site_fract_x
 _atom_site_fract_y
 _atom_site_fract_z
 _atom_site_occupancy
  Ca  Ca0  1  0.006841  0.536353  0.252014  1
  Ca  Ca1  1  0.999230  0.530604  0.753226  1
  Ni  Ni2  1  0.001165  0.982425  0.499380  1
  W  W3  1  0.000042  0.979761  0.998513  1
  O  O4  1  0.017772  0.975879  0.251934  1
  O  O5  1  0.984480  0.956168  0.746036  1
  O  O6  1  0.494787  0.462420  0.239570  1
  O  O7  1  0.488280  0.952031  0.744908  1
  O  O8  1  0.475571  0.963535  0.234374  1
  O  O9  1  0.529296  0.488279  0.766521  1
