# generated using pymatgen
data_AlFe(WO4)2
_symmetry_space_group_name_H-M   'P 1'
_cell_length_a   5.12352677
_cell_length_b   5.54980873
_cell_length_c   9.19221775
_cell_angle_alpha   89.99998662
_cell_angle_beta   90.29186328
_cell_angle_gamma   89.99793744
_symmetry_Int_Tables_number   1
_chemical_formula_structural   AlFe(WO4)2
_chemical_formula_sum   'Al2 Fe2 W4 O16'
_cell_volume   261.37358472
_cell_formula_units_Z   2
loop_
 _symmetry_equiv_pos_site_id
 _symmetry_equiv_pos_as_xyz
  1  'x, y, z'
loop_
 _atom_site_type_symbol
 _atom_site_label
 _atom_site_symmetry_multiplicity
 _atom_site_fract_x
 _atom_site_fract_y
 _atom_site_fract_z
 _atom_site_occupancy
  Al  Al0  1  0.250003  0.654888  0.250001  1
  Al  Al1  1  0.749996  0.345111  0.749999  1
  Fe  Fe2  1  0.749992  0.356674  0.249999  1
  Fe  Fe3  1  0.250008  0.643325  0.750001  1
  W  W4  1  0.247976  0.165468  0.501013  1
  W  W5  1  0.252019  0.165474  0.998990  1
  W  W6  1  0.752024  0.834532  0.498987  1
  W  W7  1  0.747981  0.834526  0.001010  1
  O  O8  1  0.402896  0.384024  0.135296  1
  O  O9  1  0.097117  0.384036  0.364710  1
  O  O10  1  0.597104  0.615975  0.864704  1
  O  O11  1  0.902882  0.615963  0.635290  1
  O  O12  1  0.407245  0.881483  0.611018  1
  O  O13  1  0.092740  0.881468  0.888980  1
  O  O14  1  0.592755  0.118517  0.388982  1
  O  O15  1  0.907260  0.118532  0.111020  1
  O  O16  1  0.934558  0.624286  0.141663  1
  O  O17  1  0.565443  0.624266  0.358336  1
  O  O18  1  0.065442  0.375715  0.858337  1
  O  O19  1  0.434557  0.375735  0.641664  1
  O  O20  1  0.416164  0.876707  0.117725  1
  O  O21  1  0.583836  0.123294  0.882275  1
  O  O22  1  0.083817  0.876714  0.382276  1
  O  O23  1  0.916183  0.123287  0.617724  1
