# generated using pymatgen
data_SrZnSn(PO4)2
_symmetry_space_group_name_H-M   'P 1'
_cell_length_a   5.56493718
_cell_length_b   7.20214696
_cell_length_c   10.05384478
_cell_angle_alpha   110.40493292
_cell_angle_beta   101.91092067
_cell_angle_gamma   96.90517798
_symmetry_Int_Tables_number   1
_chemical_formula_structural   SrZnSn(PO4)2
_chemical_formula_sum   'Sr2 Zn2 Sn2 P4 O16'
_cell_volume   361.33160560
_cell_formula_units_Z   2
loop_
 _symmetry_equiv_pos_site_id
 _symmetry_equiv_pos_as_xyz
  1  'x, y, z'
loop_
 _atom_site_type_symbol
 _atom_site_label
 _atom_site_symmetry_multiplicity
 _atom_site_fract_x
 _atom_site_fract_y
 _atom_site_fract_z
 _atom_site_occupancy
  Sr  Sr0  1  0.235897  0.788281  0.037497  1
  Sr  Sr1  1  0.764103  0.211719  0.962503  1
  Zn  Zn2  1  0.019326  0.356452  0.638412  1
  Zn  Zn3  1  0.980674  0.643548  0.361588  1
  Sn  Sn4  1  0.621272  0.826886  0.579439  1
  Sn  Sn5  1  0.378728  0.173114  0.420561  1
  P  P6  1  0.368159  0.414144  0.212701  1
  P  P7  1  0.631841  0.585856  0.787299  1
  P  P8  1  0.816049  0.011544  0.279993  1
  P  P9  1  0.183951  0.988456  0.720007  1
  O  O10  1  0.793838  0.561932  0.921174  1
  O  O11  1  0.654049  0.480191  0.229582  1
  O  O12  1  0.680828  0.812153  0.800756  1
  O  O13  1  0.975123  0.118390  0.702874  1
  O  O14  1  0.345951  0.519809  0.770418  1
  O  O15  1  0.072624  0.775272  0.589299  1
  O  O16  1  0.927376  0.224728  0.410701  1
  O  O17  1  0.229991  0.979887  0.871808  1
  O  O18  1  0.319172  0.187847  0.199244  1
  O  O19  1  0.770009  0.020113  0.128192  1
  O  O20  1  0.206162  0.438067  0.078826  1
  O  O21  1  0.289455  0.534573  0.355187  1
  O  O22  1  0.710545  0.465427  0.644813  1
  O  O23  1  0.567286  0.914649  0.300397  1
  O  O24  1  0.024877  0.881610  0.297126  1
  O  O25  1  0.432714  0.085351  0.699603  1
