# generated using pymatgen
data_Sn5O7
_symmetry_space_group_name_H-M   'P 1'
_cell_length_a   3.28117925
_cell_length_b   6.80652663
_cell_length_c   19.29041025
_cell_angle_alpha   90.00000000
_cell_angle_beta   90.00000000
_cell_angle_gamma   103.94744443
_symmetry_Int_Tables_number   1
_chemical_formula_structural   Sn5O7
_chemical_formula_sum   'Sn10 O14'
_cell_volume   418.11930129
_cell_formula_units_Z   2
loop_
 _symmetry_equiv_pos_site_id
 _symmetry_equiv_pos_as_xyz
  1  'x, y, z'
loop_
 _atom_site_type_symbol
 _atom_site_label
 _atom_site_symmetry_multiplicity
 _atom_site_fract_x
 _atom_site_fract_y
 _atom_site_fract_z
 _atom_site_occupancy
  Sn  Sn0  1  0.262054  0.524106  0.576523  1
  Sn  Sn1  1  -0.000000  -0.000000  0.500000  1
  Sn  Sn2  1  -0.000000  -0.000000  0.000000  1
  Sn  Sn3  1  0.737946  0.475893  0.423477  1
  Sn  Sn4  1  0.737946  0.475893  0.076523  1
  Sn  Sn5  1  0.262054  0.524106  0.923477  1
  Sn  Sn6  1  0.457246  0.914492  0.152007  1
  Sn  Sn7  1  0.542754  0.085507  0.847994  1
  Sn  Sn8  1  0.542754  0.085507  0.652006  1
  Sn  Sn9  1  0.457246  0.914492  0.347994  1
  O  O10  1  0.672618  0.345235  0.975051  1
  O  O11  1  0.327383  0.654766  0.024949  1
  O  O12  1  0.327383  0.654766  0.475051  1
  O  O13  1  0.672618  0.345235  0.524949  1
  O  O14  1  0.150886  0.301775  0.847857  1
  O  O15  1  0.849114  0.698225  0.152143  1
  O  O16  1  0.849114  0.698225  0.347858  1
  O  O17  1  0.150886  0.301775  0.652143  1
  O  O18  1  0.848091  0.696181  0.897653  1
  O  O19  1  0.151909  0.303819  0.102347  1
  O  O20  1  0.151909  0.303819  0.397653  1
  O  O21  1  0.848091  0.696181  0.602347  1
  O  O22  1  0.498196  0.996393  0.750000  1
  O  O23  1  0.501805  0.003609  0.250000  1
