# generated using pymatgen
data_AlCu3(SbO3)4
_symmetry_space_group_name_H-M   'P 1'
_cell_length_a   6.81642159
_cell_length_b   6.81638616
_cell_length_c   6.81636613
_cell_angle_alpha   109.55139098
_cell_angle_beta   109.39595511
_cell_angle_gamma   109.47186980
_symmetry_Int_Tables_number   1
_chemical_formula_structural   AlCu3(SbO3)4
_chemical_formula_sum   'Al1 Cu3 Sb4 O12'
_cell_volume   243.78741229
_cell_formula_units_Z   1
loop_
 _symmetry_equiv_pos_site_id
 _symmetry_equiv_pos_as_xyz
  1  'x, y, z'
loop_
 _atom_site_type_symbol
 _atom_site_label
 _atom_site_symmetry_multiplicity
 _atom_site_fract_x
 _atom_site_fract_y
 _atom_site_fract_z
 _atom_site_occupancy
  Al  Al0  1  0.000003  0.000001  0.999994  1
  Cu  Cu1  1  0.499994  0.999992  0.500000  1
  Cu  Cu2  1  0.500002  0.500001  0.999995  1
  Cu  Cu3  1  0.000005  0.500005  0.500003  1
  Sb  Sb4  1  0.500003  0.000007  0.000002  1
  Sb  Sb5  1  0.999994  0.999998  0.499995  1
  Sb  Sb6  1  0.000002  0.499999  0.000002  1
  Sb  Sb7  1  0.499998  0.499995  0.499999  1
  O  O8  1  0.826213  0.301922  0.128122  1
  O  O9  1  0.173792  0.698088  0.871884  1
  O  O10  1  0.826138  0.698023  0.524259  1
  O  O11  1  0.301638  0.475580  0.174053  1
  O  O12  1  0.475728  0.173554  0.302283  1
  O  O13  1  0.128732  0.826510  0.302227  1
  O  O14  1  0.698407  0.872407  0.173979  1
  O  O15  1  0.524271  0.826439  0.697724  1
  O  O16  1  0.173861  0.301977  0.475745  1
  O  O17  1  0.698374  0.524424  0.825947  1
  O  O18  1  0.871259  0.173486  0.697770  1
  O  O19  1  0.301586  0.127594  0.826014  1
