# generated using pymatgen
data_ZnNi2O5
_symmetry_space_group_name_H-M   'P 1'
_cell_length_a   3.83143653
_cell_length_b   5.56847282
_cell_length_c   10.75647080
_cell_angle_alpha   89.84093077
_cell_angle_beta   89.99991832
_cell_angle_gamma   90.00055225
_symmetry_Int_Tables_number   1
_chemical_formula_structural   ZnNi2O5
_chemical_formula_sum   'Zn2 Ni4 O10'
_cell_volume   229.49111126
_cell_formula_units_Z   2
loop_
 _symmetry_equiv_pos_site_id
 _symmetry_equiv_pos_as_xyz
  1  'x, y, z'
loop_
 _atom_site_type_symbol
 _atom_site_label
 _atom_site_symmetry_multiplicity
 _atom_site_fract_x
 _atom_site_fract_y
 _atom_site_fract_z
 _atom_site_occupancy
  Zn  Zn0  1  0.750006  0.770955  0.250053  1
  Zn  Zn1  1  0.249997  0.229842  0.749875  1
  Ni  Ni2  1  0.250001  0.507185  0.097270  1
  Ni  Ni3  1  0.750001  0.492685  0.902898  1
  Ni  Ni4  1  0.749999  0.494531  0.597389  1
  Ni  Ni5  1  0.250001  0.505491  0.402412  1
  O  O6  1  0.749998  0.300035  0.750406  1
  O  O7  1  0.250005  0.700064  0.249581  1
  O  O8  1  0.750002  0.585330  0.079087  1
  O  O9  1  0.249999  0.414612  0.921076  1
  O  O10  1  0.750002  0.585038  0.420551  1
  O  O11  1  0.249998  0.414909  0.579201  1
  O  O12  1  0.250002  0.186656  0.311341  1
  O  O13  1  0.749988  0.813019  0.688610  1
  O  O14  1  0.750002  0.812155  0.811870  1
  O  O15  1  0.249992  0.187491  0.188380  1
