# generated using pymatgen
data_VZnPO5
_symmetry_space_group_name_H-M   'P 1'
_cell_length_a   5.47058692
_cell_length_b   7.20872610
_cell_length_c   8.20510701
_cell_angle_alpha   89.96511360
_cell_angle_beta   41.41587537
_cell_angle_gamma   107.49997340
_symmetry_Int_Tables_number   1
_chemical_formula_structural   VZnPO5
_chemical_formula_sum   'V2 Zn2 P2 O10'
_cell_volume   190.58330268
_cell_formula_units_Z   2
loop_
 _symmetry_equiv_pos_site_id
 _symmetry_equiv_pos_as_xyz
  1  'x, y, z'
loop_
 _atom_site_type_symbol
 _atom_site_label
 _atom_site_symmetry_multiplicity
 _atom_site_fract_x
 _atom_site_fract_y
 _atom_site_fract_z
 _atom_site_occupancy
  V  V0  1  0.499919  0.502064  0.498976  1
  V  V1  1  0.499807  0.002022  0.499139  1
  Zn  Zn2  1  0.502212  0.250745  0.179504  1
  Zn  Zn3  1  0.501637  0.757439  0.816569  1
  P  P4  1  0.499079  0.251058  0.850014  1
  P  P5  1  0.499318  0.752620  0.148804  1
  O  O6  1  0.591964  0.098958  0.699596  1
  O  O7  1  0.405819  0.400992  0.790935  1
  O  O8  1  0.405795  0.903844  0.300238  1
  O  O9  1  0.591934  0.601764  0.207437  1
  O  O10  1  0.140021  0.634184  0.202569  1
  O  O11  1  0.860532  0.872541  0.843178  1
  O  O12  1  0.859741  0.370505  0.794909  1
  O  O13  1  0.139192  0.132147  0.155610  1
  O  O14  1  0.498324  0.751590  0.590369  1
  O  O15  1  0.501219  0.252444  0.407860  1
