# generated using pymatgen
data_Ca4Sn5(TeO6)3
_symmetry_space_group_name_H-M   'P 1'
_cell_length_a   9.41435618
_cell_length_b   9.41435649
_cell_length_c   11.85769644
_cell_angle_alpha   87.80794642
_cell_angle_beta   87.80794435
_cell_angle_gamma   67.62744684
_symmetry_Int_Tables_number   1
_chemical_formula_structural   Ca4Sn5(TeO6)3
_chemical_formula_sum   'Ca8 Sn10 Te6 O36'
_cell_volume   970.81198201
_cell_formula_units_Z   2
loop_
 _symmetry_equiv_pos_site_id
 _symmetry_equiv_pos_as_xyz
  1  'x, y, z'
loop_
 _atom_site_type_symbol
 _atom_site_label
 _atom_site_symmetry_multiplicity
 _atom_site_fract_x
 _atom_site_fract_y
 _atom_site_fract_z
 _atom_site_occupancy
  Ca  Ca0  1  0.873725  0.577194  0.374785  1
  Ca  Ca1  1  0.498842  0.554798  0.223596  1
  Ca  Ca2  1  0.422806  0.126275  0.625215  1
  Ca  Ca3  1  0.445202  0.501158  0.776404  1
  Ca  Ca4  1  0.162840  0.891633  0.723366  1
  Ca  Ca5  1  0.185503  0.266117  0.874327  1
  Ca  Ca6  1  0.733883  0.814497  0.125673  1
  Ca  Ca7  1  0.108367  0.837160  0.276634  1
  Sn  Sn8  1  0.784031  0.464207  0.989689  1
  Sn  Sn9  1  0.072353  0.176600  0.485478  1
  Sn  Sn10  1  0.342755  0.295189  0.338378  1
  Sn  Sn11  1  0.903280  0.731876  0.837609  1
  Sn  Sn12  1  0.704811  0.657245  0.661622  1
  Sn  Sn13  1  0.964116  0.035884  1.000000  1
  Sn  Sn14  1  0.647245  0.352755  0.500000  1
  Sn  Sn15  1  0.268124  0.096721  0.162391  1
  Sn  Sn16  1  0.823400  0.927647  0.514522  1
  Sn  Sn17  1  0.535793  0.215969  0.010311  1
  Te  Te18  1  0.453837  0.867496  0.919426  1
  Te  Te19  1  0.802732  0.195513  0.248850  1
  Te  Te20  1  0.804487  0.197268  0.751150  1
  Te  Te21  1  0.475560  0.845357  0.419737  1
  Te  Te22  1  0.154643  0.524440  0.580263  1
  Te  Te23  1  0.132504  0.546163  0.080574  1
  O  O24  1  0.406939  0.046047  0.822352  1
  O  O25  1  0.700227  0.413541  0.848930  1
  O  O26  1  0.629586  0.573705  0.521892  1
  O  O27  1  0.722530  0.129715  0.424840  1
  O  O28  1  0.586459  0.299773  0.151070  1
  O  O29  1  0.870285  0.277470  0.575160  1
  O  O30  1  0.361561  0.793879  0.307309  1
  O  O31  1  0.017822  0.108954  0.838162  1
  O  O32  1  0.593025  0.280438  0.664575  1
  O  O33  1  0.110376  0.359697  0.422169  1
  O  O34  1  0.641339  0.611253  0.092362  1
  O  O35  1  0.500240  0.032657  0.075922  1
  O  O36  1  0.902776  0.979834  0.658106  1
  O  O37  1  0.679455  0.787871  0.916280  1
  O  O38  1  0.388747  0.358661  0.907638  1
  O  O39  1  0.245594  0.598635  0.193168  1
  O  O40  1  0.967033  0.783318  0.410394  1
  O  O41  1  0.212129  0.320545  0.083720  1
  O  O42  1  0.426295  0.370414  0.478108  1
  O  O43  1  0.216682  0.032967  0.589606  1
  O  O44  1  0.654018  0.798803  0.322591  1
  O  O45  1  0.928716  0.603588  0.583284  1
  O  O46  1  0.891046  0.982178  0.161838  1
  O  O47  1  0.401365  0.754406  0.806832  1
  O  O48  1  0.979747  0.816598  0.975416  1
  O  O49  1  0.739803  0.114295  0.919562  1
  O  O50  1  0.967343  0.499760  0.924078  1
  O  O51  1  0.206121  0.638439  0.692691  1
  O  O52  1  0.020166  0.097224  0.341894  1
  O  O53  1  0.396412  0.071284  0.416716  1
  O  O54  1  0.201197  0.345982  0.677409  1
  O  O55  1  0.885705  0.260197  0.080438  1
  O  O56  1  0.719562  0.406975  0.335425  1
  O  O57  1  0.640303  0.889624  0.577831  1
  O  O58  1  0.183402  0.020253  0.024584  1
  O  O59  1  0.953953  0.593061  0.177648  1
