# generated using pymatgen
data_BaYFe4O7
_symmetry_space_group_name_H-M   'P 1'
_cell_length_a   6.54533470
_cell_length_b   6.54533470
_cell_length_c   10.50633752
_cell_angle_alpha   90.00000000
_cell_angle_beta   90.00000000
_cell_angle_gamma   120.00000411
_symmetry_Int_Tables_number   1
_chemical_formula_structural   BaYFe4O7
_chemical_formula_sum   'Ba2 Y2 Fe8 O14'
_cell_volume   389.80345211
_cell_formula_units_Z   2
loop_
 _symmetry_equiv_pos_site_id
 _symmetry_equiv_pos_as_xyz
  1  'x, y, z'
loop_
 _atom_site_type_symbol
 _atom_site_label
 _atom_site_symmetry_multiplicity
 _atom_site_fract_x
 _atom_site_fract_y
 _atom_site_fract_z
 _atom_site_occupancy
  Ba  Ba0  1  0.666667  0.333333  0.484025  1
  Ba  Ba1  1  0.333333  0.666667  0.984025  1
  Y  Y2  1  0.666667  0.333333  0.878024  1
  Y  Y3  1  0.333333  0.666667  0.378024  1
  Fe  Fe4  1  0.828463  0.171538  0.194874  1
  Fe  Fe5  1  0.656924  0.828462  0.694875  1
  Fe  Fe6  1  0.171538  0.343076  0.694875  1
  Fe  Fe7  1  0.828463  0.656924  0.194874  1
  Fe  Fe8  1  0.343075  0.171538  0.194874  1
  Fe  Fe9  1  0.171538  0.828462  0.694875  1
  Fe  Fe10  1  -0.000000  -0.000000  0.445960  1
  Fe  Fe11  1  -0.000000  -0.000000  0.945960  1
  O  O12  1  0.838359  0.161642  0.999763  1
  O  O13  1  0.676717  0.838358  0.499762  1
  O  O14  1  0.161641  0.323282  0.499762  1
  O  O15  1  0.838360  0.676718  0.999763  1
  O  O16  1  0.323282  0.161642  0.999763  1
  O  O17  1  0.161641  0.838358  0.499762  1
  O  O18  1  -0.000000  -0.000000  0.761491  1
  O  O19  1  -0.000000  -0.000000  0.261492  1
  O  O20  1  0.499525  0.500477  0.260195  1
  O  O21  1  0.999048  0.499525  0.760195  1
  O  O22  1  0.500476  0.000952  0.760195  1
  O  O23  1  0.499525  0.999048  0.260195  1
  O  O24  1  0.500477  0.499525  0.760195  1
  O  O25  1  0.000952  0.500477  0.260195  1
