# generated using pymatgen
data_Ca(VS2)4
_symmetry_space_group_name_H-M   'P 1'
_cell_length_a   7.90477683
_cell_length_b   7.90477651
_cell_length_c   7.90477781
_cell_angle_alpha   49.02977436
_cell_angle_beta   49.02976983
_cell_angle_gamma   49.02977526
_symmetry_Int_Tables_number   1
_chemical_formula_structural   Ca(VS2)4
_chemical_formula_sum   'Ca1 V4 S8'
_cell_volume   258.57059226
_cell_formula_units_Z   1
loop_
 _symmetry_equiv_pos_site_id
 _symmetry_equiv_pos_as_xyz
  1  'x, y, z'
loop_
 _atom_site_type_symbol
 _atom_site_label
 _atom_site_symmetry_multiplicity
 _atom_site_fract_x
 _atom_site_fract_y
 _atom_site_fract_z
 _atom_site_occupancy
  Ca  Ca0  1  0.500000  0.500001  0.499999  1
  V  V1  1  0.500001  0.999999  0.500001  1
  V  V2  1  0.999999  0.500000  0.500001  1
  V  V3  1  0.500000  0.500000  0.000000  1
  V  V4  1  0.000000  0.000000  0.000000  1
  S  S5  1  0.765714  0.260247  0.765714  1
  S  S6  1  0.234285  0.234286  0.739753  1
  S  S7  1  0.234285  0.739754  0.234285  1
  S  S8  1  0.739752  0.234286  0.234286  1
  S  S9  1  0.264855  0.264856  0.264855  1
  S  S10  1  0.735145  0.735145  0.735145  1
  S  S11  1  0.260248  0.765715  0.765714  1
  S  S12  1  0.765715  0.765715  0.260247  1
