# generated using pymatgen
data_CaV2O4
_symmetry_space_group_name_H-M   'P 1'
_cell_length_a   6.31044077
_cell_length_b   6.28378817
_cell_length_c   18.73852085
_cell_angle_alpha   59.84249567
_cell_angle_beta   60.23820912
_cell_angle_gamma   60.15945461
_symmetry_Int_Tables_number   1
_chemical_formula_structural   CaV2O4
_chemical_formula_sum   'Ca6 V12 O24'
_cell_volume   526.35301598
_cell_formula_units_Z   6
loop_
 _symmetry_equiv_pos_site_id
 _symmetry_equiv_pos_as_xyz
  1  'x, y, z'
loop_
 _atom_site_type_symbol
 _atom_site_label
 _atom_site_symmetry_multiplicity
 _atom_site_fract_x
 _atom_site_fract_y
 _atom_site_fract_z
 _atom_site_occupancy
  Ca  Ca0  1  0.135408  0.121089  0.040917  1
  Ca  Ca1  1  0.501671  0.500922  0.332610  1
  Ca  Ca2  1  0.998265  0.500162  0.167067  1
  Ca  Ca3  1  0.501969  0.496177  0.668543  1
  Ca  Ca4  1  0.000052  0.499737  0.500184  1
  Ca  Ca5  1  0.998049  0.502472  0.832167  1
  V  V6  1  0.497223  0.009029  0.165984  1
  V  V7  1  0.131028  0.115118  0.379426  1
  V  V8  1  0.495177  0.496948  0.003758  1
  V  V9  1  0.496590  0.494851  0.166337  1
  V  V10  1  0.499907  0.000176  0.500049  1
  V  V11  1  0.136371  0.116974  0.709902  1
  V  V12  1  0.499727  0.499954  0.500116  1
  V  V13  1  0.501350  0.998457  0.833147  1
  V  V14  1  0.865983  0.882890  0.289526  1
  V  V15  1  0.500065  0.500741  0.833771  1
  V  V16  1  0.868083  0.884580  0.621156  1
  V  V17  1  0.863131  0.881641  0.957759  1
  O  O18  1  0.298736  0.254849  0.083616  1
  O  O19  1  0.268381  0.235340  0.251731  1
  O  O20  1  0.298562  0.696313  0.083674  1
  O  O21  1  0.698634  0.261783  0.092837  1
  O  O22  1  0.273861  0.219028  0.423785  1
  O  O23  1  0.261206  0.764371  0.235406  1
  O  O24  1  0.278977  0.243786  0.578844  1
  O  O25  1  0.732948  0.258000  0.241355  1
  O  O26  1  0.272467  0.735746  0.424351  1
  O  O27  1  0.720274  0.765015  0.084807  1
  O  O28  1  0.741670  0.240760  0.424638  1
  O  O29  1  0.733599  0.783609  0.241756  1
  O  O30  1  0.270683  0.215915  0.757722  1
  O  O31  1  0.257041  0.758818  0.576123  1
  O  O32  1  0.728925  0.261414  0.576291  1
  O  O33  1  0.269890  0.740323  0.757921  1
  O  O34  1  0.302011  0.254420  0.895537  1
  O  O35  1  0.723249  0.756075  0.420708  1
  O  O36  1  0.755182  0.236906  0.758937  1
  O  O37  1  0.727685  0.781184  0.576659  1
  O  O38  1  0.256606  0.741900  0.918078  1
  O  O39  1  0.710036  0.273775  0.919811  1
  O  O40  1  0.719311  0.761068  0.753621  1
  O  O41  1  0.710016  0.757680  0.919375  1
