# generated using pymatgen
data_Mg2Ta2SnO8
_symmetry_space_group_name_H-M   'P 1'
_cell_length_a   5.33246563
_cell_length_b   6.06065671
_cell_length_c   10.86530354
_cell_angle_alpha   106.20116242
_cell_angle_beta   91.92150032
_cell_angle_gamma   89.99226458
_symmetry_Int_Tables_number   1
_chemical_formula_structural   Mg2Ta2SnO8
_chemical_formula_sum   'Mg4 Ta4 Sn2 O16'
_cell_volume   336.99760467
_cell_formula_units_Z   2
loop_
 _symmetry_equiv_pos_site_id
 _symmetry_equiv_pos_as_xyz
  1  'x, y, z'
loop_
 _atom_site_type_symbol
 _atom_site_label
 _atom_site_symmetry_multiplicity
 _atom_site_fract_x
 _atom_site_fract_y
 _atom_site_fract_z
 _atom_site_occupancy
  Mg  Mg0  1  0.759693  0.412166  0.542951  1
  Mg  Mg1  1  0.740804  0.869573  0.456599  1
  Mg  Mg2  1  0.240936  0.586498  0.457226  1
  Mg  Mg3  1  0.259561  0.129152  0.543196  1
  Ta  Ta4  1  0.728578  0.293141  0.254940  1
  Ta  Ta5  1  0.772420  0.037326  0.744945  1
  Ta  Ta6  1  0.272339  0.706092  0.745111  1
  Ta  Ta7  1  0.228746  0.962130  0.255136  1
  Sn  Sn8  1  0.750787  0.687703  0.000304  1
  Sn  Sn9  1  0.250526  0.313170  0.999454  1
  O  O10  1  0.037038  0.172711  0.170267  1
  O  O11  1  0.464631  0.001384  0.830344  1
  O  O12  1  0.964547  0.827624  0.830394  1
  O  O13  1  0.537230  0.997365  0.170032  1
  O  O14  1  0.616190  0.447394  0.139153  1
  O  O15  1  0.884991  0.307685  0.860357  1
  O  O16  1  0.384602  0.551457  0.860833  1
  O  O17  1  0.115736  0.692480  0.138978  1
  O  O18  1  0.444370  0.300914  0.381689  1
  O  O19  1  0.056739  0.918572  0.618399  1
  O  O20  1  0.373752  0.844334  0.393801  1
  O  O21  1  0.126608  0.450308  0.606300  1
  O  O22  1  0.626769  0.153860  0.605937  1
  O  O23  1  0.873914  0.548609  0.394033  1
  O  O24  1  0.944618  0.080226  0.381935  1
  O  O25  1  0.556216  0.697638  0.618397  1
