# generated using pymatgen
data_Ca2TiWO6
_symmetry_space_group_name_H-M   'P 1'
_cell_length_a   5.48927401
_cell_length_b   5.60444831
_cell_length_c   7.84797414
_cell_angle_alpha   90.00000000
_cell_angle_beta   89.80438767
_cell_angle_gamma   90.00000000
_symmetry_Int_Tables_number   1
_chemical_formula_structural   Ca2TiWO6
_chemical_formula_sum   'Ca4 Ti2 W2 O12'
_cell_volume   241.43643523
_cell_formula_units_Z   2
loop_
 _symmetry_equiv_pos_site_id
 _symmetry_equiv_pos_as_xyz
  1  'x, y, z'
loop_
 _atom_site_type_symbol
 _atom_site_label
 _atom_site_symmetry_multiplicity
 _atom_site_fract_x
 _atom_site_fract_y
 _atom_site_fract_z
 _atom_site_occupancy
  Ca  Ca0  1  0.988590  0.050295  0.250509  1
  Ca  Ca1  1  0.511410  0.550296  0.249491  1
  Ca  Ca2  1  0.011411  0.949706  0.749491  1
  Ca  Ca3  1  0.488589  0.449705  0.750509  1
  Ti  Ti4  1  0.500000  0.000000  0.000000  1
  Ti  Ti5  1  0.000001  0.499999  0.500000  1
  W  W6  1  0.500000  0.000000  0.499999  1
  W  W7  1  0.000000  0.499999  0.000000  1
  O  O8  1  0.705711  0.297313  0.453743  1
  O  O9  1  0.794289  0.797314  0.046257  1
  O  O10  1  0.294288  0.702687  0.546257  1
  O  O11  1  0.205712  0.202686  0.953743  1
  O  O12  1  0.194022  0.211673  0.545450  1
  O  O13  1  0.305978  0.711672  0.954550  1
  O  O14  1  0.805979  0.788327  0.454550  1
  O  O15  1  0.694021  0.288328  0.045450  1
  O  O16  1  0.089889  0.476402  0.255304  1
  O  O17  1  0.410112  0.976403  0.244695  1
  O  O18  1  0.589889  0.023597  0.755305  1
  O  O19  1  0.910112  0.523598  0.744696  1
