# generated using pymatgen
data_TiZnO2
_symmetry_space_group_name_H-M   'P 1'
_cell_length_a   2.89376658
_cell_length_b   7.79235567
_cell_length_c   8.59008064
_cell_angle_alpha   82.87826823
_cell_angle_beta   80.34584533
_cell_angle_gamma   79.25620901
_symmetry_Int_Tables_number   1
_chemical_formula_structural   TiZnO2
_chemical_formula_sum   'Ti4 Zn4 O8'
_cell_volume   186.74786333
_cell_formula_units_Z   4
loop_
 _symmetry_equiv_pos_site_id
 _symmetry_equiv_pos_as_xyz
  1  'x, y, z'
loop_
 _atom_site_type_symbol
 _atom_site_label
 _atom_site_symmetry_multiplicity
 _atom_site_fract_x
 _atom_site_fract_y
 _atom_site_fract_z
 _atom_site_occupancy
  Ti  Ti0  1  0.566728  0.282517  0.586457  1
  Ti  Ti1  1  0.154967  0.414298  0.274571  1
  Ti  Ti2  1  0.841261  0.566868  0.751570  1
  Ti  Ti3  1  0.432830  0.692617  0.439305  1
  Zn  Zn4  1  0.355763  0.049145  0.234792  1
  Zn  Zn5  1  0.625176  0.937712  0.816356  1
  Zn  Zn6  1  0.063695  0.787385  0.080337  1
  Zn  Zn7  1  0.933240  0.196162  0.944986  1
  O  O8  1  0.831586  0.751402  0.583417  1
  O  O9  1  0.402492  0.385399  0.812302  1
  O  O10  1  0.594578  0.594246  0.213475  1
  O  O11  1  0.169751  0.222895  0.439480  1
  O  O12  1  0.083511  0.117075  0.720266  1
  O  O13  1  0.786149  0.259888  0.168353  1
  O  O14  1  0.913740  0.864409  0.303555  1
  O  O15  1  0.212808  0.717317  0.856393  1
