# generated using pymatgen
data_Y(NiO2)2
_symmetry_space_group_name_H-M   'P 1'
_cell_length_a   6.20705928
_cell_length_b   6.20705956
_cell_length_c   6.21132119
_cell_angle_alpha   117.09081377
_cell_angle_beta   120.56362200
_cell_angle_gamma   92.03106590
_symmetry_Int_Tables_number   1
_chemical_formula_structural   Y(NiO2)2
_chemical_formula_sum   'Y2 Ni4 O8'
_cell_volume   171.96375833
_cell_formula_units_Z   2
loop_
 _symmetry_equiv_pos_site_id
 _symmetry_equiv_pos_as_xyz
  1  'x, y, z'
loop_
 _atom_site_type_symbol
 _atom_site_label
 _atom_site_symmetry_multiplicity
 _atom_site_fract_x
 _atom_site_fract_y
 _atom_site_fract_z
 _atom_site_occupancy
  Y  Y0  1  0.000000  0.500001  0.000001  1
  Y  Y1  1  0.000001  0.000000  0.500000  1
  Ni  Ni2  1  0.377822  0.627822  0.750000  1
  Ni  Ni3  1  0.622178  0.372179  0.250000  1
  Ni  Ni4  1  0.500001  0.000000  0.500000  1
  Ni  Ni5  1  0.000000  0.000000  -0.000000  1
  O  O6  1  0.735994  0.741623  0.502657  1
  O  O7  1  0.738967  0.233339  0.997345  1
  O  O8  1  0.242088  0.240445  0.000861  1
  O  O9  1  0.264006  0.258377  0.497344  1
  O  O10  1  0.260416  0.758773  0.500860  1
  O  O11  1  0.261033  0.766662  0.002657  1
  O  O12  1  0.739583  0.241226  0.499139  1
  O  O13  1  0.757912  0.759556  0.999139  1
