# generated using pymatgen
data_VO2
_symmetry_space_group_name_H-M   'P 1'
_cell_length_a   2.90492777
_cell_length_b   7.35805615
_cell_length_c   7.40123065
_cell_angle_alpha   87.78786331
_cell_angle_beta   78.69471781
_cell_angle_gamma   78.62457647
_symmetry_Int_Tables_number   1
_chemical_formula_structural   VO2
_chemical_formula_sum   'V4 O8'
_cell_volume   152.08154088
_cell_formula_units_Z   4
loop_
 _symmetry_equiv_pos_site_id
 _symmetry_equiv_pos_as_xyz
  1  'x, y, z'
loop_
 _atom_site_type_symbol
 _atom_site_label
 _atom_site_symmetry_multiplicity
 _atom_site_fract_x
 _atom_site_fract_y
 _atom_site_fract_z
 _atom_site_occupancy
  V  V0  1  0.643566  0.183524  0.529343  1
  V  V1  1  0.173580  0.470118  0.182408  1
  V  V2  1  0.826412  0.529882  0.817593  1
  V  V3  1  0.356436  0.816476  0.470658  1
  O  O4  1  0.838598  0.704092  0.618914  1
  O  O5  1  0.456857  0.381217  0.705014  1
  O  O6  1  0.543135  0.618783  0.294986  1
  O  O7  1  0.161413  0.295909  0.381087  1
  O  O8  1  0.157184  0.048130  0.637500  1
  O  O9  1  0.795566  0.361060  0.048006  1
  O  O10  1  0.842801  0.951870  0.362501  1
  O  O11  1  0.204453  0.638941  0.951993  1
