# generated using pymatgen
data_MnZnNiP2O9
_symmetry_space_group_name_H-M   'P 1'
_cell_length_a   6.18447183
_cell_length_b   7.25332703
_cell_length_c   14.30347711
_cell_angle_alpha   89.94781205
_cell_angle_beta   89.99067003
_cell_angle_gamma   90.02978129
_symmetry_Int_Tables_number   1
_chemical_formula_structural   MnZnNiP2O9
_chemical_formula_sum   'Mn4 Zn4 Ni4 P8 O36'
_cell_volume   641.62496821
_cell_formula_units_Z   4
loop_
 _symmetry_equiv_pos_site_id
 _symmetry_equiv_pos_as_xyz
  1  'x, y, z'
loop_
 _atom_site_type_symbol
 _atom_site_label
 _atom_site_symmetry_multiplicity
 _atom_site_fract_x
 _atom_site_fract_y
 _atom_site_fract_z
 _atom_site_occupancy
  Mn  Mn0  1  0.750258  0.352425  0.881211  1
  Mn  Mn1  1  0.249769  0.647482  0.118772  1
  Mn  Mn2  1  0.249899  0.852121  0.618703  1
  Mn  Mn3  1  0.749875  0.147686  0.381360  1
  Zn  Zn4  1  0.750015  0.880452  0.783764  1
  Zn  Zn5  1  0.750178  0.623778  0.283867  1
  Zn  Zn6  1  0.249933  0.118907  0.216032  1
  Zn  Zn7  1  0.249790  0.375792  0.716218  1
  Ni  Ni8  1  0.499996  0.000190  0.000097  1
  Ni  Ni9  1  0.499925  0.499965  0.499931  1
  Ni  Ni10  1  0.000137  0.500117  0.499968  1
  Ni  Ni11  1  -0.000008  0.000037  0.000037  1
  P  P12  1  0.250257  0.360602  0.933436  1
  P  P13  1  0.749819  0.639412  0.066487  1
  P  P14  1  0.750149  0.860612  0.566657  1
  P  P15  1  0.249828  0.139246  0.433444  1
  P  P16  1  0.749976  0.394312  0.700010  1
  P  P17  1  0.250008  0.605696  0.299981  1
  P  P18  1  0.250068  0.894947  0.799910  1
  P  P19  1  0.749976  0.105187  0.200086  1
  O  O20  1  0.037927  0.608625  0.358163  1
  O  O21  1  0.537893  0.391441  0.641847  1
  O  O22  1  0.961958  0.107714  0.141921  1
  O  O23  1  0.462098  0.892488  0.858023  1
  O  O24  1  0.962069  0.391222  0.641837  1
  O  O25  1  0.462057  0.608364  0.358158  1
  O  O26  1  0.037995  0.892396  0.858057  1
  O  O27  1  0.537918  0.107659  0.141969  1
  O  O28  1  0.249939  0.328958  0.480031  1
  O  O29  1  0.750011  0.671009  0.520031  1
  O  O30  1  0.749944  0.829179  0.019917  1
  O  O31  1  0.250074  0.171064  0.980175  1
  O  O32  1  0.750009  0.144322  0.947416  1
  O  O33  1  0.250014  0.855726  0.052632  1
  O  O34  1  0.249734  0.644099  0.552639  1
  O  O35  1  0.750345  0.355775  0.447356  1
  O  O36  1  0.750150  0.217119  0.765243  1
  O  O37  1  0.249873  0.783038  0.234818  1
  O  O38  1  0.250280  0.718014  0.734765  1
  O  O39  1  0.749713  0.282102  0.265259  1
  O  O40  1  0.440949  0.122362  0.362697  1
  O  O41  1  0.940917  0.877557  0.637462  1
  O  O42  1  0.558825  0.622797  0.137328  1
  O  O43  1  0.059479  0.377075  0.862586  1
  O  O44  1  0.559112  0.877637  0.637320  1
  O  O45  1  0.059032  0.122385  0.362539  1
  O  O46  1  0.441165  0.377227  0.862674  1
  O  O47  1  0.940684  0.622950  0.137405  1
  O  O48  1  0.750165  0.944008  0.273053  1
  O  O49  1  0.249808  0.056100  0.726906  1
  O  O50  1  0.250016  0.445247  0.226920  1
  O  O51  1  0.749975  0.554998  0.772986  1
  O  O52  1  0.750482  0.011525  0.494013  1
  O  O53  1  0.249511  0.988429  0.505914  1
  O  O54  1  0.249926  0.511791  0.005928  1
  O  O55  1  0.750108  0.488639  0.994045  1
