# generated using pymatgen
data_Mn2Zn(CuO4)2
_symmetry_space_group_name_H-M   'P 1'
_cell_length_a   6.41360139
_cell_length_b   8.32295040
_cell_length_c   11.88167532
_cell_angle_alpha   90.00000000
_cell_angle_beta   90.55644221
_cell_angle_gamma   90.00000000
_symmetry_Int_Tables_number   1
_chemical_formula_structural   Mn2Zn(CuO4)2
_chemical_formula_sum   'Mn8 Zn4 Cu8 O32'
_cell_volume   634.21494345
_cell_formula_units_Z   4
loop_
 _symmetry_equiv_pos_site_id
 _symmetry_equiv_pos_as_xyz
  1  'x, y, z'
loop_
 _atom_site_type_symbol
 _atom_site_label
 _atom_site_symmetry_multiplicity
 _atom_site_fract_x
 _atom_site_fract_y
 _atom_site_fract_z
 _atom_site_occupancy
  Mn  Mn0  1  0.099064  0.460967  0.845141  1
  Mn  Mn1  1  0.099064  0.039033  0.345141  1
  Mn  Mn2  1  0.611739  0.090851  0.131649  1
  Mn  Mn3  1  0.900936  0.960967  0.654859  1
  Mn  Mn4  1  0.388261  0.909149  0.868351  1
  Mn  Mn5  1  0.388261  0.590851  0.368351  1
  Mn  Mn6  1  0.611739  0.409149  0.631649  1
  Mn  Mn7  1  0.900936  0.539033  0.154859  1
  Zn  Zn8  1  0.110470  0.167257  0.050026  1
  Zn  Zn9  1  0.889530  0.832743  0.949974  1
  Zn  Zn10  1  0.889530  0.667257  0.449974  1
  Zn  Zn11  1  0.110470  0.332743  0.550026  1
  Cu  Cu12  1  0.761959  0.175084  0.864662  1
  Cu  Cu13  1  0.387914  0.053554  0.631841  1
  Cu  Cu14  1  0.612086  0.946446  0.368159  1
  Cu  Cu15  1  0.238041  0.824916  0.135338  1
  Cu  Cu16  1  0.761959  0.324916  0.364662  1
  Cu  Cu17  1  0.387914  0.446446  0.131841  1
  Cu  Cu18  1  0.238041  0.675084  0.635338  1
  Cu  Cu19  1  0.612086  0.553554  0.868159  1
  O  O20  1  0.034426  0.231463  0.393036  1
  O  O21  1  0.671488  0.014847  0.590813  1
  O  O22  1  0.189640  0.579256  0.470510  1
  O  O23  1  0.810360  0.079256  0.029490  1
  O  O24  1  0.034426  0.268537  0.893036  1
  O  O25  1  0.965574  0.768537  0.606964  1
  O  O26  1  0.089678  0.100620  0.616715  1
  O  O27  1  0.515377  0.900064  0.139355  1
  O  O28  1  0.515377  0.599936  0.639355  1
  O  O29  1  0.321003  0.867518  0.728779  1
  O  O30  1  0.678997  0.367518  0.771221  1
  O  O31  1  0.484623  0.099936  0.860645  1
  O  O32  1  0.910322  0.899380  0.383285  1
  O  O33  1  0.875617  0.533581  0.297424  1
  O  O34  1  0.415504  0.280648  0.584871  1
  O  O35  1  0.415504  0.219352  0.084872  1
  O  O36  1  0.124383  0.033581  0.202576  1
  O  O37  1  0.484623  0.400064  0.360645  1
  O  O38  1  0.124383  0.466419  0.702576  1
  O  O39  1  0.810360  0.420744  0.529490  1
  O  O40  1  0.671488  0.485154  0.090813  1
  O  O41  1  0.678997  0.132483  0.271221  1
  O  O42  1  0.965574  0.731463  0.106964  1
  O  O43  1  0.089678  0.399380  0.116715  1
  O  O44  1  0.189640  0.920744  0.970510  1
  O  O45  1  0.584496  0.780648  0.915129  1
  O  O46  1  0.328511  0.985154  0.409187  1
  O  O47  1  0.328511  0.514846  0.909187  1
  O  O48  1  0.910322  0.600620  0.883285  1
  O  O49  1  0.584496  0.719352  0.415129  1
  O  O50  1  0.321003  0.632482  0.228779  1
  O  O51  1  0.875617  0.966419  0.797424  1
