# generated using pymatgen
data_Ba2Tl2Zn3(NiO3)4
_symmetry_space_group_name_H-M   'P 1'
_cell_length_a   3.71993774
_cell_length_b   3.61927838
_cell_length_c   23.43152452
_cell_angle_alpha   94.54394842
_cell_angle_beta   94.53655322
_cell_angle_gamma   89.97429804
_symmetry_Int_Tables_number   1
_chemical_formula_structural   Ba2Tl2Zn3(NiO3)4
_chemical_formula_sum   'Ba2 Tl2 Zn3 Ni4 O12'
_cell_volume   313.48792457
_cell_formula_units_Z   1
loop_
 _symmetry_equiv_pos_site_id
 _symmetry_equiv_pos_as_xyz
  1  'x, y, z'
loop_
 _atom_site_type_symbol
 _atom_site_label
 _atom_site_symmetry_multiplicity
 _atom_site_fract_x
 _atom_site_fract_y
 _atom_site_fract_z
 _atom_site_occupancy
  Ba  Ba0  1  0.156577  0.146490  0.312886  1
  Ba  Ba1  1  0.842095  0.844608  0.683145  1
  Tl  Tl2  1  0.723359  0.721542  0.444495  1
  Tl  Tl3  1  0.274051  0.274858  0.549740  1
  Zn  Zn4  1  0.071988  0.079758  0.146660  1
  Zn  Zn5  1  0.930974  0.932512  0.861281  1
  Zn  Zn6  1  0.003117  0.002496  0.002413  1
  Ni  Ni7  1  0.538055  0.544115  0.075717  1
  Ni  Ni8  1  0.398222  0.399973  0.795734  1
  Ni  Ni9  1  0.601287  0.597552  0.207759  1
  Ni  Ni10  1  0.469374  0.467948  0.935893  1
  O  O11  1  0.379233  0.881223  0.758276  1
  O  O12  1  0.521145  0.027147  0.039185  1
  O  O13  1  0.228343  0.227992  0.457679  1
  O  O14  1  0.980021  0.481297  0.960627  1
  O  O15  1  0.767994  0.769053  0.535970  1
  O  O16  1  0.115155  0.605183  0.233634  1
  O  O17  1  0.589693  0.085029  0.183172  1
  O  O18  1  0.319171  0.321629  0.638006  1
  O  O19  1  0.911199  0.412870  0.822079  1
  O  O20  1  0.052022  0.556875  0.101636  1
  O  O21  1  0.449302  0.948866  0.898280  1
  O  O22  1  0.677626  0.670985  0.355735  1
