# generated using pymatgen
data_CaLa(FeO3)2
_symmetry_space_group_name_H-M   'P 1'
_cell_length_a   5.52313035
_cell_length_b   5.52087120
_cell_length_c   7.81248598
_cell_angle_alpha   89.98708135
_cell_angle_beta   90.00492293
_cell_angle_gamma   89.97753439
_symmetry_Int_Tables_number   1
_chemical_formula_structural   CaLa(FeO3)2
_chemical_formula_sum   'Ca2 La2 Fe4 O12'
_cell_volume   238.22213564
_cell_formula_units_Z   2
loop_
 _symmetry_equiv_pos_site_id
 _symmetry_equiv_pos_as_xyz
  1  'x, y, z'
loop_
 _atom_site_type_symbol
 _atom_site_label
 _atom_site_symmetry_multiplicity
 _atom_site_fract_x
 _atom_site_fract_y
 _atom_site_fract_z
 _atom_site_occupancy
  Ca  Ca0  1  0.536376  0.509564  0.250026  1
  Ca  Ca1  1  0.963525  0.009687  0.750054  1
  La  La2  1  0.027646  0.993718  0.249959  1
  La  La3  1  0.472460  0.493799  0.749998  1
  Fe  Fe4  1  0.500065  0.999616  0.499287  1
  Fe  Fe5  1  -0.000025  0.499558  0.999300  1
  Fe  Fe6  1  0.500289  0.999638  0.000609  1
  Fe  Fe7  1  -0.000256  0.499572  0.500594  1
  O  O8  1  0.013526  0.579122  0.750167  1
  O  O9  1  0.217277  0.216921  0.958140  1
  O  O10  1  0.217217  0.217240  0.541886  1
  O  O11  1  0.282478  0.717037  0.041846  1
  O  O12  1  0.282632  0.716996  0.458171  1
  O  O13  1  0.486432  0.079112  0.250177  1
  O  O14  1  0.516697  0.928652  0.749869  1
  O  O15  1  0.722011  0.277873  0.538480  1
  O  O16  1  0.721846  0.277730  0.961535  1
  O  O17  1  0.778438  0.777493  0.461528  1
  O  O18  1  0.778068  0.777932  0.038490  1
  O  O19  1  0.983299  0.428739  0.249882  1
