# generated using pymatgen
data_MgTiCo(PO4)3
_symmetry_space_group_name_H-M   'P 1'
_cell_length_a   8.48200100
_cell_length_b   8.48200151
_cell_length_c   8.48200132
_cell_angle_alpha   61.18715028
_cell_angle_beta   61.18715041
_cell_angle_gamma   61.18715344
_symmetry_Int_Tables_number   1
_chemical_formula_structural   MgTiCo(PO4)3
_chemical_formula_sum   'Mg2 Ti2 Co2 P6 O24'
_cell_volume   443.02298229
_cell_formula_units_Z   2
loop_
 _symmetry_equiv_pos_site_id
 _symmetry_equiv_pos_as_xyz
  1  'x, y, z'
loop_
 _atom_site_type_symbol
 _atom_site_label
 _atom_site_symmetry_multiplicity
 _atom_site_fract_x
 _atom_site_fract_y
 _atom_site_fract_z
 _atom_site_occupancy
  Mg  Mg0  1  0.996316  0.996316  0.996316  1
  Mg  Mg1  1  0.496316  0.496316  0.496316  1
  Ti  Ti2  1  0.144096  0.144096  0.144096  1
  Ti  Ti3  1  0.644096  0.644096  0.644096  1
  Co  Co4  1  0.354077  0.354077  0.354077  1
  Co  Co5  1  0.854077  0.854077  0.854077  1
  P  P6  1  0.046286  0.456478  0.750135  1
  P  P7  1  0.456478  0.750135  0.046286  1
  P  P8  1  0.750135  0.046286  0.456478  1
  P  P9  1  0.250135  0.956478  0.546286  1
  P  P10  1  0.546286  0.250135  0.956478  1
  P  P11  1  0.956478  0.546286  0.250135  1
  O  O12  1  0.112325  0.504146  0.320066  1
  O  O13  1  0.320066  0.112325  0.504146  1
  O  O14  1  0.054232  0.258867  0.911041  1
  O  O15  1  0.504146  0.320066  0.112325  1
  O  O16  1  0.004146  0.612325  0.820066  1
  O  O17  1  0.240227  0.442716  0.589624  1
  O  O18  1  0.258867  0.911041  0.054232  1
  O  O19  1  0.442716  0.589624  0.240227  1
  O  O20  1  0.184190  0.004638  0.380535  1
  O  O21  1  0.589624  0.240227  0.442716  1
  O  O22  1  0.089624  0.942716  0.740227  1
  O  O23  1  0.380535  0.184190  0.004638  1
  O  O24  1  0.612325  0.820066  0.004146  1
  O  O25  1  0.911041  0.054232  0.258867  1
  O  O26  1  0.411041  0.758867  0.554232  1
  O  O27  1  0.820066  0.004146  0.612325  1
  O  O28  1  0.554232  0.411041  0.758867  1
  O  O29  1  0.740227  0.089624  0.942716  1
  O  O30  1  0.758867  0.554232  0.411041  1
  O  O31  1  0.004638  0.380535  0.184190  1
  O  O32  1  0.504638  0.684190  0.880535  1
  O  O33  1  0.942716  0.740227  0.089624  1
  O  O34  1  0.684190  0.880535  0.504638  1
  O  O35  1  0.880535  0.504638  0.684190  1
