# generated using pymatgen
data_Ba2ZnFe2CuF14
_symmetry_space_group_name_H-M   'P 1'
_cell_length_a   5.29367298
_cell_length_b   7.49450383
_cell_length_c   14.70375225
_cell_angle_alpha   91.46425529
_cell_angle_beta   90.06493313
_cell_angle_gamma   110.62598138
_symmetry_Int_Tables_number   1
_chemical_formula_structural   Ba2ZnFe2CuF14
_chemical_formula_sum   'Ba4 Zn2 Fe4 Cu2 F28'
_cell_volume   545.74560876
_cell_formula_units_Z   2
loop_
 _symmetry_equiv_pos_site_id
 _symmetry_equiv_pos_as_xyz
  1  'x, y, z'
loop_
 _atom_site_type_symbol
 _atom_site_label
 _atom_site_symmetry_multiplicity
 _atom_site_fract_x
 _atom_site_fract_y
 _atom_site_fract_z
 _atom_site_occupancy
  Ba  Ba0  1  0.112193  0.375688  0.624379  1
  Ba  Ba1  1  0.264456  0.377160  0.124384  1
  Ba  Ba2  1  0.887774  0.624410  0.376615  1
  Ba  Ba3  1  0.734732  0.623718  0.876488  1
  Zn  Zn4  1  0.430027  0.001282  0.750206  1
  Zn  Zn5  1  0.570508  0.001494  0.250298  1
  Fe  Fe6  1  0.094856  0.237364  0.873717  1
  Fe  Fe7  1  0.904268  0.763236  0.126937  1
  Fe  Fe8  1  0.141296  0.238609  0.373538  1
  Fe  Fe9  1  0.858655  0.761282  0.627421  1
  Cu  Cu10  1  0.499506  0.000895  0.000161  1
  Cu  Cu11  1  0.500421  0.999518  0.500241  1
  F  F12  1  0.891750  0.985130  0.339257  1
  F  F13  1  0.868557  0.278067  0.456644  1
  F  F14  1  0.132717  0.721451  0.544601  1
  F  F15  1  0.649285  0.497526  0.598227  1
  F  F16  1  0.611245  0.094416  0.622706  1
  F  F17  1  0.514124  0.905854  0.877374  1
  F  F18  1  0.408015  0.276732  0.956637  1
  F  F19  1  0.907587  0.016320  0.161962  1
  F  F20  1  0.363237  0.327330  0.776402  1
  F  F21  1  0.349996  0.502754  0.402025  1
  F  F22  1  0.803872  0.227096  0.788540  1
  F  F23  1  0.151081  0.501840  0.902387  1
  F  F24  1  0.421642  0.226542  0.288845  1
  F  F25  1  0.197834  0.775026  0.211448  1
  F  F26  1  0.484922  0.096304  0.122903  1
  F  F27  1  0.637948  0.670488  0.224250  1
  F  F28  1  0.121131  0.839061  0.015041  1
  F  F29  1  0.109260  0.014868  0.661308  1
  F  F30  1  0.877810  0.163564  0.985669  1
  F  F31  1  0.716407  0.836917  0.515331  1
  F  F32  1  0.590108  0.723896  0.044208  1
  F  F33  1  0.578495  0.773823  0.711956  1
  F  F34  1  0.963944  0.329354  0.276174  1
  F  F35  1  0.286632  0.163736  0.484996  1
  F  F36  1  0.389379  0.904572  0.377543  1
  F  F37  1  0.089201  0.983947  0.838727  1
  F  F38  1  0.034243  0.669625  0.724739  1
  F  F39  1  0.850498  0.499757  0.097118  1
