# generated using pymatgen
data_ZnBi2O5
_symmetry_space_group_name_H-M   'P 1'
_cell_length_a   5.49136966
_cell_length_b   8.56125448
_cell_length_c   11.80711625
_cell_angle_alpha   90.00000000
_cell_angle_beta   90.00000000
_cell_angle_gamma   104.73106111
_symmetry_Int_Tables_number   1
_chemical_formula_structural   ZnBi2O5
_chemical_formula_sum   'Zn4 Bi8 O20'
_cell_volume   536.84238945
_cell_formula_units_Z   4
loop_
 _symmetry_equiv_pos_site_id
 _symmetry_equiv_pos_as_xyz
  1  'x, y, z'
loop_
 _atom_site_type_symbol
 _atom_site_label
 _atom_site_symmetry_multiplicity
 _atom_site_fract_x
 _atom_site_fract_y
 _atom_site_fract_z
 _atom_site_occupancy
  Zn  Zn0  1  0.610770  0.148697  0.910573  1
  Zn  Zn1  1  0.389230  0.851303  0.089427  1
  Zn  Zn2  1  0.889230  0.351303  0.410573  1
  Zn  Zn3  1  0.110770  0.648697  0.589427  1
  Bi  Bi4  1  0.792566  0.944686  0.614953  1
  Bi  Bi5  1  0.207434  0.055314  0.385047  1
  Bi  Bi6  1  0.707434  0.555314  0.114953  1
  Bi  Bi7  1  0.292566  0.444686  0.885047  1
  Bi  Bi8  1  0.086262  0.149280  0.105417  1
  Bi  Bi9  1  0.913738  0.850720  0.894583  1
  Bi  Bi10  1  0.586262  0.649280  0.394583  1
  Bi  Bi11  1  0.413738  0.350720  0.605417  1
  O  O12  1  0.460859  0.345818  0.046408  1
  O  O13  1  0.961443  0.316419  0.961736  1
  O  O14  1  0.518471  0.706747  0.192630  1
  O  O15  1  0.762407  0.510095  0.519368  1
  O  O16  1  0.761115  0.480377  0.282080  1
  O  O17  1  0.261115  0.980377  0.217920  1
  O  O18  1  0.461443  0.816419  0.538264  1
  O  O19  1  0.538557  0.183581  0.461736  1
  O  O20  1  0.237593  0.489905  0.480632  1
  O  O21  1  0.039141  0.154182  0.546408  1
  O  O22  1  0.238885  0.519623  0.717920  1
  O  O23  1  0.539141  0.654182  0.953592  1
  O  O24  1  0.960859  0.845818  0.453592  1
  O  O25  1  0.738885  0.019623  0.782080  1
  O  O26  1  0.737593  0.989905  0.019368  1
  O  O27  1  0.262407  0.010095  0.980632  1
  O  O28  1  0.481529  0.293253  0.807370  1
  O  O29  1  0.038557  0.683581  0.038264  1
  O  O30  1  0.981529  0.793253  0.692630  1
  O  O31  1  0.018471  0.206747  0.307370  1
