# generated using pymatgen
data_MgCr2O7
_symmetry_space_group_name_H-M   'P 1'
_cell_length_a   6.58803716
_cell_length_b   6.40014730
_cell_length_c   8.25366161
_cell_angle_alpha   117.95780179
_cell_angle_beta   90.00000000
_cell_angle_gamma   90.00000000
_symmetry_Int_Tables_number   1
_chemical_formula_structural   MgCr2O7
_chemical_formula_sum   'Mg2 Cr4 O14'
_cell_volume   307.39550721
_cell_formula_units_Z   2
loop_
 _symmetry_equiv_pos_site_id
 _symmetry_equiv_pos_as_xyz
  1  'x, y, z'
loop_
 _atom_site_type_symbol
 _atom_site_label
 _atom_site_symmetry_multiplicity
 _atom_site_fract_x
 _atom_site_fract_y
 _atom_site_fract_z
 _atom_site_occupancy
  Mg  Mg0  1  0.878598  0.541291  0.651419  1
  Mg  Mg1  1  0.378598  0.458709  0.348581  1
  Cr  Cr2  1  0.860443  0.312064  0.209549  1
  Cr  Cr3  1  0.360443  0.687936  0.790451  1
  Cr  Cr4  1  0.318736  0.868470  0.217807  1
  Cr  Cr5  1  0.818736  0.131530  0.782193  1
  O  O6  1  0.630474  0.055691  0.645878  1
  O  O7  1  0.130473  0.944309  0.354122  1
  O  O8  1  0.230010  0.533283  0.591136  1
  O  O9  1  0.730010  0.466717  0.408864  1
  O  O10  1  0.969012  0.302801  0.734343  1
  O  O11  1  0.469012  0.697199  0.265657  1
  O  O12  1  0.591702  0.579799  0.765770  1
  O  O13  1  0.091702  0.420201  0.234230  1
  O  O14  1  0.933610  0.891778  0.765660  1
  O  O15  1  0.433610  0.108222  0.234340  1
  O  O16  1  0.737056  0.304019  0.017114  1
  O  O17  1  0.237056  0.695981  0.982886  1
  O  O18  1  0.875416  0.043373  0.169199  1
  O  O19  1  0.375416  0.956627  0.830801  1
