# generated using pymatgen
data_Ba2Ca2Tl2W3O10
_symmetry_space_group_name_H-M   'P 1'
_cell_length_a   4.18094430
_cell_length_b   4.03864417
_cell_length_c   19.98125969
_cell_angle_alpha   96.64622639
_cell_angle_beta   96.34961907
_cell_angle_gamma   90.15094330
_symmetry_Int_Tables_number   1
_chemical_formula_structural   Ba2Ca2Tl2W3O10
_chemical_formula_sum   'Ba2 Ca2 Tl2 W3 O10'
_cell_volume   333.02662029
_cell_formula_units_Z   1
loop_
 _symmetry_equiv_pos_site_id
 _symmetry_equiv_pos_as_xyz
  1  'x, y, z'
loop_
 _atom_site_type_symbol
 _atom_site_label
 _atom_site_symmetry_multiplicity
 _atom_site_fract_x
 _atom_site_fract_y
 _atom_site_fract_z
 _atom_site_occupancy
  Ba  Ba0  1  0.090453  0.174849  0.318001  1
  Ba  Ba1  1  0.757768  0.826770  0.679414  1
  Ca  Ca2  1  0.882830  0.945172  0.904456  1
  Ca  Ca3  1  0.987592  0.059328  0.094840  1
  Tl  Tl4  1  0.684696  0.719193  0.444175  1
  Tl  Tl5  1  0.242166  0.274203  0.554136  1
  W  W6  1  0.337364  0.398111  0.821797  1
  W  W7  1  0.527872  0.607627  0.177241  1
  W  W8  1  0.434203  0.503088  0.999997  1
  O  O9  1  0.349783  0.910910  0.844191  1
  O  O10  1  0.270622  0.340921  0.723706  1
  O  O11  1  0.845337  0.407139  0.839330  1
  O  O12  1  0.852649  0.785930  0.563050  1
  O  O13  1  0.934233  0.503327  0.000008  1
  O  O14  1  0.017420  0.597691  0.160318  1
  O  O15  1  0.558197  0.667095  0.275351  1
  O  O16  1  0.518784  0.094211  0.155455  1
  O  O17  1  0.276053  0.199265  0.435580  1
  O  O18  1  0.433068  0.003131  -0.000080  1
