# generated using pymatgen
data_Ca2TaBiO6
_symmetry_space_group_name_H-M   'P 1'
_cell_length_a   5.77288677
_cell_length_b   5.98532517
_cell_length_c   8.13101468
_cell_angle_alpha   90.00000000
_cell_angle_beta   90.00000000
_cell_angle_gamma   88.95349349
_symmetry_Int_Tables_number   1
_chemical_formula_structural   Ca2TaBiO6
_chemical_formula_sum   'Ca4 Ta2 Bi2 O12'
_cell_volume   280.90087236
_cell_formula_units_Z   2
loop_
 _symmetry_equiv_pos_site_id
 _symmetry_equiv_pos_as_xyz
  1  'x, y, z'
loop_
 _atom_site_type_symbol
 _atom_site_label
 _atom_site_symmetry_multiplicity
 _atom_site_fract_x
 _atom_site_fract_y
 _atom_site_fract_z
 _atom_site_occupancy
  Ca  Ca0  1  0.011609  0.945509  0.250000  1
  Ca  Ca1  1  0.493701  0.443888  0.250000  1
  Ca  Ca2  1  0.506299  0.556112  0.750000  1
  Ca  Ca3  1  0.988391  0.054491  0.750000  1
  Ta  Ta4  1  0.000000  0.500000  0.000000  1
  Ta  Ta5  1  0.000000  0.500000  0.500000  1
  Bi  Bi6  1  0.500000  0.000000  0.000000  1
  Bi  Bi7  1  0.500000  0.000000  0.500000  1
  O  O8  1  0.840376  0.784934  0.560089  1
  O  O9  1  0.286062  0.664444  0.440193  1
  O  O10  1  0.159624  0.215066  0.439911  1
  O  O11  1  0.713938  0.335556  0.940193  1
  O  O12  1  0.105060  0.453836  0.750000  1
  O  O13  1  0.713938  0.335556  0.559807  1
  O  O14  1  0.286062  0.664444  0.059807  1
  O  O15  1  0.840376  0.784934  0.939911  1
  O  O16  1  0.645182  0.075024  0.250000  1
  O  O17  1  0.159624  0.215066  0.060089  1
  O  O18  1  0.354818  0.924976  0.750000  1
  O  O19  1  0.894940  0.546164  0.250000  1
