# generated using pymatgen
data_Sr2YCu2MoO7
_symmetry_space_group_name_H-M   'P 1'
_cell_length_a   5.54307349
_cell_length_b   5.54496346
_cell_length_c   12.46962616
_cell_angle_alpha   102.55825596
_cell_angle_beta   102.55108305
_cell_angle_gamma   91.16168518
_symmetry_Int_Tables_number   1
_chemical_formula_structural   Sr2YCu2MoO7
_chemical_formula_sum   'Sr4 Y2 Cu4 Mo2 O14'
_cell_volume   364.24044223
_cell_formula_units_Z   2
loop_
 _symmetry_equiv_pos_site_id
 _symmetry_equiv_pos_as_xyz
  1  'x, y, z'
loop_
 _atom_site_type_symbol
 _atom_site_label
 _atom_site_symmetry_multiplicity
 _atom_site_fract_x
 _atom_site_fract_y
 _atom_site_fract_z
 _atom_site_occupancy
  Sr  Sr0  1  0.348182  0.332245  0.718320  1
  Sr  Sr1  1  0.632043  0.659253  0.289035  1
  Sr  Sr2  1  0.843325  0.871142  0.712040  1
  Sr  Sr3  1  0.131130  0.114330  0.282970  1
  Y  Y4  1  0.983455  0.002993  0.998243  1
  Y  Y5  1  0.486378  0.505461  0.003424  1
  Cu  Cu6  1  0.922437  0.440259  0.876024  1
  Cu  Cu7  1  0.048174  0.560391  0.127162  1
  Cu  Cu8  1  0.421826  0.934688  0.874768  1
  Cu  Cu9  1  0.547115  0.064317  0.125208  1
  Mo  Mo10  1  0.212882  0.647199  0.500964  1
  Mo  Mo11  1  0.805319  0.340802  0.500180  1
  O  O12  1  0.186367  0.290743  0.501809  1
  O  O13  1  0.589767  0.626830  0.501305  1
  O  O14  1  0.190310  0.206341  0.879351  1
  O  O15  1  0.319549  0.794632  0.129746  1
  O  O16  1  0.690177  0.166618  0.872369  1
  O  O17  1  0.812442  0.827713  0.122856  1
  O  O18  1  0.652244  0.667138  0.872076  1
  O  O19  1  0.776575  0.332030  0.124437  1
  O  O20  1  0.153302  0.708688  0.877567  1
  O  O21  1  0.281411  0.295522  0.130053  1
  O  O22  1  0.272530  0.864032  0.649427  1
  O  O23  1  0.686596  0.164180  0.350985  1
  O  O24  1  0.839575  0.316090  0.650769  1
  O  O25  1  0.124263  0.716138  0.352671  1
