# generated using pymatgen
data_ZnCo2(P2O7)2
_symmetry_space_group_name_H-M   'P 1'
_cell_length_a   7.03287197
_cell_length_b   8.31037502
_cell_length_c   8.84717732
_cell_angle_alpha   90.00000000
_cell_angle_beta   111.47552892
_cell_angle_gamma   90.00000000
_symmetry_Int_Tables_number   1
_chemical_formula_structural   ZnCo2(P2O7)2
_chemical_formula_sum   'Zn2 Co4 P8 O28'
_cell_volume   481.18157268
_cell_formula_units_Z   2
loop_
 _symmetry_equiv_pos_site_id
 _symmetry_equiv_pos_as_xyz
  1  'x, y, z'
loop_
 _atom_site_type_symbol
 _atom_site_label
 _atom_site_symmetry_multiplicity
 _atom_site_fract_x
 _atom_site_fract_y
 _atom_site_fract_z
 _atom_site_occupancy
  Zn  Zn0  1  0.368090  0.445635  0.668903  1
  Zn  Zn1  1  0.868090  0.054365  0.168903  1
  Co  Co2  1  0.380872  0.074461  0.627944  1
  Co  Co3  1  0.610420  0.907870  0.388908  1
  Co  Co4  1  0.110420  0.592130  0.888908  1
  Co  Co5  1  0.880872  0.425539  0.127944  1
  P  P6  1  0.177510  0.732207  0.240766  1
  P  P7  1  0.434856  0.230509  0.967093  1
  P  P8  1  0.677510  0.767793  0.740766  1
  P  P9  1  0.934856  0.269491  0.467093  1
  P  P10  1  0.318297  0.232234  0.262945  1
  P  P11  1  0.072063  0.741717  0.534317  1
  P  P12  1  0.572063  0.758283  0.034317  1
  P  P13  1  0.818297  0.267766  0.762945  1
  O  O14  1  0.359743  0.167914  0.103677  1
  O  O15  1  0.560914  0.615873  0.678803  1
  O  O16  1  0.060914  0.884127  0.178803  1
  O  O17  1  0.335030  0.391294  0.895475  1
  O  O18  1  0.636392  0.838160  0.894006  1
  O  O19  1  0.396807  0.084963  0.382291  1
  O  O20  1  0.689235  0.602917  0.086017  1
  O  O21  1  0.375477  0.093955  0.840497  1
  O  O22  1  0.172783  0.256927  0.546052  1
  O  O23  1  0.603744  0.910569  0.618644  1
  O  O24  1  0.896807  0.415037  0.882291  1
  O  O25  1  0.909342  0.747385  0.799167  1
  O  O26  1  0.578372  0.264206  0.695515  1
  O  O27  1  0.859743  0.332086  0.603677  1
  O  O28  1  0.103744  0.589431  0.118644  1
  O  O29  1  0.921004  0.114065  0.826318  1
  O  O30  1  0.078372  0.235794  0.195515  1
  O  O31  1  0.635545  0.897855  0.159017  1
  O  O32  1  0.672783  0.243073  0.046052  1
  O  O33  1  0.342166  0.732678  0.964843  1
  O  O34  1  0.189235  0.897083  0.586017  1
  O  O35  1  0.875477  0.406045  0.340497  1
  O  O36  1  0.135545  0.602145  0.659017  1
  O  O37  1  0.421004  0.385935  0.326318  1
  O  O38  1  0.409342  0.752615  0.299167  1
  O  O39  1  0.835030  0.108706  0.395475  1
  O  O40  1  0.842166  0.767322  0.464843  1
  O  O41  1  0.136392  0.661840  0.394006  1
