# generated using pymatgen
data_Ca(SnO2)2
_symmetry_space_group_name_H-M   'P 1'
_cell_length_a   6.93511890
_cell_length_b   6.71309277
_cell_length_c   6.71309237
_cell_angle_alpha   59.99999095
_cell_angle_beta   61.05351052
_cell_angle_gamma   61.05350908
_symmetry_Int_Tables_number   1
_chemical_formula_structural   Ca(SnO2)2
_chemical_formula_sum   'Ca2 Sn4 O8'
_cell_volume   224.44982318
_cell_formula_units_Z   2
loop_
 _symmetry_equiv_pos_site_id
 _symmetry_equiv_pos_as_xyz
  1  'x, y, z'
loop_
 _atom_site_type_symbol
 _atom_site_label
 _atom_site_symmetry_multiplicity
 _atom_site_fract_x
 _atom_site_fract_y
 _atom_site_fract_z
 _atom_site_occupancy
  Ca  Ca0  1  0.987365  0.004212  0.004212  1
  Ca  Ca1  1  0.124344  0.625219  0.625219  1
  Sn  Sn2  1  0.263917  0.245361  0.245361  1
  Sn  Sn3  1  0.626187  0.121776  0.626019  1
  Sn  Sn4  1  0.626187  0.626019  0.121776  1
  Sn  Sn5  1  0.626187  0.626019  0.626019  1
  O  O6  1  0.419267  0.376953  0.376953  1
  O  O7  1  0.419267  0.376953  0.826826  1
  O  O8  1  0.419267  0.826826  0.376953  1
  O  O9  1  0.799490  0.400170  0.400170  1
  O  O10  1  0.418325  0.860558  0.860558  1
  O  O11  1  0.840067  0.419760  0.870087  1
  O  O12  1  0.840067  0.870087  0.419760  1
  O  O13  1  0.840067  0.870087  0.870087  1
