# generated using pymatgen
data_CaWF4
_symmetry_space_group_name_H-M   'P 1'
_cell_length_a   5.61124902
_cell_length_b   5.61105397
_cell_length_c   6.97182517
_cell_angle_alpha   113.72853684
_cell_angle_beta   113.70754381
_cell_angle_gamma   90.00632246
_symmetry_Int_Tables_number   1
_chemical_formula_structural   CaWF4
_chemical_formula_sum   'Ca2 W2 F8'
_cell_volume   180.52807118
_cell_formula_units_Z   2
loop_
 _symmetry_equiv_pos_site_id
 _symmetry_equiv_pos_as_xyz
  1  'x, y, z'
loop_
 _atom_site_type_symbol
 _atom_site_label
 _atom_site_symmetry_multiplicity
 _atom_site_fract_x
 _atom_site_fract_y
 _atom_site_fract_z
 _atom_site_occupancy
  Ca  Ca0  1  0.252113  0.250978  0.503544  1
  Ca  Ca1  1  0.751944  0.751001  0.503721  1
  W  W2  1  0.002373  0.500818  0.003861  1
  W  W3  1  0.501882  0.000460  0.003366  1
  F  F4  1  0.961815  0.460426  0.284083  1
  F  F5  1  0.681726  0.179986  0.723885  1
  F  F6  1  0.043662  0.542068  0.724226  1
  F  F7  1  0.181481  0.040502  0.722753  1
  F  F8  1  0.323015  0.821507  0.284297  1
  F  F9  1  0.460887  0.321534  0.282911  1
  F  F10  1  0.822654  0.959789  0.283247  1
  F  F11  1  0.542665  0.679848  0.723043  1
