# generated using pymatgen
data_Zn(SbO2)4
_symmetry_space_group_name_H-M   'P 1'
_cell_length_a   3.25596592
_cell_length_b   8.71987425
_cell_length_c   10.32627221
_cell_angle_alpha   58.65414790
_cell_angle_beta   69.84936031
_cell_angle_gamma   73.64799715
_symmetry_Int_Tables_number   1
_chemical_formula_structural   Zn(SbO2)4
_chemical_formula_sum   'Zn1 Sb4 O8'
_cell_volume   233.13914906
_cell_formula_units_Z   1
loop_
 _symmetry_equiv_pos_site_id
 _symmetry_equiv_pos_as_xyz
  1  'x, y, z'
loop_
 _atom_site_type_symbol
 _atom_site_label
 _atom_site_symmetry_multiplicity
 _atom_site_fract_x
 _atom_site_fract_y
 _atom_site_fract_z
 _atom_site_occupancy
  Zn  Zn0  1  0.185841  0.206379  0.174741  1
  Sb  Sb1  1  0.675857  0.179679  0.514482  1
  Sb  Sb2  1  0.154346  0.606307  0.188176  1
  Sb  Sb3  1  0.831176  0.436397  0.869787  1
  Sb  Sb4  1  0.412774  0.809604  0.528531  1
  O  O5  1  0.825402  0.696206  0.693180  1
  O  O6  1  0.481029  0.388047  0.766182  1
  O  O7  1  0.517315  0.617182  0.310498  1
  O  O8  1  0.222157  0.331476  0.311641  1
  O  O9  1  0.188519  0.992049  0.618264  1
  O  O10  1  0.809451  0.197955  0.061960  1
  O  O11  1  0.910632  0.028269  0.395565  1
  O  O12  1  0.163665  0.501087  0.975784  1
