# generated using pymatgen
data_CaCr4O9
_symmetry_space_group_name_H-M   'P 1'
_cell_length_a   5.18640799
_cell_length_b   8.45702744
_cell_length_c   8.45713770
_cell_angle_alpha   89.99949195
_cell_angle_beta   90.00679314
_cell_angle_gamma   89.99554586
_symmetry_Int_Tables_number   1
_chemical_formula_structural   CaCr4O9
_chemical_formula_sum   'Ca2 Cr8 O18'
_cell_volume   370.94354210
_cell_formula_units_Z   2
loop_
 _symmetry_equiv_pos_site_id
 _symmetry_equiv_pos_as_xyz
  1  'x, y, z'
loop_
 _atom_site_type_symbol
 _atom_site_label
 _atom_site_symmetry_multiplicity
 _atom_site_fract_x
 _atom_site_fract_y
 _atom_site_fract_z
 _atom_site_occupancy
  Ca  Ca0  1  0.138658  0.250012  0.249981  1
  Ca  Ca1  1  0.861329  0.749984  0.750016  1
  Cr  Cr2  1  0.610342  0.538225  0.340761  1
  Cr  Cr3  1  0.389662  0.840761  0.461735  1
  Cr  Cr4  1  0.610248  0.340762  0.961768  1
  Cr  Cr5  1  0.389728  0.038243  0.840758  1
  Cr  Cr6  1  0.610386  0.961780  0.159267  1
  Cr  Cr7  1  0.610224  0.159210  0.538261  1
  Cr  Cr8  1  0.389714  0.461728  0.659214  1
  Cr  Cr9  1  0.389788  0.659262  0.038224  1
  O  O10  1  0.500040  0.750008  0.250004  1
  O  O11  1  0.499989  0.249992  0.750004  1
  O  O12  1  0.078476  0.678614  0.987200  1
  O  O13  1  0.078324  0.512748  0.678495  1
  O  O14  1  0.078407  0.987244  0.821421  1
  O  O15  1  0.078345  0.821474  0.512784  1
  O  O16  1  0.921604  0.321414  0.012780  1
  O  O17  1  0.921637  0.487224  0.321462  1
  O  O18  1  0.921628  0.012800  0.178593  1
  O  O19  1  0.921544  0.178519  0.487235  1
  O  O20  1  0.464437  0.038873  0.354160  1
  O  O21  1  0.464435  0.145874  0.038897  1
  O  O22  1  0.464476  0.354140  0.461130  1
  O  O23  1  0.464494  0.461129  0.145851  1
  O  O24  1  0.535512  0.538858  0.854131  1
  O  O25  1  0.535609  0.854183  0.961130  1
  O  O26  1  0.535475  0.645828  0.538871  1
  O  O27  1  0.535491  0.961113  0.645865  1
