# generated using pymatgen
data_Sr3MgCr2S2O5
_symmetry_space_group_name_H-M   'P 1'
_cell_length_a   3.96616742
_cell_length_b   3.96616742
_cell_length_c   13.82063704
_cell_angle_alpha   98.24968108
_cell_angle_beta   98.24968108
_cell_angle_gamma   90.00000000
_symmetry_Int_Tables_number   1
_chemical_formula_structural   Sr3MgCr2S2O5
_chemical_formula_sum   'Sr3 Mg1 Cr2 S2 O5'
_cell_volume   212.88219781
_cell_formula_units_Z   1
loop_
 _symmetry_equiv_pos_site_id
 _symmetry_equiv_pos_as_xyz
  1  'x, y, z'
loop_
 _atom_site_type_symbol
 _atom_site_label
 _atom_site_symmetry_multiplicity
 _atom_site_fract_x
 _atom_site_fract_y
 _atom_site_fract_z
 _atom_site_occupancy
  Sr  Sr0  1  0.500000  0.500000  -0.000000  1
  Sr  Sr1  1  0.637280  0.637280  0.274560  1
  Sr  Sr2  1  0.362720  0.362720  0.725440  1
  Mg  Mg3  1  0.750000  0.250000  0.500000  1
  Cr  Cr4  1  0.070717  0.070717  0.141435  1
  Cr  Cr5  1  0.929283  0.929283  0.858565  1
  S  S6  1  0.192969  0.192969  0.385938  1
  S  S7  1  0.807031  0.807031  0.614062  1
  O  O8  1  0.079147  0.579147  0.158295  1
  O  O9  1  0.579836  0.079836  0.159672  1
  O  O10  1  0.920164  0.420164  0.840328  1
  O  O11  1  0.420853  0.920853  0.841705  1
  O  O12  1  0.000000  -0.000000  -0.000000  1
