# generated using pymatgen
data_MgCrO2
_symmetry_space_group_name_H-M   'P 1'
_cell_length_a   3.04827153
_cell_length_b   8.10576759
_cell_length_c   8.83782325
_cell_angle_alpha   90.05016595
_cell_angle_beta   75.55065735
_cell_angle_gamma   88.25592794
_symmetry_Int_Tables_number   1
_chemical_formula_structural   MgCrO2
_chemical_formula_sum   'Mg4 Cr4 O8'
_cell_volume   211.35667023
_cell_formula_units_Z   4
loop_
 _symmetry_equiv_pos_site_id
 _symmetry_equiv_pos_as_xyz
  1  'x, y, z'
loop_
 _atom_site_type_symbol
 _atom_site_label
 _atom_site_symmetry_multiplicity
 _atom_site_fract_x
 _atom_site_fract_y
 _atom_site_fract_z
 _atom_site_occupancy
  Mg  Mg0  1  0.401041  0.071528  0.279717  1
  Mg  Mg1  1  0.596026  0.908423  0.748603  1
  Mg  Mg2  1  0.135543  0.727426  0.123497  1
  Mg  Mg3  1  0.860234  0.252361  0.904689  1
  Cr  Cr4  1  0.430859  0.232479  0.591272  1
  Cr  Cr5  1  0.076900  0.402333  0.211634  1
  Cr  Cr6  1  0.918824  0.577576  0.816467  1
  Cr  Cr7  1  0.564534  0.747756  0.436978  1
  O  O8  1  0.953024  0.746517  0.591077  1
  O  O9  1  0.435445  0.387462  0.805053  1
  O  O10  1  0.560484  0.592409  0.223041  1
  O  O11  1  0.042597  0.233306  0.437117  1
  O  O12  1  0.069790  0.067878  0.762190  1
  O  O13  1  0.646178  0.250333  0.130283  1
  O  O14  1  0.927351  0.911973  0.266118  1
  O  O15  1  0.349448  0.729577  0.897886  1
