# generated using pymatgen
data_MnZn(GeO3)2
_symmetry_space_group_name_H-M   'P 1'
_cell_length_a   5.48570193
_cell_length_b   7.02298538
_cell_length_c   7.02298523
_cell_angle_alpha   86.40104958
_cell_angle_beta   76.73249975
_cell_angle_gamma   76.73248927
_symmetry_Int_Tables_number   1
_chemical_formula_structural   MnZn(GeO3)2
_chemical_formula_sum   'Mn2 Zn2 Ge4 O12'
_cell_volume   256.30239878
_cell_formula_units_Z   2
loop_
 _symmetry_equiv_pos_site_id
 _symmetry_equiv_pos_as_xyz
  1  'x, y, z'
loop_
 _atom_site_type_symbol
 _atom_site_label
 _atom_site_symmetry_multiplicity
 _atom_site_fract_x
 _atom_site_fract_y
 _atom_site_fract_z
 _atom_site_occupancy
  Mn  Mn0  1  0.750000  0.897840  0.102160  1
  Mn  Mn1  1  0.250000  0.102160  0.897840  1
  Zn  Zn2  1  0.750000  0.243086  0.756914  1
  Zn  Zn3  1  0.250000  0.756914  0.243086  1
  Ge  Ge4  1  0.743375  0.387727  0.213036  1
  Ge  Ge5  1  0.756625  0.786964  0.612273  1
  Ge  Ge6  1  0.256625  0.612273  0.786964  1
  Ge  Ge7  1  0.243375  0.213036  0.387727  1
  O  O8  1  0.517702  0.301936  0.406734  1
  O  O9  1  0.982298  0.593266  0.698064  1
  O  O10  1  0.482298  0.698064  0.593266  1
  O  O11  1  0.017702  0.406734  0.301936  1
  O  O12  1  0.105701  0.144957  0.624637  1
  O  O13  1  0.394299  0.375363  0.855043  1
  O  O14  1  0.894298  0.855043  0.375363  1
  O  O15  1  0.605702  0.624637  0.144957  1
  O  O16  1  0.851900  0.206439  0.028825  1
  O  O17  1  0.648100  0.971175  0.793561  1
  O  O18  1  0.148100  0.793561  0.971175  1
  O  O19  1  0.351900  0.028825  0.206439  1
