# generated using pymatgen
data_Mg(CuO2)2
_symmetry_space_group_name_H-M   'P 1'
_cell_length_a   5.93346662
_cell_length_b   5.93346809
_cell_length_c   5.94276556
_cell_angle_alpha   119.94826066
_cell_angle_beta   119.94825820
_cell_angle_gamma   89.99999544
_symmetry_Int_Tables_number   1
_chemical_formula_structural   Mg(CuO2)2
_chemical_formula_sum   'Mg2 Cu4 O8'
_cell_volume   148.17284030
_cell_formula_units_Z   2
loop_
 _symmetry_equiv_pos_site_id
 _symmetry_equiv_pos_as_xyz
  1  'x, y, z'
loop_
 _atom_site_type_symbol
 _atom_site_label
 _atom_site_symmetry_multiplicity
 _atom_site_fract_x
 _atom_site_fract_y
 _atom_site_fract_z
 _atom_site_occupancy
  Mg  Mg0  1  0.375000  0.625000  0.750000  1
  Mg  Mg1  1  0.625000  0.375000  0.250000  1
  Cu  Cu2  1  0.000000  0.000000  0.500000  1
  Cu  Cu3  1  0.000000  0.500000  0.000000  1
  Cu  Cu4  1  0.500000  0.000000  0.500000  1
  Cu  Cu5  1  0.000000  0.000000  0.000000  1
  O  O6  1  0.761142  0.783109  0.522284  1
  O  O7  1  0.760826  0.238858  0.977716  1
  O  O8  1  0.216891  0.238858  0.977716  1
  O  O9  1  0.238858  0.216891  0.477716  1
  O  O10  1  0.238858  0.760826  0.477716  1
  O  O11  1  0.239174  0.761142  0.022284  1
  O  O12  1  0.761142  0.239174  0.522284  1
  O  O13  1  0.783109  0.761142  0.022284  1
