# generated using pymatgen
data_Mn4ZnO6
_symmetry_space_group_name_H-M   'P 1'
_cell_length_a   3.04847259
_cell_length_b   5.33183934
_cell_length_c   15.58112132
_cell_angle_alpha   90.00000000
_cell_angle_beta   90.00000000
_cell_angle_gamma   106.61112733
_symmetry_Int_Tables_number   1
_chemical_formula_structural   Mn4ZnO6
_chemical_formula_sum   'Mn8 Zn2 O12'
_cell_volume   242.68594440
_cell_formula_units_Z   2
loop_
 _symmetry_equiv_pos_site_id
 _symmetry_equiv_pos_as_xyz
  1  'x, y, z'
loop_
 _atom_site_type_symbol
 _atom_site_label
 _atom_site_symmetry_multiplicity
 _atom_site_fract_x
 _atom_site_fract_y
 _atom_site_fract_z
 _atom_site_occupancy
  Mn  Mn0  1  0.864327  0.728656  0.045311  1
  Mn  Mn1  1  0.403147  0.806294  0.640496  1
  Mn  Mn2  1  0.135671  0.271343  0.954689  1
  Mn  Mn3  1  0.596853  0.193706  0.359505  1
  Mn  Mn4  1  0.864327  0.728656  0.454689  1
  Mn  Mn5  1  0.135671  0.271343  0.545311  1
  Mn  Mn6  1  0.596853  0.193706  0.140495  1
  Mn  Mn7  1  0.403147  0.806294  0.859504  1
  Zn  Zn8  1  0.659378  0.318757  0.750000  1
  Zn  Zn9  1  0.340622  0.681243  0.250000  1
  O  O10  1  0.499999  -0.000000  0.500000  1
  O  O11  1  0.499999  -0.000000  0.000000  1
  O  O12  1  0.050251  0.100501  0.842617  1
  O  O13  1  0.949749  0.899499  0.157384  1
  O  O14  1  0.949749  0.899499  0.342616  1
  O  O15  1  0.050251  0.100501  0.657384  1
  O  O16  1  0.780310  0.560622  0.928423  1
  O  O17  1  0.219689  0.439379  0.071577  1
  O  O18  1  0.219689  0.439379  0.428423  1
  O  O19  1  0.780310  0.560622  0.571577  1
  O  O20  1  0.291417  0.582835  0.750000  1
  O  O21  1  0.708581  0.417164  0.250000  1
