# generated using pymatgen
data_Ba2MgCuAg2F14
_symmetry_space_group_name_H-M   'P 1'
_cell_length_a   5.37239056
_cell_length_b   7.66384406
_cell_length_c   15.28227479
_cell_angle_alpha   91.25819456
_cell_angle_beta   90.37791949
_cell_angle_gamma   110.59373456
_symmetry_Int_Tables_number   1
_chemical_formula_structural   Ba2MgCuAg2F14
_chemical_formula_sum   'Ba4 Mg2 Cu2 Ag4 F28'
_cell_volume   588.80026485
_cell_formula_units_Z   2
loop_
 _symmetry_equiv_pos_site_id
 _symmetry_equiv_pos_as_xyz
  1  'x, y, z'
loop_
 _atom_site_type_symbol
 _atom_site_label
 _atom_site_symmetry_multiplicity
 _atom_site_fract_x
 _atom_site_fract_y
 _atom_site_fract_z
 _atom_site_occupancy
  Ba  Ba0  1  0.095520  0.369863  0.625707  1
  Ba  Ba1  1  0.272727  0.370376  0.125367  1
  Ba  Ba2  1  0.900610  0.630238  0.374945  1
  Ba  Ba3  1  0.728162  0.631217  0.875266  1
  Mg  Mg4  1  0.426917  0.997847  0.751810  1
  Mg  Mg5  1  0.574790  0.008023  0.247845  1
  Cu  Cu6  1  0.501967  0.001800  0.000564  1
  Cu  Cu7  1  0.497315  0.001266  0.501024  1
  Ag  Ag8  1  0.088979  0.234265  0.872245  1
  Ag  Ag9  1  0.913200  0.766804  0.128480  1
  Ag  Ag10  1  0.140749  0.233135  0.372235  1
  Ag  Ag11  1  0.854005  0.766322  0.628661  1
  F  F12  1  0.850481  0.971994  0.333412  1
  F  F13  1  0.862881  0.283309  0.458819  1
  F  F14  1  0.129922  0.714848  0.541688  1
  F  F15  1  0.623238  0.489296  0.597122  1
  F  F16  1  0.618157  0.085601  0.614276  1
  F  F17  1  0.532665  0.916051  0.886436  1
  F  F18  1  0.418751  0.283715  0.959235  1
  F  F19  1  0.888802  0.028258  0.166152  1
  F  F20  1  0.372214  0.345539  0.771566  1
  F  F21  1  0.370474  0.510834  0.403345  1
  F  F22  1  0.775638  0.208283  0.776993  1
  F  F23  1  0.138243  0.511511  0.903834  1
  F  F24  1  0.428419  0.210727  0.277309  1
  F  F25  1  0.227453  0.794623  0.223976  1
  F  F26  1  0.471386  0.087640  0.115012  1
  F  F27  1  0.629122  0.651337  0.228455  1
  F  F28  1  0.143063  0.849866  0.009629  1
  F  F29  1  0.143616  0.027261  0.667132  1
  F  F30  1  0.860610  0.153766  0.991577  1
  F  F31  1  0.701898  0.848725  0.509335  1
  F  F32  1  0.583536  0.717493  0.041439  1
  F  F33  1  0.569433  0.791981  0.724192  1
  F  F34  1  0.964731  0.341869  0.269992  1
  F  F35  1  0.291544  0.153217  0.492539  1
  F  F36  1  0.376117  0.916908  0.388042  1
  F  F37  1  0.113062  0.972383  0.834396  1
  F  F38  1  0.029254  0.655166  0.730107  1
  F  F39  1  0.866125  0.490705  0.095704  1
