# generated using pymatgen
data_Mg2Fe3O8
_symmetry_space_group_name_H-M   'P 1'
_cell_length_a   4.92846430
_cell_length_b   5.80066932
_cell_length_c   5.91614429
_cell_angle_alpha   119.35640406
_cell_angle_beta   108.00738633
_cell_angle_gamma   89.99999714
_symmetry_Int_Tables_number   1
_chemical_formula_structural   Mg2Fe3O8
_chemical_formula_sum   'Mg2 Fe3 O8'
_cell_volume   137.83012957
_cell_formula_units_Z   1
loop_
 _symmetry_equiv_pos_site_id
 _symmetry_equiv_pos_as_xyz
  1  'x, y, z'
loop_
 _atom_site_type_symbol
 _atom_site_label
 _atom_site_symmetry_multiplicity
 _atom_site_fract_x
 _atom_site_fract_y
 _atom_site_fract_z
 _atom_site_occupancy
  Mg  Mg0  1  0.660302  0.722929  0.445857  1
  Mg  Mg1  1  0.339697  0.277072  0.554143  1
  Fe  Fe2  1  0.500000  0.999999  0.000000  1
  Fe  Fe3  1  0.999999  0.741574  1.000000  1
  Fe  Fe4  1  0.999999  0.258426  0.000000  1
  O  O5  1  0.065810  0.393621  0.787243  1
  O  O6  1  0.934190  0.606378  0.212757  1
  O  O7  1  0.074049  0.892330  0.784660  1
  O  O8  1  0.925951  0.107669  0.215339  1
  O  O9  1  0.395754  0.345155  0.229614  1
  O  O10  1  0.395754  0.884459  0.229614  1
  O  O11  1  0.604247  0.115540  0.770386  1
  O  O12  1  0.604247  0.654845  0.770386  1
