# generated using pymatgen
data_CaLaFeBiO6
_symmetry_space_group_name_H-M   'P 1'
_cell_length_a   5.90037158
_cell_length_b   5.69498694
_cell_length_c   8.21908614
_cell_angle_alpha   89.15473734
_cell_angle_beta   90.00000000
_cell_angle_gamma   90.00000000
_symmetry_Int_Tables_number   1
_chemical_formula_structural   CaLaFeBiO6
_chemical_formula_sum   'Ca2 La2 Fe2 Bi2 O12'
_cell_volume   276.15210974
_cell_formula_units_Z   2
loop_
 _symmetry_equiv_pos_site_id
 _symmetry_equiv_pos_as_xyz
  1  'x, y, z'
loop_
 _atom_site_type_symbol
 _atom_site_label
 _atom_site_symmetry_multiplicity
 _atom_site_fract_x
 _atom_site_fract_y
 _atom_site_fract_z
 _atom_site_occupancy
  Ca  Ca0  1  0.555650  0.520755  0.251647  1
  Ca  Ca1  1  0.944350  0.020755  0.751647  1
  La  La2  1  0.054199  0.982349  0.248589  1
  La  La3  1  0.445801  0.482349  0.748589  1
  Fe  Fe4  1  0.501812  0.998579  0.000499  1
  Fe  Fe5  1  0.998188  0.498579  0.500499  1
  Bi  Bi6  1  0.503403  0.000050  0.498755  1
  Bi  Bi7  1  0.996597  0.500050  0.998755  1
  O  O8  1  0.043303  0.617199  0.735969  1
  O  O9  1  0.214604  0.185583  0.938099  1
  O  O10  1  0.191630  0.214481  0.559891  1
  O  O11  1  0.308370  0.714481  0.059891  1
  O  O12  1  0.285396  0.685583  0.438099  1
  O  O13  1  0.456697  0.117199  0.235968  1
  O  O14  1  0.548197  0.887165  0.763781  1
  O  O15  1  0.717173  0.311719  0.563720  1
  O  O16  1  0.693093  0.282118  0.939050  1
  O  O17  1  0.806907  0.782118  0.439050  1
  O  O18  1  0.782827  0.811719  0.063720  1
  O  O19  1  0.951803  0.387165  0.263781  1
