# generated using pymatgen
data_CrO2
_symmetry_space_group_name_H-M   'P 1'
_cell_length_a   5.91410987
_cell_length_b   5.91464309
_cell_length_c   5.91442006
_cell_angle_alpha   60.01036236
_cell_angle_beta   60.00156648
_cell_angle_gamma   60.00453804
_symmetry_Int_Tables_number   1
_chemical_formula_structural   CrO2
_chemical_formula_sum   'Cr4 O8'
_cell_volume   146.30835820
_cell_formula_units_Z   4
loop_
 _symmetry_equiv_pos_site_id
 _symmetry_equiv_pos_as_xyz
  1  'x, y, z'
loop_
 _atom_site_type_symbol
 _atom_site_label
 _atom_site_symmetry_multiplicity
 _atom_site_fract_x
 _atom_site_fract_y
 _atom_site_fract_z
 _atom_site_occupancy
  Cr  Cr0  1  0.499909  0.500116  0.999950  1
  Cr  Cr1  1  0.500192  0.499931  0.499898  1
  Cr  Cr2  1  0.000166  0.499894  0.499924  1
  Cr  Cr3  1  0.499975  0.999914  0.500133  1
  O  O4  1  0.731726  0.731804  0.731794  1
  O  O5  1  0.268193  0.268217  0.695410  1
  O  O6  1  0.268171  0.695458  0.268210  1
  O  O7  1  0.695223  0.268278  0.268270  1
  O  O8  1  0.731817  0.304610  0.731764  1
  O  O9  1  0.304618  0.731790  0.731788  1
  O  O10  1  0.268186  0.268222  0.268240  1
  O  O11  1  0.731825  0.731767  0.304618  1
