# generated using pymatgen
data_CaWO3
_symmetry_space_group_name_H-M   'P 1'
_cell_length_a   5.58086621
_cell_length_b   5.79424219
_cell_length_c   7.91017335
_cell_angle_alpha   89.50210744
_cell_angle_beta   89.99775197
_cell_angle_gamma   90.09345147
_symmetry_Int_Tables_number   1
_chemical_formula_structural   CaWO3
_chemical_formula_sum   'Ca4 W4 O12'
_cell_volume   255.78041079
_cell_formula_units_Z   4
loop_
 _symmetry_equiv_pos_site_id
 _symmetry_equiv_pos_as_xyz
  1  'x, y, z'
loop_
 _atom_site_type_symbol
 _atom_site_label
 _atom_site_symmetry_multiplicity
 _atom_site_fract_x
 _atom_site_fract_y
 _atom_site_fract_z
 _atom_site_occupancy
  Ca  Ca0  1  0.986137  0.049714  0.250091  1
  Ca  Ca1  1  0.487067  0.450865  0.749577  1
  Ca  Ca2  1  0.512933  0.549136  0.250424  1
  Ca  Ca3  1  0.013861  0.950284  0.749908  1
  W  W4  1  0.500000  0.000000  1.000000  1
  W  W5  1  0.000000  0.500000  0.000000  1
  W  W6  1  0.000000  0.500000  0.500000  1
  W  W7  1  0.500000  0.000000  0.499999  1
  O  O8  1  0.898279  0.540886  0.749882  1
  O  O9  1  0.400247  0.961019  0.250652  1
  O  O10  1  0.599753  0.038981  0.749347  1
  O  O11  1  0.101721  0.459114  0.250118  1
  O  O12  1  0.690114  0.296510  0.445022  1
  O  O13  1  0.188332  0.203337  0.554518  1
  O  O14  1  0.800324  0.808055  0.051638  1
  O  O15  1  0.300258  0.692328  0.948044  1
  O  O16  1  0.699742  0.307673  0.051956  1
  O  O17  1  0.199677  0.191946  0.948362  1
  O  O18  1  0.309886  0.703490  0.554977  1
  O  O19  1  0.811669  0.796664  0.445483  1
