# generated using pymatgen
data_Ca(NiO2)2
_symmetry_space_group_name_H-M   'P 1'
_cell_length_a   3.01146947
_cell_length_b   8.41857250
_cell_length_c   7.24552825
_cell_angle_alpha   68.37348260
_cell_angle_beta   78.25093051
_cell_angle_gamma   79.76139845
_symmetry_Int_Tables_number   1
_chemical_formula_structural   Ca(NiO2)2
_chemical_formula_sum   'Ca2 Ni4 O8'
_cell_volume   166.11447990
_cell_formula_units_Z   2
loop_
 _symmetry_equiv_pos_site_id
 _symmetry_equiv_pos_as_xyz
  1  'x, y, z'
loop_
 _atom_site_type_symbol
 _atom_site_label
 _atom_site_symmetry_multiplicity
 _atom_site_fract_x
 _atom_site_fract_y
 _atom_site_fract_z
 _atom_site_occupancy
  Ca  Ca0  1  0.352052  0.145457  0.146320  1
  Ca  Ca1  1  0.646774  0.833351  0.891007  1
  Ni  Ni2  1  0.590190  0.210611  0.621312  1
  Ni  Ni3  1  0.161185  0.490816  0.195524  1
  Ni  Ni4  1  0.845220  0.487164  0.832577  1
  Ni  Ni5  1  0.417838  0.766028  0.404846  1
  O  O6  1  0.881047  0.669568  0.578652  1
  O  O7  1  0.431438  0.342924  0.804936  1
  O  O8  1  0.576030  0.630350  0.227348  1
  O  O9  1  0.125897  0.309279  0.448271  1
  O  O10  1  0.104363  0.050433  0.757234  1
  O  O11  1  0.761308  0.358572  0.122538  1
  O  O12  1  0.908650  0.924274  0.256851  1
  O  O13  1  0.241412  0.621310  0.907023  1
