# generated using pymatgen
data_Ca(CuO2)2
_symmetry_space_group_name_H-M   'P 1'
_cell_length_a   3.13600492
_cell_length_b   5.16474537
_cell_length_c   9.51771768
_cell_angle_alpha   90.00000000
_cell_angle_beta   90.00000000
_cell_angle_gamma   107.67378586
_symmetry_Int_Tables_number   1
_chemical_formula_structural   Ca(CuO2)2
_chemical_formula_sum   'Ca2 Cu4 O8'
_cell_volume   146.87924719
_cell_formula_units_Z   2
loop_
 _symmetry_equiv_pos_site_id
 _symmetry_equiv_pos_as_xyz
  1  'x, y, z'
loop_
 _atom_site_type_symbol
 _atom_site_label
 _atom_site_symmetry_multiplicity
 _atom_site_fract_x
 _atom_site_fract_y
 _atom_site_fract_z
 _atom_site_occupancy
  Ca  Ca0  1  0.394488  0.788975  0.750000  1
  Ca  Ca1  1  0.605512  0.211025  0.250000  1
  Cu  Cu2  1  0.863174  0.726347  0.069274  1
  Cu  Cu3  1  0.136826  0.273653  0.930726  1
  Cu  Cu4  1  0.863174  0.726347  0.430726  1
  Cu  Cu5  1  0.136826  0.273653  0.569274  1
  O  O6  1  0.227411  0.454822  0.394411  1
  O  O7  1  0.772589  0.545178  0.605589  1
  O  O8  1  0.772589  0.545178  0.894411  1
  O  O9  1  0.227411  0.454822  0.105589  1
  O  O10  1  0.938699  0.877400  0.250000  1
  O  O11  1  0.061301  0.122600  0.750000  1
  O  O12  1  0.500000  0.000000  0.000000  1
  O  O13  1  0.500000  0.000000  0.500000  1
