# generated using pymatgen
data_Mg2FeWO6
_symmetry_space_group_name_H-M   'P 1'
_cell_length_a   5.60621240
_cell_length_b   5.61679863
_cell_length_c   7.63009818
_cell_angle_alpha   84.29714514
_cell_angle_beta   136.75555241
_cell_angle_gamma   124.76158136
_symmetry_Int_Tables_number   1
_chemical_formula_structural   Mg2FeWO6
_chemical_formula_sum   'Mg2 Fe1 W1 O6'
_cell_volume   111.91264537
_cell_formula_units_Z   1
loop_
 _symmetry_equiv_pos_site_id
 _symmetry_equiv_pos_as_xyz
  1  'x, y, z'
loop_
 _atom_site_type_symbol
 _atom_site_label
 _atom_site_symmetry_multiplicity
 _atom_site_fract_x
 _atom_site_fract_y
 _atom_site_fract_z
 _atom_site_occupancy
  Mg  Mg0  1  0.003480  0.570747  0.297063  1
  Mg  Mg1  1  0.001164  0.571054  0.794391  1
  Fe  Fe2  1  0.002444  0.995968  0.506861  1
  W  W3  1  0.001865  0.977571  0.998699  1
  O  O4  1  0.725858  0.809181  0.096703  1
  O  O5  1  0.292771  0.087597  0.905061  1
  O  O6  1  0.637345  0.445844  0.369444  1
  O  O7  1  0.644834  0.085527  0.733966  1
  O  O8  1  0.289318  0.793954  0.195053  1
  O  O9  1  0.420738  0.504467  0.618584  1
