# generated using pymatgen
data_Zn2NiWO6
_symmetry_space_group_name_H-M   'P 1'
_cell_length_a   5.21222357
_cell_length_b   5.25541568
_cell_length_c   7.74147248
_cell_angle_alpha   90.00000000
_cell_angle_beta   88.93119991
_cell_angle_gamma   90.00000000
_symmetry_Int_Tables_number   1
_chemical_formula_structural   Zn2NiWO6
_chemical_formula_sum   'Zn4 Ni2 W2 O12'
_cell_volume   212.02062783
_cell_formula_units_Z   2
loop_
 _symmetry_equiv_pos_site_id
 _symmetry_equiv_pos_as_xyz
  1  'x, y, z'
loop_
 _atom_site_type_symbol
 _atom_site_label
 _atom_site_symmetry_multiplicity
 _atom_site_fract_x
 _atom_site_fract_y
 _atom_site_fract_z
 _atom_site_occupancy
  Zn  Zn0  1  0.006500  0.035137  0.253254  1
  Zn  Zn1  1  0.493500  0.535138  0.246746  1
  Zn  Zn2  1  0.993501  0.964864  0.746746  1
  Zn  Zn3  1  0.506499  0.464863  0.753254  1
  Ni  Ni4  1  0.500000  0.000000  0.000000  1
  Ni  Ni5  1  0.000001  0.499999  0.500000  1
  W  W6  1  0.500000  0.000000  0.499999  1
  W  W7  1  0.000000  0.499999  0.000000  1
  O  O8  1  0.661460  0.314318  0.424696  1
  O  O9  1  0.838540  0.814319  0.075304  1
  O  O10  1  0.338539  0.685682  0.575304  1
  O  O11  1  0.161461  0.185681  0.924696  1
  O  O12  1  0.182013  0.172715  0.557670  1
  O  O13  1  0.317987  0.672714  0.942330  1
  O  O14  1  0.817988  0.827285  0.442330  1
  O  O15  1  0.682012  0.327286  0.057670  1
  O  O16  1  0.118248  0.420310  0.238174  1
  O  O17  1  0.381753  0.920311  0.261825  1
  O  O18  1  0.618248  0.079689  0.738175  1
  O  O19  1  0.881753  0.579690  0.761826  1
