# generated using pymatgen
data_CaCr2(Si2O5)4
_symmetry_space_group_name_H-M   'P 1'
_cell_length_a   7.40597324
_cell_length_b   7.40597324
_cell_length_c   15.46169628
_cell_angle_alpha   90.00000000
_cell_angle_beta   90.00000000
_cell_angle_gamma   90.00000000
_symmetry_Int_Tables_number   1
_chemical_formula_structural   CaCr2(Si2O5)4
_chemical_formula_sum   'Ca2 Cr4 Si16 O40'
_cell_volume   848.04991502
_cell_formula_units_Z   2
loop_
 _symmetry_equiv_pos_site_id
 _symmetry_equiv_pos_as_xyz
  1  'x, y, z'
loop_
 _atom_site_type_symbol
 _atom_site_label
 _atom_site_symmetry_multiplicity
 _atom_site_fract_x
 _atom_site_fract_y
 _atom_site_fract_z
 _atom_site_occupancy
  Ca  Ca0  1  0.750000  0.250000  0.000000  1
  Ca  Ca1  1  0.250000  0.750000  0.500000  1
  Cr  Cr2  1  0.250000  0.250000  0.082580  1
  Cr  Cr3  1  0.750000  0.750000  0.417420  1
  Cr  Cr4  1  0.750000  0.750000  0.917420  1
  Cr  Cr5  1  0.250000  0.250000  0.582580  1
  Si  Si6  1  0.923171  0.501860  0.649479  1
  Si  Si7  1  0.576829  0.998140  0.649479  1
  Si  Si8  1  0.004910  0.423051  0.852423  1
  Si  Si9  1  0.504910  0.576949  0.647577  1
  Si  Si10  1  0.995090  0.923051  0.647577  1
  Si  Si11  1  0.076829  0.001860  0.850521  1
  Si  Si12  1  0.423171  0.498140  0.850521  1
  Si  Si13  1  0.495090  0.076949  0.852423  1
  Si  Si14  1  0.076949  0.495090  0.352423  1
  Si  Si15  1  0.423051  0.004910  0.352423  1
  Si  Si16  1  0.998140  0.576829  0.149479  1
  Si  Si17  1  0.498140  0.423171  0.350521  1
  Si  Si18  1  0.001860  0.076829  0.350521  1
  Si  Si19  1  0.923051  0.995090  0.147577  1
  Si  Si20  1  0.576949  0.504910  0.147577  1
  Si  Si21  1  0.501860  0.923171  0.149479  1
  O  O22  1  0.021603  0.355259  0.588992  1
  O  O23  1  0.478397  0.144741  0.588992  1
  O  O24  1  0.857215  0.506436  0.919222  1
  O  O25  1  0.357215  0.493564  0.580778  1
  O  O26  1  0.142785  0.006436  0.580778  1
  O  O27  1  0.978397  0.855259  0.911008  1
  O  O28  1  0.521603  0.644741  0.911008  1
  O  O29  1  0.642785  0.993564  0.919222  1
  O  O30  1  0.993564  0.642785  0.419222  1
  O  O31  1  0.506436  0.857215  0.419222  1
  O  O32  1  0.144741  0.478397  0.088992  1
  O  O33  1  0.644741  0.521603  0.411008  1
  O  O34  1  0.855259  0.978397  0.411008  1
  O  O35  1  0.006436  0.142785  0.080778  1
  O  O36  1  0.493564  0.357215  0.080778  1
  O  O37  1  0.006033  0.291874  0.370730  1
  O  O38  1  0.355259  0.021603  0.088992  1
  O  O39  1  0.493546  0.795822  0.626067  1
  O  O40  1  0.208126  0.493967  0.870730  1
  O  O41  1  0.708126  0.506033  0.629270  1
  O  O42  1  0.791874  0.993967  0.629270  1
  O  O43  1  0.993546  0.204178  0.873933  1
  O  O44  1  0.506454  0.295822  0.873933  1
  O  O45  1  0.291874  0.006033  0.870730  1
  O  O46  1  0.460931  0.952834  0.252100  1
  O  O47  1  0.539069  0.452834  0.247900  1
  O  O48  1  0.960931  0.047166  0.247900  1
  O  O49  1  0.039069  0.547166  0.252100  1
  O  O50  1  0.547166  0.039069  0.752100  1
  O  O51  1  0.452834  0.539069  0.747900  1
  O  O52  1  0.047166  0.960931  0.747900  1
  O  O53  1  0.952834  0.460931  0.752100  1
  O  O54  1  0.704178  0.006454  0.126067  1
  O  O55  1  0.506033  0.708126  0.129270  1
  O  O56  1  0.993967  0.791874  0.129270  1
  O  O57  1  0.204178  0.993546  0.373933  1
  O  O58  1  0.295822  0.506454  0.373933  1
  O  O59  1  0.795822  0.493546  0.126067  1
  O  O60  1  0.493967  0.208126  0.370730  1
  O  O61  1  0.006454  0.704178  0.626067  1
