# generated using pymatgen
data_BaCuReO5
_symmetry_space_group_name_H-M   'P 1'
_cell_length_a   3.81440479
_cell_length_b   3.81529669
_cell_length_c   8.31824884
_cell_angle_alpha   90.00010275
_cell_angle_beta   90.00025201
_cell_angle_gamma   90.00015920
_symmetry_Int_Tables_number   1
_chemical_formula_structural   BaCuReO5
_chemical_formula_sum   'Ba1 Cu1 Re1 O5'
_cell_volume   121.05619048
_cell_formula_units_Z   1
loop_
 _symmetry_equiv_pos_site_id
 _symmetry_equiv_pos_as_xyz
  1  'x, y, z'
loop_
 _atom_site_type_symbol
 _atom_site_label
 _atom_site_symmetry_multiplicity
 _atom_site_fract_x
 _atom_site_fract_y
 _atom_site_fract_z
 _atom_site_occupancy
  Ba  Ba0  1  0.000001  0.999999  0.029359  1
  Cu  Cu1  1  0.500006  0.500002  0.286422  1
  Re  Re2  1  0.499998  0.500002  0.680299  1
  O  O3  1  0.999996  0.500000  0.667343  1
  O  O4  1  0.500005  0.999996  0.666626  1
  O  O5  1  -0.000001  0.499998  0.245412  1
  O  O6  1  0.499998  1.000000  0.245338  1
  O  O7  1  0.499992  0.499998  0.903116  1
