# generated using pymatgen
data_Ca2Ag2O5
_symmetry_space_group_name_H-M   'P 1'
_cell_length_a   4.09241989
_cell_length_b   5.96285405
_cell_length_c   9.84491253
_cell_angle_alpha   90.01216377
_cell_angle_beta   89.99992412
_cell_angle_gamma   89.99970019
_symmetry_Int_Tables_number   1
_chemical_formula_structural   Ca2Ag2O5
_chemical_formula_sum   'Ca4 Ag4 O10'
_cell_volume   240.24049720
_cell_formula_units_Z   2
loop_
 _symmetry_equiv_pos_site_id
 _symmetry_equiv_pos_as_xyz
  1  'x, y, z'
loop_
 _atom_site_type_symbol
 _atom_site_label
 _atom_site_symmetry_multiplicity
 _atom_site_fract_x
 _atom_site_fract_y
 _atom_site_fract_z
 _atom_site_occupancy
  Ca  Ca0  1  0.500003  0.156033  0.860962  1
  Ca  Ca1  1  0.499998  0.843810  0.139055  1
  Ca  Ca2  1  0.500000  0.655635  0.639236  1
  Ca  Ca3  1  0.499998  0.344424  0.360752  1
  Ag  Ag4  1  0.000001  0.191387  0.600474  1
  Ag  Ag5  1  -0.000001  0.808655  0.399527  1
  Ag  Ag6  1  0.000002  0.308497  0.100516  1
  Ag  Ag7  1  0.000009  0.691469  0.899458  1
  O  O8  1  0.999999  0.500009  0.499995  1
  O  O9  1  0.999998  0.128088  0.319961  1
  O  O10  1  0.999999  0.627698  0.180395  1
  O  O11  1  0.000003  0.372226  0.819597  1
  O  O12  1  0.500001  0.259284  0.114273  1
  O  O13  1  0.500005  0.740711  0.885728  1
  O  O14  1  1.000000  0.872025  0.680060  1
  O  O15  1  0.500000  0.240656  0.614414  1
  O  O16  1  0.000002  -0.000000  0.999987  1
  O  O17  1  0.499993  0.759390  0.385609  1
