# generated using pymatgen
data_BiAs2O7
_symmetry_space_group_name_H-M   'P 1'
_cell_length_a   7.59761333
_cell_length_b   9.91637743
_cell_length_c   10.18655044
_cell_angle_alpha   90.00000000
_cell_angle_beta   109.43297114
_cell_angle_gamma   90.00000000
_symmetry_Int_Tables_number   1
_chemical_formula_structural   BiAs2O7
_chemical_formula_sum   'Bi4 As8 O28'
_cell_volume   723.74155531
_cell_formula_units_Z   4
loop_
 _symmetry_equiv_pos_site_id
 _symmetry_equiv_pos_as_xyz
  1  'x, y, z'
loop_
 _atom_site_type_symbol
 _atom_site_label
 _atom_site_symmetry_multiplicity
 _atom_site_fract_x
 _atom_site_fract_y
 _atom_site_fract_z
 _atom_site_occupancy
  Bi  Bi0  1  0.813088  0.066296  0.709895  1
  Bi  Bi1  1  0.186912  0.566296  0.790105  1
  Bi  Bi2  1  0.186912  0.933704  0.290105  1
  Bi  Bi3  1  0.813088  0.433704  0.209895  1
  As  As4  1  0.409541  0.250805  0.745049  1
  As  As5  1  0.590459  0.750805  0.754951  1
  As  As6  1  0.590459  0.749195  0.254951  1
  As  As7  1  0.409541  0.249195  0.245049  1
  As  As8  1  0.033396  0.289653  0.966530  1
  As  As9  1  0.966604  0.789653  0.533470  1
  As  As10  1  0.966604  0.710347  0.033470  1
  As  As11  1  0.033396  0.210347  0.466530  1
  O  O12  1  0.862921  0.307756  0.041367  1
  O  O13  1  0.137079  0.807756  0.458633  1
  O  O14  1  0.137079  0.692244  0.958633  1
  O  O15  1  0.862921  0.192244  0.541367  1
  O  O16  1  0.372801  0.423753  0.727984  1
  O  O17  1  0.627199  0.923753  0.772016  1
  O  O18  1  0.627199  0.576247  0.272016  1
  O  O19  1  0.372801  0.076247  0.227984  1
  O  O20  1  0.378334  0.180404  0.883726  1
  O  O21  1  0.621666  0.680404  0.616274  1
  O  O22  1  0.621666  0.819596  0.116274  1
  O  O23  1  0.378334  0.319596  0.383726  1
  O  O24  1  0.251376  0.169275  0.589004  1
  O  O25  1  0.748624  0.669275  0.910996  1
  O  O26  1  0.748624  0.830725  0.410996  1
  O  O27  1  0.251376  0.330725  0.089004  1
  O  O28  1  0.006338  0.101913  0.330807  1
  O  O29  1  0.993662  0.601913  0.169193  1
  O  O30  1  0.993662  0.898087  0.669193  1
  O  O31  1  0.006338  0.398087  0.830807  1
  O  O32  1  0.620829  0.267643  0.217967  1
  O  O33  1  0.379171  0.767643  0.282033  1
  O  O34  1  0.379171  0.732357  0.782033  1
  O  O35  1  0.620829  0.232357  0.717967  1
  O  O36  1  0.020351  0.375606  0.409232  1
  O  O37  1  0.979649  0.875606  0.090768  1
  O  O38  1  0.979649  0.624394  0.590768  1
  O  O39  1  0.020351  0.124394  0.909232  1
