# generated using pymatgen
data_CaMn2O4
_symmetry_space_group_name_H-M   'P 1'
_cell_length_a   5.16379149
_cell_length_b   6.21302775
_cell_length_c   11.17854363
_cell_angle_alpha   89.84215146
_cell_angle_beta   89.83040101
_cell_angle_gamma   92.95690140
_symmetry_Int_Tables_number   1
_chemical_formula_structural   CaMn2O4
_chemical_formula_sum   'Ca4 Mn8 O16'
_cell_volume   358.15818184
_cell_formula_units_Z   4
loop_
 _symmetry_equiv_pos_site_id
 _symmetry_equiv_pos_as_xyz
  1  'x, y, z'
loop_
 _atom_site_type_symbol
 _atom_site_label
 _atom_site_symmetry_multiplicity
 _atom_site_fract_x
 _atom_site_fract_y
 _atom_site_fract_z
 _atom_site_occupancy
  Ca  Ca0  1  0.867613  0.232115  0.750822  1
  Ca  Ca1  1  0.132395  0.767977  0.249202  1
  Ca  Ca2  1  0.506289  0.282589  0.249208  1
  Ca  Ca3  1  0.493665  0.717495  0.750769  1
  Mn  Mn4  1  0.503227  0.753324  0.485997  1
  Mn  Mn5  1  0.507100  0.753268  0.013651  1
  Mn  Mn6  1  0.496700  0.246648  0.513986  1
  Mn  Mn7  1  0.493010  0.246694  0.986329  1
  Mn  Mn8  1  0.999976  0.499973  0.499978  1
  Mn  Mn9  1  0.000032  0.999965  0.000021  1
  Mn  Mn10  1  0.999942  0.999985  0.500014  1
  Mn  Mn11  1  0.000063  0.499967  0.000032  1
  O  O12  1  0.830838  0.775635  0.400943  1
  O  O13  1  0.831586  0.714931  0.097116  1
  O  O14  1  0.169077  0.224367  0.599058  1
  O  O15  1  0.168501  0.285035  0.902915  1
  O  O16  1  0.200120  0.721845  0.589479  1
  O  O17  1  0.202601  0.775956  0.912838  1
  O  O18  1  0.799804  0.278108  0.410487  1
  O  O19  1  0.797469  0.224028  0.087176  1
  O  O20  1  0.684651  0.473780  0.609267  1
  O  O21  1  0.691421  0.963019  0.898098  1
  O  O22  1  0.320068  0.030363  0.397782  1
  O  O23  1  0.320926  0.530736  0.108027  1
  O  O24  1  0.315276  0.526243  0.390680  1
  O  O25  1  0.308662  0.036983  0.101909  1
  O  O26  1  0.679783  0.969666  0.602232  1
  O  O27  1  0.679204  0.469305  0.891986  1
