# generated using pymatgen
data_Ca2SnWO6
_symmetry_space_group_name_H-M   'P 1'
_cell_length_a   5.66101542
_cell_length_b   5.96321057
_cell_length_c   8.29231217
_cell_angle_alpha   90.00000000
_cell_angle_beta   89.99515381
_cell_angle_gamma   90.00000000
_symmetry_Int_Tables_number   1
_chemical_formula_structural   Ca2SnWO6
_chemical_formula_sum   'Ca4 Sn2 W2 O12'
_cell_volume   279.93043825
_cell_formula_units_Z   2
loop_
 _symmetry_equiv_pos_site_id
 _symmetry_equiv_pos_as_xyz
  1  'x, y, z'
loop_
 _atom_site_type_symbol
 _atom_site_label
 _atom_site_symmetry_multiplicity
 _atom_site_fract_x
 _atom_site_fract_y
 _atom_site_fract_z
 _atom_site_occupancy
  Ca  Ca0  1  0.983737  0.059286  0.253969  1
  Ca  Ca1  1  0.516263  0.559287  0.246031  1
  Ca  Ca2  1  0.016264  0.940715  0.746031  1
  Ca  Ca3  1  0.483736  0.440714  0.753969  1
  Sn  Sn4  1  0.500000  0.000000  0.000000  1
  Sn  Sn5  1  0.000001  0.499999  0.500000  1
  W  W6  1  0.500000  0.000000  0.499999  1
  W  W7  1  0.000000  0.499999  0.000000  1
  O  O8  1  0.650195  0.276187  0.420954  1
  O  O9  1  0.849805  0.776188  0.079046  1
  O  O10  1  0.349804  0.723813  0.579046  1
  O  O11  1  0.150196  0.223812  0.920954  1
  O  O12  1  0.215767  0.165541  0.558671  1
  O  O13  1  0.284233  0.665540  0.941329  1
  O  O14  1  0.784234  0.834459  0.441329  1
  O  O15  1  0.715766  0.334460  0.058672  1
  O  O16  1  0.128891  0.434648  0.216024  1
  O  O17  1  0.371110  0.934649  0.283975  1
  O  O18  1  0.628891  0.065351  0.716025  1
  O  O19  1  0.871110  0.565352  0.783976  1
