# generated using pymatgen
data_Ca2AlAgO5
_symmetry_space_group_name_H-M   'P 1'
_cell_length_a   5.47641730
_cell_length_b   5.84605753
_cell_length_c   8.47484593
_cell_angle_alpha   110.29470480
_cell_angle_beta   108.99585568
_cell_angle_gamma   89.84798495
_symmetry_Int_Tables_number   1
_chemical_formula_structural   Ca2AlAgO5
_chemical_formula_sum   'Ca4 Al2 Ag2 O10'
_cell_volume   238.75729098
_cell_formula_units_Z   2
loop_
 _symmetry_equiv_pos_site_id
 _symmetry_equiv_pos_as_xyz
  1  'x, y, z'
loop_
 _atom_site_type_symbol
 _atom_site_label
 _atom_site_symmetry_multiplicity
 _atom_site_fract_x
 _atom_site_fract_y
 _atom_site_fract_z
 _atom_site_occupancy
  Ca  Ca0  1  0.135518  0.648878  0.229543  1
  Ca  Ca1  1  0.406462  0.919574  0.771116  1
  Ca  Ca2  1  0.907953  0.355945  0.771098  1
  Ca  Ca3  1  0.634885  0.084981  0.229140  1
  Al  Al4  1  0.282513  0.328520  0.500255  1
  Al  Al5  1  0.782131  0.676560  0.500414  1
  Ag  Ag6  1  0.505334  0.502265  0.000072  1
  Ag  Ag7  1  0.005126  0.002681  0.000330  1
  O  O8  1  0.608801  0.407045  0.500435  1
  O  O9  1  0.108436  0.598198  0.500093  1
  O  O10  1  0.605104  0.748903  0.312254  1
  O  O11  1  0.293212  0.255957  0.687772  1
  O  O12  1  0.106712  0.067932  0.310771  1
  O  O13  1  0.794424  0.937080  0.689466  1
  O  O14  1  0.233139  0.731530  0.940390  1
  O  O15  1  0.286970  0.276348  0.057007  1
  O  O16  1  0.788596  0.287752  0.060777  1
  O  O17  1  0.734347  0.714721  0.942945  1
