# generated using pymatgen
data_Y4V6O21
_symmetry_space_group_name_H-M   'P 1'
_cell_length_a   8.03343399
_cell_length_b   7.52632287
_cell_length_c   21.83855305
_cell_angle_alpha   58.87198024
_cell_angle_beta   52.65221813
_cell_angle_gamma   62.06708479
_symmetry_Int_Tables_number   1
_chemical_formula_structural   Y4V6O21
_chemical_formula_sum   'Y8 V12 O42'
_cell_volume   874.97682399
_cell_formula_units_Z   2
loop_
 _symmetry_equiv_pos_site_id
 _symmetry_equiv_pos_as_xyz
  1  'x, y, z'
loop_
 _atom_site_type_symbol
 _atom_site_label
 _atom_site_symmetry_multiplicity
 _atom_site_fract_x
 _atom_site_fract_y
 _atom_site_fract_z
 _atom_site_occupancy
  Y  Y0  1  0.975058  0.005745  0.994741  1
  Y  Y1  1  0.024942  0.994255  0.338592  1
  Y  Y2  1  0.000000  0.000000  0.666667  1
  Y  Y3  1  0.500000  0.000000  0.666667  1
  Y  Y4  1  0.000000  0.000000  0.166667  1
  Y  Y5  1  0.975058  0.534975  0.994741  1
  Y  Y6  1  0.024942  0.465025  0.338592  1
  Y  Y7  1  0.000000  0.500000  0.666667  1
  V  V8  1  0.000000  0.500000  0.166667  1
  V  V9  1  0.040361  0.473359  0.504307  1
  V  V10  1  0.959639  0.526641  0.829026  1
  V  V11  1  0.576851  0.409179  0.034930  1
  V  V12  1  0.423149  0.590821  0.298403  1
  V  V13  1  0.500000  0.500000  0.666667  1
  V  V14  1  0.500000  0.000000  0.166667  1
  V  V15  1  0.478505  0.974280  0.519211  1
  V  V16  1  0.521495  0.025720  0.814122  1
  V  V17  1  0.500000  0.500000  0.166667  1
  V  V18  1  0.478505  0.489581  0.519211  1
  V  V19  1  0.521495  0.510419  0.814122  1
  O  O20  1  0.482617  0.255979  0.168475  1
  O  O21  1  0.565730  0.162154  0.536655  1
  O  O22  1  0.599502  0.248248  0.801334  1
  O  O23  1  0.194529  0.085954  0.186662  1
  O  O24  1  0.242598  0.146062  0.525948  1
  O  O25  1  0.993519  0.253797  0.872481  1
  O  O26  1  0.599522  0.122013  0.053753  1
  O  O27  1  0.676145  0.017187  0.418806  1
  O  O28  1  0.638426  0.157682  0.691648  1
  O  O29  1  0.979997  0.658667  0.067557  1
  O  O30  1  0.124835  0.718689  0.312595  1
  O  O31  1  0.038638  0.659338  0.714228  1
  O  O32  1  0.283552  0.472254  0.090647  1
  O  O33  1  0.360288  0.476659  0.395465  1
  O  O34  1  0.291324  0.453500  0.767226  1
  O  O35  1  0.400478  0.877987  0.279581  1
  O  O36  1  0.361574  0.842318  0.641685  1
  O  O37  1  0.323855  0.982813  0.914527  1
  O  O38  1  0.805471  0.914046  0.146671  1
  O  O39  1  0.006481  0.746203  0.460852  1
  O  O40  1  0.757402  0.853938  0.807386  1
  O  O41  1  0.805471  0.340470  0.146671  1
  O  O42  1  0.006481  0.364759  0.460852  1
  O  O43  1  0.757402  0.466504  0.807386  1
  O  O44  1  0.716448  0.527746  0.242686  1
  O  O45  1  0.708676  0.546500  0.566108  1
  O  O46  1  0.639712  0.523341  0.937868  1
  O  O47  1  0.400478  0.382792  0.279581  1
  O  O48  1  0.361574  0.371052  0.641685  1
  O  O49  1  0.323855  0.449749  0.914527  1
  O  O50  1  0.599522  0.617208  0.053753  1
  O  O51  1  0.676145  0.550251  0.418806  1
  O  O52  1  0.638426  0.628948  0.691648  1
  O  O53  1  0.194529  0.659530  0.186662  1
  O  O54  1  0.242598  0.533496  0.525948  1
  O  O55  1  0.993519  0.635241  0.872481  1
  O  O56  1  0.517383  0.744021  0.164858  1
  O  O57  1  0.400498  0.751752  0.531999  1
  O  O58  1  0.434270  0.837846  0.796679  1
  O  O59  1  0.020003  0.341333  0.265777  1
  O  O60  1  0.961362  0.340662  0.619105  1
  O  O61  1  0.875165  0.281311  0.020738  1
