# generated using pymatgen
data_ZnCu(GeO3)2
_symmetry_space_group_name_H-M   'P 1'
_cell_length_a   5.43508509
_cell_length_b   9.45096562
_cell_length_c   9.62162435
_cell_angle_alpha   90.00000000
_cell_angle_beta   99.39636879
_cell_angle_gamma   90.00000000
_symmetry_Int_Tables_number   1
_chemical_formula_structural   ZnCu(GeO3)2
_chemical_formula_sum   'Zn4 Cu4 Ge8 O24'
_cell_volume   487.60072258
_cell_formula_units_Z   4
loop_
 _symmetry_equiv_pos_site_id
 _symmetry_equiv_pos_as_xyz
  1  'x, y, z'
loop_
 _atom_site_type_symbol
 _atom_site_label
 _atom_site_symmetry_multiplicity
 _atom_site_fract_x
 _atom_site_fract_y
 _atom_site_fract_z
 _atom_site_occupancy
  Zn  Zn0  1  0.451653  0.504880  0.249569  1
  Zn  Zn1  1  0.048347  0.004880  0.750431  1
  Zn  Zn2  1  0.548347  0.495120  0.750431  1
  Zn  Zn3  1  0.951653  0.995120  0.249569  1
  Cu  Cu4  1  0.959680  0.649772  0.242099  1
  Cu  Cu5  1  0.540320  0.149772  0.757901  1
  Cu  Cu6  1  0.040320  0.350228  0.757901  1
  Cu  Cu7  1  0.459680  0.850228  0.242099  1
  Ge  Ge8  1  0.826795  0.339349  0.060140  1
  Ge  Ge9  1  0.673205  0.839349  0.939860  1
  Ge  Ge10  1  0.173205  0.660651  0.939860  1
  Ge  Ge11  1  0.326795  0.160651  0.060140  1
  Ge  Ge12  1  0.235574  0.340427  0.461205  1
  Ge  Ge13  1  0.264426  0.840427  0.538795  1
  Ge  Ge14  1  0.764426  0.659573  0.538795  1
  Ge  Ge15  1  0.735574  0.159573  0.461205  1
  O  O16  1  0.491849  0.273822  0.386413  1
  O  O17  1  0.008151  0.773822  0.613587  1
  O  O18  1  0.508151  0.726178  0.613587  1
  O  O19  1  0.991849  0.226178  0.386413  1
  O  O20  1  0.157283  0.311419  0.110443  1
  O  O21  1  0.342717  0.811419  0.889558  1
  O  O22  1  0.842717  0.688581  0.889558  1
  O  O23  1  0.657283  0.188581  0.110443  1
  O  O24  1  0.714008  0.990632  0.386238  1
  O  O25  1  0.785992  0.490632  0.613762  1
  O  O26  1  0.285992  0.009368  0.613762  1
  O  O27  1  0.214008  0.509368  0.386238  1
  O  O28  1  0.231979  0.011291  0.144661  1
  O  O29  1  0.268021  0.511291  0.855339  1
  O  O30  1  0.768021  0.988709  0.855339  1
  O  O31  1  0.731979  0.488709  0.144661  1
  O  O32  1  0.773705  0.350038  0.872747  1
  O  O33  1  0.726295  0.850038  0.127253  1
  O  O34  1  0.226295  0.649962  0.127253  1
  O  O35  1  0.273705  0.149962  0.872747  1
  O  O36  1  0.310046  0.330169  0.648713  1
  O  O37  1  0.189955  0.830169  0.351287  1
  O  O38  1  0.689955  0.669831  0.351287  1
  O  O39  1  0.810045  0.169831  0.648713  1
