# generated using pymatgen
data_Mn(ZnN)2
_symmetry_space_group_name_H-M   'P 1'
_cell_length_a   3.65790736
_cell_length_b   6.53640382
_cell_length_c   6.06715195
_cell_angle_alpha   72.28066556
_cell_angle_beta   72.48431715
_cell_angle_gamma   73.82052015
_symmetry_Int_Tables_number   1
_chemical_formula_structural   Mn(ZnN)2
_chemical_formula_sum   'Mn2 Zn4 N4'
_cell_volume   128.95038434
_cell_formula_units_Z   2
loop_
 _symmetry_equiv_pos_site_id
 _symmetry_equiv_pos_as_xyz
  1  'x, y, z'
loop_
 _atom_site_type_symbol
 _atom_site_label
 _atom_site_symmetry_multiplicity
 _atom_site_fract_x
 _atom_site_fract_y
 _atom_site_fract_z
 _atom_site_occupancy
  Mn  Mn0  1  0.367195  0.124683  0.141676  1
  Mn  Mn1  1  0.633540  0.872132  0.858866  1
  Zn  Zn2  1  0.676100  0.211114  0.440066  1
  Zn  Zn3  1  0.326173  0.785495  0.559827  1
  Zn  Zn4  1  0.058691  0.652407  0.234737  1
  Zn  Zn5  1  0.943803  0.344451  0.767023  1
  N  N6  1  0.172083  0.328754  0.330525  1
  N  N7  1  0.829863  0.668053  0.669691  1
  N  N8  1  0.498608  0.192710  0.807380  1
  N  N9  1  0.504581  0.803635  0.192676  1
