# generated using pymatgen
data_ZnCu(GeO3)2
_symmetry_space_group_name_H-M   'P 1'
_cell_length_a   5.40642780
_cell_length_b   7.03828547
_cell_length_c   7.03828563
_cell_angle_alpha   86.09151506
_cell_angle_beta   74.81139977
_cell_angle_gamma   74.81138400
_symmetry_Int_Tables_number   1
_chemical_formula_structural   ZnCu(GeO3)2
_chemical_formula_sum   'Zn2 Cu2 Ge4 O12'
_cell_volume   249.43677955
_cell_formula_units_Z   2
loop_
 _symmetry_equiv_pos_site_id
 _symmetry_equiv_pos_as_xyz
  1  'x, y, z'
loop_
 _atom_site_type_symbol
 _atom_site_label
 _atom_site_symmetry_multiplicity
 _atom_site_fract_x
 _atom_site_fract_y
 _atom_site_fract_z
 _atom_site_occupancy
  Zn  Zn0  1  0.750000  0.237412  0.762588  1
  Zn  Zn1  1  0.250000  0.762588  0.237412  1
  Cu  Cu2  1  0.750000  0.892973  0.107027  1
  Cu  Cu3  1  0.250000  0.107027  0.892973  1
  Ge  Ge4  1  0.756858  0.386504  0.208742  1
  Ge  Ge5  1  0.743142  0.791258  0.613496  1
  Ge  Ge6  1  0.243142  0.613496  0.791258  1
  Ge  Ge7  1  0.256858  0.208742  0.386504  1
  O  O8  1  0.524058  0.303756  0.404447  1
  O  O9  1  0.975942  0.595553  0.696244  1
  O  O10  1  0.475942  0.696244  0.595553  1
  O  O11  1  0.024058  0.404447  0.303756  1
  O  O12  1  0.115022  0.133657  0.622911  1
  O  O13  1  0.384978  0.377089  0.866343  1
  O  O14  1  0.884978  0.866343  0.377089  1
  O  O15  1  0.615022  0.622911  0.133657  1
  O  O16  1  0.879669  0.201641  0.021431  1
  O  O17  1  0.620331  0.978569  0.798359  1
  O  O18  1  0.120331  0.798359  0.978569  1
  O  O19  1  0.379669  0.021431  0.201641  1
