# generated using pymatgen
data_TaZnBiO5
_symmetry_space_group_name_H-M   'P 1'
_cell_length_a   5.34502677
_cell_length_b   10.70510505
_cell_length_c   16.12970068
_cell_angle_alpha   90.00000000
_cell_angle_beta   90.00000000
_cell_angle_gamma   90.00000000
_symmetry_Int_Tables_number   1
_chemical_formula_structural   TaZnBiO5
_chemical_formula_sum   'Ta8 Zn8 Bi8 O40'
_cell_volume   922.92652177
_cell_formula_units_Z   8
loop_
 _symmetry_equiv_pos_site_id
 _symmetry_equiv_pos_as_xyz
  1  'x, y, z'
loop_
 _atom_site_type_symbol
 _atom_site_label
 _atom_site_symmetry_multiplicity
 _atom_site_fract_x
 _atom_site_fract_y
 _atom_site_fract_z
 _atom_site_occupancy
  Ta  Ta0  1  0.975130  0.373337  0.587932  1
  Ta  Ta1  1  0.524870  0.873337  0.412068  1
  Ta  Ta2  1  0.024870  0.626663  0.412068  1
  Ta  Ta3  1  0.475130  0.126663  0.587932  1
  Ta  Ta4  1  0.024870  0.126663  0.087932  1
  Ta  Ta5  1  0.975130  0.873337  0.912068  1
  Ta  Ta6  1  0.524870  0.373337  0.087932  1
  Ta  Ta7  1  0.475130  0.626663  0.912068  1
  Zn  Zn8  1  0.496874  0.370708  0.452799  1
  Zn  Zn9  1  0.996874  0.129292  0.452799  1
  Zn  Zn10  1  0.996874  0.629292  0.047201  1
  Zn  Zn11  1  0.003126  0.370708  0.952799  1
  Zn  Zn12  1  0.503126  0.129292  0.952799  1
  Zn  Zn13  1  0.003126  0.870708  0.547201  1
  Zn  Zn14  1  0.503126  0.629292  0.547201  1
  Zn  Zn15  1  0.496874  0.870708  0.047201  1
  Bi  Bi16  1  0.015903  0.856237  0.221063  1
  Bi  Bi17  1  0.984097  0.143763  0.778937  1
  Bi  Bi18  1  0.484097  0.356237  0.778937  1
  Bi  Bi19  1  0.984097  0.643763  0.721063  1
  Bi  Bi20  1  0.515903  0.143763  0.278937  1
  Bi  Bi21  1  0.515903  0.643763  0.221063  1
  Bi  Bi22  1  0.484097  0.856237  0.721063  1
  Bi  Bi23  1  0.015903  0.356237  0.278937  1
  O  O24  1  0.848642  0.310831  0.689298  1
  O  O25  1  0.277341  0.029757  0.037981  1
  O  O26  1  0.222659  0.529757  0.962019  1
  O  O27  1  0.356204  0.795603  0.151797  1
  O  O28  1  0.143796  0.295603  0.848203  1
  O  O29  1  0.848642  0.810831  0.810702  1
  O  O30  1  0.143796  0.795603  0.651797  1
  O  O31  1  0.651358  0.810831  0.310702  1
  O  O32  1  0.277341  0.529757  0.462019  1
  O  O33  1  0.151358  0.689169  0.310702  1
  O  O34  1  0.651358  0.310831  0.189298  1
  O  O35  1  0.718070  0.223716  0.526733  1
  O  O36  1  0.777341  0.970243  0.462019  1
  O  O37  1  0.643796  0.704397  0.651797  1
  O  O38  1  0.174774  0.003316  0.867989  1
  O  O39  1  0.777341  0.470243  0.037981  1
  O  O40  1  0.151358  0.189169  0.189298  1
  O  O41  1  0.856204  0.204397  0.348203  1
  O  O42  1  0.218070  0.776284  0.973267  1
  O  O43  1  0.222659  0.029757  0.537981  1
  O  O44  1  0.281930  0.776284  0.473267  1
  O  O45  1  0.825226  0.996684  0.132011  1
  O  O46  1  0.643796  0.204397  0.848203  1
  O  O47  1  0.674774  0.996684  0.632011  1
  O  O48  1  0.281930  0.276284  0.026733  1
  O  O49  1  0.218070  0.276284  0.526733  1
  O  O50  1  0.722659  0.470243  0.537981  1
  O  O51  1  0.722659  0.970243  0.962019  1
  O  O52  1  0.674774  0.496684  0.867989  1
  O  O53  1  0.781930  0.723716  0.473267  1
  O  O54  1  0.781930  0.223716  0.026733  1
  O  O55  1  0.718070  0.723716  0.973267  1
  O  O56  1  0.825226  0.496684  0.367989  1
  O  O57  1  0.856204  0.704397  0.151797  1
  O  O58  1  0.356204  0.295603  0.348203  1
  O  O59  1  0.174774  0.503316  0.632011  1
  O  O60  1  0.325226  0.503316  0.132011  1
  O  O61  1  0.348642  0.189169  0.689298  1
  O  O62  1  0.325226  0.003316  0.367989  1
  O  O63  1  0.348642  0.689169  0.810702  1
