# generated using pymatgen
data_PrMg(BiO3)2
_symmetry_space_group_name_H-M   'P 1'
_cell_length_a   5.82903414
_cell_length_b   6.08300737
_cell_length_c   8.55023371
_cell_angle_alpha   90.00090095
_cell_angle_beta   89.99593039
_cell_angle_gamma   89.99076128
_symmetry_Int_Tables_number   1
_chemical_formula_structural   PrMg(BiO3)2
_chemical_formula_sum   'Pr2 Mg2 Bi4 O12'
_cell_volume   303.17467491
_cell_formula_units_Z   2
loop_
 _symmetry_equiv_pos_site_id
 _symmetry_equiv_pos_as_xyz
  1  'x, y, z'
loop_
 _atom_site_type_symbol
 _atom_site_label
 _atom_site_symmetry_multiplicity
 _atom_site_fract_x
 _atom_site_fract_y
 _atom_site_fract_z
 _atom_site_occupancy
  Pr  Pr0  1  0.011389  0.935070  0.750022  1
  Pr  Pr1  1  0.511393  0.564888  0.250019  1
  Mg  Mg2  1  0.509699  0.498357  0.750014  1
  Mg  Mg3  1  0.009680  0.001632  0.249995  1
  Bi  Bi4  1  0.003793  0.486540  0.000594  1
  Bi  Bi5  1  0.003821  0.486463  0.499427  1
  Bi  Bi6  1  0.503813  0.013491  0.500567  1
  Bi  Bi7  1  0.503838  0.013571  0.999451  1
  O  O8  1  0.137466  0.395197  0.249819  1
  O  O9  1  0.166699  0.171056  0.934251  1
  O  O10  1  0.167066  0.170692  0.565662  1
  O  O11  1  0.328199  0.675522  0.581192  1
  O  O12  1  0.327734  0.675086  0.918828  1
  O  O13  1  0.344110  0.926008  0.250182  1
  O  O14  1  0.637448  0.104793  0.749818  1
  O  O15  1  0.667026  0.329315  0.065760  1
  O  O16  1  0.666609  0.329017  0.434236  1
  O  O17  1  0.828247  0.824473  0.081080  1
  O  O18  1  0.827753  0.824886  0.418883  1
  O  O19  1  0.844216  0.573945  0.750200  1
