# generated using pymatgen
data_Ca(SbO2)2
_symmetry_space_group_name_H-M   'P 1'
_cell_length_a   7.43745642
_cell_length_b   6.83775501
_cell_length_c   6.84881799
_cell_angle_alpha   79.61428076
_cell_angle_beta   122.95855041
_cell_angle_gamma   122.77327868
_symmetry_Int_Tables_number   1
_chemical_formula_structural   Ca(SbO2)2
_chemical_formula_sum   'Ca2 Sb4 O8'
_cell_volume   242.48444795
_cell_formula_units_Z   2
loop_
 _symmetry_equiv_pos_site_id
 _symmetry_equiv_pos_as_xyz
  1  'x, y, z'
loop_
 _atom_site_type_symbol
 _atom_site_label
 _atom_site_symmetry_multiplicity
 _atom_site_fract_x
 _atom_site_fract_y
 _atom_site_fract_z
 _atom_site_occupancy
  Ca  Ca0  1  0.250044  0.128615  0.870554  1
  Ca  Ca1  1  0.748586  0.872723  0.125386  1
  Sb  Sb2  1  0.552888  0.996918  0.564363  1
  Sb  Sb3  1  0.508305  0.509056  0.444215  1
  Sb  Sb4  1  0.946328  0.433843  0.002169  1
  Sb  Sb5  1  0.992679  0.557501  0.490696  1
  O  O6  1  0.984298  0.668753  0.193977  1
  O  O7  1  0.380161  0.707409  0.686989  1
  O  O8  1  0.512529  0.804267  0.329973  1
  O  O9  1  0.996137  0.830268  0.550288  1
  O  O10  1  0.616624  0.166632  0.944932  1
  O  O11  1  0.503546  0.449407  0.170460  1
  O  O12  1  0.122114  0.314167  0.293175  1
  O  O13  1  0.885762  0.060444  0.832822  1
