# generated using pymatgen
data_Ca5(VN3)2
_symmetry_space_group_name_H-M   'P 1'
_cell_length_a   4.96494475
_cell_length_b   6.55178083
_cell_length_c   7.11603728
_cell_angle_alpha   105.01165404
_cell_angle_beta   90.00000000
_cell_angle_gamma   90.00000000
_symmetry_Int_Tables_number   1
_chemical_formula_structural   Ca5(VN3)2
_chemical_formula_sum   'Ca5 V2 N6'
_cell_volume   223.57955841
_cell_formula_units_Z   1
loop_
 _symmetry_equiv_pos_site_id
 _symmetry_equiv_pos_as_xyz
  1  'x, y, z'
loop_
 _atom_site_type_symbol
 _atom_site_label
 _atom_site_symmetry_multiplicity
 _atom_site_fract_x
 _atom_site_fract_y
 _atom_site_fract_z
 _atom_site_occupancy
  Ca  Ca0  1  0.750000  0.782268  0.607609  1
  Ca  Ca1  1  0.250000  0.195541  0.412787  1
  Ca  Ca2  1  0.250000  0.083084  0.890462  1
  Ca  Ca3  1  0.750000  0.872252  0.084497  1
  Ca  Ca4  1  0.750000  0.384733  0.162317  1
  V  V5  1  0.250000  0.711238  0.288952  1
  V  V6  1  0.750000  0.301627  0.708631  1
  N  N7  1  0.750000  0.565800  0.829882  1
  N  N8  1  0.250000  0.426484  0.197984  1
  N  N9  1  0.750000  0.110847  0.866545  1
  N  N10  1  0.250000  0.889821  0.135938  1
  N  N11  1  0.750000  0.227357  0.446054  1
  N  N12  1  0.250000  0.851063  0.540363  1
