# generated using pymatgen
data_CaV(GeO3)2
_symmetry_space_group_name_H-M   'P 1'
_cell_length_a   5.42322821
_cell_length_b   9.30298746
_cell_length_c   10.41664721
_cell_angle_alpha   90.00000000
_cell_angle_beta   105.83033727
_cell_angle_gamma   90.00000000
_symmetry_Int_Tables_number   1
_chemical_formula_structural   CaV(GeO3)2
_chemical_formula_sum   'Ca4 V4 Ge8 O24'
_cell_volume   505.61111109
_cell_formula_units_Z   4
loop_
 _symmetry_equiv_pos_site_id
 _symmetry_equiv_pos_as_xyz
  1  'x, y, z'
loop_
 _atom_site_type_symbol
 _atom_site_label
 _atom_site_symmetry_multiplicity
 _atom_site_fract_x
 _atom_site_fract_y
 _atom_site_fract_z
 _atom_site_occupancy
  Ca  Ca0  1  0.474577  0.453291  0.265615  1
  Ca  Ca1  1  0.025423  0.953291  0.734385  1
  Ca  Ca2  1  0.525423  0.546709  0.734385  1
  Ca  Ca3  1  0.974577  0.046709  0.265615  1
  V  V4  1  0.976022  0.658057  0.244334  1
  V  V5  1  0.523978  0.158057  0.755666  1
  V  V6  1  0.023978  0.341943  0.755666  1
  V  V7  1  0.476022  0.841943  0.244334  1
  Ge  Ge8  1  0.817876  0.344932  0.041378  1
  Ge  Ge9  1  0.682124  0.844932  0.958622  1
  Ge  Ge10  1  0.182124  0.655068  0.958622  1
  Ge  Ge11  1  0.317876  0.155068  0.041378  1
  Ge  Ge12  1  0.137725  0.347849  0.471028  1
  Ge  Ge13  1  0.362275  0.847849  0.528972  1
  Ge  Ge14  1  0.862275  0.652151  0.528972  1
  Ge  Ge15  1  0.637725  0.152151  0.471028  1
  O  O16  1  0.333902  0.234567  0.389988  1
  O  O17  1  0.166098  0.734567  0.610012  1
  O  O18  1  0.666098  0.765433  0.610012  1
  O  O19  1  0.833902  0.265433  0.389988  1
  O  O20  1  0.160671  0.306937  0.099152  1
  O  O21  1  0.339329  0.806937  0.900849  1
  O  O22  1  0.839329  0.693063  0.900849  1
  O  O23  1  0.660671  0.193063  0.099152  1
  O  O24  1  0.674796  0.984139  0.404044  1
  O  O25  1  0.825204  0.484139  0.595956  1
  O  O26  1  0.325204  0.015861  0.595956  1
  O  O27  1  0.174796  0.515861  0.404044  1
  O  O28  1  0.252250  0.012084  0.132361  1
  O  O29  1  0.247750  0.512084  0.867639  1
  O  O30  1  0.747750  0.987916  0.867639  1
  O  O31  1  0.752250  0.487916  0.132361  1
  O  O32  1  0.735957  0.344739  0.865814  1
  O  O33  1  0.764043  0.844739  0.134186  1
  O  O34  1  0.264043  0.655261  0.134186  1
  O  O35  1  0.235957  0.155261  0.865814  1
  O  O36  1  0.295691  0.334510  0.641728  1
  O  O37  1  0.204309  0.834510  0.358272  1
  O  O38  1  0.704309  0.665490  0.358272  1
  O  O39  1  0.795691  0.165490  0.641728  1
