# generated using pymatgen
data_TiZnBiO5
_symmetry_space_group_name_H-M   'P 1'
_cell_length_a   5.31034897
_cell_length_b   8.50759635
_cell_length_c   10.89310208
_cell_angle_alpha   90.00000000
_cell_angle_beta   90.00000000
_cell_angle_gamma   108.36919192
_symmetry_Int_Tables_number   1
_chemical_formula_structural   TiZnBiO5
_chemical_formula_sum   'Ti4 Zn4 Bi4 O20'
_cell_volume   467.05560823
_cell_formula_units_Z   4
loop_
 _symmetry_equiv_pos_site_id
 _symmetry_equiv_pos_as_xyz
  1  'x, y, z'
loop_
 _atom_site_type_symbol
 _atom_site_label
 _atom_site_symmetry_multiplicity
 _atom_site_fract_x
 _atom_site_fract_y
 _atom_site_fract_z
 _atom_site_occupancy
  Ti  Ti0  1  0.806458  0.942807  0.617980  1
  Ti  Ti1  1  0.193542  0.057193  0.382020  1
  Ti  Ti2  1  0.693542  0.557193  0.117980  1
  Ti  Ti3  1  0.306458  0.442807  0.882020  1
  Zn  Zn4  1  0.630727  0.157122  0.898042  1
  Zn  Zn5  1  0.369273  0.842878  0.101958  1
  Zn  Zn6  1  0.869273  0.342878  0.398042  1
  Zn  Zn7  1  0.130727  0.657122  0.601958  1
  Bi  Bi8  1  0.114271  0.159937  0.104703  1
  Bi  Bi9  1  0.885729  0.840063  0.895297  1
  Bi  Bi10  1  0.614271  0.659937  0.395297  1
  Bi  Bi11  1  0.385729  0.340063  0.604703  1
  O  O12  1  0.488663  0.355908  0.046084  1
  O  O13  1  0.994932  0.312662  0.955375  1
  O  O14  1  0.501370  0.682532  0.196848  1
  O  O15  1  0.759875  0.516977  0.533982  1
  O  O16  1  0.787381  0.494603  0.269351  1
  O  O17  1  0.287381  0.994603  0.230649  1
  O  O18  1  0.494932  0.812662  0.544625  1
  O  O19  1  0.505068  0.187338  0.455375  1
  O  O20  1  0.240125  0.483023  0.466018  1
  O  O21  1  0.011337  0.144092  0.546084  1
  O  O22  1  0.212619  0.505397  0.730649  1
  O  O23  1  0.511337  0.644092  0.953916  1
  O  O24  1  0.988663  0.855908  0.453916  1
  O  O25  1  0.712619  0.005397  0.769351  1
  O  O26  1  0.740125  0.983023  0.033982  1
  O  O27  1  0.259875  0.016977  0.966018  1
  O  O28  1  0.498630  0.317468  0.803152  1
  O  O29  1  0.005068  0.687338  0.044625  1
  O  O30  1  0.998630  0.817468  0.696848  1
  O  O31  1  0.001370  0.182532  0.303152  1
