# generated using pymatgen
data_Zn(MoO2)2
_symmetry_space_group_name_H-M   'P 1'
_cell_length_a   6.49658267
_cell_length_b   6.54109159
_cell_length_c   18.72540349
_cell_angle_alpha   60.17164762
_cell_angle_beta   58.58161518
_cell_angle_gamma   56.85680512
_symmetry_Int_Tables_number   1
_chemical_formula_structural   Zn(MoO2)2
_chemical_formula_sum   'Zn6 Mo12 O24'
_cell_volume   542.88410344
_cell_formula_units_Z   6
loop_
 _symmetry_equiv_pos_site_id
 _symmetry_equiv_pos_as_xyz
  1  'x, y, z'
loop_
 _atom_site_type_symbol
 _atom_site_label
 _atom_site_symmetry_multiplicity
 _atom_site_fract_x
 _atom_site_fract_y
 _atom_site_fract_z
 _atom_site_occupancy
  Zn  Zn0  1  0.135115  0.122540  0.040295  1
  Zn  Zn1  1  0.492794  0.503066  0.336364  1
  Zn  Zn2  1  0.001135  0.506354  0.165330  1
  Zn  Zn3  1  0.500219  0.497456  0.665120  1
  Zn  Zn4  1  0.004607  0.493897  0.505757  1
  Zn  Zn5  1  0.012354  0.491710  0.830054  1
  Mo  Mo6  1  0.489190  0.004210  0.168494  1
  Mo  Mo7  1  0.119878  0.111602  0.395183  1
  Mo  Mo8  1  0.495897  0.496633  0.001440  1
  Mo  Mo9  1  0.490158  0.500120  0.169100  1
  Mo  Mo10  1  0.498056  0.006226  0.499918  1
  Mo  Mo11  1  0.151055  0.101810  0.714158  1
  Mo  Mo12  1  0.500916  0.506441  0.498213  1
  Mo  Mo13  1  0.511570  0.995861  0.830607  1
  Mo  Mo14  1  0.862371  0.889597  0.285978  1
  Mo  Mo15  1  0.510566  0.492814  0.830340  1
  Mo  Mo16  1  0.875862  0.893135  0.606956  1
  Mo  Mo17  1  0.867779  0.874786  0.953602  1
  O  O18  1  0.258608  0.262384  0.084187  1
  O  O19  1  0.254509  0.272185  0.243784  1
  O  O20  1  0.243961  0.731332  0.089417  1
  O  O21  1  0.721944  0.241549  0.089744  1
  O  O22  1  0.275360  0.279968  0.413091  1
  O  O23  1  0.253075  0.765423  0.246860  1
  O  O24  1  0.282621  0.267648  0.577928  1
  O  O25  1  0.743317  0.264549  0.247227  1
  O  O26  1  0.231907  0.711739  0.425640  1
  O  O27  1  0.727002  0.728356  0.093807  1
  O  O28  1  0.716559  0.245998  0.419826  1
  O  O29  1  0.731950  0.746353  0.251308  1
  O  O30  1  0.289947  0.265157  0.742867  1
  O  O31  1  0.282139  0.765589  0.577035  1
  O  O32  1  0.768842  0.295533  0.571027  1
  O  O33  1  0.232535  0.713702  0.762980  1
  O  O34  1  0.274751  0.259184  0.908752  1
  O  O35  1  0.718707  0.759887  0.415519  1
  O  O36  1  0.742792  0.222384  0.756687  1
  O  O37  1  0.714028  0.728211  0.589056  1
  O  O38  1  0.280203  0.759928  0.910026  1
  O  O39  1  0.771739  0.273476  0.908133  1
  O  O40  1  0.741143  0.727692  0.754479  1
  O  O41  1  0.722836  0.723518  0.923713  1
