# generated using pymatgen
data_Ca2Ta2FeO8
_symmetry_space_group_name_H-M   'P 1'
_cell_length_a   5.43876648
_cell_length_b   6.49170742
_cell_length_c   10.09468886
_cell_angle_alpha   108.71999489
_cell_angle_beta   92.41026665
_cell_angle_gamma   89.99240655
_symmetry_Int_Tables_number   1
_chemical_formula_structural   Ca2Ta2FeO8
_chemical_formula_sum   'Ca4 Ta4 Fe2 O16'
_cell_volume   337.22491527
_cell_formula_units_Z   2
loop_
 _symmetry_equiv_pos_site_id
 _symmetry_equiv_pos_as_xyz
  1  'x, y, z'
loop_
 _atom_site_type_symbol
 _atom_site_label
 _atom_site_symmetry_multiplicity
 _atom_site_fract_x
 _atom_site_fract_y
 _atom_site_fract_z
 _atom_site_occupancy
  Ca  Ca0  1  0.756138  0.453079  0.579116  1
  Ca  Ca1  1  0.743338  0.873544  0.421059  1
  Ca  Ca2  1  0.243602  0.545237  0.420820  1
  Ca  Ca3  1  0.255990  0.123947  0.577355  1
  Ta  Ta4  1  0.739069  0.257433  0.226580  1
  Ta  Ta5  1  0.760233  0.031179  0.772999  1
  Ta  Ta6  1  0.260284  0.740714  0.772804  1
  Ta  Ta7  1  0.239092  0.966809  0.225913  1
  Fe  Fe8  1  0.749251  0.644215  0.999594  1
  Fe  Fe9  1  0.249494  0.354090  0.999653  1
  O  O10  1  0.068088  0.187899  0.142421  1
  O  O11  1  0.431425  0.044929  0.856944  1
  O  O12  1  0.931020  0.810018  0.856535  1
  O  O13  1  0.568160  0.952979  0.142262  1
  O  O14  1  0.572711  0.403123  0.115598  1
  O  O15  1  0.925958  0.287999  0.883946  1
  O  O16  1  0.426082  0.594854  0.883921  1
  O  O17  1  0.072900  0.710286  0.114983  1
  O  O18  1  0.476910  0.248177  0.363993  1
  O  O19  1  0.022597  0.884846  0.635417  1
  O  O20  1  0.337619  0.844093  0.370799  1
  O  O21  1  0.162244  0.473116  0.627903  1
  O  O22  1  0.661695  0.153184  0.627817  1
  O  O23  1  0.837456  0.524657  0.371655  1
  O  O24  1  0.977034  0.112984  0.363667  1
  O  O25  1  0.522308  0.749665  0.635210  1
