# generated using pymatgen
data_CaSn3P3O13
_symmetry_space_group_name_H-M   'P 1'
_cell_length_a   6.88281961
_cell_length_b   7.72538446
_cell_length_c   11.13359570
_cell_angle_alpha   98.09386199
_cell_angle_beta   90.00000000
_cell_angle_gamma   90.00000000
_symmetry_Int_Tables_number   1
_chemical_formula_structural   CaSn3P3O13
_chemical_formula_sum   'Ca2 Sn6 P6 O26'
_cell_volume   586.10324700
_cell_formula_units_Z   2
loop_
 _symmetry_equiv_pos_site_id
 _symmetry_equiv_pos_as_xyz
  1  'x, y, z'
loop_
 _atom_site_type_symbol
 _atom_site_label
 _atom_site_symmetry_multiplicity
 _atom_site_fract_x
 _atom_site_fract_y
 _atom_site_fract_z
 _atom_site_occupancy
  Ca  Ca0  1  0.750000  0.643410  0.202857  1
  Ca  Ca1  1  0.250000  0.356590  0.797143  1
  Sn  Sn2  1  0.250000  0.324451  0.242885  1
  Sn  Sn3  1  0.750000  0.675549  0.757115  1
  Sn  Sn4  1  0.250000  0.760324  0.456085  1
  Sn  Sn5  1  0.500000  -0.000000  -0.000000  1
  Sn  Sn6  1  0.750000  0.239676  0.543915  1
  Sn  Sn7  1  -0.000000  -0.000000  -0.000000  1
  P  P8  1  0.250000  0.213596  0.518501  1
  P  P9  1  0.750000  0.786404  0.481499  1
  P  P10  1  0.250000  0.767953  0.759636  1
  P  P11  1  0.750000  0.232047  0.240364  1
  P  P12  1  0.750000  0.339842  0.906326  1
  P  P13  1  0.250000  0.660158  0.093674  1
  O  O14  1  0.750000  0.421768  0.782346  1
  O  O15  1  0.575630  0.750586  0.394444  1
  O  O16  1  0.250000  0.875744  0.656525  1
  O  O17  1  0.560869  0.223499  0.896448  1
  O  O18  1  0.750000  0.644043  0.574269  1
  O  O19  1  0.750000  0.867651  0.903216  1
  O  O20  1  0.250000  0.355957  0.425731  1
  O  O21  1  0.060869  0.776501  0.103552  1
  O  O22  1  0.250000  0.037913  0.434414  1
  O  O23  1  0.750000  0.962087  0.565586  1
  O  O24  1  0.069611  0.646728  0.764252  1
  O  O25  1  0.250000  0.132349  0.096784  1
  O  O26  1  0.569611  0.353272  0.235748  1
  O  O27  1  0.750000  0.482630  0.013276  1
  O  O28  1  0.750000  0.124256  0.343475  1
  O  O29  1  0.439131  0.776501  0.103552  1
  O  O30  1  0.924370  0.750586  0.394444  1
  O  O31  1  0.424370  0.249414  0.605556  1
  O  O32  1  0.430389  0.646728  0.764252  1
  O  O33  1  0.250000  0.578232  0.217654  1
  O  O34  1  0.750000  0.093453  0.117857  1
  O  O35  1  0.250000  0.906547  0.882143  1
  O  O36  1  0.930389  0.353272  0.235748  1
  O  O37  1  0.939131  0.223499  0.896448  1
  O  O38  1  0.075630  0.249414  0.605556  1
  O  O39  1  0.250000  0.517370  -0.013276  1
