# generated using pymatgen
data_Mg(SnO2)2
_symmetry_space_group_name_H-M   'P 1'
_cell_length_a   6.52663936
_cell_length_b   6.63499849
_cell_length_c   6.63499838
_cell_angle_alpha   59.99999011
_cell_angle_beta   59.44925759
_cell_angle_gamma   59.44925292
_symmetry_Int_Tables_number   1
_chemical_formula_structural   Mg(SnO2)2
_chemical_formula_sum   'Mg2 Sn4 O8'
_cell_volume   201.46069997
_cell_formula_units_Z   2
loop_
 _symmetry_equiv_pos_site_id
 _symmetry_equiv_pos_as_xyz
  1  'x, y, z'
loop_
 _atom_site_type_symbol
 _atom_site_label
 _atom_site_symmetry_multiplicity
 _atom_site_fract_x
 _atom_site_fract_y
 _atom_site_fract_z
 _atom_site_occupancy
  Mg  Mg0  1  0.989343  0.003553  0.003553  1
  Mg  Mg1  1  0.126139  0.624620  0.624620  1
  Sn  Sn2  1  0.263552  0.245483  0.245483  1
  Sn  Sn3  1  0.624415  0.122057  0.626764  1
  Sn  Sn4  1  0.624415  0.626764  0.122057  1
  Sn  Sn5  1  0.624415  0.626764  0.626764  1
  O  O6  1  0.395892  0.395225  0.395225  1
  O  O7  1  0.395892  0.395225  0.813657  1
  O  O8  1  0.395892  0.813657  0.395225  1
  O  O9  1  0.821606  0.392798  0.392798  1
  O  O10  1  0.388110  0.870630  0.870630  1
  O  O11  1  0.866777  0.401194  0.866015  1
  O  O12  1  0.866777  0.866015  0.401194  1
  O  O13  1  0.866777  0.866015  0.866015  1
