# generated using pymatgen
data_Y2Fe3(SiO4)3
_symmetry_space_group_name_H-M   'P 1'
_cell_length_a   10.69249652
_cell_length_b   10.69249603
_cell_length_c   10.69249617
_cell_angle_alpha   109.47122089
_cell_angle_beta   109.47121997
_cell_angle_gamma   109.47122223
_symmetry_Int_Tables_number   1
_chemical_formula_structural   Y2Fe3(SiO4)3
_chemical_formula_sum   'Y8 Fe12 Si12 O48'
_cell_volume   941.05589984
_cell_formula_units_Z   4
loop_
 _symmetry_equiv_pos_site_id
 _symmetry_equiv_pos_as_xyz
  1  'x, y, z'
loop_
 _atom_site_type_symbol
 _atom_site_label
 _atom_site_symmetry_multiplicity
 _atom_site_fract_x
 _atom_site_fract_y
 _atom_site_fract_z
 _atom_site_occupancy
  Y  Y0  1  0.500000  0.000000  0.000000  1
  Y  Y1  1  0.000000  0.000000  0.000000  1
  Y  Y2  1  0.000000  0.500000  0.000000  1
  Y  Y3  1  0.000000  0.000000  0.500000  1
  Y  Y4  1  0.000000  0.500000  0.500001  1
  Y  Y5  1  0.500000  0.000000  0.500001  1
  Y  Y6  1  0.500000  0.500000  0.000000  1
  Y  Y7  1  0.500000  0.500000  0.500000  1
  Fe  Fe8  1  0.250000  0.875001  0.625000  1
  Fe  Fe9  1  0.875000  0.625000  0.250000  1
  Fe  Fe10  1  0.625001  0.875001  0.750001  1
  Fe  Fe11  1  0.875001  0.750001  0.625001  1
  Fe  Fe12  1  0.625000  0.250000  0.875000  1
  Fe  Fe13  1  0.750000  0.625000  0.875000  1
  Fe  Fe14  1  0.750000  0.125000  0.375000  1
  Fe  Fe15  1  0.125000  0.375000  0.750000  1
  Fe  Fe16  1  0.375000  0.125000  0.250000  1
  Fe  Fe17  1  0.125000  0.250000  0.375000  1
  Fe  Fe18  1  0.375000  0.750001  0.125000  1
  Fe  Fe19  1  0.250000  0.375000  0.125000  1
  Si  Si20  1  0.250000  0.125000  0.875000  1
  Si  Si21  1  0.875000  0.250000  0.125000  1
  Si  Si22  1  0.625000  0.750001  0.375000  1
  Si  Si23  1  0.250000  0.625000  0.375001  1
  Si  Si24  1  0.375000  0.625000  0.750000  1
  Si  Si25  1  0.750000  0.375000  0.625000  1
  Si  Si26  1  0.875000  0.125000  0.750000  1
  Si  Si27  1  0.125000  0.750001  0.875000  1
  Si  Si28  1  0.125000  0.875001  0.250000  1
  Si  Si29  1  0.625000  0.375000  0.250000  1
  Si  Si30  1  0.375000  0.250000  0.625000  1
  Si  Si31  1  0.750000  0.875001  0.125000  1
  O  O32  1  0.274165  0.478920  0.371839  1
  O  O33  1  0.021080  0.295244  0.892919  1
  O  O34  1  0.128161  0.607081  0.902325  1
  O  O35  1  0.225834  0.597675  0.204756  1
  O  O36  1  0.225834  0.128160  0.021079  1
  O  O37  1  0.597674  0.204755  0.225834  1
  O  O38  1  0.607080  0.204755  0.478920  1
  O  O39  1  0.204756  0.225834  0.597676  1
  O  O40  1  0.892920  0.371839  0.597675  1
  O  O41  1  0.295245  0.902325  0.274166  1
  O  O42  1  0.902325  0.274166  0.295245  1
  O  O43  1  0.021080  0.225834  0.128160  1
  O  O44  1  0.204756  0.478920  0.607081  1
  O  O45  1  0.597675  0.892920  0.371840  1
  O  O46  1  0.128160  0.021079  0.225834  1
  O  O47  1  0.478920  0.607081  0.204755  1
  O  O48  1  0.371839  0.597675  0.892919  1
  O  O49  1  0.892919  0.021079  0.295244  1
  O  O50  1  0.607080  0.902325  0.128161  1
  O  O51  1  0.107080  0.628160  0.402325  1
  O  O52  1  0.478920  0.371839  0.274165  1
  O  O53  1  0.371839  0.274166  0.478920  1
  O  O54  1  0.295245  0.892920  0.021080  1
  O  O55  1  0.274165  0.295244  0.902324  1
  O  O56  1  0.725834  0.521079  0.628161  1
  O  O57  1  0.978920  0.704755  0.107080  1
  O  O58  1  0.871840  0.392920  0.097675  1
  O  O59  1  0.774166  0.402325  0.795245  1
  O  O60  1  0.774165  0.871840  0.978921  1
  O  O61  1  0.402325  0.795244  0.774165  1
  O  O62  1  0.392920  0.795244  0.521079  1
  O  O63  1  0.795245  0.774166  0.402325  1
  O  O64  1  0.725834  0.704755  0.097675  1
  O  O65  1  0.704756  0.107081  0.978920  1
  O  O66  1  0.628160  0.725835  0.521080  1
  O  O67  1  0.521080  0.628160  0.725834  1
  O  O68  1  0.097675  0.871840  0.392919  1
  O  O69  1  0.392919  0.097674  0.871839  1
  O  O70  1  0.107081  0.978920  0.704755  1
  O  O71  1  0.628161  0.402325  0.107080  1
  O  O72  1  0.521080  0.392920  0.795245  1
  O  O73  1  0.871840  0.978920  0.774166  1
  O  O74  1  0.402326  0.107081  0.628161  1
  O  O75  1  0.795244  0.521079  0.392920  1
  O  O76  1  0.978920  0.774166  0.871840  1
  O  O77  1  0.097676  0.725835  0.704756  1
  O  O78  1  0.704755  0.097674  0.725834  1
  O  O79  1  0.902325  0.128160  0.607080  1
