# generated using pymatgen
data_CaCu(Si2O5)2
_symmetry_space_group_name_H-M   'P 1'
_cell_length_a   7.37720515
_cell_length_b   7.37720515
_cell_length_c   15.39215061
_cell_angle_alpha   90.00000000
_cell_angle_beta   90.00000000
_cell_angle_gamma   90.00000000
_symmetry_Int_Tables_number   1
_chemical_formula_structural   CaCu(Si2O5)2
_chemical_formula_sum   'Ca4 Cu4 Si16 O40'
_cell_volume   837.68941113
_cell_formula_units_Z   4
loop_
 _symmetry_equiv_pos_site_id
 _symmetry_equiv_pos_as_xyz
  1  'x, y, z'
loop_
 _atom_site_type_symbol
 _atom_site_label
 _atom_site_symmetry_multiplicity
 _atom_site_fract_x
 _atom_site_fract_y
 _atom_site_fract_z
 _atom_site_occupancy
  Ca  Ca0  1  0.500000  0.500000  0.500000  1
  Ca  Ca1  1  0.500000  0.500000  0.000000  1
  Ca  Ca2  1  0.000000  0.000000  0.500000  1
  Ca  Ca3  1  0.000000  0.000000  0.000000  1
  Cu  Cu4  1  0.000000  0.500000  0.582784  1
  Cu  Cu5  1  0.000000  0.500000  0.082784  1
  Cu  Cu6  1  0.500000  0.000000  0.417216  1
  Cu  Cu7  1  0.500000  0.000000  0.917216  1
  Si  Si8  1  0.677088  0.752189  0.647628  1
  Si  Si9  1  0.677088  0.247811  0.147628  1
  Si  Si10  1  0.822912  0.747811  0.352372  1
  Si  Si11  1  0.177088  0.747811  0.852372  1
  Si  Si12  1  0.322912  0.247811  0.647628  1
  Si  Si13  1  0.322912  0.752189  0.147628  1
  Si  Si14  1  0.177088  0.252189  0.352372  1
  Si  Si15  1  0.822912  0.252189  0.852372  1
  Si  Si16  1  0.752189  0.322912  0.352372  1
  Si  Si17  1  0.247811  0.322912  0.852372  1
  Si  Si18  1  0.252189  0.822912  0.647628  1
  Si  Si19  1  0.747811  0.822912  0.147628  1
  Si  Si20  1  0.247811  0.677088  0.352372  1
  Si  Si21  1  0.752189  0.677088  0.852372  1
  Si  Si22  1  0.747811  0.177088  0.647628  1
  Si  Si23  1  0.252189  0.177088  0.147628  1
  O  O24  1  0.710738  0.710738  0.750000  1
  O  O25  1  0.710738  0.289262  0.250000  1
  O  O26  1  0.789262  0.789262  0.250000  1
  O  O27  1  0.210738  0.789262  0.750000  1
  O  O28  1  0.289262  0.289262  0.750000  1
  O  O29  1  0.289262  0.710738  0.250000  1
  O  O30  1  0.210738  0.210738  0.250000  1
  O  O31  1  0.789262  0.210738  0.750000  1
  O  O32  1  0.753619  0.957143  0.627197  1
  O  O33  1  0.753619  0.042857  0.127197  1
  O  O34  1  0.746381  0.542857  0.372803  1
  O  O35  1  0.253619  0.542857  0.872803  1
  O  O36  1  0.246381  0.042857  0.627197  1
  O  O37  1  0.246381  0.957143  0.127197  1
  O  O38  1  0.253619  0.457143  0.372803  1
  O  O39  1  0.746381  0.457143  0.872803  1
  O  O40  1  0.957143  0.246381  0.372803  1
  O  O41  1  0.042857  0.246381  0.872803  1
  O  O42  1  0.457143  0.746381  0.627197  1
  O  O43  1  0.542857  0.746381  0.127197  1
  O  O44  1  0.042857  0.753619  0.372803  1
  O  O45  1  0.957143  0.753619  0.872803  1
  O  O46  1  0.542857  0.253619  0.627197  1
  O  O47  1  0.457143  0.253619  0.127197  1
  O  O48  1  0.756730  0.602733  0.581798  1
  O  O49  1  0.756730  0.397267  0.081798  1
  O  O50  1  0.743270  0.897267  0.418202  1
  O  O51  1  0.256730  0.897267  0.918202  1
  O  O52  1  0.243270  0.397267  0.581798  1
  O  O53  1  0.243270  0.602733  0.081798  1
  O  O54  1  0.256730  0.102733  0.418202  1
  O  O55  1  0.743270  0.102733  0.918202  1
  O  O56  1  0.602733  0.243270  0.418202  1
  O  O57  1  0.397267  0.243270  0.918202  1
  O  O58  1  0.102733  0.743270  0.581798  1
  O  O59  1  0.897267  0.743270  0.081798  1
  O  O60  1  0.397267  0.756730  0.418202  1
  O  O61  1  0.602733  0.756730  0.918202  1
  O  O62  1  0.897267  0.256730  0.581798  1
  O  O63  1  0.102733  0.256730  0.081798  1
