# generated using pymatgen
data_Mn2ZnO4
_symmetry_space_group_name_H-M   'P 1'
_cell_length_a   5.17624978
_cell_length_b   6.08793737
_cell_length_c   10.30830266
_cell_angle_alpha   89.65537059
_cell_angle_beta   89.98054956
_cell_angle_gamma   90.01905585
_symmetry_Int_Tables_number   1
_chemical_formula_structural   Mn2ZnO4
_chemical_formula_sum   'Mn8 Zn4 O16'
_cell_volume   324.83637650
_cell_formula_units_Z   4
loop_
 _symmetry_equiv_pos_site_id
 _symmetry_equiv_pos_as_xyz
  1  'x, y, z'
loop_
 _atom_site_type_symbol
 _atom_site_label
 _atom_site_symmetry_multiplicity
 _atom_site_fract_x
 _atom_site_fract_y
 _atom_site_fract_z
 _atom_site_occupancy
  Mn  Mn0  1  0.513072  0.749911  0.485891  1
  Mn  Mn1  1  0.512936  0.750123  0.014036  1
  Mn  Mn2  1  0.487114  0.250083  0.514095  1
  Mn  Mn3  1  0.486912  0.249873  0.985942  1
  Mn  Mn4  1  0.000293  0.500225  0.499954  1
  Mn  Mn5  1  0.999677  0.000202  0.000051  1
  Mn  Mn6  1  0.000377  -0.000220  0.499948  1
  Mn  Mn7  1  0.999648  0.499853  -0.000050  1
  Zn  Zn8  1  0.835742  0.249989  0.750061  1
  Zn  Zn9  1  0.164281  0.749994  0.250000  1
  Zn  Zn10  1  0.505775  0.249934  0.250074  1
  Zn  Zn11  1  0.494189  0.750058  0.749923  1
  O  O12  1  0.857637  0.751207  0.401865  1
  O  O13  1  0.857248  0.748710  0.098180  1
  O  O14  1  0.142634  0.248793  0.598159  1
  O  O15  1  0.142497  0.251269  0.901859  1
  O  O16  1  0.235169  0.749378  0.602269  1
  O  O17  1  0.235220  0.750709  0.897648  1
  O  O18  1  0.764987  0.250607  0.397736  1
  O  O19  1  0.764580  0.249310  0.102352  1
  O  O20  1  0.688050  0.498519  0.612867  1
  O  O21  1  0.688095  0.001134  0.887192  1
  O  O22  1  0.313032  0.995734  0.386405  1
  O  O23  1  0.312762  0.504709  0.113531  1
  O  O24  1  0.312075  0.501427  0.387105  1
  O  O25  1  0.311695  0.998810  0.112858  1
  O  O26  1  0.687167  0.004328  0.613624  1
  O  O27  1  0.687138  0.495331  0.886426  1
