# generated using pymatgen
data_Y2Mn3O9
_symmetry_space_group_name_H-M   'P 1'
_cell_length_a   8.97243196
_cell_length_b   3.98765374
_cell_length_c   12.47741668
_cell_angle_alpha   90.00000000
_cell_angle_beta   90.00000000
_cell_angle_gamma   131.80910862
_symmetry_Int_Tables_number   1
_chemical_formula_structural   Y2Mn3O9
_chemical_formula_sum   'Y4 Mn6 O18'
_cell_volume   332.75471492
_cell_formula_units_Z   2
loop_
 _symmetry_equiv_pos_site_id
 _symmetry_equiv_pos_as_xyz
  1  'x, y, z'
loop_
 _atom_site_type_symbol
 _atom_site_label
 _atom_site_symmetry_multiplicity
 _atom_site_fract_x
 _atom_site_fract_y
 _atom_site_fract_z
 _atom_site_occupancy
  Y  Y0  1  0.054165  0.081247  0.482302  1
  Y  Y1  1  0.599141  0.898711  0.519823  1
  Y  Y2  1  0.945835  0.918753  0.982302  1
  Y  Y3  1  0.400859  0.101289  0.019823  1
  Mn  Mn4  1  0.279433  0.419149  0.761805  1
  Mn  Mn5  1  0.607370  0.411055  0.751934  1
  Mn  Mn6  1  0.938345  0.407518  0.733812  1
  Mn  Mn7  1  0.061654  0.592482  0.233812  1
  Mn  Mn8  1  0.392630  0.588945  0.251934  1
  Mn  Mn9  1  0.720567  0.580851  0.261805  1
  O  O10  1  0.058230  0.587347  0.384063  1
  O  O11  1  0.354493  0.531740  0.400445  1
  O  O12  1  0.732811  0.599218  0.413382  1
  O  O13  1  0.267189  0.400782  0.913382  1
  O  O14  1  0.645507  0.468260  0.900445  1
  O  O15  1  0.941769  0.412653  0.884063  1
  O  O16  1  0.301245  0.451866  0.611291  1
  O  O17  1  0.594526  0.391789  0.605602  1
  O  O18  1  0.934003  0.401004  0.583171  1
  O  O19  1  0.065996  0.598996  0.083170  1
  O  O20  1  0.405474  0.608211  0.105601  1
  O  O21  1  0.698755  0.548134  0.111290  1
  O  O22  1  0.046522  0.069783  0.242344  1
  O  O23  1  0.384790  0.077186  0.243645  1
  O  O24  1  0.693761  0.040641  0.266383  1
  O  O25  1  0.953478  0.930217  0.742344  1
  O  O26  1  0.306239  0.959359  0.766383  1
  O  O27  1  0.615210  0.922814  0.743645  1
