# generated using pymatgen
data_Ca2Nb2NiO8
_symmetry_space_group_name_H-M   'P 1'
_cell_length_a   5.48497161
_cell_length_b   6.30311434
_cell_length_c   9.95792025
_cell_angle_alpha   108.48982793
_cell_angle_beta   91.16997937
_cell_angle_gamma   90.01338709
_symmetry_Int_Tables_number   1
_chemical_formula_structural   Ca2Nb2NiO8
_chemical_formula_sum   'Ca4 Nb4 Ni2 O16'
_cell_volume   326.42180668
_cell_formula_units_Z   2
loop_
 _symmetry_equiv_pos_site_id
 _symmetry_equiv_pos_as_xyz
  1  'x, y, z'
loop_
 _atom_site_type_symbol
 _atom_site_label
 _atom_site_symmetry_multiplicity
 _atom_site_fract_x
 _atom_site_fract_y
 _atom_site_fract_z
 _atom_site_occupancy
  Ca  Ca0  1  0.759256  0.477719  0.586532  1
  Ca  Ca1  1  0.744957  0.891773  0.413603  1
  Ca  Ca2  1  0.244832  0.521800  0.414477  1
  Ca  Ca3  1  0.259373  0.107782  0.587355  1
  Nb  Nb4  1  0.756626  0.265231  0.219767  1
  Nb  Nb5  1  0.747370  0.045091  0.780902  1
  Nb  Nb6  1  0.247267  0.734358  0.781228  1
  Nb  Nb7  1  0.256593  0.954454  0.220175  1
  Ni  Ni8  1  0.751711  0.641311  0.000534  1
  Ni  Ni9  1  0.251818  0.358066  0.000534  1
  O  O10  1  0.095634  0.198186  0.137675  1
  O  O11  1  0.408205  0.060658  0.863278  1
  O  O12  1  0.908172  0.801272  0.863278  1
  O  O13  1  0.595640  0.938970  0.137679  1
  O  O14  1  0.582497  0.414221  0.112162  1
  O  O15  1  0.921129  0.301940  0.888998  1
  O  O16  1  0.421021  0.585317  0.888962  1
  O  O17  1  0.082244  0.697882  0.112302  1
  O  O18  1  0.508527  0.240179  0.362997  1
  O  O19  1  0.995744  0.876893  0.637953  1
  O  O20  1  0.345042  0.833256  0.369299  1
  O  O21  1  0.158863  0.464042  0.631893  1
  O  O22  1  0.659250  0.166240  0.631712  1
  O  O23  1  0.845191  0.535504  0.369112  1
  O  O24  1  0.008553  0.122870  0.363184  1
  O  O25  1  0.495614  0.759359  0.638072  1
