# generated using pymatgen
data_LaVFeO6
_symmetry_space_group_name_H-M   'P 1'
_cell_length_a   5.60505843
_cell_length_b   5.40698092
_cell_length_c   7.66308630
_cell_angle_alpha   90.05493366
_cell_angle_beta   90.00000000
_cell_angle_gamma   90.00000000
_symmetry_Int_Tables_number   1
_chemical_formula_structural   LaVFeO6
_chemical_formula_sum   'La2 V2 Fe2 O12'
_cell_volume   232.24078910
_cell_formula_units_Z   2
loop_
 _symmetry_equiv_pos_site_id
 _symmetry_equiv_pos_as_xyz
  1  'x, y, z'
loop_
 _atom_site_type_symbol
 _atom_site_label
 _atom_site_symmetry_multiplicity
 _atom_site_fract_x
 _atom_site_fract_y
 _atom_site_fract_z
 _atom_site_occupancy
  La  La0  1  0.051715  0.994557  0.249117  1
  La  La1  1  0.448285  0.494557  0.749117  1
  V  V2  1  0.531216  0.000864  0.497134  1
  V  V3  1  0.968784  0.500864  0.997134  1
  Fe  Fe4  1  0.507334  0.995819  0.999208  1
  Fe  Fe5  1  0.992666  0.495818  0.499208  1
  O  O6  1  0.012380  0.529328  0.758064  1
  O  O7  1  0.237688  0.243084  0.989026  1
  O  O8  1  0.236953  0.227891  0.515166  1
  O  O9  1  0.263047  0.727891  0.015166  1
  O  O10  1  0.262312  0.743084  0.489026  1
  O  O11  1  0.487620  0.029328  0.258064  1
  O  O12  1  0.497722  0.951758  0.742251  1
  O  O13  1  0.713550  0.269158  0.525854  1
  O  O14  1  0.737436  0.277146  0.974368  1
  O  O15  1  0.762564  0.777146  0.474368  1
  O  O16  1  0.786450  0.769158  0.025854  1
  O  O17  1  0.002278  0.451758  0.242251  1
