# generated using pymatgen
data_TaZn2NiO6
_symmetry_space_group_name_H-M   'P 1'
_cell_length_a   5.19889817
_cell_length_b   5.38299268
_cell_length_c   7.57602428
_cell_angle_alpha   90.00000000
_cell_angle_beta   90.00000000
_cell_angle_gamma   86.26413019
_symmetry_Int_Tables_number   1
_chemical_formula_structural   TaZn2NiO6
_chemical_formula_sum   'Ta2 Zn4 Ni2 O12'
_cell_volume   211.56928099
_cell_formula_units_Z   2
loop_
 _symmetry_equiv_pos_site_id
 _symmetry_equiv_pos_as_xyz
  1  'x, y, z'
loop_
 _atom_site_type_symbol
 _atom_site_label
 _atom_site_symmetry_multiplicity
 _atom_site_fract_x
 _atom_site_fract_y
 _atom_site_fract_z
 _atom_site_occupancy
  Ta  Ta0  1  0.000000  0.500000  0.000000  1
  Ta  Ta1  1  0.000000  0.500000  0.500000  1
  Zn  Zn2  1  0.011705  0.969035  0.250000  1
  Zn  Zn3  1  0.494693  0.447039  0.250000  1
  Zn  Zn4  1  0.505307  0.552961  0.750000  1
  Zn  Zn5  1  0.988295  0.030965  0.750000  1
  Ni  Ni6  1  0.500000  0.000000  0.000000  1
  Ni  Ni7  1  0.500000  0.000000  0.500000  1
  O  O8  1  0.820266  0.823403  0.562783  1
  O  O9  1  0.308254  0.676008  0.431145  1
  O  O10  1  0.179734  0.176597  0.437217  1
  O  O11  1  0.691746  0.323992  0.931145  1
  O  O12  1  0.129438  0.451128  0.750000  1
  O  O13  1  0.691746  0.323992  0.568855  1
  O  O14  1  0.308254  0.676008  0.068855  1
  O  O15  1  0.820266  0.823403  0.937217  1
  O  O16  1  0.626508  0.074389  0.250000  1
  O  O17  1  0.179734  0.176597  0.062783  1
  O  O18  1  0.373492  0.925611  0.750000  1
  O  O19  1  0.870562  0.548872  0.250000  1
