# generated using pymatgen
data_AlTe(WO4)2
_symmetry_space_group_name_H-M   'P 1'
_cell_length_a   4.87511006
_cell_length_b   8.95527212
_cell_length_c   9.37571898
_cell_angle_alpha   141.33630552
_cell_angle_beta   111.88891956
_cell_angle_gamma   90.15763005
_symmetry_Int_Tables_number   1
_chemical_formula_structural   AlTe(WO4)2
_chemical_formula_sum   'Al1 Te1 W2 O8'
_cell_volume   204.54547429
_cell_formula_units_Z   1
loop_
 _symmetry_equiv_pos_site_id
 _symmetry_equiv_pos_as_xyz
  1  'x, y, z'
loop_
 _atom_site_type_symbol
 _atom_site_label
 _atom_site_symmetry_multiplicity
 _atom_site_fract_x
 _atom_site_fract_y
 _atom_site_fract_z
 _atom_site_occupancy
  Al  Al0  1  0.624672  0.723200  0.099646  1
  Te  Te1  1  0.124659  0.223308  0.099746  1
  W  W2  1  0.870839  0.345814  0.596960  1
  W  W3  1  0.378471  0.100587  0.602394  1
  O  O4  1  0.261595  0.664667  0.861155  1
  O  O5  1  0.576607  0.324013  0.388575  1
  O  O6  1  0.278029  0.380377  0.859868  1
  O  O7  1  0.546392  0.979989  0.383566  1
  O  O8  1  0.672720  0.122427  0.810775  1
  O  O9  1  0.987673  0.781638  0.338119  1
  O  O10  1  0.971374  0.066029  0.339495  1
  O  O11  1  0.702970  0.466448  0.815796  1
