# generated using pymatgen
data_Ca(SnO2)2
_symmetry_space_group_name_H-M   'P 1'
_cell_length_a   3.32143847
_cell_length_b   5.71107552
_cell_length_c   11.07396806
_cell_angle_alpha   90.00000000
_cell_angle_beta   90.00000000
_cell_angle_gamma   106.90521173
_symmetry_Int_Tables_number   1
_chemical_formula_structural   Ca(SnO2)2
_chemical_formula_sum   'Ca2 Sn4 O8'
_cell_volume   200.98456652
_cell_formula_units_Z   2
loop_
 _symmetry_equiv_pos_site_id
 _symmetry_equiv_pos_as_xyz
  1  'x, y, z'
loop_
 _atom_site_type_symbol
 _atom_site_label
 _atom_site_symmetry_multiplicity
 _atom_site_fract_x
 _atom_site_fract_y
 _atom_site_fract_z
 _atom_site_occupancy
  Ca  Ca0  1  0.390170  0.780340  0.750000  1
  Ca  Ca1  1  0.609830  0.219660  0.250000  1
  Sn  Sn2  1  0.868536  0.737072  0.073001  1
  Sn  Sn3  1  0.131464  0.262928  0.926999  1
  Sn  Sn4  1  0.868536  0.737072  0.426999  1
  Sn  Sn5  1  0.131464  0.262928  0.573001  1
  O  O6  1  0.226678  0.453357  0.388812  1
  O  O7  1  0.773322  0.546643  0.611188  1
  O  O8  1  0.773322  0.546643  0.888812  1
  O  O9  1  0.226678  0.453357  0.111188  1
  O  O10  1  0.956056  0.912111  0.250000  1
  O  O11  1  0.043944  0.087889  0.750000  1
  O  O12  1  0.500000  -0.000000  -0.000000  1
  O  O13  1  0.500000  -0.000000  0.500000  1
