# generated using pymatgen
data_LaMgFeCuO6
_symmetry_space_group_name_H-M   'P 1'
_cell_length_a   5.43057268
_cell_length_b   5.26333702
_cell_length_c   7.81168032
_cell_angle_alpha   91.81105900
_cell_angle_beta   90.00000000
_cell_angle_gamma   90.00000000
_symmetry_Int_Tables_number   1
_chemical_formula_structural   LaMgFeCuO6
_chemical_formula_sum   'La2 Mg2 Fe2 Cu2 O12'
_cell_volume   223.16921147
_cell_formula_units_Z   2
loop_
 _symmetry_equiv_pos_site_id
 _symmetry_equiv_pos_as_xyz
  1  'x, y, z'
loop_
 _atom_site_type_symbol
 _atom_site_label
 _atom_site_symmetry_multiplicity
 _atom_site_fract_x
 _atom_site_fract_y
 _atom_site_fract_z
 _atom_site_occupancy
  La  La0  1  0.037179  0.989915  0.252916  1
  La  La1  1  0.462821  0.489915  0.752916  1
  Mg  Mg2  1  0.557205  0.530863  0.248465  1
  Mg  Mg3  1  0.942795  0.030863  0.748465  1
  Fe  Fe4  1  0.502251  0.004632  0.004734  1
  Fe  Fe5  1  0.997749  0.504632  0.504734  1
  Cu  Cu6  1  0.499588  0.994868  0.500972  1
  Cu  Cu7  1  0.000412  0.494868  0.000972  1
  O  O8  1  0.021225  0.638057  0.739332  1
  O  O9  1  0.197622  0.195962  0.936631  1
  O  O10  1  0.203791  0.185263  0.556615  1
  O  O11  1  0.296209  0.685263  0.056615  1
  O  O12  1  0.302378  0.695962  0.436631  1
  O  O13  1  0.478775  0.138057  0.239331  1
  O  O14  1  0.551343  0.928372  0.760891  1
  O  O15  1  0.735553  0.259230  0.559982  1
  O  O16  1  0.742855  0.272837  0.939462  1
  O  O17  1  0.757145  0.772837  0.439462  1
  O  O18  1  0.764447  0.759230  0.059982  1
  O  O19  1  0.948657  0.428372  0.260891  1
