# generated using pymatgen
data_ZnFe(GeO3)2
_symmetry_space_group_name_H-M   'P 1'
_cell_length_a   5.39633554
_cell_length_b   6.88794251
_cell_length_c   6.88794203
_cell_angle_alpha   85.99789874
_cell_angle_beta   78.22678563
_cell_angle_gamma   78.22678720
_symmetry_Int_Tables_number   1
_chemical_formula_structural   ZnFe(GeO3)2
_chemical_formula_sum   'Zn2 Fe2 Ge4 O12'
_cell_volume   245.25779426
_cell_formula_units_Z   2
loop_
 _symmetry_equiv_pos_site_id
 _symmetry_equiv_pos_as_xyz
  1  'x, y, z'
loop_
 _atom_site_type_symbol
 _atom_site_label
 _atom_site_symmetry_multiplicity
 _atom_site_fract_x
 _atom_site_fract_y
 _atom_site_fract_z
 _atom_site_occupancy
  Zn  Zn0  1  0.750000  0.249555  0.750445  1
  Zn  Zn1  1  0.250000  0.750445  0.249555  1
  Fe  Fe2  1  0.750000  0.903668  0.096332  1
  Fe  Fe3  1  0.250000  0.096332  0.903668  1
  Ge  Ge4  1  0.757251  0.389849  0.211247  1
  Ge  Ge5  1  0.742749  0.788753  0.610151  1
  Ge  Ge6  1  0.242749  0.610151  0.788753  1
  Ge  Ge7  1  0.257251  0.211247  0.389849  1
  O  O8  1  0.539800  0.299492  0.415220  1
  O  O9  1  0.960200  0.584780  0.700508  1
  O  O10  1  0.460200  0.700508  0.584780  1
  O  O11  1  0.039800  0.415220  0.299492  1
  O  O12  1  0.110437  0.139994  0.627739  1
  O  O13  1  0.389563  0.372261  0.860006  1
  O  O14  1  0.889563  0.860006  0.372261  1
  O  O15  1  0.610437  0.627739  0.139994  1
  O  O16  1  0.854919  0.204232  0.030183  1
  O  O17  1  0.645081  0.969817  0.795768  1
  O  O18  1  0.145081  0.795768  0.969817  1
  O  O19  1  0.354919  0.030183  0.204232  1
