# generated using pymatgen
data_Ca2BiSbO6
_symmetry_space_group_name_H-M   'P 1'
_cell_length_a   5.76887037
_cell_length_b   5.97263314
_cell_length_c   8.23963989
_cell_angle_alpha   90.00000000
_cell_angle_beta   90.00000000
_cell_angle_gamma   89.57276361
_symmetry_Int_Tables_number   1
_chemical_formula_structural   Ca2BiSbO6
_chemical_formula_sum   'Ca4 Bi2 Sb2 O12'
_cell_volume   283.89175388
_cell_formula_units_Z   2
loop_
 _symmetry_equiv_pos_site_id
 _symmetry_equiv_pos_as_xyz
  1  'x, y, z'
loop_
 _atom_site_type_symbol
 _atom_site_label
 _atom_site_symmetry_multiplicity
 _atom_site_fract_x
 _atom_site_fract_y
 _atom_site_fract_z
 _atom_site_occupancy
  Ca  Ca0  1  0.511754  0.556616  0.750000  1
  Ca  Ca1  1  0.488246  0.443384  0.250000  1
  Ca  Ca2  1  0.996244  0.051348  0.750000  1
  Ca  Ca3  1  0.003756  0.948652  0.250000  1
  Bi  Bi4  1  0.500000  0.000000  0.500000  1
  Bi  Bi5  1  0.500000  0.000000  0.000000  1
  Sb  Sb6  1  0.000000  0.500000  0.500000  1
  Sb  Sb7  1  0.000000  0.500000  0.000000  1
  O  O8  1  0.287503  0.667181  0.438577  1
  O  O9  1  0.160521  0.213086  0.058767  1
  O  O10  1  0.712497  0.332819  0.938577  1
  O  O11  1  0.839479  0.786914  0.558767  1
  O  O12  1  0.160521  0.213086  0.441233  1
  O  O13  1  0.839479  0.786914  0.941233  1
  O  O14  1  0.881930  0.555224  0.250000  1
  O  O15  1  0.287503  0.667181  0.061423  1
  O  O16  1  0.364740  0.925601  0.750000  1
  O  O17  1  0.712497  0.332819  0.561423  1
  O  O18  1  0.118070  0.444776  0.750000  1
  O  O19  1  0.635260  0.074399  0.250000  1
