# generated using pymatgen
data_YV4(CuO4)3
_symmetry_space_group_name_H-M   'P 1'
_cell_length_a   6.41755029
_cell_length_b   6.41438468
_cell_length_c   6.43057459
_cell_angle_alpha   109.53117347
_cell_angle_beta   109.48130100
_cell_angle_gamma   109.44908264
_symmetry_Int_Tables_number   1
_chemical_formula_structural   YV4(CuO4)3
_chemical_formula_sum   'Y1 V4 Cu3 O12'
_cell_volume   203.65497733
_cell_formula_units_Z   1
loop_
 _symmetry_equiv_pos_site_id
 _symmetry_equiv_pos_as_xyz
  1  'x, y, z'
loop_
 _atom_site_type_symbol
 _atom_site_label
 _atom_site_symmetry_multiplicity
 _atom_site_fract_x
 _atom_site_fract_y
 _atom_site_fract_z
 _atom_site_occupancy
  Y  Y0  1  0.999999  -0.000001  0.999995  1
  V  V1  1  0.499997  -0.000001  0.000000  1
  V  V2  1  -0.000007  0.000002  0.500003  1
  V  V3  1  -0.000001  0.499999  0.999997  1
  V  V4  1  0.500004  0.500002  0.500003  1
  Cu  Cu5  1  0.499998  0.999999  0.500001  1
  Cu  Cu6  1  0.500002  0.500000  0.999999  1
  Cu  Cu7  1  0.000001  0.500001  0.500000  1
  O  O8  1  0.824136  0.296891  0.124247  1
  O  O9  1  0.175867  0.703113  0.875758  1
  O  O10  1  0.820968  0.700672  0.527789  1
  O  O11  1  0.297531  0.473221  0.174634  1
  O  O12  1  0.472925  0.177557  0.301357  1
  O  O13  1  0.120813  0.817044  0.289597  1
  O  O14  1  0.695186  0.878495  0.169255  1
  O  O15  1  0.527072  0.822439  0.698644  1
  O  O16  1  0.179034  0.299331  0.472210  1
  O  O17  1  0.702472  0.526782  0.825365  1
  O  O18  1  0.879190  0.182951  0.710401  1
  O  O19  1  0.304815  0.121505  0.830742  1
