# generated using pymatgen
data_LaMgTiFeO6
_symmetry_space_group_name_H-M   'P 1'
_cell_length_a   5.53006921
_cell_length_b   5.36596408
_cell_length_c   7.71255114
_cell_angle_alpha   90.04103417
_cell_angle_beta   90.00000000
_cell_angle_gamma   90.00000000
_symmetry_Int_Tables_number   1
_chemical_formula_structural   LaMgTiFeO6
_chemical_formula_sum   'La2 Mg2 Ti2 Fe2 O12'
_cell_volume   228.86336195
_cell_formula_units_Z   2
loop_
 _symmetry_equiv_pos_site_id
 _symmetry_equiv_pos_as_xyz
  1  'x, y, z'
loop_
 _atom_site_type_symbol
 _atom_site_label
 _atom_site_symmetry_multiplicity
 _atom_site_fract_x
 _atom_site_fract_y
 _atom_site_fract_z
 _atom_site_occupancy
  La  La0  1  0.035806  0.992612  0.250764  1
  La  La1  1  0.464194  0.492612  0.750764  1
  Mg  Mg2  1  0.550634  0.525959  0.252287  1
  Mg  Mg3  1  0.949366  0.025959  0.752287  1
  Ti  Ti4  1  0.505796  0.001440  0.498647  1
  Ti  Ti5  1  0.994204  0.501440  0.998647  1
  Fe  Fe6  1  0.497708  0.000646  0.001458  1
  Fe  Fe7  1  0.002292  0.500646  0.501458  1
  O  O8  1  0.020643  0.631671  0.754942  1
  O  O9  1  0.193622  0.196357  0.942224  1
  O  O10  1  0.201459  0.186576  0.559651  1
  O  O11  1  0.298541  0.686576  0.059651  1
  O  O12  1  0.306378  0.696357  0.442224  1
  O  O13  1  0.479357  0.131671  0.254941  1
  O  O14  1  0.542898  0.919832  0.745392  1
  O  O15  1  0.724670  0.270162  0.551883  1
  O  O16  1  0.730567  0.274744  0.942753  1
  O  O17  1  0.769433  0.774744  0.442753  1
  O  O18  1  0.775330  0.770162  0.051883  1
  O  O19  1  0.957102  0.419832  0.245392  1
