# generated using pymatgen
data_Nb2ReO8
_symmetry_space_group_name_H-M   'P 1'
_cell_length_a   5.19297845
_cell_length_b   6.16010292
_cell_length_c   10.51364070
_cell_angle_alpha   106.82219286
_cell_angle_beta   89.35713999
_cell_angle_gamma   90.07352318
_symmetry_Int_Tables_number   1
_chemical_formula_structural   Nb2ReO8
_chemical_formula_sum   'Nb4 Re2 O16'
_cell_volume   321.91072713
_cell_formula_units_Z   2
loop_
 _symmetry_equiv_pos_site_id
 _symmetry_equiv_pos_as_xyz
  1  'x, y, z'
loop_
 _atom_site_type_symbol
 _atom_site_label
 _atom_site_symmetry_multiplicity
 _atom_site_fract_x
 _atom_site_fract_y
 _atom_site_fract_z
 _atom_site_occupancy
  Nb  Nb0  1  0.757282  0.313951  0.262944  1
  Nb  Nb1  1  0.743400  0.053060  0.735567  1
  Nb  Nb2  1  0.243543  0.687084  0.735314  1
  Nb  Nb3  1  0.257277  0.948015  0.262909  1
  Re  Re4  1  0.751290  0.650622  0.999759  1
  Re  Re5  1  0.249661  0.350265  0.998630  1
  O  O6  1  0.088774  0.234639  0.116101  1
  O  O7  1  0.413835  0.117792  0.882135  1
  O  O8  1  0.912156  0.766126  0.882264  1
  O  O9  1  0.587173  0.882995  0.116298  1
  O  O10  1  0.577820  0.435977  0.099906  1
  O  O11  1  0.925812  0.335183  0.897274  1
  O  O12  1  0.423158  0.564739  0.898463  1
  O  O13  1  0.075039  0.665639  0.101122  1
  O  O14  1  0.427842  0.243863  0.320016  1
  O  O15  1  0.072674  0.925799  0.678319  1
  O  O16  1  0.359616  0.805850  0.372999  1
  O  O17  1  0.140863  0.435881  0.625329  1
  O  O18  1  0.640885  0.195573  0.625625  1
  O  O19  1  0.859494  0.565641  0.372669  1
  O  O20  1  0.928165  0.075513  0.320248  1
  O  O21  1  0.573051  0.757094  0.678240  1
