# generated using pymatgen
data_AlW3O8
_symmetry_space_group_name_H-M   'P 1'
_cell_length_a   5.24106046
_cell_length_b   5.61319780
_cell_length_c   9.32323052
_cell_angle_alpha   90.09163476
_cell_angle_beta   89.79345338
_cell_angle_gamma   89.23713190
_symmetry_Int_Tables_number   1
_chemical_formula_structural   AlW3O8
_chemical_formula_sum   'Al2 W6 O16'
_cell_volume   274.25466906
_cell_formula_units_Z   2
loop_
 _symmetry_equiv_pos_site_id
 _symmetry_equiv_pos_as_xyz
  1  'x, y, z'
loop_
 _atom_site_type_symbol
 _atom_site_label
 _atom_site_symmetry_multiplicity
 _atom_site_fract_x
 _atom_site_fract_y
 _atom_site_fract_z
 _atom_site_occupancy
  Al  Al0  1  0.251924  0.665348  0.248801  1
  Al  Al1  1  0.748075  0.334651  0.751199  1
  W  W2  1  0.759541  0.362236  0.250742  1
  W  W3  1  0.240459  0.637763  0.749258  1
  W  W4  1  0.244679  0.154759  0.498504  1
  W  W5  1  0.256729  0.162492  0.004384  1
  W  W6  1  0.755321  0.845241  0.501496  1
  W  W7  1  0.743271  0.837508  0.995616  1
  O  O8  1  0.412758  0.397427  0.141357  1
  O  O9  1  0.083702  0.402972  0.361119  1
  O  O10  1  0.587242  0.602572  0.858643  1
  O  O11  1  0.916297  0.597027  0.638881  1
  O  O12  1  0.405399  0.874510  0.615727  1
  O  O13  1  0.103511  0.870225  0.884009  1
  O  O14  1  0.594601  0.125490  0.384273  1
  O  O15  1  0.896489  0.129775  0.115991  1
  O  O16  1  0.933777  0.629236  0.142821  1
  O  O17  1  0.573234  0.620946  0.357640  1
  O  O18  1  0.066223  0.370765  0.857179  1
  O  O19  1  0.426766  0.379055  0.642360  1
  O  O20  1  0.403800  0.881013  0.118165  1
  O  O21  1  0.596200  0.118988  0.881835  1
  O  O22  1  0.097565  0.885491  0.378599  1
  O  O23  1  0.902435  0.114510  0.621402  1
