# generated using pymatgen
data_V6Zn(FeO6)4
_symmetry_space_group_name_H-M   'P 1'
_cell_length_a   6.74799700
_cell_length_b   8.32041887
_cell_length_c   10.00335075
_cell_angle_alpha   107.20344173
_cell_angle_beta   105.22841775
_cell_angle_gamma   103.66113596
_symmetry_Int_Tables_number   1
_chemical_formula_structural   V6Zn(FeO6)4
_chemical_formula_sum   'V6 Zn1 Fe4 O24'
_cell_volume   486.74373436
_cell_formula_units_Z   1
loop_
 _symmetry_equiv_pos_site_id
 _symmetry_equiv_pos_as_xyz
  1  'x, y, z'
loop_
 _atom_site_type_symbol
 _atom_site_label
 _atom_site_symmetry_multiplicity
 _atom_site_fract_x
 _atom_site_fract_y
 _atom_site_fract_z
 _atom_site_occupancy
  V  V0  1  0.887505  0.891382  0.660908  1
  V  V1  1  0.112495  0.108618  0.339092  1
  V  V2  1  0.205978  0.662147  0.266911  1
  V  V3  1  0.794022  0.337853  0.733089  1
  V  V4  1  0.609183  0.258381  0.137478  1
  V  V5  1  0.390817  0.741619  0.862522  1
  Zn  Zn6  1  0.000000  0.500000  0.500000  1
  Fe  Fe7  1  0.375140  0.960933  0.606020  1
  Fe  Fe8  1  0.624860  0.039067  0.393980  1
  Fe  Fe9  1  0.050130  0.205713  0.012031  1
  Fe  Fe10  1  0.949870  0.794287  0.987969  1
  O  O11  1  0.069253  0.057889  0.143855  1
  O  O12  1  0.930747  0.942111  0.856145  1
  O  O13  1  0.554308  0.108732  0.224460  1
  O  O14  1  0.445692  0.891268  0.775540  1
  O  O15  1  0.167923  0.441261  0.178115  1
  O  O16  1  0.832077  0.558739  0.821885  1
  O  O17  1  0.990419  0.277972  0.840860  1
  O  O18  1  0.009581  0.722028  0.159140  1
  O  O19  1  0.242329  0.803799  0.978551  1
  O  O20  1  0.757671  0.196201  0.021449  1
  O  O21  1  0.882017  0.995006  0.358071  1
  O  O22  1  0.117983  0.004994  0.641929  1
  O  O23  1  0.542760  0.218798  0.729307  1
  O  O24  1  0.457240  0.781202  0.270693  1
  O  O25  1  0.357434  0.253244  0.027196  1
  O  O26  1  0.642566  0.746756  0.972804  1
  O  O27  1  0.340471  0.048614  0.430678  1
  O  O28  1  0.659529  0.951386  0.569322  1
  O  O29  1  0.211037  0.711558  0.456906  1
  O  O30  1  0.788963  0.288442  0.543094  1
  O  O31  1  0.773320  0.456533  0.283163  1
  O  O32  1  0.226680  0.543467  0.716837  1
  O  O33  1  0.146992  0.327053  0.416834  1
  O  O34  1  0.853008  0.672947  0.583166  1
