# generated using pymatgen
data_Sr4MgCo2(SO3)2
_symmetry_space_group_name_H-M   'P 1'
_cell_length_a   3.86819020
_cell_length_b   3.89632636
_cell_length_c   16.30138447
_cell_angle_alpha   89.99999133
_cell_angle_beta   90.00004650
_cell_angle_gamma   89.18192935
_symmetry_Int_Tables_number   1
_chemical_formula_structural   Sr4MgCo2(SO3)2
_chemical_formula_sum   'Sr4 Mg1 Co2 S2 O6'
_cell_volume   245.66504625
_cell_formula_units_Z   1
loop_
 _symmetry_equiv_pos_site_id
 _symmetry_equiv_pos_as_xyz
  1  'x, y, z'
loop_
 _atom_site_type_symbol
 _atom_site_label
 _atom_site_symmetry_multiplicity
 _atom_site_fract_x
 _atom_site_fract_y
 _atom_site_fract_z
 _atom_site_occupancy
  Sr  Sr0  1  0.750003  0.749988  0.191727  1
  Sr  Sr1  1  0.249997  0.250003  0.808474  1
  Sr  Sr2  1  0.750000  0.749999  0.415117  1
  Sr  Sr3  1  0.250002  0.250006  0.584806  1
  Mg  Mg4  1  0.250007  0.749984  0.000163  1
  Co  Co5  1  0.249986  0.250010  0.313122  1
  Co  Co6  1  0.750004  0.749999  0.686873  1
  S  S7  1  0.249996  0.249999  0.095873  1
  S  S8  1  0.749998  0.750004  0.903797  1
  O  O9  1  0.750007  0.249995  0.293507  1
  O  O10  1  0.250010  0.749995  0.293108  1
  O  O11  1  0.249994  0.750011  0.707570  1
  O  O12  1  0.749989  0.250005  0.705886  1
  O  O13  1  0.250011  0.249995  0.432158  1
  O  O14  1  0.749995  0.750008  0.567817  1
