# generated using pymatgen
data_AlCu3(SnO3)4
_symmetry_space_group_name_H-M   'P 1'
_cell_length_a   6.70072448
_cell_length_b   6.70111839
_cell_length_c   6.70098582
_cell_angle_alpha   109.45622885
_cell_angle_beta   109.43933271
_cell_angle_gamma   109.52415354
_symmetry_Int_Tables_number   1
_chemical_formula_structural   AlCu3(SnO3)4
_chemical_formula_sum   'Al1 Cu3 Sn4 O12'
_cell_volume   231.60781633
_cell_formula_units_Z   1
loop_
 _symmetry_equiv_pos_site_id
 _symmetry_equiv_pos_as_xyz
  1  'x, y, z'
loop_
 _atom_site_type_symbol
 _atom_site_label
 _atom_site_symmetry_multiplicity
 _atom_site_fract_x
 _atom_site_fract_y
 _atom_site_fract_z
 _atom_site_occupancy
  Al  Al0  1  0.000025  0.999990  0.999885  1
  Cu  Cu1  1  0.499998  0.999997  0.500001  1
  Cu  Cu2  1  0.500000  0.500000  0.999998  1
  Cu  Cu3  1  -0.000001  0.500008  0.500002  1
  Sn  Sn4  1  0.500012  0.000001  0.000006  1
  Sn  Sn5  1  0.999999  1.000001  0.499984  1
  Sn  Sn6  1  0.000001  0.500004  0.000006  1
  Sn  Sn7  1  0.499994  0.499995  0.500000  1
  O  O8  1  0.833045  0.299967  0.133008  1
  O  O9  1  0.166945  0.700058  0.867010  1
  O  O10  1  0.833108  0.700152  0.533257  1
  O  O11  1  0.298243  0.464406  0.166159  1
  O  O12  1  0.466398  0.166605  0.299796  1
  O  O13  1  0.133237  0.833267  0.299973  1
  O  O14  1  0.701675  0.867881  0.166207  1
  O  O15  1  0.533597  0.833390  0.700203  1
  O  O16  1  0.166908  0.299888  0.466796  1
  O  O17  1  0.701752  0.535582  0.833837  1
  O  O18  1  0.866782  0.166716  0.700064  1
  O  O19  1  0.298284  0.132091  0.833811  1
