# generated using pymatgen
data_CaTiP3WO12
_symmetry_space_group_name_H-M   'P 1'
_cell_length_a   8.98717923
_cell_length_b   8.98718684
_cell_length_c   8.98718419
_cell_angle_alpha   58.66736168
_cell_angle_beta   58.66742006
_cell_angle_gamma   58.66736352
_symmetry_Int_Tables_number   1
_chemical_formula_structural   CaTiP3WO12
_chemical_formula_sum   'Ca2 Ti2 P6 W2 O24'
_cell_volume   497.64925037
_cell_formula_units_Z   2
loop_
 _symmetry_equiv_pos_site_id
 _symmetry_equiv_pos_as_xyz
  1  'x, y, z'
loop_
 _atom_site_type_symbol
 _atom_site_label
 _atom_site_symmetry_multiplicity
 _atom_site_fract_x
 _atom_site_fract_y
 _atom_site_fract_z
 _atom_site_occupancy
  Ca  Ca0  1  0.999281  0.999282  0.999281  1
  Ca  Ca1  1  0.499283  0.499283  0.499283  1
  Ti  Ti2  1  0.148494  0.148494  0.148494  1
  Ti  Ti3  1  0.648494  0.648495  0.648494  1
  P  P4  1  0.037928  0.453079  0.758936  1
  P  P5  1  0.453079  0.758936  0.037928  1
  P  P6  1  0.758936  0.037928  0.453080  1
  P  P7  1  0.258937  0.953080  0.537925  1
  P  P8  1  0.537925  0.258937  0.953080  1
  P  P9  1  0.953080  0.537926  0.258937  1
  W  W10  1  0.355361  0.355361  0.355361  1
  W  W11  1  0.855360  0.855360  0.855360  1
  O  O12  1  0.106039  0.510368  0.305979  1
  O  O13  1  0.305979  0.106039  0.510368  1
  O  O14  1  0.050477  0.267890  0.926940  1
  O  O15  1  0.510368  0.305979  0.106040  1
  O  O16  1  0.010368  0.606040  0.805978  1
  O  O17  1  0.224805  0.428597  0.597376  1
  O  O18  1  0.267890  0.926939  0.050477  1
  O  O19  1  0.428596  0.597377  0.224805  1
  O  O20  1  0.207244  0.999508  0.371693  1
  O  O21  1  0.597378  0.224805  0.428596  1
  O  O22  1  0.097377  0.928597  0.724805  1
  O  O23  1  0.371694  0.207244  0.999509  1
  O  O24  1  0.606038  0.805979  0.010368  1
  O  O25  1  0.926939  0.050477  0.267890  1
  O  O26  1  0.426938  0.767893  0.550477  1
  O  O27  1  0.805979  0.010368  0.606040  1
  O  O28  1  0.550477  0.426938  0.767894  1
  O  O29  1  0.724807  0.097375  0.928596  1
  O  O30  1  0.767893  0.550478  0.426938  1
  O  O31  1  0.999509  0.371693  0.207244  1
  O  O32  1  0.499509  0.707243  0.871692  1
  O  O33  1  0.928596  0.724806  0.097377  1
  O  O34  1  0.707243  0.871692  0.499509  1
  O  O35  1  0.871693  0.499509  0.707243  1
