# generated using pymatgen
data_YCr3Se2ClO8
_symmetry_space_group_name_H-M   'P 1'
_cell_length_a   6.57610742
_cell_length_b   7.18940294
_cell_length_c   9.81227707
_cell_angle_alpha   90.00000000
_cell_angle_beta   90.00000000
_cell_angle_gamma   90.00000000
_symmetry_Int_Tables_number   1
_chemical_formula_structural   YCr3Se2ClO8
_chemical_formula_sum   'Y2 Cr6 Se4 Cl2 O16'
_cell_volume   463.90764181
_cell_formula_units_Z   2
loop_
 _symmetry_equiv_pos_site_id
 _symmetry_equiv_pos_as_xyz
  1  'x, y, z'
loop_
 _atom_site_type_symbol
 _atom_site_label
 _atom_site_symmetry_multiplicity
 _atom_site_fract_x
 _atom_site_fract_y
 _atom_site_fract_z
 _atom_site_occupancy
  Y  Y0  1  0.250000  0.261441  0.250000  1
  Y  Y1  1  0.750000  0.738559  0.750000  1
  Cr  Cr2  1  0.500000  -0.000000  -0.000000  1
  Cr  Cr3  1  0.500000  -0.000000  0.500000  1
  Cr  Cr4  1  -0.000000  -0.000000  -0.000000  1
  Cr  Cr5  1  0.750000  0.205744  0.750000  1
  Cr  Cr6  1  0.250000  0.794256  0.250000  1
  Cr  Cr7  1  -0.000000  -0.000000  0.500000  1
  Se  Se8  1  0.750000  0.409326  0.061419  1
  Se  Se9  1  0.250000  0.590674  0.938580  1
  Se  Se10  1  0.750000  0.409326  0.438581  1
  Se  Se11  1  0.250000  0.590674  0.561420  1
  Cl  Cl12  1  0.250000  0.148393  0.750000  1
  Cl  Cl13  1  0.750000  0.851607  0.250000  1
  O  O14  1  0.250000  0.005797  0.115988  1
  O  O15  1  0.250000  0.571730  0.115392  1
  O  O16  1  0.750000  0.428270  0.615392  1
  O  O17  1  0.543135  0.262525  0.089040  1
  O  O18  1  0.456865  0.737475  0.589040  1
  O  O19  1  0.043135  0.737475  0.589040  1
  O  O20  1  0.750000  0.994203  0.884012  1
  O  O21  1  0.956865  0.262525  0.089040  1
  O  O22  1  0.956865  0.262525  0.410960  1
  O  O23  1  0.043135  0.737475  0.910960  1
  O  O24  1  0.250000  0.005797  0.384012  1
  O  O25  1  0.750000  0.994203  0.615988  1
  O  O26  1  0.456865  0.737475  0.910960  1
  O  O27  1  0.543135  0.262525  0.410960  1
  O  O28  1  0.750000  0.428270  0.884608  1
  O  O29  1  0.250000  0.571730  0.384608  1
