# generated using pymatgen
data_MnZn(SiO3)2
_symmetry_space_group_name_H-M   'P 1'
_cell_length_a   5.33963551
_cell_length_b   9.16416538
_cell_length_c   18.73384533
_cell_angle_alpha   90.00000000
_cell_angle_beta   90.00000000
_cell_angle_gamma   90.00000000
_symmetry_Int_Tables_number   1
_chemical_formula_structural   MnZn(SiO3)2
_chemical_formula_sum   'Mn8 Zn8 Si16 O48'
_cell_volume   916.70892769
_cell_formula_units_Z   8
loop_
 _symmetry_equiv_pos_site_id
 _symmetry_equiv_pos_as_xyz
  1  'x, y, z'
loop_
 _atom_site_type_symbol
 _atom_site_label
 _atom_site_symmetry_multiplicity
 _atom_site_fract_x
 _atom_site_fract_y
 _atom_site_fract_z
 _atom_site_occupancy
  Mn  Mn0  1  0.380693  0.986426  0.123193  1
  Mn  Mn1  1  0.619307  0.013574  0.876807  1
  Mn  Mn2  1  0.880693  0.013574  0.376807  1
  Mn  Mn3  1  0.119307  0.986426  0.623193  1
  Mn  Mn4  1  0.380693  0.486426  0.376807  1
  Mn  Mn5  1  0.619307  0.513574  0.623193  1
  Mn  Mn6  1  0.880693  0.513574  0.123193  1
  Mn  Mn7  1  0.119307  0.486426  0.876807  1
  Zn  Zn8  1  0.614983  0.147831  0.625036  1
  Zn  Zn9  1  0.385017  0.852169  0.374964  1
  Zn  Zn10  1  0.614983  0.647831  0.874964  1
  Zn  Zn11  1  0.114983  0.852169  0.874964  1
  Zn  Zn12  1  0.885017  0.147831  0.125036  1
  Zn  Zn13  1  0.385017  0.352169  0.125036  1
  Zn  Zn14  1  0.114983  0.352169  0.625036  1
  Zn  Zn15  1  0.885017  0.647831  0.374964  1
  Si  Si16  1  0.562393  0.661743  0.228994  1
  Si  Si17  1  0.706148  0.835768  0.524445  1
  Si  Si18  1  0.793852  0.835768  0.024445  1
  Si  Si19  1  0.937607  0.161743  0.771006  1
  Si  Si20  1  0.062393  0.338257  0.271006  1
  Si  Si21  1  0.437607  0.838257  0.728994  1
  Si  Si22  1  0.206148  0.664232  0.524445  1
  Si  Si23  1  0.706148  0.335768  0.975555  1
  Si  Si24  1  0.793852  0.335768  0.475555  1
  Si  Si25  1  0.937607  0.661743  0.728994  1
  Si  Si26  1  0.437607  0.338257  0.771006  1
  Si  Si27  1  0.562393  0.161743  0.271006  1
  Si  Si28  1  0.293852  0.164232  0.475555  1
  Si  Si29  1  0.062393  0.838257  0.228994  1
  Si  Si30  1  0.293852  0.664232  0.024445  1
  Si  Si31  1  0.206148  0.164232  0.975555  1
  O  O32  1  0.935953  0.503396  0.691219  1
  O  O33  1  0.289330  0.015043  0.936093  1
  O  O34  1  0.064047  0.496604  0.308781  1
  O  O35  1  0.707490  0.338583  0.063082  1
  O  O36  1  0.207490  0.161417  0.063082  1
  O  O37  1  0.917743  0.210908  0.948924  1
  O  O38  1  0.942857  0.663260  0.816369  1
  O  O39  1  0.057143  0.836740  0.316369  1
  O  O40  1  0.707490  0.838583  0.436918  1
  O  O41  1  0.942857  0.163260  0.683631  1
  O  O42  1  0.435953  0.496604  0.808781  1
  O  O43  1  0.792510  0.338583  0.563082  1
  O  O44  1  0.710670  0.984957  0.063907  1
  O  O45  1  0.442857  0.836740  0.816369  1
  O  O46  1  0.564047  0.003396  0.308781  1
  O  O47  1  0.289330  0.515043  0.563907  1
  O  O48  1  0.435953  0.996604  0.691219  1
  O  O49  1  0.168890  0.766259  0.698968  1
  O  O50  1  0.331110  0.766259  0.198968  1
  O  O51  1  0.582257  0.710908  0.051076  1
  O  O52  1  0.792510  0.838583  0.936918  1
  O  O53  1  0.557143  0.663260  0.316369  1
  O  O54  1  0.789330  0.484957  0.936093  1
  O  O55  1  0.168890  0.266259  0.801032  1
  O  O56  1  0.292510  0.161417  0.563082  1
  O  O57  1  0.557143  0.163260  0.183631  1
  O  O58  1  0.710670  0.484957  0.436093  1
  O  O59  1  0.207490  0.661417  0.436918  1
  O  O60  1  0.210670  0.515043  0.063907  1
  O  O61  1  0.668890  0.733741  0.698968  1
  O  O62  1  0.064047  0.996604  0.191219  1
  O  O63  1  0.831110  0.733741  0.198968  1
  O  O64  1  0.831110  0.233741  0.301032  1
  O  O65  1  0.789330  0.984957  0.563907  1
  O  O66  1  0.292510  0.661417  0.936918  1
  O  O67  1  0.210670  0.015043  0.436093  1
  O  O68  1  0.331110  0.266259  0.301032  1
  O  O69  1  0.082257  0.789092  0.051076  1
  O  O70  1  0.417743  0.789092  0.551076  1
  O  O71  1  0.668890  0.233741  0.801032  1
  O  O72  1  0.417743  0.289092  0.948924  1
  O  O73  1  0.582257  0.210908  0.448924  1
  O  O74  1  0.082257  0.289092  0.448924  1
  O  O75  1  0.442857  0.336740  0.683631  1
  O  O76  1  0.564047  0.503396  0.191219  1
  O  O77  1  0.917743  0.710908  0.551076  1
  O  O78  1  0.057143  0.336740  0.183631  1
  O  O79  1  0.935953  0.003396  0.808781  1
