# generated using pymatgen
data_CaCo(GeO3)2
_symmetry_space_group_name_H-M   'P 1'
_cell_length_a   5.34203472
_cell_length_b   9.11333680
_cell_length_c   10.36448774
_cell_angle_alpha   90.00000000
_cell_angle_beta   104.93829304
_cell_angle_gamma   90.00000000
_symmetry_Int_Tables_number   1
_chemical_formula_structural   CaCo(GeO3)2
_chemical_formula_sum   'Ca4 Co4 Ge8 O24'
_cell_volume   487.52939418
_cell_formula_units_Z   4
loop_
 _symmetry_equiv_pos_site_id
 _symmetry_equiv_pos_as_xyz
  1  'x, y, z'
loop_
 _atom_site_type_symbol
 _atom_site_label
 _atom_site_symmetry_multiplicity
 _atom_site_fract_x
 _atom_site_fract_y
 _atom_site_fract_z
 _atom_site_occupancy
  Ca  Ca0  1  0.468946  0.452161  0.275801  1
  Ca  Ca1  1  0.031054  0.952161  0.724199  1
  Ca  Ca2  1  0.531054  0.547839  0.724199  1
  Ca  Ca3  1  0.968946  0.047839  0.275801  1
  Co  Co4  1  0.961786  0.663682  0.233784  1
  Co  Co5  1  0.538214  0.163682  0.766216  1
  Co  Co6  1  0.038214  0.336318  0.766216  1
  Co  Co7  1  0.461786  0.836318  0.233784  1
  Ge  Ge8  1  0.825738  0.347710  0.044568  1
  Ge  Ge9  1  0.674262  0.847710  0.955432  1
  Ge  Ge10  1  0.174262  0.652290  0.955432  1
  Ge  Ge11  1  0.325738  0.152290  0.044568  1
  Ge  Ge12  1  0.095535  0.350735  0.487225  1
  Ge  Ge13  1  0.404465  0.850735  0.512775  1
  Ge  Ge14  1  0.904465  0.649265  0.512775  1
  Ge  Ge15  1  0.595535  0.149265  0.487225  1
  O  O16  1  0.309266  0.245742  0.394837  1
  O  O17  1  0.190734  0.745742  0.605163  1
  O  O18  1  0.690734  0.754258  0.605163  1
  O  O19  1  0.809266  0.254258  0.394837  1
  O  O20  1  0.170909  0.308756  0.102721  1
  O  O21  1  0.329091  0.808756  0.897280  1
  O  O22  1  0.829091  0.691244  0.897280  1
  O  O23  1  0.670909  0.191244  0.102721  1
  O  O24  1  0.646651  0.974599  0.416763  1
  O  O25  1  0.853349  0.474599  0.583237  1
  O  O26  1  0.353349  0.025401  0.583237  1
  O  O27  1  0.146651  0.525401  0.416763  1
  O  O28  1  0.259858  0.008365  0.139190  1
  O  O29  1  0.240142  0.508365  0.860810  1
  O  O30  1  0.740142  0.991635  0.860810  1
  O  O31  1  0.759858  0.491635  0.139190  1
  O  O32  1  0.740184  0.346793  0.869054  1
  O  O33  1  0.759816  0.846793  0.130945  1
  O  O34  1  0.259816  0.653207  0.130945  1
  O  O35  1  0.240184  0.153207  0.869054  1
  O  O36  1  0.306268  0.326920  0.649222  1
  O  O37  1  0.193732  0.826920  0.350778  1
  O  O38  1  0.693732  0.673080  0.350778  1
  O  O39  1  0.806268  0.173080  0.649222  1
