# generated using pymatgen
data_ZnFeAsO5
_symmetry_space_group_name_H-M   'P 1'
_cell_length_a   8.11993146
_cell_length_b   6.20031516
_cell_length_c   8.41819207
_cell_angle_alpha   90.04219524
_cell_angle_beta   90.19084969
_cell_angle_gamma   89.87290873
_symmetry_Int_Tables_number   1
_chemical_formula_structural   ZnFeAsO5
_chemical_formula_sum   'Zn4 Fe4 As4 O20'
_cell_volume   423.81992053
_cell_formula_units_Z   4
loop_
 _symmetry_equiv_pos_site_id
 _symmetry_equiv_pos_as_xyz
  1  'x, y, z'
loop_
 _atom_site_type_symbol
 _atom_site_label
 _atom_site_symmetry_multiplicity
 _atom_site_fract_x
 _atom_site_fract_y
 _atom_site_fract_z
 _atom_site_occupancy
  Zn  Zn0  1  0.938737  0.692594  0.061035  1
  Zn  Zn1  1  0.551416  0.297669  0.562465  1
  Zn  Zn2  1  0.443633  0.802129  0.938176  1
  Zn  Zn3  1  0.052347  0.205343  0.438161  1
  Fe  Fe4  1  0.997325  0.493196  0.744414  1
  Fe  Fe5  1  0.504024  0.507280  0.244645  1
  Fe  Fe6  1  0.496694  0.007095  0.256460  1
  Fe  Fe7  1  0.003685  0.992701  0.755418  1
  As  As8  1  0.655028  0.262056  0.925819  1
  As  As9  1  0.847149  0.736963  0.424912  1
  As  As10  1  0.154554  0.235631  0.074118  1
  As  As11  1  0.346002  0.764942  0.575022  1
  O  O12  1  0.846238  0.237652  0.835328  1
  O  O13  1  0.653458  0.758752  0.336168  1
  O  O14  1  0.347198  0.260125  0.164527  1
  O  O15  1  0.154539  0.743037  0.665720  1
  O  O16  1  0.508509  0.296956  0.780670  1
  O  O17  1  0.989845  0.703458  0.278130  1
  O  O18  1  0.009728  0.205617  0.219528  1
  O  O19  1  0.491823  0.796718  0.721086  1
  O  O20  1  0.614173  0.028508  0.031117  1
  O  O21  1  0.887578  0.970658  0.529617  1
  O  O22  1  0.113680  0.469819  0.969154  1
  O  O23  1  0.385834  0.531003  0.469701  1
  O  O24  1  0.656193  0.485587  0.048141  1
  O  O25  1  0.849854  0.512272  0.545579  1
  O  O26  1  0.154573  0.013255  0.951786  1
  O  O27  1  0.346870  0.988737  0.453222  1
  O  O28  1  0.890780  0.746456  0.845624  1
  O  O29  1  0.608708  0.253504  0.348022  1
  O  O30  1  0.391639  0.754597  0.153202  1
  O  O31  1  0.108189  0.245695  0.653037  1
