# generated using pymatgen
data_Mg2VWO6
_symmetry_space_group_name_H-M   'P 1'
_cell_length_a   5.17568927
_cell_length_b   5.56519678
_cell_length_c   7.64465279
_cell_angle_alpha   95.24818676
_cell_angle_beta   132.95371612
_cell_angle_gamma   117.85242281
_symmetry_Int_Tables_number   1
_chemical_formula_structural   Mg2VWO6
_chemical_formula_sum   'Mg2 V1 W1 O6'
_cell_volume   110.27463390
_cell_formula_units_Z   1
loop_
 _symmetry_equiv_pos_site_id
 _symmetry_equiv_pos_as_xyz
  1  'x, y, z'
loop_
 _atom_site_type_symbol
 _atom_site_label
 _atom_site_symmetry_multiplicity
 _atom_site_fract_x
 _atom_site_fract_y
 _atom_site_fract_z
 _atom_site_occupancy
  Mg  Mg0  1  0.004538  0.566883  0.209041  1
  Mg  Mg1  1  0.989073  0.557974  0.698128  1
  V  V2  1  0.005706  0.982803  0.500967  1
  W  W3  1  0.002911  0.977206  0.001068  1
  O  O4  1  0.726806  0.808180  0.104453  1
  O  O5  1  0.267813  0.082958  0.895659  1
  O  O6  1  0.394488  0.473265  0.281838  1
  O  O7  1  0.332304  0.808325  0.614347  1
  O  O8  1  0.605477  0.080108  0.388076  1
  O  O9  1  0.665818  0.471516  0.780238  1
