# generated using pymatgen
data_ZnFeF5
_symmetry_space_group_name_H-M   'P 1'
_cell_length_a   5.24291498
_cell_length_b   7.57700395
_cell_length_c   9.88342440
_cell_angle_alpha   90.00000000
_cell_angle_beta   90.00000000
_cell_angle_gamma   110.15231356
_symmetry_Int_Tables_number   1
_chemical_formula_structural   ZnFeF5
_chemical_formula_sum   'Zn4 Fe4 F20'
_cell_volume   368.58838105
_cell_formula_units_Z   4
loop_
 _symmetry_equiv_pos_site_id
 _symmetry_equiv_pos_as_xyz
  1  'x, y, z'
loop_
 _atom_site_type_symbol
 _atom_site_label
 _atom_site_symmetry_multiplicity
 _atom_site_fract_x
 _atom_site_fract_y
 _atom_site_fract_z
 _atom_site_occupancy
  Zn  Zn0  1  0.489430  0.753374  0.004199  1
  Zn  Zn1  1  0.510570  0.746626  0.504199  1
  Zn  Zn2  1  0.510570  0.246626  0.995801  1
  Zn  Zn3  1  0.489430  0.253374  0.495801  1
  Fe  Fe4  1  0.904215  0.603864  0.754640  1
  Fe  Fe5  1  0.095785  0.896136  0.254640  1
  Fe  Fe6  1  0.095785  0.396136  0.245360  1
  Fe  Fe7  1  0.904215  0.103864  0.745360  1
  F  F8  1  0.611498  0.576361  0.885809  1
  F  F9  1  0.388502  0.923639  0.385809  1
  F  F10  1  0.388502  0.423639  0.114191  1
  F  F11  1  0.611498  0.076361  0.614191  1
  F  F12  1  0.651480  0.495465  0.607577  1
  F  F13  1  0.348520  0.004535  0.107577  1
  F  F14  1  0.348520  0.504535  0.392423  1
  F  F15  1  0.651480  0.995465  0.892423  1
  F  F16  1  0.853262  0.805358  0.404977  1
  F  F17  1  0.146738  0.694642  0.904977  1
  F  F18  1  0.146738  0.194641  0.595023  1
  F  F19  1  0.853262  0.305358  0.095023  1
  F  F20  1  0.783668  0.842012  0.136857  1
  F  F21  1  0.216332  0.657988  0.636857  1
  F  F22  1  0.216332  0.157988  0.863143  1
  F  F23  1  0.783668  0.342012  0.363143  1
  F  F24  1  0.849253  0.839305  0.691712  1
  F  F25  1  0.150747  0.660695  0.191712  1
  F  F26  1  0.150747  0.160695  0.308288  1
  F  F27  1  0.849253  0.339305  0.808288  1
