# generated using pymatgen
data_ZnSb2O5
_symmetry_space_group_name_H-M   'P 1'
_cell_length_a   3.99476345
_cell_length_b   5.42168223
_cell_length_c   13.56339548
_cell_angle_alpha   92.92377539
_cell_angle_beta   92.97160858
_cell_angle_gamma   68.05748268
_symmetry_Int_Tables_number   1
_chemical_formula_structural   ZnSb2O5
_chemical_formula_sum   'Zn2 Sb4 O10'
_cell_volume   271.95522469
_cell_formula_units_Z   2
loop_
 _symmetry_equiv_pos_site_id
 _symmetry_equiv_pos_as_xyz
  1  'x, y, z'
loop_
 _atom_site_type_symbol
 _atom_site_label
 _atom_site_symmetry_multiplicity
 _atom_site_fract_x
 _atom_site_fract_y
 _atom_site_fract_z
 _atom_site_occupancy
  Zn  Zn0  1  0.572216  0.860741  0.236359  1
  Zn  Zn1  1  0.327093  0.061112  0.743065  1
  Sb  Sb2  1  0.254076  0.452815  0.116325  1
  Sb  Sb3  1  0.730970  0.546527  0.893690  1
  Sb  Sb4  1  0.776837  0.531179  0.597924  1
  Sb  Sb5  1  0.291516  0.438534  0.390030  1
  O  O6  1  0.912124  0.393155  0.742925  1
  O  O7  1  0.174285  0.640010  0.254445  1
  O  O8  1  0.707959  0.541403  0.130192  1
  O  O9  1  0.172402  0.572520  0.977599  1
  O  O10  1  0.756654  0.513323  0.417786  1
  O  O11  1  0.294624  0.476107  0.552224  1
  O  O12  1  0.473443  0.069339  0.357337  1
  O  O13  1  0.575356  0.906165  0.627165  1
  O  O14  1  0.560204  0.915031  0.862380  1
  O  O15  1  0.437098  0.079347  0.118686  1
