# generated using pymatgen
data_CaCu3(P2O7)2
_symmetry_space_group_name_H-M   'P 1'
_cell_length_a   7.33478378
_cell_length_b   7.85721418
_cell_length_c   9.45766081
_cell_angle_alpha   90.00000000
_cell_angle_beta   110.32959938
_cell_angle_gamma   90.00000000
_symmetry_Int_Tables_number   1
_chemical_formula_structural   CaCu3(P2O7)2
_chemical_formula_sum   'Ca2 Cu6 P8 O28'
_cell_volume   511.10248839
_cell_formula_units_Z   2
loop_
 _symmetry_equiv_pos_site_id
 _symmetry_equiv_pos_as_xyz
  1  'x, y, z'
loop_
 _atom_site_type_symbol
 _atom_site_label
 _atom_site_symmetry_multiplicity
 _atom_site_fract_x
 _atom_site_fract_y
 _atom_site_fract_z
 _atom_site_occupancy
  Ca  Ca0  1  0.500000  0.000000  -0.000000  1
  Ca  Ca1  1  0.500000  0.500000  0.500000  1
  Cu  Cu2  1  0.189755  0.869943  0.521891  1
  Cu  Cu3  1  0.810245  0.369943  0.978109  1
  Cu  Cu4  1  0.810245  0.130057  0.478109  1
  Cu  Cu5  1  0.189755  0.630057  0.021891  1
  Cu  Cu6  1  0.000000  0.000000  -0.000000  1
  Cu  Cu7  1  0.000000  0.500000  0.500000  1
  P  P8  1  0.594480  0.052634  0.699655  1
  P  P9  1  0.405520  0.552634  0.800345  1
  P  P10  1  0.405520  0.947366  0.300345  1
  P  P11  1  0.594480  0.447366  0.199655  1
  P  P12  1  0.893078  0.791600  0.695838  1
  P  P13  1  0.106922  0.291600  0.804162  1
  P  P14  1  0.106922  0.208400  0.304162  1
  P  P15  1  0.893078  0.708400  0.195838  1
  O  O16  1  0.842277  0.619220  0.614707  1
  O  O17  1  0.157723  0.119220  0.885293  1
  O  O18  1  0.157723  0.380780  0.385293  1
  O  O19  1  0.842277  0.880780  0.114707  1
  O  O20  1  0.297715  0.601673  0.634324  1
  O  O21  1  0.702285  0.101673  0.865676  1
  O  O22  1  0.702285  0.398327  0.365676  1
  O  O23  1  0.297715  0.898327  0.134324  1
  O  O24  1  0.624736  0.182430  0.588158  1
  O  O25  1  0.375264  0.682430  0.911842  1
  O  O26  1  0.375264  0.817570  0.411842  1
  O  O27  1  0.624736  0.317570  0.088158  1
  O  O28  1  0.682731  0.872291  0.671919  1
  O  O29  1  0.317269  0.372291  0.828081  1
  O  O30  1  0.317269  0.127709  0.328081  1
  O  O31  1  0.682731  0.627709  0.171919  1
  O  O32  1  0.383571  0.488837  0.181687  1
  O  O33  1  0.616429  0.988837  0.318313  1
  O  O34  1  0.616429  0.511163  0.818313  1
  O  O35  1  0.383571  0.011163  0.681687  1
  O  O36  1  0.008777  0.215096  0.129511  1
  O  O37  1  0.991223  0.715096  0.370489  1
  O  O38  1  0.991223  0.784904  0.870489  1
  O  O39  1  0.008777  0.284904  0.629511  1
  O  O40  1  0.995904  0.588142  0.121634  1
  O  O41  1  0.004096  0.088142  0.378366  1
  O  O42  1  0.004096  0.411858  0.878366  1
  O  O43  1  0.995904  0.911858  0.621634  1
