# generated using pymatgen
data_CaBi3P3O13
_symmetry_space_group_name_H-M   'P 1'
_cell_length_a   7.13093895
_cell_length_b   8.47222505
_cell_length_c   11.11193406
_cell_angle_alpha   100.00524861
_cell_angle_beta   90.00000000
_cell_angle_gamma   90.00000000
_symmetry_Int_Tables_number   1
_chemical_formula_structural   CaBi3P3O13
_chemical_formula_sum   'Ca2 Bi6 P6 O26'
_cell_volume   661.11696190
_cell_formula_units_Z   2
loop_
 _symmetry_equiv_pos_site_id
 _symmetry_equiv_pos_as_xyz
  1  'x, y, z'
loop_
 _atom_site_type_symbol
 _atom_site_label
 _atom_site_symmetry_multiplicity
 _atom_site_fract_x
 _atom_site_fract_y
 _atom_site_fract_z
 _atom_site_occupancy
  Ca  Ca0  1  0.750000  0.618335  0.182280  1
  Ca  Ca1  1  0.250000  0.381665  0.817720  1
  Bi  Bi2  1  0.250000  0.357238  0.222417  1
  Bi  Bi3  1  0.750000  0.642762  0.777583  1
  Bi  Bi4  1  0.250000  0.797339  0.440355  1
  Bi  Bi5  1  0.500000  -0.000000  -0.000000  1
  Bi  Bi6  1  0.750000  0.202661  0.559645  1
  Bi  Bi7  1  0.000000  -0.000000  -0.000000  1
  P  P8  1  0.250000  0.223607  0.514779  1
  P  P9  1  0.750000  0.776393  0.485221  1
  P  P10  1  0.250000  0.727912  0.765762  1
  P  P11  1  0.750000  0.272088  0.234238  1
  P  P12  1  0.750000  0.322255  0.890909  1
  P  P13  1  0.250000  0.677745  0.109091  1
  O  O14  1  0.750000  0.349645  0.753719  1
  O  O15  1  0.577578  0.755157  0.396997  1
  O  O16  1  0.250000  0.781817  0.641726  1
  O  O17  1  0.564602  0.231371  0.907809  1
  O  O18  1  0.750000  0.650604  0.570485  1
  O  O19  1  0.750000  0.874033  0.897063  1
  O  O20  1  0.250000  0.349396  0.429515  1
  O  O21  1  0.064602  0.768629  0.092191  1
  O  O22  1  0.250000  0.054571  0.430346  1
  O  O23  1  0.750000  0.945429  0.569654  1
  O  O24  1  0.080651  0.619061  0.784760  1
  O  O25  1  0.250000  0.125967  0.102937  1
  O  O26  1  0.580651  0.380939  0.215240  1
  O  O27  1  0.750000  0.494163  0.967450  1
  O  O28  1  0.750000  0.218183  0.358274  1
  O  O29  1  0.435398  0.768629  0.092191  1
  O  O30  1  0.922422  0.755157  0.396997  1
  O  O31  1  0.422422  0.244843  0.603003  1
  O  O32  1  0.419349  0.619061  0.784760  1
  O  O33  1  0.250000  0.650355  0.246281  1
  O  O34  1  0.750000  0.114736  0.135198  1
  O  O35  1  0.250000  0.885264  0.864802  1
  O  O36  1  0.919349  0.380939  0.215240  1
  O  O37  1  0.935398  0.231371  0.907809  1
  O  O38  1  0.077578  0.244843  0.603003  1
  O  O39  1  0.250000  0.505837  0.032550  1
