# generated using pymatgen
data_ZnBi4O9
_symmetry_space_group_name_H-M   'P 1'
_cell_length_a   5.82360461
_cell_length_b   8.84320420
_cell_length_c   8.16306221
_cell_angle_alpha   96.70617875
_cell_angle_beta   90.00078870
_cell_angle_gamma   89.98068459
_symmetry_Int_Tables_number   1
_chemical_formula_structural   ZnBi4O9
_chemical_formula_sum   'Zn2 Bi8 O18'
_cell_volume   417.51587052
_cell_formula_units_Z   2
loop_
 _symmetry_equiv_pos_site_id
 _symmetry_equiv_pos_as_xyz
  1  'x, y, z'
loop_
 _atom_site_type_symbol
 _atom_site_label
 _atom_site_symmetry_multiplicity
 _atom_site_fract_x
 _atom_site_fract_y
 _atom_site_fract_z
 _atom_site_occupancy
  Zn  Zn0  1  0.195822  0.250135  0.249921  1
  Zn  Zn1  1  0.801302  0.749655  0.750129  1
  Bi  Bi2  1  0.689770  0.554666  0.356214  1
  Bi  Bi3  1  0.248583  0.863368  0.465771  1
  Bi  Bi4  1  0.751918  0.363305  0.965576  1
  Bi  Bi5  1  0.310611  0.054763  0.856261  1
  Bi  Bi6  1  0.689508  0.945319  0.143661  1
  Bi  Bi7  1  0.751705  0.136711  0.534314  1
  Bi  Bi8  1  0.310387  0.445270  0.643825  1
  Bi  Bi9  1  0.248532  0.636616  0.034360  1
  O  O10  1  0.555942  0.750071  0.250151  1
  O  O11  1  0.444568  0.249991  0.749895  1
  O  O12  1  0.890143  0.797646  0.981270  1
  O  O13  1  0.046799  0.533353  0.808826  1
  O  O14  1  0.047054  0.966750  0.691101  1
  O  O15  1  0.890348  0.702395  0.518946  1
  O  O16  1  0.109858  0.202617  0.018373  1
  O  O17  1  0.953604  0.465953  0.191593  1
  O  O18  1  0.953299  0.033930  0.308498  1
  O  O19  1  0.109659  0.297310  0.481476  1
  O  O20  1  0.479583  0.070035  0.339216  1
  O  O21  1  0.633586  0.120420  0.991035  1
  O  O22  1  0.633490  0.379578  0.508868  1
  O  O23  1  0.479971  0.430342  0.160648  1
  O  O24  1  0.520408  0.570306  0.838941  1
  O  O25  1  0.366380  0.879673  0.009086  1
  O  O26  1  0.366472  0.620354  0.490983  1
  O  O27  1  0.520699  0.929467  0.661064  1
