# generated using pymatgen
data_Mg2Nb2CuO8
_symmetry_space_group_name_H-M   'P 1'
_cell_length_a   5.16518213
_cell_length_b   6.07383702
_cell_length_c   10.02869657
_cell_angle_alpha   107.66940349
_cell_angle_beta   91.65865427
_cell_angle_gamma   89.94665856
_symmetry_Int_Tables_number   1
_chemical_formula_structural   Mg2Nb2CuO8
_chemical_formula_sum   'Mg4 Nb4 Cu2 O16'
_cell_volume   299.64638641
_cell_formula_units_Z   2
loop_
 _symmetry_equiv_pos_site_id
 _symmetry_equiv_pos_as_xyz
  1  'x, y, z'
loop_
 _atom_site_type_symbol
 _atom_site_label
 _atom_site_symmetry_multiplicity
 _atom_site_fract_x
 _atom_site_fract_y
 _atom_site_fract_z
 _atom_site_occupancy
  Mg  Mg0  1  0.753789  0.413128  0.543137  1
  Mg  Mg1  1  0.749538  0.869700  0.456156  1
  Mg  Mg2  1  0.249496  0.583179  0.455025  1
  Mg  Mg3  1  0.253750  0.127535  0.543871  1
  Nb  Nb4  1  0.737108  0.279901  0.230838  1
  Nb  Nb5  1  0.766327  0.049666  0.768662  1
  Nb  Nb6  1  0.266651  0.716622  0.767876  1
  Nb  Nb7  1  0.237168  0.948140  0.231084  1
  Cu  Cu8  1  0.751570  0.650930  0.999674  1
  Cu  Cu9  1  0.251225  0.347387  0.999755  1
  O  O10  1  0.070424  0.183346  0.143895  1
  O  O11  1  0.433211  0.039143  0.855241  1
  O  O12  1  0.933508  0.813700  0.854856  1
  O  O13  1  0.570619  0.956755  0.143994  1
  O  O14  1  0.562595  0.418961  0.112480  1
  O  O15  1  0.938924  0.308479  0.887440  1
  O  O16  1  0.439630  0.577318  0.886884  1
  O  O17  1  0.063443  0.690037  0.112554  1
  O  O18  1  0.454961  0.289425  0.374884  1
  O  O19  1  0.048177  0.914689  0.624271  1
  O  O20  1  0.379129  0.834322  0.382226  1
  O  O21  1  0.124202  0.451694  0.616934  1
  O  O22  1  0.623997  0.164026  0.617801  1
  O  O23  1  0.879069  0.545571  0.381500  1
  O  O24  1  0.954495  0.083116  0.375124  1
  O  O25  1  0.548563  0.707604  0.623835  1
