# generated using pymatgen
data_Zn(FeO2)2
_symmetry_space_group_name_H-M   'P 1'
_cell_length_a   6.04835395
_cell_length_b   6.06398905
_cell_length_c   6.06398872
_cell_angle_alpha   59.99999599
_cell_angle_beta   59.91444756
_cell_angle_gamma   59.91444517
_symmetry_Int_Tables_number   1
_chemical_formula_structural   Zn(FeO2)2
_chemical_formula_sum   'Zn2 Fe4 O8'
_cell_volume   157.06382281
_cell_formula_units_Z   2
loop_
 _symmetry_equiv_pos_site_id
 _symmetry_equiv_pos_as_xyz
  1  'x, y, z'
loop_
 _atom_site_type_symbol
 _atom_site_label
 _atom_site_symmetry_multiplicity
 _atom_site_fract_x
 _atom_site_fract_y
 _atom_site_fract_z
 _atom_site_occupancy
  Zn  Zn0  1  0.990484  0.003172  0.003172  1
  Zn  Zn1  1  0.122132  0.625956  0.625956  1
  Fe  Fe2  1  0.263044  0.245652  0.245652  1
  Fe  Fe3  1  0.628459  0.118642  0.626449  1
  Fe  Fe4  1  0.628459  0.626449  0.118642  1
  Fe  Fe5  1  0.628459  0.626449  0.626449  1
  O  O6  1  0.391730  0.377382  0.377382  1
  O  O7  1  0.391730  0.377382  0.853506  1
  O  O8  1  0.391730  0.853506  0.377382  1
  O  O9  1  0.857861  0.380713  0.380713  1
  O  O10  1  0.401819  0.866060  0.866060  1
  O  O11  1  0.851364  0.405499  0.871568  1
  O  O12  1  0.851364  0.871568  0.405499  1
  O  O13  1  0.851364  0.871568  0.871568  1
