# generated using pymatgen
data_CaV2O5
_symmetry_space_group_name_H-M   'P 1'
_cell_length_a   3.81554996
_cell_length_b   5.89796840
_cell_length_c   11.32028025
_cell_angle_alpha   90.00000000
_cell_angle_beta   90.00000000
_cell_angle_gamma   108.87247639
_symmetry_Int_Tables_number   1
_chemical_formula_structural   CaV2O5
_chemical_formula_sum   'Ca2 V4 O10'
_cell_volume   241.05628477
_cell_formula_units_Z   2
loop_
 _symmetry_equiv_pos_site_id
 _symmetry_equiv_pos_as_xyz
  1  'x, y, z'
loop_
 _atom_site_type_symbol
 _atom_site_label
 _atom_site_symmetry_multiplicity
 _atom_site_fract_x
 _atom_site_fract_y
 _atom_site_fract_z
 _atom_site_occupancy
  Ca  Ca0  1  0.896782  0.793564  0.750000  1
  Ca  Ca1  1  0.103219  0.206437  0.250000  1
  V  V2  1  0.202561  0.405123  0.596121  1
  V  V3  1  0.797440  0.594878  0.403878  1
  V  V4  1  0.797440  0.594878  0.096122  1
  V  V5  1  0.202561  0.405123  0.903879  1
  O  O6  1  0.711576  0.423152  0.250000  1
  O  O7  1  0.288425  0.576849  0.750000  1
  O  O8  1  0.240620  0.481237  0.075107  1
  O  O9  1  0.759382  0.518764  0.924893  1
  O  O10  1  0.759382  0.518764  0.575107  1
  O  O11  1  0.240620  0.481237  0.424892  1
  O  O12  1  0.055529  0.111056  0.619503  1
  O  O13  1  0.944471  0.888943  0.380497  1
  O  O14  1  0.055529  0.111056  0.880497  1
  O  O15  1  0.944471  0.888943  0.119504  1
