# generated using pymatgen
data_CaNi2(P2O7)2
_symmetry_space_group_name_H-M   'P 1'
_cell_length_a   6.44558490
_cell_length_b   6.60223181
_cell_length_c   6.78733293
_cell_angle_alpha   65.82680859
_cell_angle_beta   87.59499882
_cell_angle_gamma   83.08687054
_symmetry_Int_Tables_number   1
_chemical_formula_structural   CaNi2(P2O7)2
_chemical_formula_sum   'Ca1 Ni2 P4 O14'
_cell_volume   261.58473691
_cell_formula_units_Z   1
loop_
 _symmetry_equiv_pos_site_id
 _symmetry_equiv_pos_as_xyz
  1  'x, y, z'
loop_
 _atom_site_type_symbol
 _atom_site_label
 _atom_site_symmetry_multiplicity
 _atom_site_fract_x
 _atom_site_fract_y
 _atom_site_fract_z
 _atom_site_occupancy
  Ca  Ca0  1  0.131030  0.727583  0.822321  1
  Ni  Ni1  1  0.646557  0.103161  0.787039  1
  Ni  Ni2  1  0.350411  0.903849  0.213563  1
  P  P3  1  0.136427  0.227307  0.756929  1
  P  P4  1  0.860363  0.779368  0.243681  1
  P  P5  1  0.623264  0.643426  0.659266  1
  P  P6  1  0.380321  0.357594  0.342397  1
  O  O7  1  0.779508  0.621023  0.476066  1
  O  O8  1  0.209302  0.376207  0.515074  1
  O  O9  1  0.964424  0.094875  0.738054  1
  O  O10  1  0.037870  0.892393  0.279242  1
  O  O11  1  0.588160  0.250985  0.464040  1
  O  O12  1  0.409547  0.758611  0.550010  1
  O  O13  1  0.383285  0.597492  0.175304  1
  O  O14  1  0.603479  0.404788  0.817192  1
  O  O15  1  0.936963  0.624895  0.132838  1
  O  O16  1  0.072311  0.388395  0.857725  1
  O  O17  1  0.667523  0.939494  0.123612  1
  O  O18  1  0.326968  0.050737  0.868982  1
  O  O19  1  0.317920  0.201524  0.246861  1
  O  O20  1  0.717176  0.785190  0.755626  1
