# generated using pymatgen
data_Ca(SnO2)4
_symmetry_space_group_name_H-M   'P 1'
_cell_length_a   6.90471920
_cell_length_b   6.90471936
_cell_length_c   6.90471946
_cell_angle_alpha   57.40964914
_cell_angle_beta   57.40964100
_cell_angle_gamma   57.40965577
_symmetry_Int_Tables_number   1
_chemical_formula_structural   Ca(SnO2)4
_chemical_formula_sum   'Ca1 Sn4 O8'
_cell_volume   218.89390617
_cell_formula_units_Z   1
loop_
 _symmetry_equiv_pos_site_id
 _symmetry_equiv_pos_as_xyz
  1  'x, y, z'
loop_
 _atom_site_type_symbol
 _atom_site_label
 _atom_site_symmetry_multiplicity
 _atom_site_fract_x
 _atom_site_fract_y
 _atom_site_fract_z
 _atom_site_occupancy
  Ca  Ca0  1  0.500000  0.500001  0.499999  1
  Sn  Sn1  1  0.500001  0.999999  0.500001  1
  Sn  Sn2  1  0.999999  0.500000  0.500001  1
  Sn  Sn3  1  0.500000  0.500000  -0.000000  1
  Sn  Sn4  1  -0.000000  0.000000  -0.000000  1
  O  O5  1  0.748367  0.307590  0.748367  1
  O  O6  1  0.251632  0.251633  0.692410  1
  O  O7  1  0.251632  0.692411  0.251632  1
  O  O8  1  0.692409  0.251633  0.251633  1
  O  O9  1  0.271979  0.271980  0.271979  1
  O  O10  1  0.728021  0.728021  0.728021  1
  O  O11  1  0.307591  0.748368  0.748367  1
  O  O12  1  0.748368  0.748368  0.307590  1
