# generated using pymatgen
data_HoZn(BiO3)2
_symmetry_space_group_name_H-M   'P 1'
_cell_length_a   5.60167973
_cell_length_b   6.38579787
_cell_length_c   8.57271159
_cell_angle_alpha   90.00340821
_cell_angle_beta   89.99852563
_cell_angle_gamma   90.01353007
_symmetry_Int_Tables_number   1
_chemical_formula_structural   HoZn(BiO3)2
_chemical_formula_sum   'Ho2 Zn2 Bi4 O12'
_cell_volume   306.65612439
_cell_formula_units_Z   2
loop_
 _symmetry_equiv_pos_site_id
 _symmetry_equiv_pos_as_xyz
  1  'x, y, z'
loop_
 _atom_site_type_symbol
 _atom_site_label
 _atom_site_symmetry_multiplicity
 _atom_site_fract_x
 _atom_site_fract_y
 _atom_site_fract_z
 _atom_site_occupancy
  Ho  Ho0  1  0.042037  0.915249  0.749913  1
  Ho  Ho1  1  0.542191  0.584739  0.250064  1
  Zn  Zn2  1  0.531965  0.660370  0.749963  1
  Zn  Zn3  1  0.032034  0.839584  0.250028  1
  Bi  Bi4  1  0.007487  0.468207  0.992442  1
  Bi  Bi5  1  0.007548  0.468286  0.507491  1
  Bi  Bi6  1  0.507657  0.031760  0.492481  1
  Bi  Bi7  1  0.507597  0.031816  0.007564  1
  O  O8  1  0.152339  0.508169  0.250176  1
  O  O9  1  0.149111  0.148608  0.931279  1
  O  O10  1  0.149189  0.148800  0.568693  1
  O  O11  1  0.299791  0.721720  0.918008  1
  O  O12  1  0.299747  0.721703  0.581793  1
  O  O13  1  0.359990  0.928408  0.250123  1
  O  O14  1  0.652658  0.991834  0.749821  1
  O  O15  1  0.649296  0.351435  0.431218  1
  O  O16  1  0.649158  0.351660  0.068856  1
  O  O17  1  0.800005  0.778073  0.081921  1
  O  O18  1  0.799957  0.778135  0.418297  1
  O  O19  1  0.860242  0.571447  0.749871  1
