# generated using pymatgen
data_MgFe3(P2O7)2
_symmetry_space_group_name_H-M   'P 1'
_cell_length_a   7.33300559
_cell_length_b   7.54019649
_cell_length_c   9.73665495
_cell_angle_alpha   90.00000000
_cell_angle_beta   111.93690952
_cell_angle_gamma   90.00000000
_symmetry_Int_Tables_number   1
_chemical_formula_structural   MgFe3(P2O7)2
_chemical_formula_sum   'Mg2 Fe6 P8 O28'
_cell_volume   499.38239306
_cell_formula_units_Z   2
loop_
 _symmetry_equiv_pos_site_id
 _symmetry_equiv_pos_as_xyz
  1  'x, y, z'
loop_
 _atom_site_type_symbol
 _atom_site_label
 _atom_site_symmetry_multiplicity
 _atom_site_fract_x
 _atom_site_fract_y
 _atom_site_fract_z
 _atom_site_occupancy
  Mg  Mg0  1  0.500000  -0.000000  -0.000000  1
  Mg  Mg1  1  0.500000  0.500000  0.500000  1
  Fe  Fe2  1  0.184565  0.866030  0.514693  1
  Fe  Fe3  1  0.815435  0.366030  0.985307  1
  Fe  Fe4  1  0.815435  0.133970  0.485307  1
  Fe  Fe5  1  0.184565  0.633970  0.014692  1
  Fe  Fe6  1  0.000000  -0.000000  -0.000000  1
  Fe  Fe7  1  0.000000  0.500000  0.500000  1
  P  P8  1  0.577208  0.082683  0.702012  1
  P  P9  1  0.422792  0.582683  0.797988  1
  P  P10  1  0.422792  0.917317  0.297988  1
  P  P11  1  0.577208  0.417317  0.202012  1
  P  P12  1  0.860655  0.797780  0.686104  1
  P  P13  1  0.139345  0.297780  0.813896  1
  P  P14  1  0.139345  0.202220  0.313896  1
  P  P15  1  0.860655  0.702220  0.186104  1
  O  O16  1  0.799633  0.619973  0.606049  1
  O  O17  1  0.200367  0.119973  0.893951  1
  O  O18  1  0.200367  0.380027  0.393951  1
  O  O19  1  0.799633  0.880027  0.106049  1
  O  O20  1  0.316735  0.608755  0.626257  1
  O  O21  1  0.683265  0.108755  0.873743  1
  O  O22  1  0.683265  0.391245  0.373743  1
  O  O23  1  0.316735  0.891245  0.126257  1
  O  O24  1  0.626596  0.228203  0.612109  1
  O  O25  1  0.373404  0.728203  0.887891  1
  O  O26  1  0.373404  0.771797  0.387891  1
  O  O27  1  0.626596  0.271797  0.112109  1
  O  O28  1  0.657420  0.895552  0.664122  1
  O  O29  1  0.342580  0.395552  0.835878  1
  O  O30  1  0.342580  0.104448  0.335878  1
  O  O31  1  0.657420  0.604448  0.164122  1
  O  O32  1  0.363293  0.458476  0.165159  1
  O  O33  1  0.636707  0.958476  0.334841  1
  O  O34  1  0.636707  0.541524  0.834841  1
  O  O35  1  0.363293  0.041524  0.665159  1
  O  O36  1  0.030086  0.207804  0.143854  1
  O  O37  1  0.969914  0.707804  0.356146  1
  O  O38  1  0.969914  0.792196  0.856146  1
  O  O39  1  0.030086  0.292196  0.643854  1
  O  O40  1  0.970855  0.585908  0.114289  1
  O  O41  1  0.029145  0.085908  0.385711  1
  O  O42  1  0.029145  0.414092  0.885711  1
  O  O43  1  0.970855  0.914092  0.614289  1
