# generated using pymatgen
data_Zn(WO2)4
_symmetry_space_group_name_H-M   'P 1'
_cell_length_a   6.14073047
_cell_length_b   6.14073091
_cell_length_c   6.14073146
_cell_angle_alpha   64.55411271
_cell_angle_beta   64.55409631
_cell_angle_gamma   64.55412317
_symmetry_Int_Tables_number   1
_chemical_formula_structural   Zn(WO2)4
_chemical_formula_sum   'Zn1 W4 O8'
_cell_volume   180.08266335
_cell_formula_units_Z   1
loop_
 _symmetry_equiv_pos_site_id
 _symmetry_equiv_pos_as_xyz
  1  'x, y, z'
loop_
 _atom_site_type_symbol
 _atom_site_label
 _atom_site_symmetry_multiplicity
 _atom_site_fract_x
 _atom_site_fract_y
 _atom_site_fract_z
 _atom_site_occupancy
  Zn  Zn0  1  0.500000  0.500001  0.499999  1
  W  W1  1  0.500001  0.999999  0.500001  1
  W  W2  1  0.999999  0.500000  0.500001  1
  W  W3  1  0.500000  0.500000  -0.000000  1
  W  W4  1  0.000000  0.000000  -0.000000  1
  O  O5  1  0.752173  0.275013  0.752173  1
  O  O6  1  0.247826  0.247827  0.724987  1
  O  O7  1  0.247826  0.724988  0.247826  1
  O  O8  1  0.724986  0.247827  0.247827  1
  O  O9  1  0.271265  0.271266  0.271265  1
  O  O10  1  0.728735  0.728735  0.728735  1
  O  O11  1  0.275014  0.752174  0.752173  1
  O  O12  1  0.752174  0.752174  0.275013  1
