# generated using pymatgen
data_Ca(AgO2)2
_symmetry_space_group_name_H-M   'P 1'
_cell_length_a   3.87659628
_cell_length_b   8.33415156
_cell_length_c   7.09777264
_cell_angle_alpha   82.91654709
_cell_angle_beta   74.46576185
_cell_angle_gamma   98.16294839
_symmetry_Int_Tables_number   1
_chemical_formula_structural   Ca(AgO2)2
_chemical_formula_sum   'Ca2 Ag4 O8'
_cell_volume   215.54831133
_cell_formula_units_Z   2
loop_
 _symmetry_equiv_pos_site_id
 _symmetry_equiv_pos_as_xyz
  1  'x, y, z'
loop_
 _atom_site_type_symbol
 _atom_site_label
 _atom_site_symmetry_multiplicity
 _atom_site_fract_x
 _atom_site_fract_y
 _atom_site_fract_z
 _atom_site_occupancy
  Ca  Ca0  1  0.308148  0.169443  0.157534  1
  Ca  Ca1  1  0.694116  0.808688  0.875487  1
  Ag  Ag2  1  0.660655  0.160550  0.558949  1
  Ag  Ag3  1  0.093391  0.513529  0.208127  1
  Ag  Ag4  1  0.908797  0.464713  0.824561  1
  Ag  Ag5  1  0.341773  0.817759  0.474244  1
  O  O6  1  0.878877  0.650488  0.614808  1
  O  O7  1  0.565266  0.264227  0.800920  1
  O  O8  1  0.437423  0.713753  0.232138  1
  O  O9  1  0.123348  0.327454  0.418399  1
  O  O10  1  0.295976  0.949799  0.711482  1
  O  O11  1  0.878104  0.325781  0.089267  1
  O  O12  1  0.706133  0.028265  0.321470  1
  O  O13  1  0.124303  0.652355  0.944056  1
