# generated using pymatgen
data_HoTi2ZnO6
_symmetry_space_group_name_H-M   'P 1'
_cell_length_a   5.27312504
_cell_length_b   5.49526827
_cell_length_c   7.63853305
_cell_angle_alpha   90.02047252
_cell_angle_beta   90.00697543
_cell_angle_gamma   89.97605626
_symmetry_Int_Tables_number   1
_chemical_formula_structural   HoTi2ZnO6
_chemical_formula_sum   'Ho2 Ti4 Zn2 O12'
_cell_volume   221.34354513
_cell_formula_units_Z   2
loop_
 _symmetry_equiv_pos_site_id
 _symmetry_equiv_pos_as_xyz
  1  'x, y, z'
loop_
 _atom_site_type_symbol
 _atom_site_label
 _atom_site_symmetry_multiplicity
 _atom_site_fract_x
 _atom_site_fract_y
 _atom_site_fract_z
 _atom_site_occupancy
  Ho  Ho0  1  0.017026  0.926811  0.749819  1
  Ho  Ho1  1  0.516893  0.573051  0.250173  1
  Ti  Ti2  1  0.003014  0.481644  0.002099  1
  Ti  Ti3  1  0.003008  0.481647  0.497850  1
  Ti  Ti4  1  0.503113  0.018324  0.502062  1
  Ti  Ti5  1  0.503178  0.018340  0.997994  1
  Zn  Zn6  1  0.495940  0.483256  0.750064  1
  Zn  Zn7  1  0.995908  0.016856  0.249941  1
  O  O8  1  0.107605  0.450938  0.250029  1
  O  O9  1  0.188557  0.193266  0.939647  1
  O  O10  1  0.188736  0.193524  0.560201  1
  O  O11  1  0.311794  0.691693  0.939253  1
  O  O12  1  0.312006  0.691691  0.560649  1
  O  O13  1  0.372266  0.965433  0.250061  1
  O  O14  1  0.607671  0.048865  0.749992  1
  O  O15  1  0.688675  0.306528  0.439700  1
  O  O16  1  0.688526  0.306652  0.060371  1
  O  O17  1  0.811845  0.808361  0.060665  1
  O  O18  1  0.811933  0.808442  0.439469  1
  O  O19  1  0.872302  0.534676  0.749959  1
