# generated using pymatgen
data_MgFe2CoO7
_symmetry_space_group_name_H-M   'P 1'
_cell_length_a   7.13981414
_cell_length_b   10.87651808
_cell_length_c   13.33319707
_cell_angle_alpha   90.00000000
_cell_angle_beta   90.00000000
_cell_angle_gamma   108.38413667
_symmetry_Int_Tables_number   1
_chemical_formula_structural   MgFe2CoO7
_chemical_formula_sum   'Mg8 Fe16 Co8 O56'
_cell_volume   982.56330091
_cell_formula_units_Z   8
loop_
 _symmetry_equiv_pos_site_id
 _symmetry_equiv_pos_as_xyz
  1  'x, y, z'
loop_
 _atom_site_type_symbol
 _atom_site_label
 _atom_site_symmetry_multiplicity
 _atom_site_fract_x
 _atom_site_fract_y
 _atom_site_fract_z
 _atom_site_occupancy
  Mg  Mg0  1  0.048814  0.772820  0.488469  1
  Mg  Mg1  1  0.312338  0.946261  0.862617  1
  Mg  Mg2  1  0.687662  0.553739  0.362617  1
  Mg  Mg3  1  0.687662  0.053739  0.137383  1
  Mg  Mg4  1  0.312338  0.446261  0.637383  1
  Mg  Mg5  1  0.048814  0.272820  0.011531  1
  Mg  Mg6  1  0.951186  0.227180  0.511531  1
  Mg  Mg7  1  0.951186  0.727180  0.988469  1
  Fe  Fe8  1  0.826617  0.970182  0.878543  1
  Fe  Fe9  1  0.414361  0.685579  0.007990  1
  Fe  Fe10  1  0.414361  0.185579  0.492010  1
  Fe  Fe11  1  0.585639  0.314421  0.992010  1
  Fe  Fe12  1  0.471427  0.765017  0.715163  1
  Fe  Fe13  1  0.528573  0.734983  0.215163  1
  Fe  Fe14  1  0.528573  0.234983  0.284837  1
  Fe  Fe15  1  0.471427  0.265017  0.784837  1
  Fe  Fe16  1  0.585639  0.814421  0.507990  1
  Fe  Fe17  1  0.877460  0.458948  0.155350  1
  Fe  Fe18  1  0.122540  0.041052  0.655350  1
  Fe  Fe19  1  0.122540  0.541052  0.844650  1
  Fe  Fe20  1  0.173383  0.529818  0.378543  1
  Fe  Fe21  1  0.826617  0.470182  0.621457  1
  Fe  Fe22  1  0.173383  0.029818  0.121457  1
  Fe  Fe23  1  0.877460  0.958948  0.344650  1
  Co  Co24  1  0.621233  0.067917  0.683144  1
  Co  Co25  1  0.378767  0.432083  0.183144  1
  Co  Co26  1  0.378767  0.932083  0.316856  1
  Co  Co27  1  0.621233  0.567917  0.816856  1
  Co  Co28  1  0.977876  0.247931  0.767066  1
  Co  Co29  1  0.022124  0.252069  0.267066  1
  Co  Co30  1  0.022124  0.752069  0.232934  1
  Co  Co31  1  0.977876  0.747931  0.732934  1
  O  O32  1  0.758836  0.968364  0.010723  1
  O  O33  1  0.241164  0.531636  0.510723  1
  O  O34  1  0.241164  0.031636  0.989277  1
  O  O35  1  0.758836  0.468364  0.489277  1
  O  O36  1  0.993460  0.871380  0.846098  1
  O  O37  1  0.006540  0.628620  0.346098  1
  O  O38  1  0.006540  0.128620  0.153902  1
  O  O39  1  0.993460  0.371380  0.653902  1
  O  O40  1  0.994377  0.143348  0.875288  1
  O  O41  1  0.005623  0.356652  0.375288  1
  O  O42  1  0.005623  0.856652  0.124712  1
  O  O43  1  0.994377  0.643348  0.624712  1
  O  O44  1  0.636409  0.926349  0.269740  1
  O  O45  1  0.363591  0.573651  0.769740  1
  O  O46  1  0.363591  0.073651  0.730260  1
  O  O47  1  0.636409  0.426349  0.230260  1
  O  O48  1  0.991484  0.138164  0.367771  1
  O  O49  1  0.008516  0.361836  0.867771  1
  O  O50  1  0.008516  0.861836  0.632229  1
  O  O51  1  0.991484  0.638164  0.132229  1
  O  O52  1  0.095212  0.891755  0.334950  1
  O  O53  1  0.362856  0.829103  0.427690  1
  O  O54  1  0.904788  0.608245  0.834951  1
  O  O55  1  0.095212  0.391755  0.165049  1
  O  O56  1  0.733868  0.712437  0.460459  1
  O  O57  1  0.266132  0.787563  0.960459  1
  O  O58  1  0.266132  0.287563  0.539541  1
  O  O59  1  0.733868  0.212437  0.039541  1
  O  O60  1  0.795460  0.954945  0.477900  1
  O  O61  1  0.204540  0.545055  0.977900  1
  O  O62  1  0.204540  0.045055  0.522100  1
  O  O63  1  0.795460  0.454945  0.022100  1
  O  O64  1  0.437027  0.173352  0.913627  1
  O  O65  1  0.562973  0.326648  0.413627  1
  O  O66  1  0.562973  0.826648  0.086373  1
  O  O67  1  0.437027  0.673352  0.586373  1
  O  O68  1  0.709601  0.208464  0.767536  1
  O  O69  1  0.290399  0.291536  0.267536  1
  O  O70  1  0.290399  0.791536  0.232464  1
  O  O71  1  0.709601  0.708464  0.732464  1
  O  O72  1  0.592988  0.442386  0.700834  1
  O  O73  1  0.407012  0.057614  0.200834  1
  O  O74  1  0.407012  0.557614  0.299166  1
  O  O75  1  0.592988  0.942386  0.799166  1
  O  O76  1  0.227700  0.276193  0.732172  1
  O  O77  1  0.772300  0.223807  0.232172  1
  O  O78  1  0.772300  0.723807  0.267828  1
  O  O79  1  0.227700  0.776193  0.767828  1
  O  O80  1  0.524801  0.407440  0.881022  1
  O  O81  1  0.475199  0.092560  0.381022  1
  O  O82  1  0.475199  0.592560  0.118978  1
  O  O83  1  0.524801  0.907440  0.618978  1
  O  O84  1  0.362856  0.329103  0.072310  1
  O  O85  1  0.637144  0.170897  0.572310  1
  O  O86  1  0.637144  0.670897  0.927690  1
  O  O87  1  0.904788  0.108245  0.665049  1
