# generated using pymatgen
data_CaLaFeCoO6
_symmetry_space_group_name_H-M   'P 1'
_cell_length_a   5.45917967
_cell_length_b   5.47893292
_cell_length_c   7.78523426
_cell_angle_alpha   90.19508699
_cell_angle_beta   90.00000000
_cell_angle_gamma   90.00000000
_symmetry_Int_Tables_number   1
_chemical_formula_structural   CaLaFeCoO6
_chemical_formula_sum   'Ca2 La2 Fe2 Co2 O12'
_cell_volume   232.85873769
_cell_formula_units_Z   2
loop_
 _symmetry_equiv_pos_site_id
 _symmetry_equiv_pos_as_xyz
  1  'x, y, z'
loop_
 _atom_site_type_symbol
 _atom_site_label
 _atom_site_symmetry_multiplicity
 _atom_site_fract_x
 _atom_site_fract_y
 _atom_site_fract_z
 _atom_site_occupancy
  Ca  Ca0  1  0.536165  0.508959  0.250304  1
  Ca  Ca1  1  0.963835  0.008959  0.750304  1
  La  La2  1  0.026237  0.994969  0.249298  1
  La  La3  1  0.473763  0.494969  0.749298  1
  Fe  Fe4  1  0.500048  0.000274  0.000334  1
  Fe  Fe5  1  -0.000048  0.500274  0.500334  1
  Co  Co6  1  0.499256  -0.000131  0.499729  1
  Co  Co7  1  0.000744  0.499869  0.999729  1
  O  O8  1  0.011036  0.577515  0.748550  1
  O  O9  1  0.220715  0.215208  0.958029  1
  O  O10  1  0.225957  0.207765  0.540353  1
  O  O11  1  0.274043  0.707765  0.040353  1
  O  O12  1  0.279285  0.715208  0.458029  1
  O  O13  1  0.488964  0.077515  0.248549  1
  O  O14  1  0.514874  0.931027  0.751857  1
  O  O15  1  0.724250  0.278544  0.538438  1
  O  O16  1  0.730860  0.285870  0.963110  1
  O  O17  1  0.769140  0.785870  0.463110  1
  O  O18  1  0.775750  0.778544  0.038438  1
  O  O19  1  0.985126  0.431027  0.251857  1
