# generated using pymatgen
data_BaCaMn4O8
_symmetry_space_group_name_H-M   'P 1'
_cell_length_a   5.59210225
_cell_length_b   5.59210257
_cell_length_c   7.69329348
_cell_angle_alpha   90.00000000
_cell_angle_beta   90.00000000
_cell_angle_gamma   119.99999806
_symmetry_Int_Tables_number   1
_chemical_formula_structural   BaCaMn4O8
_chemical_formula_sum   'Ba1 Ca1 Mn4 O8'
_cell_volume   208.34984058
_cell_formula_units_Z   1
loop_
 _symmetry_equiv_pos_site_id
 _symmetry_equiv_pos_as_xyz
  1  'x, y, z'
loop_
 _atom_site_type_symbol
 _atom_site_label
 _atom_site_symmetry_multiplicity
 _atom_site_fract_x
 _atom_site_fract_y
 _atom_site_fract_z
 _atom_site_occupancy
  Ba  Ba0  1  -0.000000  -0.000000  -0.000000  1
  Ca  Ca1  1  -0.000000  -0.000000  0.500000  1
  Mn  Mn2  1  0.333333  0.666667  0.755946  1
  Mn  Mn3  1  0.666667  0.333333  0.755946  1
  Mn  Mn4  1  0.333333  0.666667  0.244054  1
  Mn  Mn5  1  0.666667  0.333333  0.244054  1
  O  O6  1  0.324822  0.324822  0.700596  1
  O  O7  1  0.675178  -0.000000  0.700596  1
  O  O8  1  0.000000  0.675178  0.700596  1
  O  O9  1  0.675178  0.675178  0.299404  1
  O  O10  1  1.000000  0.324822  0.299404  1
  O  O11  1  0.324822  -0.000000  0.299404  1
  O  O12  1  0.333333  0.666667  -0.000000  1
  O  O13  1  0.666667  0.333333  0.000000  1
