# generated using pymatgen
data_YRe(WO4)2
_symmetry_space_group_name_H-M   'P 1'
_cell_length_a   5.42944050
_cell_length_b   5.81742511
_cell_length_c   9.69315802
_cell_angle_alpha   90.01343652
_cell_angle_beta   91.73061608
_cell_angle_gamma   89.97643300
_symmetry_Int_Tables_number   1
_chemical_formula_structural   YRe(WO4)2
_chemical_formula_sum   'Y2 Re2 W4 O16'
_cell_volume   306.02223531
_cell_formula_units_Z   2
loop_
 _symmetry_equiv_pos_site_id
 _symmetry_equiv_pos_as_xyz
  1  'x, y, z'
loop_
 _atom_site_type_symbol
 _atom_site_label
 _atom_site_symmetry_multiplicity
 _atom_site_fract_x
 _atom_site_fract_y
 _atom_site_fract_z
 _atom_site_occupancy
  Y  Y0  1  0.249990  0.663607  0.249915  1
  Y  Y1  1  0.750038  0.336069  0.750089  1
  Re  Re2  1  0.749967  0.341379  0.250040  1
  Re  Re3  1  0.249967  0.658461  0.749952  1
  W  W4  1  0.245782  0.152304  0.500678  1
  W  W5  1  0.254302  0.152400  0.999326  1
  W  W6  1  0.754109  0.847606  0.499314  1
  W  W7  1  0.745843  0.847501  0.000693  1
  O  O8  1  0.439883  0.354230  0.141966  1
  O  O9  1  0.060158  0.354332  0.358056  1
  O  O10  1  0.559591  0.645875  0.857995  1
  O  O11  1  0.940351  0.645793  0.642024  1
  O  O12  1  0.410679  0.888503  0.618829  1
  O  O13  1  0.089272  0.888436  0.881164  1
  O  O14  1  0.589235  0.111655  0.381247  1
  O  O15  1  0.910897  0.111541  0.118712  1
  O  O16  1  0.886439  0.591509  0.130155  1
  O  O17  1  0.613435  0.591660  0.369911  1
  O  O18  1  0.112685  0.408630  0.870047  1
  O  O19  1  0.387383  0.408605  0.629907  1
  O  O20  1  0.416806  0.885129  0.102608  1
  O  O21  1  0.583486  0.114794  0.897402  1
  O  O22  1  0.083153  0.885090  0.397343  1
  O  O23  1  0.916548  0.114893  0.602631  1
