# generated using pymatgen
data_CaCoF5
_symmetry_space_group_name_H-M   'P 1'
_cell_length_a   5.57559172
_cell_length_b   7.67061261
_cell_length_c   10.09117726
_cell_angle_alpha   90.00000000
_cell_angle_beta   90.00000000
_cell_angle_gamma   109.96400118
_symmetry_Int_Tables_number   1
_chemical_formula_structural   CaCoF5
_chemical_formula_sum   'Ca4 Co4 F20'
_cell_volume   405.64664092
_cell_formula_units_Z   4
loop_
 _symmetry_equiv_pos_site_id
 _symmetry_equiv_pos_as_xyz
  1  'x, y, z'
loop_
 _atom_site_type_symbol
 _atom_site_label
 _atom_site_symmetry_multiplicity
 _atom_site_fract_x
 _atom_site_fract_y
 _atom_site_fract_z
 _atom_site_occupancy
  Ca  Ca0  1  0.470607  0.743655  0.020583  1
  Ca  Ca1  1  0.529393  0.756345  0.520583  1
  Ca  Ca2  1  0.529393  0.256345  0.979417  1
  Ca  Ca3  1  0.470607  0.243655  0.479417  1
  Co  Co4  1  0.893438  0.599308  0.753515  1
  Co  Co5  1  0.106562  0.900692  0.253515  1
  Co  Co6  1  0.106562  0.400692  0.246485  1
  Co  Co7  1  0.893438  0.099308  0.746485  1
  F  F8  1  0.611851  0.555844  0.882033  1
  F  F9  1  0.388149  0.944156  0.382033  1
  F  F10  1  0.388149  0.444156  0.117967  1
  F  F11  1  0.611851  0.055844  0.617967  1
  F  F12  1  0.645441  0.506430  0.614223  1
  F  F13  1  0.354559  0.993570  0.114223  1
  F  F14  1  0.354559  0.493570  0.385777  1
  F  F15  1  0.645441  0.006430  0.885777  1
  F  F16  1  0.881639  0.811733  0.392475  1
  F  F17  1  0.118361  0.688267  0.892475  1
  F  F18  1  0.118361  0.188267  0.607525  1
  F  F19  1  0.881639  0.311733  0.107525  1
  F  F20  1  0.829328  0.859412  0.137754  1
  F  F21  1  0.170672  0.640588  0.637754  1
  F  F22  1  0.170672  0.140588  0.862246  1
  F  F23  1  0.829328  0.359412  0.362246  1
  F  F24  1  0.845074  0.836696  0.701631  1
  F  F25  1  0.154926  0.663304  0.201631  1
  F  F26  1  0.154926  0.163304  0.298369  1
  F  F27  1  0.845074  0.336696  0.798369  1
