# generated using pymatgen
data_Bi3O7
_symmetry_space_group_name_H-M   'P 1'
_cell_length_a   6.90934815
_cell_length_b   12.08179178
_cell_length_c   7.93915337
_cell_angle_alpha   90.00000000
_cell_angle_beta   90.00000000
_cell_angle_gamma   90.00000000
_symmetry_Int_Tables_number   1
_chemical_formula_structural   Bi3O7
_chemical_formula_sum   'Bi12 O28'
_cell_volume   662.73913274
_cell_formula_units_Z   4
loop_
 _symmetry_equiv_pos_site_id
 _symmetry_equiv_pos_as_xyz
  1  'x, y, z'
loop_
 _atom_site_type_symbol
 _atom_site_label
 _atom_site_symmetry_multiplicity
 _atom_site_fract_x
 _atom_site_fract_y
 _atom_site_fract_z
 _atom_site_occupancy
  Bi  Bi0  1  0.258145  0.037146  0.255314  1
  Bi  Bi1  1  0.758145  0.962854  0.244686  1
  Bi  Bi2  1  0.741855  0.537146  0.744686  1
  Bi  Bi3  1  0.241855  0.462854  0.755314  1
  Bi  Bi4  1  0.256889  0.750000  0.234486  1
  Bi  Bi5  1  0.756889  0.250000  0.265514  1
  Bi  Bi6  1  0.743111  0.250000  0.765514  1
  Bi  Bi7  1  0.243111  0.750000  0.734486  1
  Bi  Bi8  1  0.758145  0.537146  0.244686  1
  Bi  Bi9  1  0.258145  0.462854  0.255314  1
  Bi  Bi10  1  0.241855  0.037146  0.755314  1
  Bi  Bi11  1  0.741855  0.962854  0.744686  1
  O  O12  1  0.938230  0.108350  0.715462  1
  O  O13  1  0.438230  0.891650  0.784538  1
  O  O14  1  0.061770  0.608350  0.284538  1
  O  O15  1  0.561770  0.391650  0.215462  1
  O  O16  1  0.061770  0.891650  0.284538  1
  O  O17  1  0.561770  0.108350  0.215462  1
  O  O18  1  0.938230  0.391650  0.715462  1
  O  O19  1  0.438230  0.608350  0.784538  1
  O  O20  1  0.550663  0.107050  0.798841  1
  O  O21  1  0.050663  0.892950  0.701159  1
  O  O22  1  0.449337  0.607050  0.201159  1
  O  O23  1  0.949337  0.392950  0.298841  1
  O  O24  1  0.449337  0.892950  0.201159  1
  O  O25  1  0.949337  0.107050  0.298841  1
  O  O26  1  0.550663  0.392950  0.798841  1
  O  O27  1  0.050663  0.607050  0.701159  1
  O  O28  1  0.347780  0.750000  0.487430  1
  O  O29  1  0.847780  0.250000  0.012570  1
  O  O30  1  0.652220  0.250000  0.512570  1
  O  O31  1  0.152220  0.750000  0.987430  1
  O  O32  1  0.183432  0.416620  0.006991  1
  O  O33  1  0.683432  0.583380  0.493009  1
  O  O34  1  0.816568  0.916620  0.993009  1
  O  O35  1  0.316568  0.083380  0.506991  1
  O  O36  1  0.816568  0.583380  0.993009  1
  O  O37  1  0.316568  0.416620  0.506991  1
  O  O38  1  0.183432  0.083380  0.006991  1
  O  O39  1  0.683432  0.916620  0.493009  1
