# generated using pymatgen
data_CaNi(GeO3)2
_symmetry_space_group_name_H-M   'P 1'
_cell_length_a   5.47397483
_cell_length_b   6.83714772
_cell_length_c   6.83714738
_cell_angle_alpha   83.05138949
_cell_angle_beta   78.25557564
_cell_angle_gamma   78.25557110
_symmetry_Int_Tables_number   1
_chemical_formula_structural   CaNi(GeO3)2
_chemical_formula_sum   'Ca2 Ni2 Ge4 O12'
_cell_volume   244.44175788
_cell_formula_units_Z   2
loop_
 _symmetry_equiv_pos_site_id
 _symmetry_equiv_pos_as_xyz
  1  'x, y, z'
loop_
 _atom_site_type_symbol
 _atom_site_label
 _atom_site_symmetry_multiplicity
 _atom_site_fract_x
 _atom_site_fract_y
 _atom_site_fract_z
 _atom_site_occupancy
  Ca  Ca0  1  0.750000  0.300099  0.699901  1
  Ca  Ca1  1  0.250000  0.699901  0.300099  1
  Ni  Ni2  1  0.750000  0.910222  0.089778  1
  Ni  Ni3  1  0.250000  0.089778  0.910222  1
  Ge  Ge4  1  0.781825  0.382506  0.185716  1
  Ge  Ge5  1  0.718175  0.814284  0.617494  1
  Ge  Ge6  1  0.218175  0.617494  0.814284  1
  Ge  Ge7  1  0.281825  0.185716  0.382506  1
  O  O8  1  0.523395  0.328455  0.388856  1
  O  O9  1  0.976605  0.611144  0.671545  1
  O  O10  1  0.476605  0.671545  0.611144  1
  O  O11  1  0.023395  0.388856  0.328455  1
  O  O12  1  0.161449  0.103173  0.625788  1
  O  O13  1  0.338551  0.374212  0.896827  1
  O  O14  1  0.838551  0.896827  0.374212  1
  O  O15  1  0.661449  0.625788  0.103173  1
  O  O16  1  0.868941  0.196645  0.017153  1
  O  O17  1  0.631059  0.982847  0.803355  1
  O  O18  1  0.131059  0.803355  0.982847  1
  O  O19  1  0.368941  0.017153  0.196645  1
