# generated using pymatgen
data_Ba2Sn2F11
_symmetry_space_group_name_H-M   'P 1'
_cell_length_a   7.80426833
_cell_length_b   7.80426767
_cell_length_c   15.00167249
_cell_angle_alpha   90.00000000
_cell_angle_beta   90.00000000
_cell_angle_gamma   119.99999573
_symmetry_Int_Tables_number   1
_chemical_formula_structural   Ba2Sn2F11
_chemical_formula_sum   'Ba6 Sn6 F33'
_cell_volume   791.28818229
_cell_formula_units_Z   3
loop_
 _symmetry_equiv_pos_site_id
 _symmetry_equiv_pos_as_xyz
  1  'x, y, z'
loop_
 _atom_site_type_symbol
 _atom_site_label
 _atom_site_symmetry_multiplicity
 _atom_site_fract_x
 _atom_site_fract_y
 _atom_site_fract_z
 _atom_site_occupancy
  Ba  Ba0  1  0.516407  0.147080  0.657342  1
  Ba  Ba1  1  0.144616  0.413600  0.809256  1
  Ba  Ba2  1  0.630674  0.483593  0.990675  1
  Ba  Ba3  1  0.586400  0.731016  0.475922  1
  Ba  Ba4  1  0.268984  0.855384  0.142589  1
  Ba  Ba5  1  0.852920  0.369326  0.324008  1
  Sn  Sn6  1  0.541394  0.969519  0.897908  1
  Sn  Sn7  1  0.838251  0.797660  0.727249  1
  Sn  Sn8  1  0.202340  0.040591  0.393915  1
  Sn  Sn9  1  0.428126  0.458606  0.231241  1
  Sn  Sn10  1  0.959409  0.161749  0.060582  1
  Sn  Sn11  1  0.030481  0.571874  0.564574  1
  F  F12  1  0.663737  0.058150  0.047379  1
  F  F13  1  0.422966  0.677665  0.944735  1
  F  F14  1  0.394413  0.336263  0.380712  1
  F  F15  1  0.154895  0.483618  0.466529  1
  F  F16  1  0.551482  0.285257  0.182390  1
  F  F17  1  0.943006  0.585863  0.188165  1
  F  F18  1  0.516382  0.671277  0.133196  1
  F  F19  1  0.414137  0.357145  0.854832  1
  F  F20  1  0.733775  0.448518  0.515723  1
  F  F21  1  0.253385  0.288130  0.080270  1
  F  F22  1  0.328723  0.845105  0.799863  1
  F  F23  1  0.941850  0.605587  0.714046  1
  F  F24  1  0.352383  0.021734  0.973322  1
  F  F25  1  0.998975  0.426681  0.020936  1
  F  F26  1  0.669351  0.647617  0.306655  1
  F  F27  1  0.322335  0.745301  0.611401  1
  F  F28  1  0.956020  0.116083  0.928431  1
  F  F29  1  0.034744  0.746615  0.413603  1
  F  F30  1  0.956578  0.059590  0.405755  1
  F  F31  1  0.978266  0.330649  0.639988  1
  F  F32  1  0.103012  0.043422  0.739089  1
  F  F33  1  0.573319  0.572294  0.687603  1
  F  F34  1  0.427706  0.001025  0.354269  1
  F  F35  1  0.160062  0.043980  0.261764  1
  F  F36  1  0.711870  0.965256  0.746937  1
  F  F37  1  0.714742  0.266225  0.849057  1
  F  F38  1  0.254699  0.577034  0.278068  1
  F  F39  1  0.821922  0.731981  0.856401  1
  F  F40  1  0.910059  0.178078  0.189734  1
  F  F41  1  0.940410  0.896988  0.072422  1
  F  F42  1  0.642855  0.056994  0.521498  1
  F  F43  1  0.883917  0.839938  0.595097  1
  F  F44  1  0.268019  0.089941  0.523067  1
