# generated using pymatgen
data_Ba2TlMo2O7
_symmetry_space_group_name_H-M   'P 1'
_cell_length_a   3.96925510
_cell_length_b   3.98685621
_cell_length_c   13.33729603
_cell_angle_alpha   90.00002558
_cell_angle_beta   90.00001228
_cell_angle_gamma   90.00005202
_symmetry_Int_Tables_number   1
_chemical_formula_structural   Ba2TlMo2O7
_chemical_formula_sum   'Ba2 Tl1 Mo2 O7'
_cell_volume   211.06070034
_cell_formula_units_Z   1
loop_
 _symmetry_equiv_pos_site_id
 _symmetry_equiv_pos_as_xyz
  1  'x, y, z'
loop_
 _atom_site_type_symbol
 _atom_site_label
 _atom_site_symmetry_multiplicity
 _atom_site_fract_x
 _atom_site_fract_y
 _atom_site_fract_z
 _atom_site_occupancy
  Ba  Ba0  1  0.999961  1.000000  0.697553  1
  Ba  Ba1  1  0.999966  0.000001  0.302317  1
  Tl  Tl2  1  0.499617  0.500002  0.500029  1
  Mo  Mo3  1  0.499970  0.500000  0.860815  1
  Mo  Mo4  1  0.499973  0.500000  0.139153  1
  O  O5  1  0.000637  0.999998  0.500006  1
  O  O6  1  0.499973  1.000000  0.866331  1
  O  O7  1  0.999977  0.500000  0.867242  1
  O  O8  1  0.499976  0.000000  0.133766  1
  O  O9  1  0.999981  0.500001  0.132764  1
  O  O10  1  0.499980  0.499999  0.711292  1
  O  O11  1  0.499986  0.500001  0.288696  1
