# generated using pymatgen
data_ZnCu2(SnO4)2
_symmetry_space_group_name_H-M   'P 1'
_cell_length_a   6.23879174
_cell_length_b   8.84698573
_cell_length_c   12.12390422
_cell_angle_alpha   90.00000000
_cell_angle_beta   89.20189975
_cell_angle_gamma   90.00000000
_symmetry_Int_Tables_number   1
_chemical_formula_structural   ZnCu2(SnO4)2
_chemical_formula_sum   'Zn4 Cu8 Sn8 O32'
_cell_volume   669.10793044
_cell_formula_units_Z   4
loop_
 _symmetry_equiv_pos_site_id
 _symmetry_equiv_pos_as_xyz
  1  'x, y, z'
loop_
 _atom_site_type_symbol
 _atom_site_label
 _atom_site_symmetry_multiplicity
 _atom_site_fract_x
 _atom_site_fract_y
 _atom_site_fract_z
 _atom_site_occupancy
  Zn  Zn0  1  0.101571  0.148054  0.029472  1
  Zn  Zn1  1  0.898429  0.851946  0.970528  1
  Zn  Zn2  1  0.898429  0.648054  0.470528  1
  Zn  Zn3  1  0.101571  0.351946  0.529472  1
  Cu  Cu4  1  0.753290  0.190659  0.832488  1
  Cu  Cu5  1  0.373674  0.073950  0.602927  1
  Cu  Cu6  1  0.626326  0.926050  0.397073  1
  Cu  Cu7  1  0.246710  0.809341  0.167512  1
  Cu  Cu8  1  0.753290  0.309341  0.332488  1
  Cu  Cu9  1  0.373674  0.426050  0.102927  1
  Cu  Cu10  1  0.246710  0.690659  0.667512  1
  Cu  Cu11  1  0.626326  0.573950  0.897073  1
  Sn  Sn12  1  0.091836  0.450809  0.845736  1
  Sn  Sn13  1  0.091836  0.049191  0.345736  1
  Sn  Sn14  1  0.564086  0.065918  0.151248  1
  Sn  Sn15  1  0.908164  0.950809  0.654264  1
  Sn  Sn16  1  0.435914  0.934082  0.848752  1
  Sn  Sn17  1  0.435914  0.565918  0.348752  1
  Sn  Sn18  1  0.564086  0.434082  0.651248  1
  Sn  Sn19  1  0.908164  0.549191  0.154264  1
  O  O20  1  0.034675  0.268296  0.371061  1
  O  O21  1  0.653225  0.017622  0.570257  1
  O  O22  1  0.196721  0.556085  0.459103  1
  O  O23  1  0.803279  0.056085  0.040897  1
  O  O24  1  0.034675  0.231703  0.871061  1
  O  O25  1  0.965325  0.731703  0.628939  1
  O  O26  1  0.084934  0.126037  0.598431  1
  O  O27  1  0.527445  0.845912  0.198078  1
  O  O28  1  0.527445  0.654088  0.698078  1
  O  O29  1  0.279192  0.898410  0.697549  1
  O  O30  1  0.720808  0.398410  0.802451  1
  O  O31  1  0.472555  0.154088  0.801922  1
  O  O32  1  0.915066  0.873963  0.401569  1
  O  O33  1  0.796260  0.520907  0.313636  1
  O  O34  1  0.414519  0.276627  0.558331  1
  O  O35  1  0.414519  0.223373  0.058331  1
  O  O36  1  0.203740  0.020907  0.186364  1
  O  O37  1  0.472555  0.345912  0.301922  1
  O  O38  1  0.203740  0.479093  0.686364  1
  O  O39  1  0.803279  0.443915  0.540897  1
  O  O40  1  0.653225  0.482378  0.070257  1
  O  O41  1  0.720808  0.101590  0.302451  1
  O  O42  1  0.965325  0.768297  0.128939  1
  O  O43  1  0.084934  0.373963  0.098431  1
  O  O44  1  0.196721  0.943915  0.959103  1
  O  O45  1  0.585481  0.776627  0.941669  1
  O  O46  1  0.346775  0.982378  0.429743  1
  O  O47  1  0.346775  0.517622  0.929743  1
  O  O48  1  0.915066  0.626037  0.901569  1
  O  O49  1  0.585481  0.723373  0.441669  1
  O  O50  1  0.279192  0.601590  0.197549  1
  O  O51  1  0.796260  0.979093  0.813636  1
