# generated using pymatgen
data_YNiO3
_symmetry_space_group_name_H-M   'P 1'
_cell_length_a   5.20054177
_cell_length_b   5.54894987
_cell_length_c   7.39463183
_cell_angle_alpha   89.99945835
_cell_angle_beta   89.98603149
_cell_angle_gamma   89.99940440
_symmetry_Int_Tables_number   1
_chemical_formula_structural   YNiO3
_chemical_formula_sum   'Y4 Ni4 O12'
_cell_volume   213.39091881
_cell_formula_units_Z   4
loop_
 _symmetry_equiv_pos_site_id
 _symmetry_equiv_pos_as_xyz
  1  'x, y, z'
loop_
 _atom_site_type_symbol
 _atom_site_label
 _atom_site_symmetry_multiplicity
 _atom_site_fract_x
 _atom_site_fract_y
 _atom_site_fract_z
 _atom_site_occupancy
  Y  Y0  1  0.019996  0.926219  0.750067  1
  Y  Y1  1  0.519970  0.573853  0.249955  1
  Y  Y2  1  0.480029  0.426146  0.750046  1
  Y  Y3  1  0.980005  0.073781  0.249933  1
  Ni  Ni4  1  0.000002  0.500001  0.499999  1
  Ni  Ni5  1  0.500002  0.999999  0.500000  1
  Ni  Ni6  1  0.500001  -0.000000  0.000000  1
  Ni  Ni7  1  0.999996  0.500003  -0.000000  1
  O  O8  1  0.696085  0.301986  0.449782  1
  O  O9  1  0.195655  0.198451  0.550204  1
  O  O10  1  0.804103  0.801851  0.050135  1
  O  O11  1  0.304205  0.698226  0.949859  1
  O  O12  1  0.303916  0.698014  0.550218  1
  O  O13  1  0.804346  0.801548  0.449796  1
  O  O14  1  0.195896  0.198150  0.949865  1
  O  O15  1  0.695794  0.301774  0.050141  1
  O  O16  1  0.101103  0.469713  0.250122  1
  O  O17  1  0.601093  0.030271  0.750107  1
  O  O18  1  0.398907  0.969728  0.249894  1
  O  O19  1  0.898896  0.530287  0.749877  1
