# generated using pymatgen
data_Sr2Y2W2O7
_symmetry_space_group_name_H-M   'P 1'
_cell_length_a   12.63872558
_cell_length_b   12.63872558
_cell_length_c   12.63872558
_cell_angle_alpha   38.87917877
_cell_angle_beta   152.37216116
_cell_angle_gamma   153.18819845
_symmetry_Int_Tables_number   1
_chemical_formula_structural   Sr2Y2W2O7
_chemical_formula_sum   'Sr4 Y4 W4 O14'
_cell_volume   421.56099370
_cell_formula_units_Z   2
loop_
 _symmetry_equiv_pos_site_id
 _symmetry_equiv_pos_as_xyz
  1  'x, y, z'
loop_
 _atom_site_type_symbol
 _atom_site_label
 _atom_site_symmetry_multiplicity
 _atom_site_fract_x
 _atom_site_fract_y
 _atom_site_fract_z
 _atom_site_occupancy
  Sr  Sr0  1  0.037268  0.844039  0.893725  1
  Sr  Sr1  1  0.950315  0.143543  0.106275  1
  Sr  Sr2  1  0.037268  0.643543  0.693228  1
  Sr  Sr3  1  0.950315  0.344039  0.306772  1
  Y  Y4  1  0.036539  0.536539  0.500000  1
  Y  Y5  1  0.036539  0.036539  -0.000000  1
  Y  Y6  1  0.534489  0.718550  0.315941  1
  Y  Y7  1  0.402609  0.218550  0.684059  1
  W  W8  1  0.531075  0.465234  0.929911  1
  W  W9  1  0.535322  0.601166  0.070089  1
  W  W10  1  0.531075  0.101166  0.565843  1
  W  W11  1  0.535322  0.965234  0.434157  1
  O  O12  1  0.999195  0.845115  0.654080  1
  O  O13  1  0.191036  0.345115  0.345920  1
  O  O14  1  0.406334  0.148000  0.117724  1
  O  O15  1  0.030276  0.288611  0.882276  1
  O  O16  1  0.406334  0.788611  0.758334  1
  O  O17  1  0.030276  0.648000  0.241666  1
  O  O18  1  0.672777  0.783410  0.746993  1
  O  O19  1  0.036416  0.925784  0.253007  1
  O  O20  1  0.672777  0.425784  0.389368  1
  O  O21  1  0.036416  0.283410  0.610632  1
  O  O22  1  0.510159  0.891974  0.282121  1
  O  O23  1  0.609853  0.228036  0.717879  1
  O  O24  1  0.510159  0.728036  0.118185  1
  O  O25  1  0.609853  0.391974  0.881815  1
