# generated using pymatgen
data_CaMn2O4
_symmetry_space_group_name_H-M   'P 1'
_cell_length_a   2.98320570
_cell_length_b   8.60675159
_cell_length_c   7.46842457
_cell_angle_alpha   71.87444572
_cell_angle_beta   78.48444480
_cell_angle_gamma   80.02284429
_symmetry_Int_Tables_number   1
_chemical_formula_structural   CaMn2O4
_chemical_formula_sum   'Ca2 Mn4 O8'
_cell_volume   177.29662009
_cell_formula_units_Z   2
loop_
 _symmetry_equiv_pos_site_id
 _symmetry_equiv_pos_as_xyz
  1  'x, y, z'
loop_
 _atom_site_type_symbol
 _atom_site_label
 _atom_site_symmetry_multiplicity
 _atom_site_fract_x
 _atom_site_fract_y
 _atom_site_fract_z
 _atom_site_occupancy
  Ca  Ca0  1  0.336032  0.165054  0.162705  1
  Ca  Ca1  1  0.658325  0.812302  0.871400  1
  Mn  Mn2  1  0.599427  0.175987  0.625479  1
  Mn  Mn3  1  0.143112  0.504300  0.209505  1
  Mn  Mn4  1  0.852293  0.473256  0.822312  1
  Mn  Mn5  1  0.396194  0.800703  0.406816  1
  O  O6  1  0.868169  0.696336  0.567380  1
  O  O7  1  0.429925  0.321528  0.818770  1
  O  O8  1  0.565523  0.655904  0.213107  1
  O  O9  1  0.128515  0.279296  0.463948  1
  O  O10  1  0.111012  0.022129  0.756304  1
  O  O11  1  0.742597  0.371086  0.143781  1
  O  O12  1  0.884460  0.954732  0.276049  1
  O  O13  1  0.252693  0.606721  0.888064  1
