# generated using pymatgen
data_Y(NiO2)2
_symmetry_space_group_name_H-M   'P 1'
_cell_length_a   5.61651246
_cell_length_b   5.60501191
_cell_length_c   6.22765556
_cell_angle_alpha   116.65786430
_cell_angle_beta   116.71724557
_cell_angle_gamma   90.17126120
_symmetry_Int_Tables_number   1
_chemical_formula_structural   Y(NiO2)2
_chemical_formula_sum   'Y2 Ni4 O8'
_cell_volume   151.27149998
_cell_formula_units_Z   2
loop_
 _symmetry_equiv_pos_site_id
 _symmetry_equiv_pos_as_xyz
  1  'x, y, z'
loop_
 _atom_site_type_symbol
 _atom_site_label
 _atom_site_symmetry_multiplicity
 _atom_site_fract_x
 _atom_site_fract_y
 _atom_site_fract_z
 _atom_site_occupancy
  Y  Y0  1  0.874966  0.124966  0.749932  1
  Y  Y1  1  0.125034  0.875034  0.250068  1
  Ni  Ni2  1  0.500000  0.000000  0.000000  1
  Ni  Ni3  1  0.500000  0.500000  0.000000  1
  Ni  Ni4  1  0.000000  0.500000  0.500000  1
  Ni  Ni5  1  0.500000  0.500000  0.500000  1
  O  O6  1  0.713327  0.526639  0.849439  1
  O  O7  1  0.136112  0.822800  0.849439  1
  O  O8  1  0.286673  0.473361  0.150561  1
  O  O9  1  0.863888  0.177200  0.150561  1
  O  O10  1  0.527563  0.136522  0.349532  1
  O  O11  1  0.821969  0.713009  0.349532  1
  O  O12  1  0.178031  0.286991  0.650468  1
  O  O13  1  0.472437  0.863478  0.650468  1
