# generated using pymatgen
data_NiBiP2O9
_symmetry_space_group_name_H-M   'P 1'
_cell_length_a   6.58352932
_cell_length_b   8.04801967
_cell_length_c   14.35634655
_cell_angle_alpha   89.95076926
_cell_angle_beta   89.96770925
_cell_angle_gamma   89.83623462
_symmetry_Int_Tables_number   1
_chemical_formula_structural   NiBiP2O9
_chemical_formula_sum   'Ni4 Bi4 P8 O36'
_cell_volume   760.65851902
_cell_formula_units_Z   4
loop_
 _symmetry_equiv_pos_site_id
 _symmetry_equiv_pos_as_xyz
  1  'x, y, z'
loop_
 _atom_site_type_symbol
 _atom_site_label
 _atom_site_symmetry_multiplicity
 _atom_site_fract_x
 _atom_site_fract_y
 _atom_site_fract_z
 _atom_site_occupancy
  Ni  Ni0  1  0.499986  0.000049  0.000004  1
  Ni  Ni1  1  0.500024  0.499970  0.500012  1
  Ni  Ni2  1  0.000007  0.499957  0.500014  1
  Ni  Ni3  1  0.000012  0.000027  0.000019  1
  Bi  Bi4  1  0.751035  0.342136  0.875023  1
  Bi  Bi5  1  0.248888  0.658031  0.124937  1
  Bi  Bi6  1  0.249732  0.841292  0.624814  1
  Bi  Bi7  1  0.750313  0.158690  0.375156  1
  P  P8  1  0.250540  0.341318  0.939076  1
  P  P9  1  0.749452  0.658769  0.060959  1
  P  P10  1  0.749798  0.841644  0.560862  1
  P  P11  1  0.250222  0.158315  0.439078  1
  P  P12  1  0.750207  0.392767  0.680027  1
  P  P13  1  0.249821  0.607305  0.319950  1
  P  P14  1  0.249724  0.891734  0.819837  1
  P  P15  1  0.750236  0.108163  0.180171  1
  O  O16  1  0.054311  0.590989  0.377705  1
  O  O17  1  0.555057  0.409088  0.622215  1
  O  O18  1  0.945150  0.091994  0.122016  1
  O  O19  1  0.444792  0.907444  0.877779  1
  O  O20  1  0.945455  0.409092  0.622250  1
  O  O21  1  0.445241  0.590936  0.377718  1
  O  O22  1  0.054708  0.908045  0.877973  1
  O  O23  1  0.555214  0.092260  0.122294  1
  O  O24  1  0.250041  0.335005  0.480198  1
  O  O25  1  0.749938  0.664946  0.519729  1
  O  O26  1  0.749924  0.835528  0.020074  1
  O  O27  1  0.250192  0.164652  0.980017  1
  O  O28  1  0.751078  0.128919  0.953605  1
  O  O29  1  0.248857  0.871185  0.046427  1
  O  O30  1  0.250165  0.628826  0.545797  1
  O  O31  1  0.749878  0.370760  0.454545  1
  O  O32  1  0.750528  0.224131  0.735823  1
  O  O33  1  0.249345  0.776102  0.264244  1
  O  O34  1  0.249561  0.723035  0.764090  1
  O  O35  1  0.750520  0.276849  0.235928  1
  O  O36  1  0.430026  0.133417  0.369599  1
  O  O37  1  0.929285  0.865867  0.630415  1
  O  O38  1  0.569575  0.634276  0.130245  1
  O  O39  1  0.071209  0.367239  0.869562  1
  O  O40  1  0.570016  0.866599  0.630340  1
  O  O41  1  0.070743  0.134079  0.369511  1
  O  O42  1  0.430361  0.365805  0.869742  1
  O  O43  1  0.928722  0.632651  0.130479  1
  O  O44  1  0.750930  0.976031  0.263876  1
  O  O45  1  0.249026  0.024029  0.736138  1
  O  O46  1  0.250159  0.475074  0.236214  1
  O  O47  1  0.749974  0.524802  0.763737  1
  O  O48  1  0.750200  0.973824  0.484335  1
  O  O49  1  0.249833  0.026037  0.515553  1
  O  O50  1  0.250237  0.473352  0.015856  1
  O  O51  1  0.749749  0.526969  0.984031  1
