# generated using pymatgen
data_Mg3Fe4(WO4)6
_symmetry_space_group_name_H-M   'P 1'
_cell_length_a   7.13646217
_cell_length_b   8.46430039
_cell_length_c   10.32983155
_cell_angle_alpha   103.84380750
_cell_angle_beta   104.48958417
_cell_angle_gamma   101.46313760
_symmetry_Int_Tables_number   1
_chemical_formula_structural   Mg3Fe4(WO4)6
_chemical_formula_sum   'Mg3 Fe4 W6 O24'
_cell_volume   563.94804295
_cell_formula_units_Z   1
loop_
 _symmetry_equiv_pos_site_id
 _symmetry_equiv_pos_as_xyz
  1  'x, y, z'
loop_
 _atom_site_type_symbol
 _atom_site_label
 _atom_site_symmetry_multiplicity
 _atom_site_fract_x
 _atom_site_fract_y
 _atom_site_fract_z
 _atom_site_occupancy
  Mg  Mg0  1  -0.000000  0.500000  0.500000  1
  Mg  Mg1  1  0.270613  0.272497  0.784540  1
  Mg  Mg2  1  0.729387  0.727503  0.215460  1
  Fe  Fe3  1  0.382321  0.959509  0.606378  1
  Fe  Fe4  1  0.617679  0.040491  0.393622  1
  Fe  Fe5  1  0.046942  0.200320  0.013864  1
  Fe  Fe6  1  0.953058  0.799680  0.986136  1
  W  W7  1  0.777181  0.343821  0.730366  1
  W  W8  1  0.222819  0.656179  0.269634  1
  W  W9  1  0.900116  0.903083  0.665515  1
  W  W10  1  0.405961  0.718948  0.877908  1
  W  W11  1  0.099884  0.096917  0.334485  1
  W  W12  1  0.594039  0.281052  0.122092  1
  O  O13  1  0.895656  0.690781  0.566335  1
  O  O14  1  0.104344  0.309219  0.433665  1
  O  O15  1  0.285221  0.503207  0.760741  1
  O  O16  1  0.714779  0.496793  0.239259  1
  O  O17  1  0.790415  0.327208  0.553381  1
  O  O18  1  0.209586  0.672792  0.446619  1
  O  O19  1  0.671488  0.976466  0.585659  1
  O  O20  1  0.328512  0.023534  0.414341  1
  O  O21  1  0.640602  0.731218  0.012491  1
  O  O22  1  0.359398  0.268782  0.987509  1
  O  O23  1  0.473631  0.759154  0.267964  1
  O  O24  1  0.526369  0.240846  0.732036  1
  O  O25  1  0.146107  0.037502  0.658539  1
  O  O26  1  0.067293  0.045660  0.140279  1
  O  O27  1  0.932707  0.954340  0.859721  1
  O  O28  1  0.553281  0.145724  0.228246  1
  O  O29  1  0.446719  0.854276  0.771754  1
  O  O30  1  0.173989  0.437041  0.178669  1
  O  O31  1  0.826011  0.562959  0.821331  1
  O  O32  1  0.988467  0.277468  0.825459  1
  O  O33  1  0.011533  0.722532  0.174541  1
  O  O34  1  0.233415  0.777938  0.966538  1
  O  O35  1  0.766585  0.222062  0.033462  1
  O  O36  1  0.853893  0.962498  0.341461  1
