# generated using pymatgen
data_MoO3
_symmetry_space_group_name_H-M   'P 1'
_cell_length_a   5.29272317
_cell_length_b   5.38929846
_cell_length_c   7.54842889
_cell_angle_alpha   90.06867278
_cell_angle_beta   90.00374525
_cell_angle_gamma   90.00261106
_symmetry_Int_Tables_number   1
_chemical_formula_structural   MoO3
_chemical_formula_sum   'Mo4 O12'
_cell_volume   215.31171970
_cell_formula_units_Z   4
loop_
 _symmetry_equiv_pos_site_id
 _symmetry_equiv_pos_as_xyz
  1  'x, y, z'
loop_
 _atom_site_type_symbol
 _atom_site_label
 _atom_site_symmetry_multiplicity
 _atom_site_fract_x
 _atom_site_fract_y
 _atom_site_fract_z
 _atom_site_occupancy
  Mo  Mo0  1  0.500000  0.000000  0.000000  1
  Mo  Mo1  1  0.000000  0.500000  0.000000  1
  Mo  Mo2  1  0.000000  0.500000  0.500000  1
  Mo  Mo3  1  0.500000  0.000000  0.500000  1
  O  O4  1  0.715372  0.284139  0.463681  1
  O  O5  1  0.215308  0.215945  0.536327  1
  O  O6  1  0.787714  0.785355  0.035880  1
  O  O7  1  0.287835  0.714775  0.964146  1
  O  O8  1  0.284628  0.715861  0.536319  1
  O  O9  1  0.784692  0.784055  0.463673  1
  O  O10  1  0.212286  0.214645  0.964120  1
  O  O11  1  0.712165  0.285225  0.035854  1
  O  O12  1  0.071641  0.491233  0.249989  1
  O  O13  1  0.571674  0.008740  0.750022  1
  O  O14  1  0.428326  0.991260  0.249978  1
  O  O15  1  0.928359  0.508767  0.750011  1
