# generated using pymatgen
data_Ca5Cu2(IrO6)2
_symmetry_space_group_name_H-M   'P 1'
_cell_length_a   6.54819079
_cell_length_b   6.53722348
_cell_length_c   6.56897290
_cell_angle_alpha   91.88189832
_cell_angle_beta   90.75894167
_cell_angle_gamma   91.11121845
_symmetry_Int_Tables_number   1
_chemical_formula_structural   Ca5Cu2(IrO6)2
_chemical_formula_sum   'Ca5 Cu2 Ir2 O12'
_cell_volume   280.96629480
_cell_formula_units_Z   1
loop_
 _symmetry_equiv_pos_site_id
 _symmetry_equiv_pos_as_xyz
  1  'x, y, z'
loop_
 _atom_site_type_symbol
 _atom_site_label
 _atom_site_symmetry_multiplicity
 _atom_site_fract_x
 _atom_site_fract_y
 _atom_site_fract_z
 _atom_site_occupancy
  Ca  Ca0  1  0.755655  0.587811  0.398534  1
  Ca  Ca1  1  0.240831  0.397191  0.594588  1
  Ca  Ca2  1  0.620638  0.743983  0.894845  1
  Ca  Ca3  1  0.384285  0.253183  0.111632  1
  Ca  Ca4  1  0.115748  0.893949  0.735820  1
  Cu  Cu5  1  0.239093  0.813970  0.192730  1
  Cu  Cu6  1  0.753188  0.187879  0.819154  1
  Ir  Ir7  1  0.001557  0.495589  0.001722  1
  Ir  Ir8  1  0.508916  0.001647  0.497633  1
  O  O9  1  0.531109  0.895697  0.209338  1
  O  O10  1  0.955129  0.782470  0.090586  1
  O  O11  1  0.455088  0.096084  0.791139  1
  O  O12  1  0.051075  0.212939  0.885886  1
  O  O13  1  0.219085  0.032313  0.405664  1
  O  O14  1  0.291004  0.596969  0.965648  1
  O  O15  1  0.788484  0.964066  0.614696  1
  O  O16  1  0.703825  0.414798  0.028080  1
  O  O17  1  0.440240  0.714914  0.575542  1
  O  O18  1  0.075136  0.437320  0.282944  1
  O  O19  1  0.550745  0.292106  0.431104  1
  O  O20  1  0.936862  0.574860  0.712787  1
