# generated using pymatgen
data_Zn3Si3(WO6)2
_symmetry_space_group_name_H-M   'P 1'
_cell_length_a   10.52151751
_cell_length_b   10.52151780
_cell_length_c   10.52151745
_cell_angle_alpha   109.47122185
_cell_angle_beta   109.47122241
_cell_angle_gamma   109.47121833
_symmetry_Int_Tables_number   1
_chemical_formula_structural   Zn3Si3(WO6)2
_chemical_formula_sum   'Zn12 Si12 W8 O48'
_cell_volume   896.62999201
_cell_formula_units_Z   4
loop_
 _symmetry_equiv_pos_site_id
 _symmetry_equiv_pos_as_xyz
  1  'x, y, z'
loop_
 _atom_site_type_symbol
 _atom_site_label
 _atom_site_symmetry_multiplicity
 _atom_site_fract_x
 _atom_site_fract_y
 _atom_site_fract_z
 _atom_site_occupancy
  Zn  Zn0  1  0.375000  0.750000  0.125000  1
  Zn  Zn1  1  0.125000  0.250000  0.375000  1
  Zn  Zn2  1  0.375000  0.125000  0.250000  1
  Zn  Zn3  1  0.125000  0.375000  0.750000  1
  Zn  Zn4  1  0.875000  0.750000  0.625000  1
  Zn  Zn5  1  0.750000  0.125000  0.375000  1
  Zn  Zn6  1  0.750000  0.625000  0.875000  1
  Zn  Zn7  1  0.625000  0.250000  0.875000  1
  Zn  Zn8  1  0.250000  0.875000  0.625000  1
  Zn  Zn9  1  0.875000  0.625000  0.250000  1
  Zn  Zn10  1  0.625000  0.875000  0.750000  1
  Zn  Zn11  1  0.250000  0.375000  0.125000  1
  Si  Si12  1  0.250000  0.125000  0.875000  1
  Si  Si13  1  0.750000  0.875000  0.125000  1
  Si  Si14  1  0.375000  0.250000  0.625000  1
  Si  Si15  1  0.625000  0.375000  0.250000  1
  Si  Si16  1  0.125000  0.750000  0.875000  1
  Si  Si17  1  0.875000  0.125000  0.750000  1
  Si  Si18  1  0.750000  0.375000  0.625000  1
  Si  Si19  1  0.375000  0.625000  0.750000  1
  Si  Si20  1  0.125000  0.875000  0.250000  1
  Si  Si21  1  0.875000  0.250000  0.125000  1
  Si  Si22  1  0.625000  0.750000  0.375000  1
  Si  Si23  1  0.250000  0.625000  0.375000  1
  W  W24  1  0.000000  0.000000  0.000000  1
  W  W25  1  0.000000  0.500000  0.000000  1
  W  W26  1  0.000000  0.000000  0.500000  1
  W  W27  1  0.000000  0.500000  0.500000  1
  W  W28  1  0.500000  0.000000  0.500000  1
  W  W29  1  0.500000  0.500000  0.000000  1
  W  W30  1  0.500000  0.500000  0.500000  1
  W  W31  1  0.500000  0.000000  0.000000  1
  O  O32  1  0.280586  0.479592  0.373299  1
  O  O33  1  0.020408  0.300994  0.893707  1
  O  O34  1  0.126701  0.606293  0.907287  1
  O  O35  1  0.219414  0.592713  0.199006  1
  O  O36  1  0.219414  0.126701  0.020408  1
  O  O37  1  0.592713  0.199006  0.219414  1
  O  O38  1  0.606293  0.199006  0.479592  1
  O  O39  1  0.199006  0.219414  0.592713  1
  O  O40  1  0.893707  0.373299  0.592713  1
  O  O41  1  0.300994  0.907287  0.280586  1
  O  O42  1  0.907287  0.280586  0.300994  1
  O  O43  1  0.020408  0.219414  0.126701  1
  O  O44  1  0.199006  0.479592  0.606293  1
  O  O45  1  0.592713  0.893707  0.373299  1
  O  O46  1  0.126701  0.020408  0.219414  1
  O  O47  1  0.479592  0.606293  0.199006  1
  O  O48  1  0.373299  0.592713  0.893707  1
  O  O49  1  0.893707  0.020408  0.300994  1
  O  O50  1  0.606293  0.907287  0.126701  1
  O  O51  1  0.106293  0.626701  0.407287  1
  O  O52  1  0.907287  0.126701  0.606293  1
  O  O53  1  0.373299  0.280586  0.479592  1
  O  O54  1  0.300994  0.893707  0.020408  1
  O  O55  1  0.280586  0.300994  0.907287  1
  O  O56  1  0.719414  0.520408  0.626701  1
  O  O57  1  0.979592  0.699006  0.106293  1
  O  O58  1  0.873299  0.393707  0.092713  1
  O  O59  1  0.780586  0.407287  0.800994  1
  O  O60  1  0.780586  0.873299  0.979592  1
  O  O61  1  0.407287  0.800994  0.780586  1
  O  O62  1  0.393707  0.800994  0.520408  1
  O  O63  1  0.800994  0.780586  0.407287  1
  O  O64  1  0.719414  0.699006  0.092713  1
  O  O65  1  0.699006  0.106293  0.979592  1
  O  O66  1  0.626701  0.719414  0.520408  1
  O  O67  1  0.520408  0.626701  0.719414  1
  O  O68  1  0.092713  0.873299  0.393707  1
  O  O69  1  0.393707  0.092713  0.873299  1
  O  O70  1  0.106293  0.979592  0.699006  1
  O  O71  1  0.626701  0.407287  0.106293  1
  O  O72  1  0.520408  0.393707  0.800994  1
  O  O73  1  0.873299  0.979592  0.780586  1
  O  O74  1  0.407287  0.106293  0.626701  1
  O  O75  1  0.800994  0.520408  0.393707  1
  O  O76  1  0.979592  0.780586  0.873299  1
  O  O77  1  0.092713  0.719414  0.699006  1
  O  O78  1  0.699006  0.092713  0.719414  1
  O  O79  1  0.479592  0.373299  0.280586  1
