# generated using pymatgen
data_Ba2Mg3Tl2(SnO3)4
_symmetry_space_group_name_H-M   'P 1'
_cell_length_a   4.12986992
_cell_length_b   4.12986985
_cell_length_c   23.44613914
_cell_angle_alpha   95.05266300
_cell_angle_beta   95.05266383
_cell_angle_gamma   89.99999481
_symmetry_Int_Tables_number   1
_chemical_formula_structural   Ba2Mg3Tl2(SnO3)4
_chemical_formula_sum   'Ba2 Mg3 Tl2 Sn4 O12'
_cell_volume   396.77933085
_cell_formula_units_Z   1
loop_
 _symmetry_equiv_pos_site_id
 _symmetry_equiv_pos_as_xyz
  1  'x, y, z'
loop_
 _atom_site_type_symbol
 _atom_site_label
 _atom_site_symmetry_multiplicity
 _atom_site_fract_x
 _atom_site_fract_y
 _atom_site_fract_z
 _atom_site_occupancy
  Ba  Ba0  1  0.173044  0.173044  0.346087  1
  Ba  Ba1  1  0.826956  0.826956  0.653913  1
  Mg  Mg2  1  0.081102  0.081102  0.162204  1
  Mg  Mg3  1  0.918898  0.918898  0.837796  1
  Mg  Mg4  1  0.000000  0.000000  0.000000  1
  Tl  Tl5  1  0.726549  0.726549  0.453097  1
  Tl  Tl6  1  0.273451  0.273451  0.546903  1
  Sn  Sn7  1  0.530447  0.530447  0.060894  1
  Sn  Sn8  1  0.388431  0.388431  0.776861  1
  Sn  Sn9  1  0.611569  0.611569  0.223139  1
  Sn  Sn10  1  0.469553  0.469553  0.939106  1
  O  O11  1  0.402897  0.902897  0.805794  1
  O  O12  1  0.533270  0.033270  0.066541  1
  O  O13  1  0.223264  0.223264  0.446527  1
  O  O14  1  0.966730  0.466730  0.933459  1
  O  O15  1  0.776736  0.776736  0.553473  1
  O  O16  1  0.097103  0.597103  0.194206  1
  O  O17  1  0.597103  0.097103  0.194206  1
  O  O18  1  0.345509  0.345509  0.691019  1
  O  O19  1  0.902897  0.402897  0.805794  1
  O  O20  1  0.033270  0.533270  0.066541  1
  O  O21  1  0.466730  0.966730  0.933459  1
  O  O22  1  0.654491  0.654491  0.308981  1
