# generated using pymatgen
data_YMoO3
_symmetry_space_group_name_H-M   'P 1'
_cell_length_a   5.51937492
_cell_length_b   5.86300674
_cell_length_c   8.05104494
_cell_angle_alpha   89.99994522
_cell_angle_beta   90.00022479
_cell_angle_gamma   89.99988627
_symmetry_Int_Tables_number   1
_chemical_formula_structural   YMoO3
_chemical_formula_sum   'Y4 Mo4 O12'
_cell_volume   260.53287987
_cell_formula_units_Z   4
loop_
 _symmetry_equiv_pos_site_id
 _symmetry_equiv_pos_as_xyz
  1  'x, y, z'
loop_
 _atom_site_type_symbol
 _atom_site_label
 _atom_site_symmetry_multiplicity
 _atom_site_fract_x
 _atom_site_fract_y
 _atom_site_fract_z
 _atom_site_occupancy
  Y  Y0  1  0.021107  0.932561  0.749999  1
  Y  Y1  1  0.521108  0.567439  0.249999  1
  Y  Y2  1  0.478893  0.432562  0.750002  1
  Y  Y3  1  0.978893  0.067439  0.250001  1
  Mo  Mo4  1  0.000001  0.499999  0.499998  1
  Mo  Mo5  1  0.499998  -0.000001  0.499998  1
  Mo  Mo6  1  0.499999  0.999999  0.000002  1
  Mo  Mo7  1  0.000000  0.500000  0.000000  1
  O  O8  1  0.681988  0.311665  0.429283  1
  O  O9  1  0.181985  0.188334  0.570713  1
  O  O10  1  0.818014  0.811666  0.070717  1
  O  O11  1  0.318014  0.688334  0.929286  1
  O  O12  1  0.318012  0.688334  0.570717  1
  O  O13  1  0.818014  0.811666  0.429287  1
  O  O14  1  0.181986  0.188334  0.929283  1
  O  O15  1  0.681986  0.311668  0.070714  1
  O  O16  1  0.138213  0.435959  0.250000  1
  O  O17  1  0.638213  0.064041  0.750000  1
  O  O18  1  0.361787  0.935959  0.250001  1
  O  O19  1  0.861788  0.564041  0.750000  1
