# generated using pymatgen
data_Ca2Ti9O13
_symmetry_space_group_name_H-M   'P 1'
_cell_length_a   3.04832251
_cell_length_b   5.20316120
_cell_length_c   16.71736838
_cell_angle_alpha   98.80225244
_cell_angle_beta   89.99388922
_cell_angle_gamma   107.03836857
_symmetry_Int_Tables_number   1
_chemical_formula_structural   Ca2Ti9O13
_chemical_formula_sum   'Ca2 Ti9 O13'
_cell_volume   250.24812903
_cell_formula_units_Z   1
loop_
 _symmetry_equiv_pos_site_id
 _symmetry_equiv_pos_as_xyz
  1  'x, y, z'
loop_
 _atom_site_type_symbol
 _atom_site_label
 _atom_site_symmetry_multiplicity
 _atom_site_fract_x
 _atom_site_fract_y
 _atom_site_fract_z
 _atom_site_occupancy
  Ca  Ca0  1  0.214632  0.428892  0.228582  1
  Ca  Ca1  1  0.785368  0.571108  0.771418  1
  Ti  Ti2  1  0.500000  -0.000000  0.500000  1
  Ti  Ti3  1  0.656797  0.313940  0.035462  1
  Ti  Ti4  1  0.343203  0.686060  0.964538  1
  Ti  Ti5  1  0.760670  0.522673  0.426453  1
  Ti  Ti6  1  0.239330  0.477327  0.573547  1
  Ti  Ti7  1  0.929713  0.859491  0.114819  1
  Ti  Ti8  1  0.070287  0.140509  0.885181  1
  Ti  Ti9  1  0.990355  0.980060  0.340669  1
  Ti  Ti10  1  0.009645  0.019940  0.659331  1
  O  O11  1  -0.000000  -0.000000  0.000000  1
  O  O12  1  0.895026  0.789169  0.230257  1
  O  O13  1  0.104974  0.210831  0.769743  1
  O  O14  1  0.285174  0.570299  0.087060  1
  O  O15  1  0.714826  0.429701  0.912940  1
  O  O16  1  0.573725  0.146921  0.141412  1
  O  O17  1  0.426275  0.853079  0.858588  1
  O  O18  1  0.624249  0.247648  0.318228  1
  O  O19  1  0.375751  0.752352  0.681772  1
  O  O20  1  0.368632  0.737029  0.377873  1
  O  O21  1  0.631368  0.262971  0.622127  1
  O  O22  1  0.120557  0.241358  0.452623  1
  O  O23  1  0.879443  0.758642  0.547377  1
