# generated using pymatgen
data_ZnAgF5
_symmetry_space_group_name_H-M   'P 1'
_cell_length_a   5.35314583
_cell_length_b   7.97094679
_cell_length_c   10.13544661
_cell_angle_alpha   90.00000000
_cell_angle_beta   90.00000000
_cell_angle_gamma   110.94561756
_symmetry_Int_Tables_number   1
_chemical_formula_structural   ZnAgF5
_chemical_formula_sum   'Zn4 Ag4 F20'
_cell_volume   403.89792474
_cell_formula_units_Z   4
loop_
 _symmetry_equiv_pos_site_id
 _symmetry_equiv_pos_as_xyz
  1  'x, y, z'
loop_
 _atom_site_type_symbol
 _atom_site_label
 _atom_site_symmetry_multiplicity
 _atom_site_fract_x
 _atom_site_fract_y
 _atom_site_fract_z
 _atom_site_occupancy
  Zn  Zn0  1  0.485438  0.752365  0.002740  1
  Zn  Zn1  1  0.514562  0.747635  0.502740  1
  Zn  Zn2  1  0.514562  0.247635  0.997260  1
  Zn  Zn3  1  0.485438  0.252365  0.497260  1
  Ag  Ag4  1  0.896397  0.601393  0.753836  1
  Ag  Ag5  1  0.103603  0.898607  0.253836  1
  Ag  Ag6  1  0.103603  0.398607  0.246164  1
  Ag  Ag7  1  0.896397  0.101393  0.746164  1
  F  F8  1  0.593606  0.572672  0.895345  1
  F  F9  1  0.406394  0.927328  0.395345  1
  F  F10  1  0.406394  0.427328  0.104655  1
  F  F11  1  0.593606  0.072672  0.604655  1
  F  F12  1  0.630766  0.489798  0.602004  1
  F  F13  1  0.369234  0.010202  0.102004  1
  F  F14  1  0.369234  0.510202  0.397996  1
  F  F15  1  0.630766  0.989798  0.897996  1
  F  F16  1  0.848035  0.802825  0.412879  1
  F  F17  1  0.151965  0.697175  0.912879  1
  F  F18  1  0.151965  0.197175  0.587121  1
  F  F19  1  0.848035  0.302825  0.087121  1
  F  F20  1  0.773815  0.841519  0.122897  1
  F  F21  1  0.226185  0.658481  0.622897  1
  F  F22  1  0.226185  0.158481  0.877103  1
  F  F23  1  0.773815  0.341519  0.377103  1
  F  F24  1  0.848076  0.838660  0.684322  1
  F  F25  1  0.151924  0.661340  0.184322  1
  F  F26  1  0.151924  0.161340  0.315678  1
  F  F27  1  0.848076  0.338660  0.815678  1
