# generated using pymatgen
data_CaCo2(P2O7)2
_symmetry_space_group_name_H-M   'P 1'
_cell_length_a   6.71316449
_cell_length_b   6.42243714
_cell_length_c   6.48937722
_cell_angle_alpha   82.89602031
_cell_angle_beta   65.88095195
_cell_angle_gamma   87.18862847
_symmetry_Int_Tables_number   1
_chemical_formula_structural   CaCo2(P2O7)2
_chemical_formula_sum   'Ca1 Co2 P4 O14'
_cell_volume   253.40202054
_cell_formula_units_Z   1
loop_
 _symmetry_equiv_pos_site_id
 _symmetry_equiv_pos_as_xyz
  1  'x, y, z'
loop_
 _atom_site_type_symbol
 _atom_site_label
 _atom_site_symmetry_multiplicity
 _atom_site_fract_x
 _atom_site_fract_y
 _atom_site_fract_z
 _atom_site_occupancy
  Ca  Ca0  1  0.821723  0.129305  0.723390  1
  Co  Co1  1  0.781282  0.651709  0.103325  1
  Co  Co2  1  0.223025  0.346549  0.908908  1
  P  P3  1  0.757418  0.133141  0.229343  1
  P  P4  1  0.237686  0.865920  0.775263  1
  P  P5  1  0.341617  0.382723  0.355997  1
  P  P6  1  0.659158  0.622266  0.644515  1
  O  O7  1  0.472004  0.776335  0.622292  1
  O  O8  1  0.511780  0.202625  0.372807  1
  O  O9  1  0.741615  0.960950  0.089900  1
  O  O10  1  0.280162  0.042624  0.893310  1
  O  O11  1  0.480730  0.583226  0.247928  1
  O  O12  1  0.548215  0.405559  0.760550  1
  O  O13  1  0.179423  0.387957  0.605219  1
  O  O14  1  0.818074  0.601311  0.400168  1
  O  O15  1  0.132855  0.944562  0.617628  1
  O  O16  1  0.859349  0.063565  0.389181  1
  O  O17  1  0.115824  0.670335  0.945870  1
  O  O18  1  0.751610  0.715793  0.792050  1
  O  O19  1  0.233045  0.325042  0.205724  1
  O  O20  1  0.871166  0.324904  0.048060  1
