# generated using pymatgen
data_ZnFeO3
_symmetry_space_group_name_H-M   'P 1'
_cell_length_a   5.15640483
_cell_length_b   5.20540745
_cell_length_c   7.58882536
_cell_angle_alpha   89.99423084
_cell_angle_beta   90.00886956
_cell_angle_gamma   90.00231437
_symmetry_Int_Tables_number   1
_chemical_formula_structural   ZnFeO3
_chemical_formula_sum   'Zn4 Fe4 O12'
_cell_volume   203.69308527
_cell_formula_units_Z   4
loop_
 _symmetry_equiv_pos_site_id
 _symmetry_equiv_pos_as_xyz
  1  'x, y, z'
loop_
 _atom_site_type_symbol
 _atom_site_label
 _atom_site_symmetry_multiplicity
 _atom_site_fract_x
 _atom_site_fract_y
 _atom_site_fract_z
 _atom_site_occupancy
  Zn  Zn0  1  0.996928  0.044647  0.250004  1
  Zn  Zn1  1  0.496940  0.455346  0.750033  1
  Zn  Zn2  1  0.503051  0.544653  0.249967  1
  Zn  Zn3  1  0.003077  0.955349  0.749995  1
  Fe  Fe4  1  0.500003  0.000001  0.000001  1
  Fe  Fe5  1  0.000004  0.500002  0.000003  1
  Fe  Fe6  1  0.999998  0.500000  0.499999  1
  Fe  Fe7  1  0.500003  0.999997  0.499997  1
  O  O8  1  0.879721  0.568371  0.750013  1
  O  O9  1  0.379657  0.931615  0.249986  1
  O  O10  1  0.620343  0.068384  0.750014  1
  O  O11  1  0.120277  0.431626  0.249987  1
  O  O12  1  0.681061  0.313066  0.434066  1
  O  O13  1  0.181040  0.186959  0.565919  1
  O  O14  1  0.818842  0.813074  0.065959  1
  O  O15  1  0.319025  0.687017  0.934083  1
  O  O16  1  0.680974  0.312988  0.065920  1
  O  O17  1  0.181158  0.186930  0.934045  1
  O  O18  1  0.318937  0.686937  0.565931  1
  O  O19  1  0.818959  0.813040  0.434078  1
