# generated using pymatgen
data_TeWO6
_symmetry_space_group_name_H-M   'P 1'
_cell_length_a   5.17904944
_cell_length_b   5.33616861
_cell_length_c   7.44346564
_cell_angle_alpha   90.00000000
_cell_angle_beta   90.01282150
_cell_angle_gamma   90.00000000
_symmetry_Int_Tables_number   1
_chemical_formula_structural   TeWO6
_chemical_formula_sum   'Te2 W2 O12'
_cell_volume   205.70970344
_cell_formula_units_Z   2
loop_
 _symmetry_equiv_pos_site_id
 _symmetry_equiv_pos_as_xyz
  1  'x, y, z'
loop_
 _atom_site_type_symbol
 _atom_site_label
 _atom_site_symmetry_multiplicity
 _atom_site_fract_x
 _atom_site_fract_y
 _atom_site_fract_z
 _atom_site_occupancy
  Te  Te0  1  0.500000  0.000000  0.000000  1
  Te  Te1  1  0.000001  0.499999  0.500000  1
  W  W2  1  0.500000  0.000000  0.499999  1
  W  W3  1  0.000000  0.499999  0.000000  1
  O  O4  1  0.700101  0.297313  0.450102  1
  O  O5  1  0.799899  0.797314  0.049898  1
  O  O6  1  0.299898  0.702687  0.549898  1
  O  O7  1  0.200102  0.202686  0.950102  1
  O  O8  1  0.197792  0.202652  0.548895  1
  O  O9  1  0.302208  0.702651  0.951105  1
  O  O10  1  0.802209  0.797348  0.451105  1
  O  O11  1  0.697791  0.297349  0.048895  1
  O  O12  1  0.099058  0.483187  0.250663  1
  O  O13  1  0.400943  0.983188  0.249336  1
  O  O14  1  0.599058  0.016812  0.750664  1
  O  O15  1  0.900943  0.516813  0.749337  1
