# generated using pymatgen
data_CaMn(PO3)4
_symmetry_space_group_name_H-M   'P 1'
_cell_length_a   7.61903701
_cell_length_b   7.62613356
_cell_length_c   10.25705876
_cell_angle_alpha   98.95765386
_cell_angle_beta   109.91798781
_cell_angle_gamma   109.46760263
_symmetry_Int_Tables_number   1
_chemical_formula_structural   CaMn(PO3)4
_chemical_formula_sum   'Ca2 Mn2 P8 O24'
_cell_volume   503.33127436
_cell_formula_units_Z   2
loop_
 _symmetry_equiv_pos_site_id
 _symmetry_equiv_pos_as_xyz
  1  'x, y, z'
loop_
 _atom_site_type_symbol
 _atom_site_label
 _atom_site_symmetry_multiplicity
 _atom_site_fract_x
 _atom_site_fract_y
 _atom_site_fract_z
 _atom_site_occupancy
  Ca  Ca0  1  0.708568  0.958590  0.750428  1
  Ca  Ca1  1  0.292372  0.042218  0.250150  1
  Mn  Mn2  1  0.500435  0.499930  0.500108  1
  Mn  Mn3  1  0.500487  0.000585  0.000384  1
  P  P4  1  0.504938  0.319425  0.808227  1
  P  P5  1  0.011262  0.696241  0.692358  1
  P  P6  1  0.498053  0.682234  0.192551  1
  P  P7  1  0.989603  0.303953  0.308478  1
  P  P8  1  0.753253  0.720220  0.020708  1
  P  P9  1  0.196131  0.731190  0.478151  1
  P  P10  1  0.248034  0.282305  0.978719  1
  P  P11  1  0.804611  0.268607  0.522495  1
  O  O12  1  0.321099  0.322937  0.851385  1
  O  O13  1  0.972696  0.469563  0.649461  1
  O  O14  1  0.682049  0.680162  0.148888  1
  O  O15  1  0.027404  0.530290  0.351417  1
  O  O16  1  0.704852  0.504085  0.932205  1
  O  O17  1  0.069526  0.771584  0.567523  1
  O  O18  1  0.298001  0.498700  0.067763  1
  O  O19  1  0.931743  0.228668  0.433382  1
  O  O20  1  0.462284  0.347871  0.662262  1
  O  O21  1  0.187203  0.800615  0.837680  1
  O  O22  1  0.540831  0.651290  0.337796  1
  O  O23  1  0.813961  0.199390  0.163065  1
  O  O24  1  0.541108  0.140414  0.832034  1
  O  O25  1  0.808219  0.707876  0.669716  1
  O  O26  1  0.461864  0.861711  0.170194  1
  O  O27  1  0.192914  0.292907  0.331075  1
  O  O28  1  0.621477  0.802700  0.924738  1
  O  O29  1  0.376798  0.697798  0.573713  1
  O  O30  1  0.377556  0.197867  0.074442  1
  O  O31  1  0.623896  0.301830  0.426841  1
  O  O32  1  0.978966  0.832447  0.085913  1
  O  O33  1  0.239287  0.889620  0.410798  1
  O  O34  1  0.021984  0.172069  0.912235  1
  O  O35  1  0.761394  0.109493  0.589178  1
