# generated using pymatgen
data_Ca(MoO2)4
_symmetry_space_group_name_H-M   'P 1'
_cell_length_a   6.64950674
_cell_length_b   6.64950695
_cell_length_c   6.64950729
_cell_angle_alpha   58.00263532
_cell_angle_beta   58.00262229
_cell_angle_gamma   58.00263824
_symmetry_Int_Tables_number   1
_chemical_formula_structural   Ca(MoO2)4
_chemical_formula_sum   'Ca1 Mo4 O8'
_cell_volume   198.37418692
_cell_formula_units_Z   1
loop_
 _symmetry_equiv_pos_site_id
 _symmetry_equiv_pos_as_xyz
  1  'x, y, z'
loop_
 _atom_site_type_symbol
 _atom_site_label
 _atom_site_symmetry_multiplicity
 _atom_site_fract_x
 _atom_site_fract_y
 _atom_site_fract_z
 _atom_site_occupancy
  Ca  Ca0  1  0.500000  0.500001  0.499999  1
  Mo  Mo1  1  0.500001  0.999999  0.500001  1
  Mo  Mo2  1  0.999999  0.500000  0.500001  1
  Mo  Mo3  1  0.500000  0.500000  0.000000  1
  Mo  Mo4  1  -0.000000  0.000000  0.000000  1
  O  O5  1  0.762308  0.279398  0.762308  1
  O  O6  1  0.237691  0.237692  0.720603  1
  O  O7  1  0.237691  0.720603  0.237691  1
  O  O8  1  0.720602  0.237692  0.237692  1
  O  O9  1  0.276975  0.276976  0.276975  1
  O  O10  1  0.723025  0.723025  0.723025  1
  O  O11  1  0.279398  0.762309  0.762308  1
  O  O12  1  0.762309  0.762309  0.279398  1
