# generated using pymatgen
data_CaCu3(SbO3)4
_symmetry_space_group_name_H-M   'P 1'
_cell_length_a   6.77929082
_cell_length_b   6.77931030
_cell_length_c   6.77927176
_cell_angle_alpha   109.43960870
_cell_angle_beta   109.50165223
_cell_angle_gamma   109.47545101
_symmetry_Int_Tables_number   1
_chemical_formula_structural   CaCu3(SbO3)4
_chemical_formula_sum   'Ca1 Cu3 Sb4 O12'
_cell_volume   239.83606256
_cell_formula_units_Z   1
loop_
 _symmetry_equiv_pos_site_id
 _symmetry_equiv_pos_as_xyz
  1  'x, y, z'
loop_
 _atom_site_type_symbol
 _atom_site_label
 _atom_site_symmetry_multiplicity
 _atom_site_fract_x
 _atom_site_fract_y
 _atom_site_fract_z
 _atom_site_occupancy
  Ca  Ca0  1  -0.000000  0.000000  -0.000000  1
  Cu  Cu1  1  0.500001  0.500000  0.000001  1
  Cu  Cu2  1  0.999999  0.499999  0.499999  1
  Cu  Cu3  1  0.500000  0.000000  0.500000  1
  Sb  Sb4  1  0.000000  -0.000000  0.500000  1
  Sb  Sb5  1  -0.000000  0.499999  0.999999  1
  Sb  Sb6  1  0.500000  0.500000  0.500000  1
  Sb  Sb7  1  0.500000  0.000000  1.000000  1
  O  O8  1  0.825171  0.300809  0.126000  1
  O  O9  1  0.174830  0.699192  0.874000  1
  O  O10  1  0.825130  0.699139  0.524375  1
  O  O11  1  0.300928  0.475631  0.174814  1
  O  O12  1  0.475540  0.174939  0.300702  1
  O  O13  1  0.125761  0.825111  0.300655  1
  O  O14  1  0.699128  0.873883  0.174761  1
  O  O15  1  0.524461  0.825061  0.699298  1
  O  O16  1  0.174869  0.300861  0.475626  1
  O  O17  1  0.699073  0.524369  0.825185  1
  O  O18  1  0.874239  0.174888  0.699345  1
  O  O19  1  0.300873  0.126118  0.825239  1
