# generated using pymatgen
data_BaTl(NiO3)2
_symmetry_space_group_name_H-M   'P 1'
_cell_length_a   3.65943363
_cell_length_b   3.67107520
_cell_length_c   23.15487030
_cell_angle_alpha   94.35555584
_cell_angle_beta   94.89076400
_cell_angle_gamma   89.70842908
_symmetry_Int_Tables_number   1
_chemical_formula_structural   BaTl(NiO3)2
_chemical_formula_sum   'Ba2 Tl2 Ni4 O12'
_cell_volume   309.03586442
_cell_formula_units_Z   2
loop_
 _symmetry_equiv_pos_site_id
 _symmetry_equiv_pos_as_xyz
  1  'x, y, z'
loop_
 _atom_site_type_symbol
 _atom_site_label
 _atom_site_symmetry_multiplicity
 _atom_site_fract_x
 _atom_site_fract_y
 _atom_site_fract_z
 _atom_site_occupancy
  Ba  Ba0  1  0.153205  0.155850  0.312297  1
  Ba  Ba1  1  0.848712  0.838389  0.687467  1
  Tl  Tl2  1  0.725984  0.724951  0.447113  1
  Tl  Tl3  1  0.280136  0.279532  0.553364  1
  Ni  Ni4  1  0.538703  0.542870  0.073951  1
  Ni  Ni5  1  0.399404  0.387225  0.789152  1
  Ni  Ni6  1  0.590757  0.599278  0.210270  1
  Ni  Ni7  1  0.465802  0.462319  0.926039  1
  O  O8  1  0.393671  0.879318  0.772229  1
  O  O9  1  0.538182  0.042517  0.073398  1
  O  O10  1  0.223866  0.223398  0.461233  1
  O  O11  1  0.965054  0.460717  0.925057  1
  O  O12  1  0.766880  0.758117  0.539079  1
  O  O13  1  0.098921  0.615041  0.227640  1
  O  O14  1  0.611396  0.106866  0.224914  1
  O  O15  1  0.324830  0.316061  0.641372  1
  O  O16  1  0.891650  0.377858  0.774056  1
  O  O17  1  0.039011  0.542810  0.074729  1
  O  O18  1  0.464635  0.962249  0.926496  1
  O  O19  1  0.678124  0.679776  0.358867  1
