# generated using pymatgen
data_MgV3(P2O7)2
_symmetry_space_group_name_H-M   'P 1'
_cell_length_a   7.45711735
_cell_length_b   7.73552818
_cell_length_c   9.55191895
_cell_angle_alpha   90.00000000
_cell_angle_beta   111.68332331
_cell_angle_gamma   90.00000000
_symmetry_Int_Tables_number   1
_chemical_formula_structural   MgV3(P2O7)2
_chemical_formula_sum   'Mg2 V6 P8 O28'
_cell_volume   512.01130014
_cell_formula_units_Z   2
loop_
 _symmetry_equiv_pos_site_id
 _symmetry_equiv_pos_as_xyz
  1  'x, y, z'
loop_
 _atom_site_type_symbol
 _atom_site_label
 _atom_site_symmetry_multiplicity
 _atom_site_fract_x
 _atom_site_fract_y
 _atom_site_fract_z
 _atom_site_occupancy
  Mg  Mg0  1  0.500000  0.000000  0.000000  1
  Mg  Mg1  1  0.500000  0.500000  0.500000  1
  V  V2  1  0.189747  0.871379  0.523157  1
  V  V3  1  0.810253  0.371379  0.976843  1
  V  V4  1  0.810253  0.128621  0.476843  1
  V  V5  1  0.189747  0.628621  0.023157  1
  V  V6  1  0.000000  0.000000  0.000000  1
  V  V7  1  0.000000  0.500000  0.500000  1
  P  P8  1  0.592049  0.071576  0.708240  1
  P  P9  1  0.407951  0.571576  0.791760  1
  P  P10  1  0.407951  0.928424  0.291760  1
  P  P11  1  0.592049  0.428424  0.208240  1
  P  P12  1  0.863305  0.792067  0.684536  1
  P  P13  1  0.136695  0.292067  0.815464  1
  P  P14  1  0.136695  0.207933  0.315464  1
  P  P15  1  0.863305  0.707933  0.184536  1
  O  O16  1  0.798067  0.621796  0.597789  1
  O  O17  1  0.201933  0.121796  0.902211  1
  O  O18  1  0.201933  0.378204  0.402211  1
  O  O19  1  0.798067  0.878204  0.097789  1
  O  O20  1  0.281538  0.616753  0.624551  1
  O  O21  1  0.718462  0.116753  0.875449  1
  O  O22  1  0.718462  0.383247  0.375449  1
  O  O23  1  0.281538  0.883247  0.124551  1
  O  O24  1  0.614103  0.203686  0.596431  1
  O  O25  1  0.385897  0.703686  0.903569  1
  O  O26  1  0.385897  0.796314  0.403569  1
  O  O27  1  0.614103  0.296314  0.096431  1
  O  O28  1  0.667976  0.887049  0.673686  1
  O  O29  1  0.332024  0.387049  0.826314  1
  O  O30  1  0.332024  0.112951  0.326314  1
  O  O31  1  0.667976  0.612951  0.173686  1
  O  O32  1  0.391584  0.473222  0.203442  1
  O  O33  1  0.608416  0.973222  0.296558  1
  O  O34  1  0.608416  0.526778  0.796558  1
  O  O35  1  0.391584  0.026778  0.703442  1
  O  O36  1  0.019007  0.219304  0.145952  1
  O  O37  1  0.980993  0.719304  0.354048  1
  O  O38  1  0.980993  0.780696  0.854048  1
  O  O39  1  0.019007  0.280696  0.645952  1
  O  O40  1  0.962516  0.588295  0.107421  1
  O  O41  1  0.037484  0.088295  0.392579  1
  O  O42  1  0.037484  0.411705  0.892579  1
  O  O43  1  0.962516  0.911705  0.607421  1
