# generated using pymatgen
data_TiZnNi(PO4)3
_symmetry_space_group_name_H-M   'P 1'
_cell_length_a   8.52776812
_cell_length_b   8.52776771
_cell_length_c   8.52776781
_cell_angle_alpha   60.59083998
_cell_angle_beta   60.59084440
_cell_angle_gamma   60.59084882
_symmetry_Int_Tables_number   1
_chemical_formula_structural   TiZnNi(PO4)3
_chemical_formula_sum   'Ti2 Zn2 Ni2 P6 O24'
_cell_volume   444.37382918
_cell_formula_units_Z   2
loop_
 _symmetry_equiv_pos_site_id
 _symmetry_equiv_pos_as_xyz
  1  'x, y, z'
loop_
 _atom_site_type_symbol
 _atom_site_label
 _atom_site_symmetry_multiplicity
 _atom_site_fract_x
 _atom_site_fract_y
 _atom_site_fract_z
 _atom_site_occupancy
  Ti  Ti0  1  0.143805  0.143805  0.143805  1
  Ti  Ti1  1  0.643805  0.643805  0.643805  1
  Zn  Zn2  1  0.996493  0.996493  0.996493  1
  Zn  Zn3  1  0.496493  0.496493  0.496493  1
  Ni  Ni4  1  0.356404  0.356404  0.356404  1
  Ni  Ni5  1  0.856404  0.856404  0.856404  1
  P  P6  1  0.045225  0.457507  0.749061  1
  P  P7  1  0.457507  0.749061  0.045225  1
  P  P8  1  0.749061  0.045225  0.457507  1
  P  P9  1  0.249061  0.957507  0.545225  1
  P  P10  1  0.545225  0.249061  0.957507  1
  P  P11  1  0.957507  0.545225  0.249061  1
  O  O12  1  0.114389  0.513933  0.308067  1
  O  O13  1  0.308067  0.114389  0.513933  1
  O  O14  1  0.054577  0.260102  0.912507  1
  O  O15  1  0.513933  0.308067  0.114389  1
  O  O16  1  0.013933  0.614389  0.808067  1
  O  O17  1  0.240165  0.440947  0.586879  1
  O  O18  1  0.260102  0.912507  0.054577  1
  O  O19  1  0.440947  0.586879  0.240165  1
  O  O20  1  0.186302  0.003954  0.379681  1
  O  O21  1  0.586879  0.240165  0.440947  1
  O  O22  1  0.086879  0.940947  0.740165  1
  O  O23  1  0.379681  0.186302  0.003954  1
  O  O24  1  0.614389  0.808067  0.013933  1
  O  O25  1  0.912507  0.054577  0.260102  1
  O  O26  1  0.412507  0.760102  0.554577  1
  O  O27  1  0.808067  0.013933  0.614389  1
  O  O28  1  0.554577  0.412507  0.760102  1
  O  O29  1  0.740165  0.086879  0.940947  1
  O  O30  1  0.760102  0.554577  0.412507  1
  O  O31  1  0.003954  0.379681  0.186302  1
  O  O32  1  0.503954  0.686302  0.879681  1
  O  O33  1  0.940947  0.740165  0.086879  1
  O  O34  1  0.686302  0.879681  0.503954  1
  O  O35  1  0.879681  0.503954  0.686302  1
