# generated using pymatgen
data_V4O9
_symmetry_space_group_name_H-M   'P 1'
_cell_length_a   5.01133180
_cell_length_b   8.48475939
_cell_length_c   8.48475939
_cell_angle_alpha   90.00000000
_cell_angle_beta   90.00000000
_cell_angle_gamma   90.00000000
_symmetry_Int_Tables_number   1
_chemical_formula_structural   V4O9
_chemical_formula_sum   'V8 O18'
_cell_volume   360.77149875
_cell_formula_units_Z   2
loop_
 _symmetry_equiv_pos_site_id
 _symmetry_equiv_pos_as_xyz
  1  'x, y, z'
loop_
 _atom_site_type_symbol
 _atom_site_label
 _atom_site_symmetry_multiplicity
 _atom_site_fract_x
 _atom_site_fract_y
 _atom_site_fract_z
 _atom_site_occupancy
  V  V0  1  0.613405  0.530880  0.343449  1
  V  V1  1  0.386596  0.843448  0.469121  1
  V  V2  1  0.613405  0.343448  0.969121  1
  V  V3  1  0.386596  0.030879  0.843448  1
  V  V4  1  0.613405  0.969121  0.156551  1
  V  V5  1  0.613405  0.156552  0.530880  1
  V  V6  1  0.386596  0.469121  0.656551  1
  V  V7  1  0.386596  0.656551  0.030879  1
  O  O8  1  0.499999  0.750000  0.250000  1
  O  O9  1  0.499999  0.250001  0.750000  1
  O  O10  1  0.068580  0.672753  0.009446  1
  O  O11  1  0.068580  0.490555  0.672752  1
  O  O12  1  0.068580  0.009446  0.827248  1
  O  O13  1  0.068580  0.827248  0.490554  1
  O  O14  1  0.931421  0.327248  0.990554  1
  O  O15  1  0.931421  0.509445  0.327248  1
  O  O16  1  0.931421  0.990554  0.172752  1
  O  O17  1  0.931421  0.172752  0.509445  1
  O  O18  1  0.480215  0.037706  0.355299  1
  O  O19  1  0.480215  0.144700  0.037707  1
  O  O20  1  0.480215  0.355299  0.462294  1
  O  O21  1  0.480215  0.462294  0.144701  1
  O  O22  1  0.519784  0.537706  0.855299  1
  O  O23  1  0.519784  0.855299  0.962294  1
  O  O24  1  0.519784  0.644701  0.537706  1
  O  O25  1  0.519784  0.962293  0.644701  1
