# generated using pymatgen
data_Zn3Fe2(Si2O7)2
_symmetry_space_group_name_H-M   'P 1'
_cell_length_a   7.80534096
_cell_length_b   9.66685571
_cell_length_c   9.11666176
_cell_angle_alpha   63.49497777
_cell_angle_beta   64.65415672
_cell_angle_gamma   66.18926816
_symmetry_Int_Tables_number   1
_chemical_formula_structural   Zn3Fe2(Si2O7)2
_chemical_formula_sum   'Zn6 Fe4 Si8 O28'
_cell_volume   536.74555166
_cell_formula_units_Z   2
loop_
 _symmetry_equiv_pos_site_id
 _symmetry_equiv_pos_as_xyz
  1  'x, y, z'
loop_
 _atom_site_type_symbol
 _atom_site_label
 _atom_site_symmetry_multiplicity
 _atom_site_fract_x
 _atom_site_fract_y
 _atom_site_fract_z
 _atom_site_occupancy
  Zn  Zn0  1  0.941901  0.902399  0.436190  1
  Zn  Zn1  1  0.280490  0.597601  0.063810  1
  Zn  Zn2  1  0.719510  0.402399  0.936190  1
  Zn  Zn3  1  0.605520  0.250000  0.750000  1
  Zn  Zn4  1  0.058099  0.097601  0.563810  1
  Zn  Zn5  1  0.394480  0.750000  0.250000  1
  Fe  Fe6  1  0.205662  0.250000  0.750000  1
  Fe  Fe7  1  0.794338  0.750000  0.250000  1
  Fe  Fe8  1  0.000000  0.000000  0.000000  1
  Fe  Fe9  1  0.000000  0.500000  0.500000  1
  Si  Si10  1  0.469127  0.290573  0.341277  1
  Si  Si11  1  0.899022  0.790573  0.841277  1
  Si  Si12  1  0.481511  0.897353  0.862965  1
  Si  Si13  1  0.758172  0.397353  0.362965  1
  Si  Si14  1  0.100978  0.209427  0.158723  1
  Si  Si15  1  0.518489  0.102647  0.137035  1
  Si  Si16  1  0.241828  0.602647  0.637035  1
  Si  Si17  1  0.530873  0.709427  0.658723  1
  O  O18  1  0.165985  0.669800  0.464499  1
  O  O19  1  0.043055  0.583411  0.256140  1
  O  O20  1  0.541350  0.912888  0.185157  1
  O  O21  1  0.117393  0.083411  0.756140  1
  O  O22  1  0.748308  0.676983  0.518815  1
  O  O23  1  0.940885  0.374195  0.190407  1
  O  O24  1  0.360605  0.412888  0.685157  1
  O  O25  1  0.944106  0.823017  0.981185  1
  O  O26  1  0.059115  0.625805  0.809593  1
  O  O27  1  0.366225  0.733036  0.576559  1
  O  O28  1  0.956945  0.416589  0.743860  1
  O  O29  1  0.251692  0.323017  0.481185  1
  O  O30  1  0.505488  0.125805  0.309593  1
  O  O31  1  0.699715  0.169800  0.964499  1
  O  O32  1  0.324179  0.233036  0.076559  1
  O  O33  1  0.055894  0.176983  0.018815  1
  O  O34  1  0.096369  0.066112  0.343979  1
  O  O35  1  0.633775  0.266964  0.423441  1
  O  O36  1  0.506459  0.433888  0.156021  1
  O  O37  1  0.675821  0.766964  0.923441  1
  O  O38  1  0.494512  0.874195  0.690407  1
  O  O39  1  0.882607  0.916589  0.243860  1
  O  O40  1  0.493541  0.566112  0.843979  1
  O  O41  1  0.458650  0.087112  0.814843  1
  O  O42  1  0.903631  0.933888  0.656021  1
  O  O43  1  0.639395  0.587112  0.314843  1
  O  O44  1  0.300285  0.830200  0.035501  1
  O  O45  1  0.834015  0.330200  0.535501  1
