# generated using pymatgen
data_Ca(CoO2)2
_symmetry_space_group_name_H-M   'P 1'
_cell_length_a   3.14697813
_cell_length_b   7.88703721
_cell_length_c   6.97242520
_cell_angle_alpha   76.05243277
_cell_angle_beta   76.95993410
_cell_angle_gamma   78.49284485
_symmetry_Int_Tables_number   1
_chemical_formula_structural   Ca(CoO2)2
_chemical_formula_sum   'Ca2 Co4 O8'
_cell_volume   161.68601590
_cell_formula_units_Z   2
loop_
 _symmetry_equiv_pos_site_id
 _symmetry_equiv_pos_as_xyz
  1  'x, y, z'
loop_
 _atom_site_type_symbol
 _atom_site_label
 _atom_site_symmetry_multiplicity
 _atom_site_fract_x
 _atom_site_fract_y
 _atom_site_fract_z
 _atom_site_occupancy
  Ca  Ca0  1  0.347611  0.156690  0.155909  1
  Ca  Ca1  1  0.654509  0.821642  0.877284  1
  Co  Co2  1  0.628723  0.174046  0.576648  1
  Co  Co3  1  0.139113  0.514691  0.214808  1
  Co  Co4  1  0.863058  0.463640  0.818450  1
  Co  Co5  1  0.373386  0.804345  0.456558  1
  O  O6  1  0.864632  0.673855  0.604566  1
  O  O7  1  0.460180  0.298239  0.789701  1
  O  O8  1  0.542170  0.679399  0.243872  1
  O  O9  1  0.137590  0.304250  0.428701  1
  O  O10  1  0.159664  0.998159  0.690577  1
  O  O11  1  0.766698  0.368373  0.106134  1
  O  O12  1  0.843533  0.979487  0.341257  1
  O  O13  1  0.235445  0.609985  0.926979  1
