# generated using pymatgen
data_Ba2Ti3AlO7
_symmetry_space_group_name_H-M   'P 1'
_cell_length_a   3.92008907
_cell_length_b   3.97939484
_cell_length_c   11.46074407
_cell_angle_alpha   90.00040987
_cell_angle_beta   90.00026718
_cell_angle_gamma   89.98926807
_symmetry_Int_Tables_number   1
_chemical_formula_structural   Ba2Ti3AlO7
_chemical_formula_sum   'Ba2 Ti3 Al1 O7'
_cell_volume   178.78281601
_cell_formula_units_Z   1
loop_
 _symmetry_equiv_pos_site_id
 _symmetry_equiv_pos_as_xyz
  1  'x, y, z'
loop_
 _atom_site_type_symbol
 _atom_site_label
 _atom_site_symmetry_multiplicity
 _atom_site_fract_x
 _atom_site_fract_y
 _atom_site_fract_z
 _atom_site_occupancy
  Ba  Ba0  1  0.500019  0.500002  0.818745  1
  Ba  Ba1  1  0.499999  0.500001  0.181246  1
  Ti  Ti2  1  0.999987  0.000004  0.624266  1
  Ti  Ti3  1  -0.000005  0.999995  0.375740  1
  Ti  Ti4  1  -0.000005  0.999999  0.999988  1
  Al  Al5  1  0.500001  0.500003  0.500012  1
  O  O6  1  0.000002  0.499997  0.999997  1
  O  O7  1  0.499999  0.999997  0.621039  1
  O  O8  1  0.499997  0.999995  0.378962  1
  O  O9  1  0.999996  0.500001  0.619428  1
  O  O10  1  0.000002  0.499999  0.380579  1
  O  O11  1  0.000007  0.000000  0.828802  1
  O  O12  1  0.000004  0.000002  0.171198  1
