# generated using pymatgen
data_ZnCuBi2O7
_symmetry_space_group_name_H-M   'P 1'
_cell_length_a   8.33275458
_cell_length_b   10.44846063
_cell_length_c   11.67875592
_cell_angle_alpha   97.55957471
_cell_angle_beta   90.00000000
_cell_angle_gamma   90.00000000
_symmetry_Int_Tables_number   1
_chemical_formula_structural   ZnCuBi2O7
_chemical_formula_sum   'Zn6 Cu6 Bi12 O42'
_cell_volume   1007.96710880
_cell_formula_units_Z   6
loop_
 _symmetry_equiv_pos_site_id
 _symmetry_equiv_pos_as_xyz
  1  'x, y, z'
loop_
 _atom_site_type_symbol
 _atom_site_label
 _atom_site_symmetry_multiplicity
 _atom_site_fract_x
 _atom_site_fract_y
 _atom_site_fract_z
 _atom_site_occupancy
  Zn  Zn0  1  0.460955  0.134958  0.585062  1
  Zn  Zn1  1  0.956414  0.500000  0.750000  1
  Zn  Zn2  1  0.460955  0.865042  0.914938  1
  Zn  Zn3  1  0.043586  0.500000  0.250000  1
  Zn  Zn4  1  0.539045  0.865042  0.414938  1
  Zn  Zn5  1  0.539045  0.134958  0.085062  1
  Cu  Cu6  1  0.907255  0.791660  0.423488  1
  Cu  Cu7  1  0.092745  0.208340  0.576512  1
  Cu  Cu8  1  0.408893  0.500000  0.250000  1
  Cu  Cu9  1  0.907255  0.208340  0.076512  1
  Cu  Cu10  1  0.591107  0.500000  0.750000  1
  Cu  Cu11  1  0.092745  0.791660  0.923488  1
  Bi  Bi12  1  0.211824  0.192454  0.301349  1
  Bi  Bi13  1  0.748472  0.168901  0.364267  1
  Bi  Bi14  1  0.251528  0.168901  0.864267  1
  Bi  Bi15  1  0.788176  0.192454  0.801349  1
  Bi  Bi16  1  0.277856  0.516928  0.976212  1
  Bi  Bi17  1  0.748472  0.831099  0.135733  1
  Bi  Bi18  1  0.722144  0.516928  0.476212  1
  Bi  Bi19  1  0.251528  0.831099  0.635733  1
  Bi  Bi20  1  0.277856  0.483072  0.523788  1
  Bi  Bi21  1  0.722144  0.483072  0.023788  1
  Bi  Bi22  1  0.788176  0.807546  0.698651  1
  Bi  Bi23  1  0.211824  0.807546  0.198651  1
  O  O24  1  0.722753  0.239216  0.989291  1
  O  O25  1  0.766412  0.853470  0.319672  1
  O  O26  1  0.865669  0.000000  0.750000  1
  O  O27  1  0.926420  0.526875  0.113933  1
  O  O28  1  0.405785  0.942175  0.551949  1
  O  O29  1  0.939531  0.277688  0.686244  1
  O  O30  1  0.355467  0.322899  0.966446  1
  O  O31  1  0.073580  0.526875  0.613933  1
  O  O32  1  0.754114  0.434840  0.839711  1
  O  O33  1  0.405785  0.057825  0.948051  1
  O  O34  1  0.754114  0.565160  0.660289  1
  O  O35  1  0.468825  0.561437  0.874550  1
  O  O36  1  0.990085  0.829589  0.068263  1
  O  O37  1  0.060469  0.277688  0.186244  1
  O  O38  1  0.644533  0.677101  0.033554  1
  O  O39  1  0.355467  0.677101  0.533554  1
  O  O40  1  0.939531  0.722312  0.813756  1
  O  O41  1  0.594215  0.057825  0.448051  1
  O  O42  1  0.277247  0.239216  0.489291  1
  O  O43  1  0.531175  0.438563  0.125450  1
  O  O44  1  0.443956  0.803575  0.263775  1
  O  O45  1  0.245886  0.565160  0.160289  1
  O  O46  1  0.009915  0.829589  0.568263  1
  O  O47  1  0.245886  0.434840  0.339711  1
  O  O48  1  0.926420  0.473125  0.386067  1
  O  O49  1  0.531175  0.561437  0.374550  1
  O  O50  1  0.073580  0.473125  0.886067  1
  O  O51  1  0.556044  0.803575  0.763775  1
  O  O52  1  0.556044  0.196425  0.736225  1
  O  O53  1  0.009915  0.170411  0.931737  1
  O  O54  1  0.060469  0.722312  0.313756  1
  O  O55  1  0.722753  0.760784  0.510709  1
  O  O56  1  0.134331  0.000000  0.250000  1
  O  O57  1  0.233588  0.853470  0.819672  1
  O  O58  1  0.594215  0.942175  0.051949  1
  O  O59  1  0.990085  0.170411  0.431737  1
  O  O60  1  0.277247  0.760784  0.010709  1
  O  O61  1  0.766412  0.146530  0.180328  1
  O  O62  1  0.468825  0.438563  0.625450  1
  O  O63  1  0.644533  0.322899  0.466446  1
  O  O64  1  0.233588  0.146530  0.680328  1
  O  O65  1  0.443956  0.196425  0.236225  1
