# generated using pymatgen
data_Y4Mn13Si2(SbO14)2
_symmetry_space_group_name_H-M   'P 1'
_cell_length_a   5.81418775
_cell_length_b   9.50024280
_cell_length_c   12.58218391
_cell_angle_alpha   87.59090511
_cell_angle_beta   76.64372642
_cell_angle_gamma   79.52522516
_symmetry_Int_Tables_number   1
_chemical_formula_structural   Y4Mn13Si2(SbO14)2
_chemical_formula_sum   'Y4 Mn13 Si2 Sb2 O28'
_cell_volume   664.92539767
_cell_formula_units_Z   1
loop_
 _symmetry_equiv_pos_site_id
 _symmetry_equiv_pos_as_xyz
  1  'x, y, z'
loop_
 _atom_site_type_symbol
 _atom_site_label
 _atom_site_symmetry_multiplicity
 _atom_site_fract_x
 _atom_site_fract_y
 _atom_site_fract_z
 _atom_site_occupancy
  Y  Y0  1  0.071524  0.654075  0.415275  1
  Y  Y1  1  0.513231  0.345950  0.415266  1
  Y  Y2  1  0.928476  0.345925  0.584725  1
  Y  Y3  1  0.486769  0.654050  0.584734  1
  Mn  Mn4  1  0.923906  0.647848  0.736917  1
  Mn  Mn5  1  0.664274  0.327537  0.126398  1
  Mn  Mn6  1  0.339195  0.352120  0.736894  1
  Mn  Mn7  1  0.076094  0.352152  0.263083  1
  Mn  Mn8  1  0.335726  0.672463  0.873602  1
  Mn  Mn9  1  0.289543  0.000010  0.420928  1
  Mn  Mn10  1  0.209272  0.672471  0.126407  1
  Mn  Mn11  1  0.000000  0.000000  0.000000  1
  Mn  Mn12  1  0.426972  0.999680  0.146212  1
  Mn  Mn13  1  0.790728  0.327529  0.873593  1
  Mn  Mn14  1  0.660805  0.647880  0.263106  1
  Mn  Mn15  1  0.573028  0.000320  0.853788  1
  Mn  Mn16  1  0.710457  0.999990  0.579072  1
  Si  Si17  1  0.245810  0.291493  0.000002  1
  Si  Si18  1  0.754190  0.708507  0.999998  1
  Sb  Sb19  1  0.858568  0.000070  0.282878  1
  Sb  Sb20  1  0.141432  0.999930  0.717122  1
  O  O21  1  0.713122  0.405785  0.263115  1
  O  O22  1  0.134852  0.388860  0.421486  1
  O  O23  1  0.959323  0.339169  0.999996  1
  O  O24  1  0.306547  0.113951  0.000003  1
  O  O25  1  0.865148  0.611140  0.578514  1
  O  O26  1  0.286878  0.594215  0.736885  1
  O  O27  1  0.014039  0.108690  0.589034  1
  O  O28  1  0.985961  0.891309  0.410966  1
  O  O29  1  0.693453  0.886049  0.999997  1
  O  O30  1  0.113803  0.893661  0.158534  1
  O  O31  1  0.311047  0.354067  0.108237  1
  O  O32  1  0.023763  0.594228  0.263131  1
  O  O33  1  0.396874  0.891288  0.589007  1
  O  O34  1  0.727650  0.106320  0.158505  1
  O  O35  1  0.580678  0.645998  0.108252  1
  O  O36  1  0.040677  0.660831  0.000004  1
  O  O37  1  0.272350  0.893680  0.841495  1
  O  O38  1  0.886197  0.106339  0.841466  1
  O  O39  1  0.603126  0.108712  0.410993  1
  O  O40  1  0.112919  0.120253  0.288322  1
  O  O41  1  0.887081  0.879747  0.711678  1
  O  O42  1  0.419322  0.354002  0.891748  1
  O  O43  1  0.401214  0.120203  0.711681  1
  O  O44  1  0.556260  0.388859  0.578526  1
  O  O45  1  0.688953  0.645933  0.891763  1
  O  O46  1  0.598786  0.879797  0.288319  1
  O  O47  1  0.976237  0.405772  0.736869  1
  O  O48  1  0.443740  0.611141  0.421474  1
