# generated using pymatgen
data_CaMn2O4
_symmetry_space_group_name_H-M   'P 1'
_cell_length_a   5.92277808
_cell_length_b   5.92277881
_cell_length_c   6.67604832
_cell_angle_alpha   116.33278529
_cell_angle_beta   116.33279006
_cell_angle_gamma   89.99999511
_symmetry_Int_Tables_number   1
_chemical_formula_structural   CaMn2O4
_chemical_formula_sum   'Ca2 Mn4 O8'
_cell_volume   182.37855463
_cell_formula_units_Z   2
loop_
 _symmetry_equiv_pos_site_id
 _symmetry_equiv_pos_as_xyz
  1  'x, y, z'
loop_
 _atom_site_type_symbol
 _atom_site_label
 _atom_site_symmetry_multiplicity
 _atom_site_fract_x
 _atom_site_fract_y
 _atom_site_fract_z
 _atom_site_occupancy
  Ca  Ca0  1  0.375000  0.625000  0.750000  1
  Ca  Ca1  1  0.625000  0.375000  0.250000  1
  Mn  Mn2  1  0.000000  0.000000  0.500000  1
  Mn  Mn3  1  0.000000  0.500000  0.000000  1
  Mn  Mn4  1  0.500000  0.000000  0.500000  1
  Mn  Mn5  1  0.000000  0.000000  0.000000  1
  O  O6  1  0.764270  0.797789  0.528539  1
  O  O7  1  0.769251  0.235730  0.971461  1
  O  O8  1  0.202211  0.235730  0.971461  1
  O  O9  1  0.235730  0.202211  0.471461  1
  O  O10  1  0.235730  0.769251  0.471461  1
  O  O11  1  0.230749  0.764270  0.028539  1
  O  O12  1  0.764270  0.230749  0.528539  1
  O  O13  1  0.797789  0.764270  0.028539  1
