# generated using pymatgen
data_BaCaAgF7
_symmetry_space_group_name_H-M   'P 1'
_cell_length_a   5.91133826
_cell_length_b   10.19248382
_cell_length_c   10.61786524
_cell_angle_alpha   90.00000000
_cell_angle_beta   90.00000000
_cell_angle_gamma   91.89155083
_symmetry_Int_Tables_number   1
_chemical_formula_structural   BaCaAgF7
_chemical_formula_sum   'Ba4 Ca4 Ag4 F28'
_cell_volume   639.39073213
_cell_formula_units_Z   4
loop_
 _symmetry_equiv_pos_site_id
 _symmetry_equiv_pos_as_xyz
  1  'x, y, z'
loop_
 _atom_site_type_symbol
 _atom_site_label
 _atom_site_symmetry_multiplicity
 _atom_site_fract_x
 _atom_site_fract_y
 _atom_site_fract_z
 _atom_site_occupancy
  Ba  Ba0  1  0.271113  0.503307  0.332092  1
  Ba  Ba1  1  0.728887  0.996693  0.832092  1
  Ba  Ba2  1  0.728887  0.496693  0.667908  1
  Ba  Ba3  1  0.271113  0.003307  0.167908  1
  Ca  Ca4  1  0.706403  0.818743  0.410230  1
  Ca  Ca5  1  0.293597  0.681257  0.910230  1
  Ca  Ca6  1  0.706403  0.318743  0.089770  1
  Ca  Ca7  1  0.293597  0.181257  0.589770  1
  Ag  Ag8  1  0.190571  0.810087  0.621457  1
  Ag  Ag9  1  0.809429  0.189913  0.378543  1
  Ag  Ag10  1  0.190571  0.310087  0.878543  1
  Ag  Ag11  1  0.809429  0.689913  0.121457  1
  F  F12  1  0.119308  0.098762  0.416574  1
  F  F13  1  0.348907  0.377533  0.045783  1
  F  F14  1  0.482970  0.736186  0.713996  1
  F  F15  1  0.517030  0.263814  0.286004  1
  F  F16  1  0.938044  0.362454  0.468390  1
  F  F17  1  0.290202  0.490401  0.789797  1
  F  F18  1  0.001126  0.742664  0.782217  1
  F  F19  1  0.061956  0.137546  0.968390  1
  F  F20  1  0.348907  0.877533  0.454217  1
  F  F21  1  0.517030  0.763814  0.213996  1
  F  F22  1  0.119308  0.598762  0.083426  1
  F  F23  1  0.880692  0.901238  0.583426  1
  F  F24  1  0.998874  0.757336  0.282217  1
  F  F25  1  0.415484  0.876964  0.965416  1
  F  F26  1  0.061956  0.637546  0.531610  1
  F  F27  1  0.938044  0.862454  0.031610  1
  F  F28  1  0.998874  0.257336  0.217783  1
  F  F29  1  0.880692  0.401238  0.916574  1
  F  F30  1  0.584516  0.623036  0.465416  1
  F  F31  1  0.651093  0.622467  0.954217  1
  F  F32  1  0.584516  0.123036  0.034584  1
  F  F33  1  0.001126  0.242664  0.717783  1
  F  F34  1  0.415484  0.376964  0.534584  1
  F  F35  1  0.709798  0.009599  0.289797  1
  F  F36  1  0.709798  0.509599  0.210203  1
  F  F37  1  0.290202  0.990401  0.710203  1
  F  F38  1  0.651093  0.122467  0.545783  1
  F  F39  1  0.482970  0.236186  0.786004  1
