# generated using pymatgen
data_Y(CrS2)2
_symmetry_space_group_name_H-M   'P 1'
_cell_length_a   7.36617954
_cell_length_b   7.36617998
_cell_length_c   7.55786505
_cell_angle_alpha   119.16450612
_cell_angle_beta   119.16450383
_cell_angle_gamma   90.00000087
_symmetry_Int_Tables_number   1
_chemical_formula_structural   Y(CrS2)2
_chemical_formula_sum   'Y2 Cr4 S8'
_cell_volume   297.15311200
_cell_formula_units_Z   2
loop_
 _symmetry_equiv_pos_site_id
 _symmetry_equiv_pos_as_xyz
  1  'x, y, z'
loop_
 _atom_site_type_symbol
 _atom_site_label
 _atom_site_symmetry_multiplicity
 _atom_site_fract_x
 _atom_site_fract_y
 _atom_site_fract_z
 _atom_site_occupancy
  Y  Y0  1  0.375001  0.625001  0.750000  1
  Y  Y1  1  0.624999  0.375000  0.250000  1
  Cr  Cr2  1  0.000000  0.500001  0.000001  1
  Cr  Cr3  1  0.000001  0.000000  0.500000  1
  Cr  Cr4  1  0.500001  0.000000  0.500000  1
  Cr  Cr5  1  0.000000  0.000000  0.000000  1
  S  S6  1  0.771929  0.799831  0.543857  1
  S  S7  1  0.755975  0.228072  0.956145  1
  S  S8  1  0.200170  0.228072  0.956144  1
  S  S9  1  0.228071  0.200169  0.456144  1
  S  S10  1  0.228070  0.755974  0.456143  1
  S  S11  1  0.244025  0.771929  0.043857  1
  S  S12  1  0.771929  0.244025  0.543856  1
  S  S13  1  0.799830  0.771929  0.043856  1
