# generated using pymatgen
data_Sr2YMn2AlO7
_symmetry_space_group_name_H-M   'P 1'
_cell_length_a   11.81831866
_cell_length_b   11.81830783
_cell_length_c   11.81828277
_cell_angle_alpha   40.75598284
_cell_angle_beta   150.94513455
_cell_angle_gamma   152.04801887
_symmetry_Int_Tables_number   1
_chemical_formula_structural   Sr2YMn2AlO7
_chemical_formula_sum   'Sr4 Y2 Mn4 Al2 O14'
_cell_volume   374.97742853
_cell_formula_units_Z   2
loop_
 _symmetry_equiv_pos_site_id
 _symmetry_equiv_pos_as_xyz
  1  'x, y, z'
loop_
 _atom_site_type_symbol
 _atom_site_label
 _atom_site_symmetry_multiplicity
 _atom_site_fract_x
 _atom_site_fract_y
 _atom_site_fract_z
 _atom_site_occupancy
  Sr  Sr0  1  0.040762  0.854503  0.874437  1
  Sr  Sr1  1  0.980054  0.166327  0.125551  1
  Sr  Sr2  1  0.040771  0.666331  0.686264  1
  Sr  Sr3  1  0.980070  0.354499  0.313741  1
  Y  Y4  1  0.010647  0.510647  0.500000  1
  Y  Y5  1  0.010667  0.010676  0.999995  1
  Mn  Mn6  1  0.513705  0.433598  0.911889  1
  Mn  Mn7  1  0.521728  0.601858  0.088122  1
  Mn  Mn8  1  0.513669  0.101808  0.580074  1
  Mn  Mn9  1  0.521805  0.933621  0.419929  1
  Al  Al10  1  0.572026  0.741009  0.331016  1
  Al  Al11  1  0.410009  0.241014  0.668994  1
  O  O12  1  0.010078  0.937535  0.572544  1
  O  O13  1  0.364987  0.437539  0.427448  1
  O  O14  1  0.427311  0.160365  0.136846  1
  O  O15  1  0.023542  0.290483  0.863167  1
  O  O16  1  0.427318  0.790477  0.766951  1
  O  O17  1  0.023539  0.660374  0.233053  1
  O  O18  1  0.630232  0.751882  0.733547  1
  O  O19  1  0.018318  0.896675  0.266444  1
  O  O20  1  0.630200  0.396675  0.378342  1
  O  O21  1  0.018322  0.251859  0.621650  1
  O  O22  1  0.475146  0.856169  0.256192  1
  O  O23  1  0.599973  0.218948  0.743800  1
  O  O24  1  0.475145  0.718954  0.118974  1
  O  O25  1  0.599975  0.356169  0.881028  1
