# generated using pymatgen
data_MgCoBiO5
_symmetry_space_group_name_H-M   'P 1'
_cell_length_a   5.35216476
_cell_length_b   8.14174809
_cell_length_c   10.55296885
_cell_angle_alpha   90.00000000
_cell_angle_beta   90.00000000
_cell_angle_gamma   107.58022142
_symmetry_Int_Tables_number   1
_chemical_formula_structural   MgCoBiO5
_chemical_formula_sum   'Mg4 Co4 Bi4 O20'
_cell_volume   438.37835374
_cell_formula_units_Z   4
loop_
 _symmetry_equiv_pos_site_id
 _symmetry_equiv_pos_as_xyz
  1  'x, y, z'
loop_
 _atom_site_type_symbol
 _atom_site_label
 _atom_site_symmetry_multiplicity
 _atom_site_fract_x
 _atom_site_fract_y
 _atom_site_fract_z
 _atom_site_occupancy
  Mg  Mg0  1  0.630603  0.175643  0.914176  1
  Mg  Mg1  1  0.369397  0.824357  0.085824  1
  Mg  Mg2  1  0.869397  0.324357  0.414176  1
  Mg  Mg3  1  0.130603  0.675643  0.585824  1
  Co  Co4  1  0.799267  0.956914  0.623476  1
  Co  Co5  1  0.200733  0.043086  0.376524  1
  Co  Co6  1  0.700733  0.543086  0.123476  1
  Co  Co7  1  0.299267  0.456914  0.876524  1
  Bi  Bi8  1  0.128754  0.156614  0.105279  1
  Bi  Bi9  1  0.871246  0.843386  0.894721  1
  Bi  Bi10  1  0.628754  0.656614  0.394721  1
  Bi  Bi11  1  0.371246  0.343386  0.605279  1
  O  O12  1  0.510421  0.331661  0.058826  1
  O  O13  1  0.016658  0.316837  0.964042  1
  O  O14  1  0.507789  0.676176  0.204198  1
  O  O15  1  0.752780  0.506392  0.541566  1
  O  O16  1  0.799589  0.492820  0.284465  1
  O  O17  1  0.299589  0.992820  0.215535  1
  O  O18  1  0.516658  0.816837  0.535958  1
  O  O19  1  0.483342  0.183163  0.464042  1
  O  O20  1  0.247220  0.493608  0.458434  1
  O  O21  1  0.989579  0.168339  0.558826  1
  O  O22  1  0.200411  0.507180  0.715535  1
  O  O23  1  0.489579  0.668339  0.941174  1
  O  O24  1  0.010421  0.831661  0.441174  1
  O  O25  1  0.700411  0.007180  0.784465  1
  O  O26  1  0.747220  0.993608  0.041566  1
  O  O27  1  0.252780  0.006392  0.958434  1
  O  O28  1  0.492211  0.323824  0.795802  1
  O  O29  1  0.983342  0.683163  0.035958  1
  O  O30  1  0.992211  0.823824  0.704198  1
  O  O31  1  0.007789  0.176176  0.295802  1
