# generated using pymatgen
data_CaCrO2
_symmetry_space_group_name_H-M   'P 1'
_cell_length_a   3.12589549
_cell_length_b   9.01341993
_cell_length_c   8.84661292
_cell_angle_alpha   91.49918063
_cell_angle_beta   80.45899632
_cell_angle_gamma   79.86461172
_symmetry_Int_Tables_number   1
_chemical_formula_structural   CaCrO2
_chemical_formula_sum   'Ca4 Cr4 O8'
_cell_volume   241.57630397
_cell_formula_units_Z   4
loop_
 _symmetry_equiv_pos_site_id
 _symmetry_equiv_pos_as_xyz
  1  'x, y, z'
loop_
 _atom_site_type_symbol
 _atom_site_label
 _atom_site_symmetry_multiplicity
 _atom_site_fract_x
 _atom_site_fract_y
 _atom_site_fract_z
 _atom_site_occupancy
  Ca  Ca0  1  0.319296  0.062555  0.278480  1
  Ca  Ca1  1  0.675192  0.917990  0.753003  1
  Ca  Ca2  1  0.098785  0.680659  0.106987  1
  Ca  Ca3  1  0.897045  0.299877  0.921451  1
  Cr  Cr4  1  0.594128  0.216965  0.596008  1
  Cr  Cr5  1  0.186516  0.379388  0.240181  1
  Cr  Cr6  1  0.811027  0.599000  0.785690  1
  Cr  Cr7  1  0.399746  0.764968  0.433654  1
  O  O8  1  0.855252  0.725913  0.571538  1
  O  O9  1  0.376116  0.443643  0.814720  1
  O  O10  1  0.623664  0.533737  0.208259  1
  O  O11  1  0.138634  0.256500  0.457825  1
  O  O12  1  0.082663  0.115292  0.734038  1
  O  O13  1  0.795303  0.219026  0.164497  1
  O  O14  1  0.912797  0.864651  0.295300  1
  O  O15  1  0.202111  0.759171  0.863984  1
