# generated using pymatgen
data_Ca3(TiS2)8
_symmetry_space_group_name_H-M   'P 1'
_cell_length_a   6.90069771
_cell_length_b   6.98305343
_cell_length_c   13.59703325
_cell_angle_alpha   90.00000048
_cell_angle_beta   89.43279103
_cell_angle_gamma   120.39558185
_symmetry_Int_Tables_number   1
_chemical_formula_structural   Ca3(TiS2)8
_chemical_formula_sum   'Ca3 Ti8 S16'
_cell_volume   565.11854050
_cell_formula_units_Z   1
loop_
 _symmetry_equiv_pos_site_id
 _symmetry_equiv_pos_as_xyz
  1  'x, y, z'
loop_
 _atom_site_type_symbol
 _atom_site_label
 _atom_site_symmetry_multiplicity
 _atom_site_fract_x
 _atom_site_fract_y
 _atom_site_fract_z
 _atom_site_occupancy
  Ca  Ca0  1  -0.000000  0.500000  0.750000  1
  Ca  Ca1  1  0.500000  -0.000000  0.250000  1
  Ca  Ca2  1  0.500000  0.500000  0.250000  1
  Ti  Ti3  1  0.010764  0.005382  0.997985  1
  Ti  Ti4  1  0.989236  0.994618  0.502015  1
  Ti  Ti5  1  0.006653  0.503326  0.002382  1
  Ti  Ti6  1  0.993347  0.496674  0.497618  1
  Ti  Ti7  1  0.490868  0.000434  0.995510  1
  Ti  Ti8  1  0.509132  0.999566  0.504490  1
  Ti  Ti9  1  0.490868  0.490433  0.995510  1
  Ti  Ti10  1  0.509132  0.509567  0.504490  1
  S  S11  1  0.337818  0.168910  0.395655  1
  S  S12  1  0.335747  0.167874  0.890930  1
  S  S13  1  0.337068  0.668535  0.393085  1
  S  S14  1  0.338144  0.669073  0.892109  1
  S  S15  1  0.838018  0.167722  0.392960  1
  S  S16  1  0.836260  0.167520  0.895660  1
  S  S17  1  0.838018  0.670297  0.392960  1
  S  S18  1  0.836260  0.668741  0.895660  1
  S  S19  1  0.161982  0.329703  0.107040  1
  S  S20  1  0.163740  0.331259  0.604340  1
  S  S21  1  0.161982  0.832278  0.107040  1
  S  S22  1  0.163740  0.832480  0.604340  1
  S  S23  1  0.662932  0.331465  0.106915  1
  S  S24  1  0.661856  0.330927  0.607891  1
  S  S25  1  0.662182  0.831090  0.104345  1
  S  S26  1  0.664253  0.832126  0.609070  1
