# generated using pymatgen
data_Mg2CuSbO6
_symmetry_space_group_name_H-M   'P 1'
_cell_length_a   5.43560506
_cell_length_b   5.50906306
_cell_length_c   7.37143179
_cell_angle_alpha   90.00000000
_cell_angle_beta   90.00000000
_cell_angle_gamma   100.93296155
_symmetry_Int_Tables_number   1
_chemical_formula_structural   Mg2CuSbO6
_chemical_formula_sum   'Mg4 Cu2 Sb2 O12'
_cell_volume   216.73174640
_cell_formula_units_Z   2
loop_
 _symmetry_equiv_pos_site_id
 _symmetry_equiv_pos_as_xyz
  1  'x, y, z'
loop_
 _atom_site_type_symbol
 _atom_site_label
 _atom_site_symmetry_multiplicity
 _atom_site_fract_x
 _atom_site_fract_y
 _atom_site_fract_z
 _atom_site_occupancy
  Mg  Mg0  1  0.535561  0.579052  0.750000  1
  Mg  Mg1  1  0.464439  0.420948  0.250000  1
  Mg  Mg2  1  0.064397  0.026338  0.750000  1
  Mg  Mg3  1  0.935603  0.973662  0.250000  1
  Cu  Cu4  1  0.500000  0.000000  0.500000  1
  Cu  Cu5  1  0.500000  0.000000  0.000000  1
  Sb  Sb6  1  0.000000  0.500000  0.500000  1
  Sb  Sb7  1  0.000000  0.500000  0.000000  1
  O  O8  1  0.353779  0.674523  0.445376  1
  O  O9  1  0.135938  0.209541  0.072044  1
  O  O10  1  0.646221  0.325477  0.945376  1
  O  O11  1  0.864062  0.790459  0.572044  1
  O  O12  1  0.135938  0.209541  0.427956  1
  O  O13  1  0.864062  0.790459  0.927956  1
  O  O14  1  0.874266  0.589197  0.250000  1
  O  O15  1  0.353779  0.674523  0.054624  1
  O  O16  1  0.403066  0.918988  0.750000  1
  O  O17  1  0.646221  0.325477  0.554624  1
  O  O18  1  0.125734  0.410803  0.750000  1
  O  O19  1  0.596934  0.081012  0.250000  1
