# generated using pymatgen
data_Ca(FeS2)4
_symmetry_space_group_name_H-M   'P 1'
_cell_length_a   7.55353119
_cell_length_b   7.55353112
_cell_length_c   7.55353148
_cell_angle_alpha   52.10631252
_cell_angle_beta   52.10631055
_cell_angle_gamma   52.10631249
_symmetry_Int_Tables_number   1
_chemical_formula_structural   Ca(FeS2)4
_chemical_formula_sum   'Ca1 Fe4 S8'
_cell_volume   248.20498659
_cell_formula_units_Z   1
loop_
 _symmetry_equiv_pos_site_id
 _symmetry_equiv_pos_as_xyz
  1  'x, y, z'
loop_
 _atom_site_type_symbol
 _atom_site_label
 _atom_site_symmetry_multiplicity
 _atom_site_fract_x
 _atom_site_fract_y
 _atom_site_fract_z
 _atom_site_occupancy
  Ca  Ca0  1  0.500000  0.500001  0.499999  1
  Fe  Fe1  1  0.500001  0.999999  0.500001  1
  Fe  Fe2  1  0.999999  0.500000  0.500001  1
  Fe  Fe3  1  0.500000  0.500000  0.000000  1
  Fe  Fe4  1  0.000000  0.000000  0.000000  1
  S  S5  1  0.771814  0.266332  0.771814  1
  S  S6  1  0.228185  0.228186  0.733668  1
  S  S7  1  0.228185  0.733669  0.228185  1
  S  S8  1  0.733667  0.228186  0.228186  1
  S  S9  1  0.268273  0.268274  0.268273  1
  S  S10  1  0.731727  0.731727  0.731727  1
  S  S11  1  0.266333  0.771815  0.771814  1
  S  S12  1  0.771815  0.771815  0.266332  1
