# generated using pymatgen
data_ZnFeNiP2O9
_symmetry_space_group_name_H-M   'P 1'
_cell_length_a   6.23124466
_cell_length_b   7.38674542
_cell_length_c   14.20968598
_cell_angle_alpha   90.10615945
_cell_angle_beta   89.99873350
_cell_angle_gamma   89.99821514
_symmetry_Int_Tables_number   1
_chemical_formula_structural   ZnFeNiP2O9
_chemical_formula_sum   'Zn4 Fe4 Ni4 P8 O36'
_cell_volume   654.05108404
_cell_formula_units_Z   4
loop_
 _symmetry_equiv_pos_site_id
 _symmetry_equiv_pos_as_xyz
  1  'x, y, z'
loop_
 _atom_site_type_symbol
 _atom_site_label
 _atom_site_symmetry_multiplicity
 _atom_site_fract_x
 _atom_site_fract_y
 _atom_site_fract_z
 _atom_site_occupancy
  Zn  Zn0  1  0.749988  0.929287  0.780087  1
  Zn  Zn1  1  0.749997  0.570953  0.279939  1
  Zn  Zn2  1  0.250001  0.070025  0.219886  1
  Zn  Zn3  1  0.250009  0.427062  0.721602  1
  Fe  Fe4  1  0.749998  0.353269  0.882599  1
  Fe  Fe5  1  0.249997  0.646599  0.117335  1
  Fe  Fe6  1  0.250013  0.853972  0.616621  1
  Fe  Fe7  1  0.749981  0.145974  0.383316  1
  Ni  Ni8  1  0.499934  0.000018  0.999960  1
  Ni  Ni9  1  0.499813  0.500704  0.499645  1
  Ni  Ni10  1  0.000284  0.500717  0.499676  1
  Ni  Ni11  1  0.000038  0.000019  0.999948  1
  P  P12  1  0.249995  0.357172  0.930052  1
  P  P13  1  0.749996  0.642740  0.070034  1
  P  P14  1  0.750004  0.856437  0.569978  1
  P  P15  1  0.249991  0.144533  0.430442  1
  P  P16  1  0.750002  0.379387  0.696072  1
  P  P17  1  0.249992  0.620365  0.303710  1
  P  P18  1  0.249996  0.879120  0.803079  1
  P  P19  1  0.749997  0.120325  0.196568  1
  O  O20  1  0.036861  0.609147  0.361618  1
  O  O21  1  0.536784  0.390441  0.638338  1
  O  O22  1  0.962744  0.109278  0.138561  1
  O  O23  1  0.462596  0.890131  0.861188  1
  O  O24  1  0.963217  0.390455  0.638334  1
  O  O25  1  0.463141  0.609155  0.361608  1
  O  O26  1  0.037389  0.890133  0.861191  1
  O  O27  1  0.537260  0.109279  0.138566  1
  O  O28  1  0.250007  0.334359  0.477434  1
  O  O29  1  0.750001  0.666714  0.522736  1
  O  O30  1  0.750000  0.831915  0.022734  1
  O  O31  1  0.249993  0.167837  0.977069  1
  O  O32  1  0.749991  0.131173  0.948477  1
  O  O33  1  0.249997  0.868629  0.051362  1
  O  O34  1  0.250036  0.634513  0.549041  1
  O  O35  1  0.750017  0.367206  0.449963  1
  O  O36  1  0.750015  0.200292  0.755555  1
  O  O37  1  0.249983  0.799580  0.244639  1
  O  O38  1  0.250006  0.700088  0.743171  1
  O  O39  1  0.749989  0.299768  0.256128  1
  O  O40  1  0.439167  0.129054  0.360590  1
  O  O41  1  0.939216  0.870768  0.639928  1
  O  O42  1  0.560892  0.628789  0.140218  1
  O  O43  1  0.061081  0.371231  0.859696  1
  O  O44  1  0.560794  0.870801  0.639937  1
  O  O45  1  0.060817  0.129066  0.360597  1
  O  O46  1  0.438922  0.371230  0.859695  1
  O  O47  1  0.939091  0.628781  0.140219  1
  O  O48  1  0.750008  0.969631  0.272824  1
  O  O49  1  0.249990  0.030302  0.727008  1
  O  O50  1  0.249999  0.469803  0.227305  1
  O  O51  1  0.749992  0.529877  0.772733  1
  O  O52  1  0.749992  0.002334  0.495815  1
  O  O53  1  0.249996  0.999806  0.505231  1
  O  O54  1  0.249992  0.504596  0.003682  1
  O  O55  1  0.749999  0.495159  0.996265  1
