# generated using pymatgen
data_LaMgCrMoO6
_symmetry_space_group_name_H-M   'P 1'
_cell_length_a   5.41402480
_cell_length_b   5.56114738
_cell_length_c   7.94192543
_cell_angle_alpha   90.00000000
_cell_angle_beta   89.64232910
_cell_angle_gamma   90.00000000
_symmetry_Int_Tables_number   1
_chemical_formula_structural   LaMgCrMoO6
_chemical_formula_sum   'La2 Mg2 Cr2 Mo2 O12'
_cell_volume   239.11233957
_cell_formula_units_Z   2
loop_
 _symmetry_equiv_pos_site_id
 _symmetry_equiv_pos_as_xyz
  1  'x, y, z'
loop_
 _atom_site_type_symbol
 _atom_site_label
 _atom_site_symmetry_multiplicity
 _atom_site_fract_x
 _atom_site_fract_y
 _atom_site_fract_z
 _atom_site_occupancy
  La  La0  1  0.004512  0.957843  0.750640  1
  La  La1  1  0.504512  0.542157  0.250640  1
  Mg  Mg2  1  0.481579  0.447989  0.750598  1
  Mg  Mg3  1  0.981579  0.052011  0.250598  1
  Cr  Cr4  1  0.499530  0.000263  0.499362  1
  Cr  Cr5  1  0.999530  0.499737  0.999362  1
  Mo  Mo6  1  0.498675  0.004169  0.000235  1
  Mo  Mo7  1  0.998675  0.495832  0.500235  1
  O  O8  1  0.089822  0.434190  0.243360  1
  O  O9  1  0.217408  0.222336  0.938405  1
  O  O10  1  0.214693  0.212615  0.557801  1
  O  O11  1  0.314502  0.693718  0.939397  1
  O  O12  1  0.314475  0.692450  0.564813  1
  O  O13  1  0.364802  0.965214  0.255391  1
  O  O14  1  0.589822  0.065810  0.743360  1
  O  O15  1  0.717408  0.277664  0.438405  1
  O  O16  1  0.714693  0.287386  0.057801  1
  O  O17  1  0.814502  0.806282  0.439397  1
  O  O18  1  0.814475  0.807550  0.064813  1
  O  O19  1  0.864802  0.534786  0.755391  1
