# generated using pymatgen
data_Ca(SnO2)2
_symmetry_space_group_name_H-M   'P 1'
_cell_length_a   3.23691590
_cell_length_b   10.85824984
_cell_length_c   11.45129080
_cell_angle_alpha   90.03476521
_cell_angle_beta   89.98306055
_cell_angle_gamma   89.99191160
_symmetry_Int_Tables_number   1
_chemical_formula_structural   Ca(SnO2)2
_chemical_formula_sum   'Ca4 Sn8 O16'
_cell_volume   402.48118767
_cell_formula_units_Z   4
loop_
 _symmetry_equiv_pos_site_id
 _symmetry_equiv_pos_as_xyz
  1  'x, y, z'
loop_
 _atom_site_type_symbol
 _atom_site_label
 _atom_site_symmetry_multiplicity
 _atom_site_fract_x
 _atom_site_fract_y
 _atom_site_fract_z
 _atom_site_occupancy
  Ca  Ca0  1  0.262897  0.750691  0.142939  1
  Ca  Ca1  1  0.261906  0.250297  0.356872  1
  Ca  Ca2  1  0.737249  0.749826  0.643004  1
  Ca  Ca3  1  0.737824  0.249787  0.856730  1
  Sn  Sn4  1  0.760755  0.581810  0.390397  1
  Sn  Sn5  1  0.758924  0.081858  0.109595  1
  Sn  Sn6  1  0.239910  0.081670  0.609448  1
  Sn  Sn7  1  0.754228  0.428115  0.119699  1
  Sn  Sn8  1  0.245444  0.428422  0.619656  1
  Sn  Sn9  1  0.755203  0.928384  0.380386  1
  Sn  Sn10  1  0.245308  0.928430  0.880377  1
  Sn  Sn11  1  0.239849  0.581712  0.890829  1
  O  O12  1  0.256034  0.875933  0.500576  1
  O  O13  1  0.755371  0.109415  0.457550  1
  O  O14  1  0.255053  -0.010125  0.277465  1
  O  O15  1  0.744222  0.875613  0.000170  1
  O  O16  1  0.754677  0.609331  0.042863  1
  O  O17  1  0.760942  0.264010  0.212102  1
  O  O18  1  0.245126  0.109399  0.957788  1
  O  O19  1  0.238568  0.264677  0.712279  1
  O  O20  1  0.254076  0.488584  0.223059  1
  O  O21  1  0.745591  0.990536  0.777733  1
  O  O22  1  0.244888  0.609315  0.542165  1
  O  O23  1  0.238339  0.765059  0.787380  1
  O  O24  1  0.762126  0.764822  0.287434  1
  O  O25  1  0.745659  0.490061  0.722550  1
  O  O26  1  0.255091  0.376198  0.999378  1
  O  O27  1  0.744739  0.376168  0.499576  1
