# generated using pymatgen
data_Mn3Zn2O8
_symmetry_space_group_name_H-M   'P 1'
_cell_length_a   5.85975665
_cell_length_b   5.85975641
_cell_length_c   9.38420728
_cell_angle_alpha   90.00000000
_cell_angle_beta   90.00000000
_cell_angle_gamma   120.00000141
_symmetry_Int_Tables_number   1
_chemical_formula_structural   Mn3Zn2O8
_chemical_formula_sum   'Mn6 Zn4 O16'
_cell_volume   279.05342737
_cell_formula_units_Z   2
loop_
 _symmetry_equiv_pos_site_id
 _symmetry_equiv_pos_as_xyz
  1  'x, y, z'
loop_
 _atom_site_type_symbol
 _atom_site_label
 _atom_site_symmetry_multiplicity
 _atom_site_fract_x
 _atom_site_fract_y
 _atom_site_fract_z
 _atom_site_occupancy
  Mn  Mn0  1  0.671872  0.835936  0.245014  1
  Mn  Mn1  1  0.835937  0.164065  0.745014  1
  Mn  Mn2  1  0.164065  0.328129  0.245014  1
  Mn  Mn3  1  0.835935  0.671872  0.745014  1
  Mn  Mn4  1  0.328129  0.164065  0.745014  1
  Mn  Mn5  1  0.164065  0.835936  0.245014  1
  Zn  Zn6  1  0.666667  0.333334  0.033218  1
  Zn  Zn7  1  0.333333  0.666666  0.533219  1
  Zn  Zn8  1  0.666667  0.333334  0.415249  1
  Zn  Zn9  1  0.333333  0.666666  0.915250  1
  O  O10  1  0.840820  0.159181  0.143706  1
  O  O11  1  0.681638  0.840820  0.643706  1
  O  O12  1  0.159181  0.318363  0.643706  1
  O  O13  1  0.840819  0.681638  0.143706  1
  O  O14  1  0.318362  0.159181  0.143706  1
  O  O15  1  0.159181  0.840820  0.643706  1
  O  O16  1  0.518572  0.481427  0.864131  1
  O  O17  1  0.037143  0.518572  0.364130  1
  O  O18  1  0.481428  0.962858  0.364130  1
  O  O19  1  0.518572  0.037143  0.864131  1
  O  O20  1  -0.000000  -0.000000  0.349717  1
  O  O21  1  -0.000000  -0.000000  0.849717  1
  O  O22  1  0.333333  0.666666  0.136762  1
  O  O23  1  0.962856  0.481427  0.864131  1
  O  O24  1  0.481427  0.518572  0.364130  1
  O  O25  1  0.666667  0.333334  0.636762  1
