# generated using pymatgen
data_Zn(WO2)2
_symmetry_space_group_name_H-M   'P 1'
_cell_length_a   6.35522191
_cell_length_b   6.35522177
_cell_length_c   6.26904932
_cell_angle_alpha   60.44751995
_cell_angle_beta   60.44753127
_cell_angle_gamma   62.63864749
_symmetry_Int_Tables_number   1
_chemical_formula_structural   Zn(WO2)2
_chemical_formula_sum   'Zn2 W4 O8'
_cell_volume   183.60818699
_cell_formula_units_Z   2
loop_
 _symmetry_equiv_pos_site_id
 _symmetry_equiv_pos_as_xyz
  1  'x, y, z'
loop_
 _atom_site_type_symbol
 _atom_site_label
 _atom_site_symmetry_multiplicity
 _atom_site_fract_x
 _atom_site_fract_y
 _atom_site_fract_z
 _atom_site_occupancy
  Zn  Zn0  1  0.125000  0.625000  0.625000  1
  Zn  Zn1  1  0.625000  0.125000  0.625000  1
  W  W2  1  0.026673  0.026673  0.973327  1
  W  W3  1  0.223327  0.223327  0.276673  1
  W  W4  1  0.625000  0.625000  0.125000  1
  W  W5  1  0.625000  0.625000  0.625000  1
  O  O6  1  0.378855  0.378855  0.383312  1
  O  O7  1  0.391603  0.840753  0.383822  1
  O  O8  1  0.378855  0.378855  0.858980  1
  O  O9  1  0.840753  0.391603  0.383822  1
  O  O10  1  0.409247  0.858397  0.866178  1
  O  O11  1  0.858397  0.409247  0.866178  1
  O  O12  1  0.871145  0.871145  0.391020  1
  O  O13  1  0.871145  0.871145  0.866688  1
