# generated using pymatgen
data_ZnCr2O4
_symmetry_space_group_name_H-M   'P 1'
_cell_length_a   6.05605364
_cell_length_b   5.99975746
_cell_length_c   5.99975746
_cell_angle_alpha   59.99999660
_cell_angle_beta   60.30702777
_cell_angle_gamma   60.30702720
_symmetry_Int_Tables_number   1
_chemical_formula_structural   ZnCr2O4
_chemical_formula_sum   'Zn2 Cr4 O8'
_cell_volume   154.86098563
_cell_formula_units_Z   2
loop_
 _symmetry_equiv_pos_site_id
 _symmetry_equiv_pos_as_xyz
  1  'x, y, z'
loop_
 _atom_site_type_symbol
 _atom_site_label
 _atom_site_symmetry_multiplicity
 _atom_site_fract_x
 _atom_site_fract_y
 _atom_site_fract_z
 _atom_site_occupancy
  Zn  Zn0  1  0.989978  0.003341  0.003341  1
  Zn  Zn1  1  0.120060  0.626647  0.626647  1
  Cr  Cr2  1  0.263547  0.245484  0.245484  1
  Cr  Cr3  1  0.627064  0.121545  0.625695  1
  Cr  Cr4  1  0.627064  0.625695  0.121545  1
  Cr  Cr5  1  0.627064  0.625695  0.625695  1
  O  O6  1  0.397247  0.375127  0.375127  1
  O  O7  1  0.397247  0.375127  0.852498  1
  O  O8  1  0.397247  0.852498  0.375127  1
  O  O9  1  0.842610  0.385796  0.385796  1
  O  O10  1  0.407175  0.864275  0.864275  1
  O  O11  1  0.851233  0.407086  0.870840  1
  O  O12  1  0.851233  0.870840  0.407086  1
  O  O13  1  0.851233  0.870840  0.870840  1
