# generated using pymatgen
data_CaCrF5
_symmetry_space_group_name_H-M   'P 1'
_cell_length_a   5.59045197
_cell_length_b   5.61924725
_cell_length_c   7.78370407
_cell_angle_alpha   96.39385051
_cell_angle_beta   112.45122871
_cell_angle_gamma   108.27032069
_symmetry_Int_Tables_number   1
_chemical_formula_structural   CaCrF5
_chemical_formula_sum   'Ca2 Cr2 F10'
_cell_volume   207.01979148
_cell_formula_units_Z   2
loop_
 _symmetry_equiv_pos_site_id
 _symmetry_equiv_pos_as_xyz
  1  'x, y, z'
loop_
 _atom_site_type_symbol
 _atom_site_label
 _atom_site_symmetry_multiplicity
 _atom_site_fract_x
 _atom_site_fract_y
 _atom_site_fract_z
 _atom_site_occupancy
  Ca  Ca0  1  0.291680  0.540741  0.748451  1
  Ca  Ca1  1  0.705751  0.455537  0.247768  1
  Cr  Cr2  1  0.000168  0.999342  0.000007  1
  Cr  Cr3  1  0.499729  0.997838  0.499885  1
  F  F4  1  0.325944  0.076684  0.250771  1
  F  F5  1  0.671512  0.921638  0.750450  1
  F  F6  1  0.591101  0.744854  0.381784  1
  F  F7  1  0.864970  0.208106  0.118356  1
  F  F8  1  0.746636  0.697426  0.031458  1
  F  F9  1  0.163147  0.716665  0.470087  1
  F  F10  1  0.253506  0.302536  0.967854  1
  F  F11  1  0.833939  0.281814  0.527897  1
  F  F12  1  0.136503  0.787689  0.885248  1
  F  F13  1  0.407919  0.245966  0.622174  1
