# generated using pymatgen
data_Mg3Si4(BiO7)2
_symmetry_space_group_name_H-M   'P 1'
_cell_length_a   8.39647764
_cell_length_b   9.78347729
_cell_length_c   9.67584031
_cell_angle_alpha   64.53196339
_cell_angle_beta   64.28539127
_cell_angle_gamma   64.58857637
_symmetry_Int_Tables_number   1
_chemical_formula_structural   Mg3Si4(BiO7)2
_chemical_formula_sum   'Mg6 Si8 Bi4 O28'
_cell_volume   617.12408374
_cell_formula_units_Z   2
loop_
 _symmetry_equiv_pos_site_id
 _symmetry_equiv_pos_as_xyz
  1  'x, y, z'
loop_
 _atom_site_type_symbol
 _atom_site_label
 _atom_site_symmetry_multiplicity
 _atom_site_fract_x
 _atom_site_fract_y
 _atom_site_fract_z
 _atom_site_occupancy
  Mg  Mg0  1  0.932266  0.924642  0.441892  1
  Mg  Mg1  1  0.298801  0.575358  0.058108  1
  Mg  Mg2  1  0.701199  0.424642  0.941892  1
  Mg  Mg3  1  0.611794  0.250000  0.750000  1
  Mg  Mg4  1  0.067734  0.075358  0.558108  1
  Mg  Mg5  1  0.388206  0.750000  0.250000  1
  Si  Si6  1  0.484368  0.281070  0.324483  1
  Si  Si7  1  0.910078  0.781070  0.824483  1
  Si  Si8  1  0.508286  0.882263  0.873389  1
  Si  Si9  1  0.736063  0.382263  0.373389  1
  Si  Si10  1  0.089922  0.218930  0.175517  1
  Si  Si11  1  0.491714  0.117737  0.126611  1
  Si  Si12  1  0.263937  0.617737  0.626611  1
  Si  Si13  1  0.515632  0.718930  0.675517  1
  Bi  Bi14  1  0.224646  0.250000  0.750000  1
  Bi  Bi15  1  0.775354  0.750000  0.250000  1
  Bi  Bi16  1  0.000000  0.000000  0.000000  1
  Bi  Bi17  1  0.000000  0.500000  0.500000  1
  O  O18  1  0.189551  0.685024  0.467192  1
  O  O19  1  0.065395  0.591852  0.228974  1
  O  O20  1  0.492077  0.936969  0.169027  1
  O  O21  1  0.113779  0.091852  0.728974  1
  O  O22  1  0.713198  0.686912  0.534796  1
  O  O23  1  0.920617  0.377096  0.211676  1
  O  O24  1  0.401926  0.436969  0.669027  1
  O  O25  1  0.934906  0.813088  0.965204  1
  O  O26  1  0.079383  0.622904  0.788324  1
  O  O27  1  0.350270  0.755819  0.601093  1
  O  O28  1  0.934605  0.408148  0.771026  1
  O  O29  1  0.286802  0.313088  0.465204  1
  O  O30  1  0.509389  0.122904  0.288324  1
  O  O31  1  0.658232  0.185024  0.967192  1
  O  O32  1  0.292818  0.255819  0.101093  1
  O  O33  1  0.065094  0.186912  0.034796  1
  O  O34  1  0.084516  0.074210  0.344248  1
  O  O35  1  0.649730  0.244181  0.398907  1
  O  O36  1  0.502973  0.425790  0.155752  1
  O  O37  1  0.707182  0.744181  0.898907  1
  O  O38  1  0.490611  0.877096  0.711676  1
  O  O39  1  0.886221  0.908148  0.271026  1
  O  O40  1  0.497027  0.574210  0.844248  1
  O  O41  1  0.507923  0.063031  0.830973  1
  O  O42  1  0.915484  0.925790  0.655752  1
  O  O43  1  0.598074  0.563031  0.330973  1
  O  O44  1  0.341768  0.814976  0.032808  1
  O  O45  1  0.810449  0.314976  0.532808  1
