# generated using pymatgen
data_NiP2WO9
_symmetry_space_group_name_H-M   'P 1'
_cell_length_a   6.43422261
_cell_length_b   8.03307979
_cell_length_c   14.04677593
_cell_angle_alpha   90.00908250
_cell_angle_beta   90.00132768
_cell_angle_gamma   90.00003515
_symmetry_Int_Tables_number   1
_chemical_formula_structural   NiP2WO9
_chemical_formula_sum   'Ni4 P8 W4 O36'
_cell_volume   726.03041147
_cell_formula_units_Z   4
loop_
 _symmetry_equiv_pos_site_id
 _symmetry_equiv_pos_as_xyz
  1  'x, y, z'
loop_
 _atom_site_type_symbol
 _atom_site_label
 _atom_site_symmetry_multiplicity
 _atom_site_fract_x
 _atom_site_fract_y
 _atom_site_fract_z
 _atom_site_occupancy
  Ni  Ni0  1  0.500069  0.999958  0.000041  1
  Ni  Ni1  1  0.500013  0.500115  0.499959  1
  Ni  Ni2  1  0.999763  0.499988  0.500112  1
  Ni  Ni3  1  0.000353  0.000284  -0.000001  1
  P  P4  1  0.250001  0.341611  0.943332  1
  P  P5  1  0.749996  0.658415  0.056632  1
  P  P6  1  0.750013  0.841582  0.556609  1
  P  P7  1  0.249971  0.158425  0.443400  1
  P  P8  1  0.749970  0.394191  0.682439  1
  P  P9  1  0.249924  0.605779  0.317564  1
  P  P10  1  0.250033  0.894117  0.817578  1
  P  P11  1  0.749975  0.105863  0.182431  1
  W  W12  1  0.749991  0.353277  0.875202  1
  W  W13  1  0.250000  0.646697  0.124790  1
  W  W14  1  0.250011  0.853325  0.624785  1
  W  W15  1  0.749972  0.146661  0.375213  1
  O  O16  1  0.049409  0.601109  0.372941  1
  O  O17  1  0.549495  0.398834  0.627040  1
  O  O18  1  0.950507  0.101268  0.127097  1
  O  O19  1  0.450565  0.898707  0.872952  1
  O  O20  1  0.950549  0.398801  0.627136  1
  O  O21  1  0.450509  0.601218  0.372875  1
  O  O22  1  0.049511  0.898756  0.872923  1
  O  O23  1  0.549430  0.101316  0.127094  1
  O  O24  1  0.249966  0.334711  0.481909  1
  O  O25  1  0.749997  0.665347  0.518084  1
  O  O26  1  0.750065  0.834655  0.018130  1
  O  O27  1  0.250053  0.165382  0.981865  1
  O  O28  1  0.750014  0.160697  0.942817  1
  O  O29  1  0.250009  0.839302  0.057173  1
  O  O30  1  0.250005  0.660729  0.557120  1
  O  O31  1  0.749974  0.339262  0.442873  1
  O  O32  1  0.750021  0.232655  0.754138  1
  O  O33  1  0.249958  0.767314  0.245826  1
  O  O34  1  0.250018  0.732629  0.745793  1
  O  O35  1  0.749966  0.267354  0.254216  1
  O  O36  1  0.443375  0.126932  0.379969  1
  O  O37  1  0.943422  0.873007  0.620058  1
  O  O38  1  0.556594  0.626958  0.120076  1
  O  O39  1  0.056587  0.373002  0.879899  1
  O  O40  1  0.556596  0.873014  0.620048  1
  O  O41  1  0.056576  0.126933  0.379962  1
  O  O42  1  0.443399  0.372971  0.879886  1
  O  O43  1  0.943415  0.626930  0.120064  1
  O  O44  1  0.749935  0.976183  0.269948  1
  O  O45  1  0.250063  0.023778  0.730057  1
  O  O46  1  0.249995  0.476163  0.229991  1
  O  O47  1  0.749989  0.523817  0.769983  1
  O  O48  1  0.750008  0.976602  0.477892  1
  O  O49  1  0.249972  0.023403  0.522115  1
  O  O50  1  0.250028  0.476684  0.022032  1
  O  O51  1  0.749968  0.523287  0.977924  1
