# generated using pymatgen
data_CaTiP2O7
_symmetry_space_group_name_H-M   'P 1'
_cell_length_a   6.24229005
_cell_length_b   6.68401961
_cell_length_c   7.25929956
_cell_angle_alpha   84.32999518
_cell_angle_beta   87.69389101
_cell_angle_gamma   68.03294207
_symmetry_Int_Tables_number   1
_chemical_formula_structural   CaTiP2O7
_chemical_formula_sum   'Ca2 Ti2 P4 O14'
_cell_volume   279.51831112
_cell_formula_units_Z   2
loop_
 _symmetry_equiv_pos_site_id
 _symmetry_equiv_pos_as_xyz
  1  'x, y, z'
loop_
 _atom_site_type_symbol
 _atom_site_label
 _atom_site_symmetry_multiplicity
 _atom_site_fract_x
 _atom_site_fract_y
 _atom_site_fract_z
 _atom_site_occupancy
  Ca  Ca0  1  0.293707  0.713709  0.634433  1
  Ca  Ca1  1  0.706288  0.286321  0.365529  1
  Ti  Ti2  1  0.268049  0.127554  0.171458  1
  Ti  Ti3  1  0.731922  0.872505  0.828594  1
  P  P4  1  0.168429  0.657588  0.121415  1
  P  P5  1  0.831513  0.342465  0.878534  1
  P  P6  1  0.237583  0.218365  0.612223  1
  P  P7  1  0.762474  0.781583  0.387817  1
  O  O8  1  0.080315  0.732080  0.920242  1
  O  O9  1  0.919628  0.267970  0.079785  1
  O  O10  1  0.249268  0.814836  0.207221  1
  O  O11  1  0.750698  0.185213  0.792767  1
  O  O12  1  0.338237  0.420648  0.140743  1
  O  O13  1  0.661781  0.579368  0.859151  1
  O  O14  1  0.637043  0.630776  0.452385  1
  O  O15  1  0.362936  0.369225  0.547589  1
  O  O16  1  0.104984  0.168245  0.459812  1
  O  O17  1  0.895042  0.831634  0.540240  1
  O  O18  1  0.058313  0.350353  0.762917  1
  O  O19  1  0.606336  0.998074  0.286315  1
  O  O20  1  0.393711  0.001919  0.713698  1
  O  O21  1  0.941747  0.649566  0.237134  1
