# generated using pymatgen
data_Cu2GeSe4
_symmetry_space_group_name_H-M   'P 1'
_cell_length_a   5.63012651
_cell_length_b   5.63012644
_cell_length_c   6.51369385
_cell_angle_alpha   115.60574357
_cell_angle_beta   115.60574449
_cell_angle_gamma   89.99999632
_symmetry_Int_Tables_number   1
_chemical_formula_structural   Cu2GeSe4
_chemical_formula_sum   'Cu2 Ge1 Se4'
_cell_volume   163.42030110
_cell_formula_units_Z   1
loop_
 _symmetry_equiv_pos_site_id
 _symmetry_equiv_pos_as_xyz
  1  'x, y, z'
loop_
 _atom_site_type_symbol
 _atom_site_label
 _atom_site_symmetry_multiplicity
 _atom_site_fract_x
 _atom_site_fract_y
 _atom_site_fract_z
 _atom_site_occupancy
  Cu  Cu0  1  0.750000  0.250000  0.500000  1
  Cu  Cu1  1  0.250000  0.750000  0.500000  1
  Ge  Ge2  1  0.500000  0.500000  0.000000  1
  Se  Se3  1  0.365567  0.365567  0.246341  1
  Se  Se4  1  0.119226  0.634433  0.753659  1
  Se  Se5  1  0.634433  0.119226  0.753659  1
  Se  Se6  1  0.880774  0.880774  0.246341  1
