# generated using pymatgen
data_Ca3Mn2(IrO6)2
_symmetry_space_group_name_H-M   'P 1'
_cell_length_a   5.37089101
_cell_length_b   5.50616196
_cell_length_c   7.70823162
_cell_angle_alpha   90.06035903
_cell_angle_beta   90.07060023
_cell_angle_gamma   90.99572631
_symmetry_Int_Tables_number   1
_chemical_formula_structural   Ca3Mn2(IrO6)2
_chemical_formula_sum   'Ca3 Mn2 Ir2 O12'
_cell_volume   227.92077363
_cell_formula_units_Z   1
loop_
 _symmetry_equiv_pos_site_id
 _symmetry_equiv_pos_as_xyz
  1  'x, y, z'
loop_
 _atom_site_type_symbol
 _atom_site_label
 _atom_site_symmetry_multiplicity
 _atom_site_fract_x
 _atom_site_fract_y
 _atom_site_fract_z
 _atom_site_occupancy
  Ca  Ca0  1  0.009362  0.947903  0.249440  1
  Ca  Ca1  1  0.482781  0.444835  0.250850  1
  Ca  Ca2  1  0.987968  0.052130  0.750890  1
  Mn  Mn3  1  0.996761  0.499480  0.992634  1
  Mn  Mn4  1  0.501291  0.989529  0.506977  1
  Ir  Ir5  1  0.997422  0.500108  0.506813  1
  Ir  Ir6  1  0.501310  0.993828  0.993569  1
  O  O7  1  0.091939  0.482479  0.744530  1
  O  O8  1  0.207554  0.197948  0.043083  1
  O  O9  1  0.197060  0.208444  0.456257  1
  O  O10  1  0.293245  0.710518  0.054464  1
  O  O11  1  0.285528  0.708313  0.444290  1
  O  O12  1  0.409444  0.966847  0.754720  1
  O  O13  1  0.582963  0.023701  0.245366  1
  O  O14  1  0.708829  0.293671  0.547295  1
  O  O15  1  0.701037  0.289206  0.953415  1
  O  O16  1  0.805288  0.810604  0.964888  1
  O  O17  1  0.816450  0.803325  0.535432  1
  O  O18  1  0.908673  0.515819  0.254945  1
