# generated using pymatgen
data_Zn2WN2
_symmetry_space_group_name_H-M   'P 1'
_cell_length_a   5.14326187
_cell_length_b   6.32341451
_cell_length_c   5.69046803
_cell_angle_alpha   60.07211426
_cell_angle_beta   63.13312759
_cell_angle_gamma   66.00331092
_symmetry_Int_Tables_number   1
_chemical_formula_structural   Zn2WN2
_chemical_formula_sum   'Zn4 W2 N4'
_cell_volume   139.09335750
_cell_formula_units_Z   2
loop_
 _symmetry_equiv_pos_site_id
 _symmetry_equiv_pos_as_xyz
  1  'x, y, z'
loop_
 _atom_site_type_symbol
 _atom_site_label
 _atom_site_symmetry_multiplicity
 _atom_site_fract_x
 _atom_site_fract_y
 _atom_site_fract_z
 _atom_site_occupancy
  Zn  Zn0  1  0.697261  0.303148  0.302331  1
  Zn  Zn1  1  0.302739  0.696851  0.697669  1
  Zn  Zn2  1  0.064247  0.683206  0.188299  1
  Zn  Zn3  1  0.935753  0.316794  0.811701  1
  W  W4  1  0.341542  0.177588  0.139328  1
  W  W5  1  0.658458  0.822412  0.860672  1
  N  N6  1  0.142014  0.270040  0.445932  1
  N  N7  1  0.857986  0.729960  0.554068  1
  N  N8  1  0.548536  0.178241  0.724688  1
  N  N9  1  0.451464  0.821759  0.275312  1
