# generated using pymatgen
data_CaMn2O4
_symmetry_space_group_name_H-M   'P 1'
_cell_length_a   6.34643828
_cell_length_b   6.31428020
_cell_length_c   6.31229821
_cell_angle_alpha   89.58079213
_cell_angle_beta   120.00150338
_cell_angle_gamma   120.04772862
_symmetry_Int_Tables_number   1
_chemical_formula_structural   CaMn2O4
_chemical_formula_sum   'Ca2 Mn4 O8'
_cell_volume   179.37727110
_cell_formula_units_Z   2
loop_
 _symmetry_equiv_pos_site_id
 _symmetry_equiv_pos_as_xyz
  1  'x, y, z'
loop_
 _atom_site_type_symbol
 _atom_site_label
 _atom_site_symmetry_multiplicity
 _atom_site_fract_x
 _atom_site_fract_y
 _atom_site_fract_z
 _atom_site_occupancy
  Ca  Ca0  1  0.249638  0.124372  0.875399  1
  Ca  Ca1  1  0.750144  0.875561  0.124606  1
  Mn  Mn2  1  0.500255  -0.000366  0.500331  1
  Mn  Mn3  1  0.500118  0.500292  0.499887  1
  Mn  Mn4  1  0.000219  0.499931  -0.000133  1
  Mn  Mn5  1  0.000424  0.500138  0.500335  1
  O  O6  1  0.969742  0.667854  0.230676  1
  O  O7  1  0.427351  0.760897  0.698032  1
  O  O8  1  0.530632  0.769728  0.332252  1
  O  O9  1  0.927350  0.698085  0.761180  1
  O  O10  1  0.469202  0.230270  0.667745  1
  O  O11  1  0.572619  0.239311  0.301849  1
  O  O12  1  0.072406  0.301583  0.238622  1
  O  O13  1  0.029901  0.332344  0.769220  1
