# generated using pymatgen
data_AlVO3
_symmetry_space_group_name_H-M   'P 1'
_cell_length_a   5.03605389
_cell_length_b   5.05276057
_cell_length_c   7.86298912
_cell_angle_alpha   90.15026448
_cell_angle_beta   89.98363391
_cell_angle_gamma   89.99204102
_symmetry_Int_Tables_number   1
_chemical_formula_structural   AlVO3
_chemical_formula_sum   'Al4 V4 O12'
_cell_volume   200.08072270
_cell_formula_units_Z   4
loop_
 _symmetry_equiv_pos_site_id
 _symmetry_equiv_pos_as_xyz
  1  'x, y, z'
loop_
 _atom_site_type_symbol
 _atom_site_label
 _atom_site_symmetry_multiplicity
 _atom_site_fract_x
 _atom_site_fract_y
 _atom_site_fract_z
 _atom_site_occupancy
  Al  Al0  1  0.977007  0.995305  0.748465  1
  Al  Al1  1  0.476357  0.504577  0.250124  1
  Al  Al2  1  0.523646  0.495430  0.749871  1
  Al  Al3  1  0.022998  0.004698  0.251531  1
  V  V4  1  0.000015  0.500008  0.500009  1
  V  V5  1  0.499999  0.000012  0.500000  1
  V  V6  1  0.499996  0.999973  0.999982  1
  V  V7  1  0.999987  0.499988  0.000017  1
  O  O8  1  0.650592  0.336095  0.418818  1
  O  O9  1  0.150664  0.163702  0.579542  1
  O  O10  1  0.849244  0.836427  0.082312  1
  O  O11  1  0.349675  0.663309  0.919188  1
  O  O12  1  0.349414  0.663938  0.581182  1
  O  O13  1  0.849341  0.836314  0.420461  1
  O  O14  1  0.150758  0.163567  0.917688  1
  O  O15  1  0.650306  0.336648  0.080809  1
  O  O16  1  0.139539  0.357267  0.249821  1
  O  O17  1  0.640191  0.142810  0.749527  1
  O  O18  1  0.359812  0.857194  0.250469  1
  O  O19  1  0.860459  0.642737  0.750184  1
