# generated using pymatgen
data_MgCrBiO5
_symmetry_space_group_name_H-M   'P 1'
_cell_length_a   5.27599996
_cell_length_b   10.67958293
_cell_length_c   15.35931483
_cell_angle_alpha   90.00000000
_cell_angle_beta   90.00000000
_cell_angle_gamma   90.00000000
_symmetry_Int_Tables_number   1
_chemical_formula_structural   MgCrBiO5
_chemical_formula_sum   'Mg8 Cr8 Bi8 O40'
_cell_volume   865.42795292
_cell_formula_units_Z   8
loop_
 _symmetry_equiv_pos_site_id
 _symmetry_equiv_pos_as_xyz
  1  'x, y, z'
loop_
 _atom_site_type_symbol
 _atom_site_label
 _atom_site_symmetry_multiplicity
 _atom_site_fract_x
 _atom_site_fract_y
 _atom_site_fract_z
 _atom_site_occupancy
  Mg  Mg0  1  0.503320  0.359615  0.450453  1
  Mg  Mg1  1  0.003320  0.140385  0.450453  1
  Mg  Mg2  1  0.003320  0.640385  0.049548  1
  Mg  Mg3  1  0.996680  0.359615  0.950452  1
  Mg  Mg4  1  0.496680  0.140385  0.950452  1
  Mg  Mg5  1  0.996680  0.859615  0.549548  1
  Mg  Mg6  1  0.496680  0.640385  0.549548  1
  Mg  Mg7  1  0.503320  0.859615  0.049548  1
  Cr  Cr8  1  0.978739  0.399655  0.590270  1
  Cr  Cr9  1  0.521261  0.899655  0.409730  1
  Cr  Cr10  1  0.021261  0.600345  0.409730  1
  Cr  Cr11  1  0.478739  0.100345  0.590270  1
  Cr  Cr12  1  0.021261  0.100345  0.090270  1
  Cr  Cr13  1  0.978739  0.899655  0.909730  1
  Cr  Cr14  1  0.521261  0.399655  0.090270  1
  Cr  Cr15  1  0.478739  0.600345  0.909730  1
  Bi  Bi16  1  0.971453  0.853882  0.228087  1
  Bi  Bi17  1  0.028547  0.146118  0.771913  1
  Bi  Bi18  1  0.528547  0.353882  0.771913  1
  Bi  Bi19  1  0.028547  0.646118  0.728087  1
  Bi  Bi20  1  0.471453  0.146118  0.271913  1
  Bi  Bi21  1  0.471453  0.646118  0.228087  1
  Bi  Bi22  1  0.528547  0.853882  0.728087  1
  Bi  Bi23  1  0.971453  0.353882  0.271913  1
  O  O24  1  0.934352  0.332749  0.695073  1
  O  O25  1  0.307099  0.040042  0.058137  1
  O  O26  1  0.192901  0.540042  0.941863  1
  O  O27  1  0.275422  0.777345  0.145581  1
  O  O28  1  0.224578  0.277345  0.854419  1
  O  O29  1  0.934352  0.832749  0.804927  1
  O  O30  1  0.224578  0.777345  0.645581  1
  O  O31  1  0.565648  0.832749  0.304927  1
  O  O32  1  0.307099  0.540042  0.441863  1
  O  O33  1  0.065648  0.667251  0.304927  1
  O  O34  1  0.565648  0.332749  0.195073  1
  O  O35  1  0.643582  0.198737  0.524316  1
  O  O36  1  0.807099  0.959958  0.441863  1
  O  O37  1  0.724578  0.722655  0.645581  1
  O  O38  1  0.180903  0.025975  0.883580  1
  O  O39  1  0.807099  0.459958  0.058137  1
  O  O40  1  0.065648  0.167251  0.195073  1
  O  O41  1  0.775422  0.222655  0.354419  1
  O  O42  1  0.143582  0.801263  0.975684  1
  O  O43  1  0.192901  0.040042  0.558137  1
  O  O44  1  0.356418  0.801263  0.475684  1
  O  O45  1  0.819097  0.974025  0.116420  1
  O  O46  1  0.724578  0.222655  0.854419  1
  O  O47  1  0.680903  0.974025  0.616420  1
  O  O48  1  0.356418  0.301263  0.024316  1
  O  O49  1  0.143582  0.301263  0.524316  1
  O  O50  1  0.692901  0.459958  0.558137  1
  O  O51  1  0.692901  0.959958  0.941863  1
  O  O52  1  0.680903  0.474025  0.883580  1
  O  O53  1  0.856418  0.698737  0.475684  1
  O  O54  1  0.856418  0.198737  0.024316  1
  O  O55  1  0.643582  0.698737  0.975684  1
  O  O56  1  0.819097  0.474025  0.383580  1
  O  O57  1  0.775422  0.722655  0.145581  1
  O  O58  1  0.275422  0.277345  0.354419  1
  O  O59  1  0.180903  0.525975  0.616420  1
  O  O60  1  0.319097  0.525975  0.116420  1
  O  O61  1  0.434352  0.167251  0.695073  1
  O  O62  1  0.319097  0.025975  0.383580  1
  O  O63  1  0.434352  0.667251  0.804927  1
