# generated using pymatgen
data_Ba2YAg3O8
_symmetry_space_group_name_H-M   'P 1'
_cell_length_a   4.12474980
_cell_length_b   4.12468755
_cell_length_c   12.48359882
_cell_angle_alpha   90.00005518
_cell_angle_beta   89.99998152
_cell_angle_gamma   89.99997194
_symmetry_Int_Tables_number   1
_chemical_formula_structural   Ba2YAg3O8
_chemical_formula_sum   'Ba2 Y1 Ag3 O8'
_cell_volume   212.38726357
_cell_formula_units_Z   1
loop_
 _symmetry_equiv_pos_site_id
 _symmetry_equiv_pos_as_xyz
  1  'x, y, z'
loop_
 _atom_site_type_symbol
 _atom_site_label
 _atom_site_symmetry_multiplicity
 _atom_site_fract_x
 _atom_site_fract_y
 _atom_site_fract_z
 _atom_site_occupancy
  Ba  Ba0  1  0.500000  0.499999  0.157942  1
  Ba  Ba1  1  0.500000  0.500000  0.842039  1
  Y  Y2  1  0.500000  0.500000  0.499951  1
  Ag  Ag3  1  1.000000  0.000000  0.353532  1
  Ag  Ag4  1  0.999999  1.000000  -0.000078  1
  Ag  Ag5  1  0.000000  0.000001  0.646506  1
  O  O6  1  0.000000  0.500000  0.392282  1
  O  O7  1  0.500000  0.999999  0.392283  1
  O  O8  1  0.500000  0.000000  0.999964  1
  O  O9  1  0.000000  1.000000  0.168510  1
  O  O10  1  1.000000  0.500000  0.607753  1
  O  O11  1  0.500000  0.000000  0.607750  1
  O  O12  1  1.000000  0.999999  0.831598  1
  O  O13  1  1.000000  0.500000  0.999964  1
