# generated using pymatgen
data_Ca(FeO2)2
_symmetry_space_group_name_H-M   'P 1'
_cell_length_a   3.37071114
_cell_length_b   5.40913010
_cell_length_c   5.40913010
_cell_angle_alpha   90.02601583
_cell_angle_beta   90.00000000
_cell_angle_gamma   90.00000000
_symmetry_Int_Tables_number   1
_chemical_formula_structural   Ca(FeO2)2
_chemical_formula_sum   'Ca1 Fe2 O4'
_cell_volume   98.62257687
_cell_formula_units_Z   1
loop_
 _symmetry_equiv_pos_site_id
 _symmetry_equiv_pos_as_xyz
  1  'x, y, z'
loop_
 _atom_site_type_symbol
 _atom_site_label
 _atom_site_symmetry_multiplicity
 _atom_site_fract_x
 _atom_site_fract_y
 _atom_site_fract_z
 _atom_site_occupancy
  Ca  Ca0  1  0.500224  0.500001  0.000000  1
  Fe  Fe1  1  0.000146  0.000000  0.000000  1
  Fe  Fe2  1  0.000146  0.500001  0.500001  1
  O  O3  1  0.998767  0.736693  0.236694  1
  O  O4  1  0.001499  0.264837  0.235163  1
  O  O5  1  0.001499  0.735164  0.764836  1
  O  O6  1  0.998767  0.263306  0.763307  1
