# generated using pymatgen
data_ZnP2(WO5)2
_symmetry_space_group_name_H-M   'P 1'
_cell_length_a   7.26784072
_cell_length_b   7.26784056
_cell_length_c   9.25671245
_cell_angle_alpha   101.63320196
_cell_angle_beta   101.63320158
_cell_angle_gamma   119.10075109
_symmetry_Int_Tables_number   1
_chemical_formula_structural   ZnP2(WO5)2
_chemical_formula_sum   'Zn2 P4 W4 O20'
_cell_volume   391.95480977
_cell_formula_units_Z   2
loop_
 _symmetry_equiv_pos_site_id
 _symmetry_equiv_pos_as_xyz
  1  'x, y, z'
loop_
 _atom_site_type_symbol
 _atom_site_label
 _atom_site_symmetry_multiplicity
 _atom_site_fract_x
 _atom_site_fract_y
 _atom_site_fract_z
 _atom_site_occupancy
  Zn  Zn0  1  0.752167  0.252167  0.500000  1
  Zn  Zn1  1  0.502167  0.502167  0.000000  1
  P  P2  1  0.015750  0.020517  0.579049  1
  P  P3  1  0.686701  0.191468  0.920951  1
  P  P4  1  0.441468  0.436701  0.420951  1
  P  P5  1  0.270517  0.765750  0.079049  1
  W  W6  1  0.886098  0.606714  0.273725  1
  W  W7  1  0.332990  0.612372  0.726275  1
  W  W8  1  0.862372  0.082990  0.226275  1
  W  W9  1  0.856714  0.636098  0.773725  1
  O  O10  1  0.588535  0.535744  0.324943  1
  O  O11  1  0.614383  0.633757  0.839640  1
  O  O12  1  0.281394  0.585576  0.955340  1
  O  O13  1  0.785744  0.338535  0.824943  1
  O  O14  1  0.213377  0.226730  0.309752  1
  O  O15  1  0.410475  0.611077  0.524045  1
  O  O16  1  0.024743  0.544117  0.660360  1
  O  O17  1  0.794117  0.774743  0.160360  1
  O  O18  1  0.883757  0.364383  0.339640  1
  O  O19  1  0.153625  0.666978  0.190248  1
  O  O20  1  0.210800  0.263593  0.675057  1
  O  O21  1  0.476730  0.963377  0.809752  1
  O  O22  1  0.916978  0.903625  0.690248  1
  O  O23  1  0.136431  0.837033  0.975955  1
  O  O24  1  0.087033  0.886431  0.475955  1
  O  O25  1  0.861077  0.160475  0.024045  1
  O  O26  1  0.835576  0.031394  0.455340  1
  O  O27  1  0.630237  0.326053  0.044660  1
  O  O28  1  0.513593  0.960800  0.175057  1
  O  O29  1  0.576053  0.380237  0.544660  1
