# generated using pymatgen
data_Ca(CoO2)2
_symmetry_space_group_name_H-M   'P 1'
_cell_length_a   6.18713556
_cell_length_b   6.18713509
_cell_length_c   6.14654109
_cell_angle_alpha   60.21679458
_cell_angle_beta   60.21679624
_cell_angle_gamma   60.42909643
_symmetry_Int_Tables_number   1
_chemical_formula_structural   Ca(CoO2)2
_chemical_formula_sum   'Ca2 Co4 O8'
_cell_volume   167.45890043
_cell_formula_units_Z   2
loop_
 _symmetry_equiv_pos_site_id
 _symmetry_equiv_pos_as_xyz
  1  'x, y, z'
loop_
 _atom_site_type_symbol
 _atom_site_label
 _atom_site_symmetry_multiplicity
 _atom_site_fract_x
 _atom_site_fract_y
 _atom_site_fract_z
 _atom_site_occupancy
  Ca  Ca0  1  0.125000  0.625000  0.625000  1
  Ca  Ca1  1  0.625000  0.125000  0.625000  1
  Co  Co2  1  0.989124  0.989124  0.010876  1
  Co  Co3  1  0.260876  0.260876  0.239124  1
  Co  Co4  1  0.625000  0.625000  0.125000  1
  Co  Co5  1  0.625000  0.625000  0.625000  1
  O  O6  1  0.398722  0.398722  0.335358  1
  O  O7  1  0.396951  0.874493  0.364278  1
  O  O8  1  0.398722  0.398722  0.867201  1
  O  O9  1  0.874493  0.396951  0.364278  1
  O  O10  1  0.375507  0.853049  0.885722  1
  O  O11  1  0.853049  0.375507  0.885722  1
  O  O12  1  0.851278  0.851278  0.382799  1
  O  O13  1  0.851278  0.851278  0.914642  1
