# generated using pymatgen
data_Ba2AlNi2F11
_symmetry_space_group_name_H-M   'P 1'
_cell_length_a   7.39187246
_cell_length_b   7.39226506
_cell_length_c   14.30874833
_cell_angle_alpha   89.99983223
_cell_angle_beta   90.00671807
_cell_angle_gamma   119.99621940
_symmetry_Int_Tables_number   1
_chemical_formula_structural   Ba2AlNi2F11
_chemical_formula_sum   'Ba6 Al3 Ni6 F33'
_cell_volume   677.14365306
_cell_formula_units_Z   3
loop_
 _symmetry_equiv_pos_site_id
 _symmetry_equiv_pos_as_xyz
  1  'x, y, z'
loop_
 _atom_site_type_symbol
 _atom_site_label
 _atom_site_symmetry_multiplicity
 _atom_site_fract_x
 _atom_site_fract_y
 _atom_site_fract_z
 _atom_site_occupancy
  Ba  Ba0  1  0.540111  0.191961  0.666376  1
  Ba  Ba1  1  0.179100  0.500073  0.801038  1
  Ba  Ba2  1  0.651765  0.459363  0.999712  1
  Ba  Ba3  1  0.499629  0.679501  0.467725  1
  Ba  Ba4  1  0.321091  0.820886  0.134383  1
  Ba  Ba5  1  0.808747  0.350628  0.333309  1
  Al  Al6  1  0.163869  0.002065  0.874856  1
  Al  Al7  1  0.838236  0.836334  0.208165  1
  Al  Al8  1  0.997833  0.161577  0.541475  1
  Ni  Ni9  1  0.648500  0.994376  0.883427  1
  Ni  Ni10  1  0.812422  0.771187  0.718763  1
  Ni  Ni11  1  0.228787  0.041187  0.385456  1
  Ni  Ni12  1  0.345908  0.351230  0.216720  1
  Ni  Ni13  1  0.959114  0.187606  0.052020  1
  Ni  Ni14  1  0.005165  0.653917  0.550124  1
  F  F15  1  0.659465  0.077769  0.018552  1
  F  F16  1  0.512042  0.700671  0.923743  1
  F  F17  1  0.418385  0.340556  0.351872  1
  F  F18  1  0.080505  0.428868  0.497333  1
  F  F19  1  0.529469  0.241239  0.177677  1
  F  F20  1  0.914616  0.640202  0.194058  1
  F  F21  1  0.571117  0.651650  0.163990  1
  F  F22  1  0.359842  0.274428  0.860723  1
  F  F23  1  0.711660  0.470584  0.510988  1
  F  F24  1  0.254268  0.324071  0.085166  1
  F  F25  1  0.348323  0.919403  0.830661  1
  F  F26  1  0.921115  0.580595  0.685178  1
  F  F27  1  0.252852  0.994045  0.988124  1
  F  F28  1  0.018440  0.473756  0.023222  1
  F  F29  1  0.741193  0.747227  0.321442  1
  F  F30  1  0.298723  0.811142  0.590663  1
  F  F31  1  0.980663  0.101064  0.913641  1
  F  F32  1  0.069915  0.745747  0.418598  1
  F  F33  1  0.990337  0.088747  0.418730  1
  F  F34  1  0.006251  0.258522  0.654770  1
  F  F35  1  0.098396  0.009545  0.752054  1
  F  F36  1  0.526133  0.544469  0.689898  1
  F  F37  1  0.455604  0.981857  0.356619  1
  F  F38  1  0.120716  0.019386  0.247094  1
  F  F39  1  0.676218  0.930139  0.751969  1
  F  F40  1  0.758898  0.288109  0.844334  1
  F  F41  1  0.189295  0.488355  0.257153  1
  F  F42  1  0.940485  0.738963  0.872952  1
  F  F43  1  0.798560  0.059661  0.206299  1
  F  F44  1  0.911225  0.901574  0.085386  1
  F  F45  1  0.725510  0.085372  0.527411  1
  F  F46  1  0.898613  0.879132  0.580431  1
  F  F47  1  0.260887  0.201260  0.539621  1
