# generated using pymatgen
data_Mg2Nb2MoO8
_symmetry_space_group_name_H-M   'P 1'
_cell_length_a   5.33678222
_cell_length_b   6.01314828
_cell_length_c   10.20536563
_cell_angle_alpha   107.22949616
_cell_angle_beta   90.35949593
_cell_angle_gamma   89.98234611
_symmetry_Int_Tables_number   1
_chemical_formula_structural   Mg2Nb2MoO8
_chemical_formula_sum   'Mg4 Nb4 Mo2 O16'
_cell_volume   312.79623062
_cell_formula_units_Z   2
loop_
 _symmetry_equiv_pos_site_id
 _symmetry_equiv_pos_as_xyz
  1  'x, y, z'
loop_
 _atom_site_type_symbol
 _atom_site_label
 _atom_site_symmetry_multiplicity
 _atom_site_fract_x
 _atom_site_fract_y
 _atom_site_fract_z
 _atom_site_occupancy
  Mg  Mg0  1  0.762806  0.423298  0.548618  1
  Mg  Mg1  1  0.736040  0.873976  0.448363  1
  Mg  Mg2  1  0.235881  0.579723  0.449528  1
  Mg  Mg3  1  0.263763  0.129203  0.550388  1
  Nb  Nb4  1  0.743508  0.277394  0.237174  1
  Nb  Nb5  1  0.756124  0.038844  0.761128  1
  Nb  Nb6  1  0.255467  0.725201  0.761627  1
  Nb  Nb7  1  0.243997  0.964371  0.237462  1
  Mo  Mo8  1  0.749993  0.652273  0.999334  1
  Mo  Mo9  1  0.249978  0.350310  0.999430  1
  O  O10  1  0.075060  0.186187  0.140407  1
  O  O11  1  0.425131  0.044335  0.858378  1
  O  O12  1  0.924901  0.816469  0.858540  1
  O  O13  1  0.574659  0.957719  0.140196  1
  O  O14  1  0.592824  0.436576  0.116953  1
  O  O15  1  0.907246  0.318282  0.881743  1
  O  O16  1  0.406790  0.565687  0.881620  1
  O  O17  1  0.093034  0.684209  0.117071  1
  O  O18  1  0.444023  0.289011  0.368620  1
  O  O19  1  0.056508  0.918831  0.630568  1
  O  O20  1  0.371336  0.841060  0.387969  1
  O  O21  1  0.127320  0.451745  0.611024  1
  O  O22  1  0.628288  0.162424  0.611007  1
  O  O23  1  0.872052  0.551466  0.387579  1
  O  O24  1  0.942389  0.083800  0.367575  1
  O  O25  1  0.556183  0.714373  0.631164  1
