# generated using pymatgen
data_Ca7(TiS2)8
_symmetry_space_group_name_H-M   'P 1'
_cell_length_a   7.22967817
_cell_length_b   7.22967775
_cell_length_c   13.22446285
_cell_angle_alpha   90.00000000
_cell_angle_beta   90.00000000
_cell_angle_gamma   120.00000185
_symmetry_Int_Tables_number   1
_chemical_formula_structural   Ca7(TiS2)8
_chemical_formula_sum   'Ca7 Ti8 S16'
_cell_volume   598.61358658
_cell_formula_units_Z   1
loop_
 _symmetry_equiv_pos_site_id
 _symmetry_equiv_pos_as_xyz
  1  'x, y, z'
loop_
 _atom_site_type_symbol
 _atom_site_label
 _atom_site_symmetry_multiplicity
 _atom_site_fract_x
 _atom_site_fract_y
 _atom_site_fract_z
 _atom_site_occupancy
  Ca  Ca0  1  -0.000000  0.000000  0.250000  1
  Ca  Ca1  1  -0.000000  0.500000  0.250000  1
  Ca  Ca2  1  -0.000000  0.500000  0.750000  1
  Ca  Ca3  1  0.500000  0.000000  0.250000  1
  Ca  Ca4  1  0.500000  0.000000  0.750000  1
  Ca  Ca5  1  0.500000  0.500000  0.250000  1
  Ca  Ca6  1  0.500000  0.500000  0.750000  1
  Ti  Ti7  1  -0.000000  0.000000  0.997038  1
  Ti  Ti8  1  -0.000000  0.000000  0.502962  1
  Ti  Ti9  1  0.963574  0.481788  0.000635  1
  Ti  Ti10  1  0.036426  0.518212  0.499365  1
  Ti  Ti11  1  0.518212  0.036426  0.000635  1
  Ti  Ti12  1  0.481788  0.963574  0.499365  1
  Ti  Ti13  1  0.518212  0.481788  0.000635  1
  Ti  Ti14  1  0.481788  0.518212  0.499365  1
  S  S15  1  0.333077  0.166539  0.392314  1
  S  S16  1  0.334967  0.167483  0.889715  1
  S  S17  1  0.333333  0.666667  0.381096  1
  S  S18  1  0.333333  0.666667  0.897181  1
  S  S19  1  0.833461  0.166539  0.392314  1
  S  S20  1  0.832517  0.167483  0.889715  1
  S  S21  1  0.833461  0.666923  0.392314  1
  S  S22  1  0.832517  0.665033  0.889715  1
  S  S23  1  0.166539  0.333077  0.107686  1
  S  S24  1  0.167483  0.334967  0.610285  1
  S  S25  1  0.166539  0.833461  0.107686  1
  S  S26  1  0.167483  0.832517  0.610285  1
  S  S27  1  0.666667  0.333333  0.118904  1
  S  S28  1  0.666667  0.333333  0.602819  1
  S  S29  1  0.666923  0.833461  0.107686  1
  S  S30  1  0.665033  0.832517  0.610285  1
