# generated using pymatgen
data_ZnCoF4
_symmetry_space_group_name_H-M   'P 1'
_cell_length_a   5.09949277
_cell_length_b   5.07597816
_cell_length_c   6.28805525
_cell_angle_alpha   114.48274703
_cell_angle_beta   114.95417143
_cell_angle_gamma   89.71241272
_symmetry_Int_Tables_number   1
_chemical_formula_structural   ZnCoF4
_chemical_formula_sum   'Zn2 Co2 F8'
_cell_volume   131.42696388
_cell_formula_units_Z   2
loop_
 _symmetry_equiv_pos_site_id
 _symmetry_equiv_pos_as_xyz
  1  'x, y, z'
loop_
 _atom_site_type_symbol
 _atom_site_label
 _atom_site_symmetry_multiplicity
 _atom_site_fract_x
 _atom_site_fract_y
 _atom_site_fract_z
 _atom_site_occupancy
  Zn  Zn0  1  0.249734  0.245870  0.498623  1
  Zn  Zn1  1  0.751632  0.747861  0.498987  1
  Co  Co2  1  0.002530  0.498825  0.000703  1
  Co  Co3  1  0.503243  -0.000660  0.997494  1
  F  F4  1  0.909321  0.394785  0.254510  1
  F  F5  1  0.647095  0.131197  0.753777  1
  F  F6  1  0.090116  0.610103  0.749316  1
  F  F7  1  0.143034  0.107897  0.745772  1
  F  F8  1  0.365374  0.861169  0.252906  1
  F  F9  1  0.406059  0.359715  0.248271  1
  F  F10  1  0.862634  0.890262  0.246094  1
  F  F11  1  0.588076  0.627092  0.745124  1
