# generated using pymatgen
data_CaVP2O7
_symmetry_space_group_name_H-M   'P 1'
_cell_length_a   6.60061184
_cell_length_b   6.67704235
_cell_length_c   6.79949657
_cell_angle_alpha   66.12313436
_cell_angle_beta   86.59397164
_cell_angle_gamma   82.33467350
_symmetry_Int_Tables_number   1
_chemical_formula_structural   CaVP2O7
_chemical_formula_sum   'Ca2 V2 P4 O14'
_cell_volume   271.57111424
_cell_formula_units_Z   2
loop_
 _symmetry_equiv_pos_site_id
 _symmetry_equiv_pos_as_xyz
  1  'x, y, z'
loop_
 _atom_site_type_symbol
 _atom_site_label
 _atom_site_symmetry_multiplicity
 _atom_site_fract_x
 _atom_site_fract_y
 _atom_site_fract_z
 _atom_site_occupancy
  Ca  Ca0  1  0.857502  0.273299  0.171883  1
  Ca  Ca1  1  0.142498  0.726701  0.828117  1
  V  V2  1  0.650132  0.100639  0.776846  1
  V  V3  1  0.349868  0.899361  0.223154  1
  P  P4  1  0.144550  0.229761  0.748859  1
  P  P5  1  0.855450  0.770239  0.251141  1
  P  P6  1  0.627811  0.642021  0.669682  1
  P  P7  1  0.372189  0.357979  0.330318  1
  O  O8  1  0.774329  0.610963  0.479214  1
  O  O9  1  0.225671  0.389037  0.520786  1
  O  O10  1  0.979422  0.102506  0.717914  1
  O  O11  1  0.020578  0.897494  0.282086  1
  O  O12  1  0.585774  0.257802  0.428546  1
  O  O13  1  0.414226  0.742198  0.571454  1
  O  O14  1  0.372520  0.595120  0.160725  1
  O  O15  1  0.627480  0.404880  0.839274  1
  O  O16  1  0.930759  0.618405  0.139886  1
  O  O17  1  0.069241  0.381595  0.860114  1
  O  O18  1  0.674018  0.947021  0.136144  1
  O  O19  1  0.325982  0.052979  0.863856  1
  O  O20  1  0.270381  0.209476  0.256542  1
  O  O21  1  0.729619  0.790524  0.743458  1
