# generated using pymatgen
data_TiZn2SbO6
_symmetry_space_group_name_H-M   'P 1'
_cell_length_a   5.29643901
_cell_length_b   5.34563965
_cell_length_c   7.86177028
_cell_angle_alpha   90.00000000
_cell_angle_beta   90.00000000
_cell_angle_gamma   91.13375070
_symmetry_Int_Tables_number   1
_chemical_formula_structural   TiZn2SbO6
_chemical_formula_sum   'Ti2 Zn4 Sb2 O12'
_cell_volume   222.54558096
_cell_formula_units_Z   2
loop_
 _symmetry_equiv_pos_site_id
 _symmetry_equiv_pos_as_xyz
  1  'x, y, z'
loop_
 _atom_site_type_symbol
 _atom_site_label
 _atom_site_symmetry_multiplicity
 _atom_site_fract_x
 _atom_site_fract_y
 _atom_site_fract_z
 _atom_site_occupancy
  Ti  Ti0  1  0.500000  0.000000  0.500000  1
  Ti  Ti1  1  0.500000  0.000000  0.000000  1
  Zn  Zn2  1  0.502386  0.545743  0.750000  1
  Zn  Zn3  1  0.497614  0.454257  0.250000  1
  Zn  Zn4  1  0.014945  0.021113  0.750000  1
  Zn  Zn5  1  0.985055  0.978887  0.250000  1
  Sb  Sb6  1  0.000000  0.500000  0.500000  1
  Sb  Sb7  1  0.000000  0.500000  0.000000  1
  O  O8  1  0.342073  0.681206  0.431886  1
  O  O9  1  0.183230  0.168094  0.069161  1
  O  O10  1  0.657927  0.318794  0.931886  1
  O  O11  1  0.816770  0.831906  0.569161  1
  O  O12  1  0.183230  0.168094  0.430839  1
  O  O13  1  0.816770  0.831906  0.930839  1
  O  O14  1  0.878479  0.583887  0.250000  1
  O  O15  1  0.342073  0.681206  0.068114  1
  O  O16  1  0.381049  0.921450  0.750000  1
  O  O17  1  0.657927  0.318794  0.568114  1
  O  O18  1  0.121521  0.416113  0.750000  1
  O  O19  1  0.618951  0.078550  0.250000  1
