# generated using pymatgen
data_Al2Fe3F15
_symmetry_space_group_name_H-M   'P 1'
_cell_length_a   11.40376122
_cell_length_b   5.22076549
_cell_length_c   5.22076516
_cell_angle_alpha   73.12076579
_cell_angle_beta   69.19127606
_cell_angle_gamma   69.19125921
_symmetry_Int_Tables_number   1
_chemical_formula_structural   Al2Fe3F15
_chemical_formula_sum   'Al2 Fe3 F15'
_cell_volume   266.76285326
_cell_formula_units_Z   1
loop_
 _symmetry_equiv_pos_site_id
 _symmetry_equiv_pos_as_xyz
  1  'x, y, z'
loop_
 _atom_site_type_symbol
 _atom_site_label
 _atom_site_symmetry_multiplicity
 _atom_site_fract_x
 _atom_site_fract_y
 _atom_site_fract_z
 _atom_site_occupancy
  Al  Al0  1  0.159308  0.497682  0.497682  1
  Al  Al1  1  0.840692  0.502318  0.502318  1
  Fe  Fe2  1  0.000000  0.000000  0.000000  1
  Fe  Fe3  1  0.365631  0.006589  0.006589  1
  Fe  Fe4  1  0.634369  0.993411  0.993411  1
  F  F5  1  0.137969  0.795845  0.205107  1
  F  F6  1  0.500000  0.802489  0.197511  1
  F  F7  1  0.862031  0.794893  0.204155  1
  F  F8  1  0.137969  0.205107  0.795845  1
  F  F9  1  0.500000  0.197511  0.802489  1
  F  F10  1  0.862031  0.204155  0.794893  1
  F  F11  1  0.233459  0.242713  0.242713  1
  F  F12  1  0.620748  0.211500  0.211500  1
  F  F13  1  0.921305  0.254141  0.254141  1
  F  F14  1  0.078695  0.745859  0.745859  1
  F  F15  1  0.379252  0.788500  0.788500  1
  F  F16  1  0.766541  0.757287  0.757287  1
  F  F17  1  0.000000  0.500000  0.500000  1
  F  F18  1  0.312214  0.488235  0.488235  1
  F  F19  1  0.687786  0.511765  0.511765  1
