# generated using pymatgen
data_Ca2CuWO6
_symmetry_space_group_name_H-M   'P 1'
_cell_length_a   5.63016806
_cell_length_b   5.75718046
_cell_length_c   7.78252742
_cell_angle_alpha   89.96281682
_cell_angle_beta   133.74297751
_cell_angle_gamma   121.57529467
_symmetry_Int_Tables_number   1
_chemical_formula_structural   Ca2CuWO6
_chemical_formula_sum   'Ca2 Cu1 W1 O6'
_cell_volume   125.68249292
_cell_formula_units_Z   1
loop_
 _symmetry_equiv_pos_site_id
 _symmetry_equiv_pos_as_xyz
  1  'x, y, z'
loop_
 _atom_site_type_symbol
 _atom_site_label
 _atom_site_symmetry_multiplicity
 _atom_site_fract_x
 _atom_site_fract_y
 _atom_site_fract_z
 _atom_site_occupancy
  Ca  Ca0  1  0.998672  0.539857  0.244109  1
  Ca  Ca1  1  0.997347  0.541563  0.751177  1
  Cu  Cu2  1  0.996255  0.990410  0.496278  1
  W  W3  1  0.001048  0.983501  0.999185  1
  O  O4  1  0.996672  0.959809  0.244601  1
  O  O5  1  0.011038  0.977199  0.756630  1
  O  O6  1  0.501293  0.463609  0.254853  1
  O  O7  1  0.493325  0.944202  0.746527  1
  O  O8  1  0.461095  0.959229  0.227965  1
  O  O9  1  0.544192  0.489289  0.766298  1
