# generated using pymatgen
data_CaWF5
_symmetry_space_group_name_H-M   'P 1'
_cell_length_a   5.71659812
_cell_length_b   7.97467346
_cell_length_c   10.85963948
_cell_angle_alpha   90.00000000
_cell_angle_beta   90.00000000
_cell_angle_gamma   109.82238181
_symmetry_Int_Tables_number   1
_chemical_formula_structural   CaWF5
_chemical_formula_sum   'Ca4 W4 F20'
_cell_volume   465.73562099
_cell_formula_units_Z   4
loop_
 _symmetry_equiv_pos_site_id
 _symmetry_equiv_pos_as_xyz
  1  'x, y, z'
loop_
 _atom_site_type_symbol
 _atom_site_label
 _atom_site_symmetry_multiplicity
 _atom_site_fract_x
 _atom_site_fract_y
 _atom_site_fract_z
 _atom_site_occupancy
  Ca  Ca0  1  0.472982  0.746482  0.015040  1
  Ca  Ca1  1  0.527018  0.753518  0.515040  1
  Ca  Ca2  1  0.527018  0.253518  0.984960  1
  Ca  Ca3  1  0.472982  0.246482  0.484960  1
  W  W4  1  0.892476  0.599754  0.752993  1
  W  W5  1  0.107524  0.900246  0.252993  1
  W  W6  1  0.107524  0.400246  0.247007  1
  W  W7  1  0.892476  0.099754  0.747007  1
  F  F8  1  0.602337  0.555433  0.886619  1
  F  F9  1  0.397663  0.944567  0.386619  1
  F  F10  1  0.397663  0.444567  0.113381  1
  F  F11  1  0.602337  0.055433  0.613381  1
  F  F12  1  0.634489  0.500947  0.606720  1
  F  F13  1  0.365511  0.999053  0.106720  1
  F  F14  1  0.365511  0.499053  0.393280  1
  F  F15  1  0.634489  0.000947  0.893280  1
  F  F16  1  0.860519  0.807303  0.398374  1
  F  F17  1  0.139481  0.692697  0.898374  1
  F  F18  1  0.139481  0.192697  0.601626  1
  F  F19  1  0.860519  0.307303  0.101626  1
  F  F20  1  0.810177  0.851298  0.130786  1
  F  F21  1  0.189823  0.648702  0.630786  1
  F  F22  1  0.189823  0.148702  0.869214  1
  F  F23  1  0.810177  0.351298  0.369214  1
  F  F24  1  0.858618  0.840268  0.682617  1
  F  F25  1  0.141382  0.659732  0.182617  1
  F  F26  1  0.141382  0.159732  0.317383  1
  F  F27  1  0.858618  0.340268  0.817383  1
