# generated using pymatgen
data_Ba2Tl2Zn3(WO3)4
_symmetry_space_group_name_H-M   'P 1'
_cell_length_a   3.81366972
_cell_length_b   3.81366971
_cell_length_c   23.70042220
_cell_angle_alpha   94.61475982
_cell_angle_beta   94.61476017
_cell_angle_gamma   89.99999529
_symmetry_Int_Tables_number   1
_chemical_formula_structural   Ba2Tl2Zn3(WO3)4
_chemical_formula_sum   'Ba2 Tl2 Zn3 W4 O12'
_cell_volume   342.46219948
_cell_formula_units_Z   1
loop_
 _symmetry_equiv_pos_site_id
 _symmetry_equiv_pos_as_xyz
  1  'x, y, z'
loop_
 _atom_site_type_symbol
 _atom_site_label
 _atom_site_symmetry_multiplicity
 _atom_site_fract_x
 _atom_site_fract_y
 _atom_site_fract_z
 _atom_site_occupancy
  Ba  Ba0  1  0.165595  0.165595  0.331188  1
  Ba  Ba1  1  0.834405  0.834405  0.668812  1
  Tl  Tl2  1  0.725093  0.725093  0.450186  1
  Tl  Tl3  1  0.274907  0.274907  0.549814  1
  Zn  Zn4  1  0.072541  0.072541  0.145084  1
  Zn  Zn5  1  0.927459  0.927459  0.854916  1
  Zn  Zn6  1  0.000000  0.000000  -0.000000  1
  W  W7  1  0.547103  0.547103  0.094207  1
  W  W8  1  0.393367  0.393367  0.786735  1
  W  W9  1  0.606633  0.606633  0.213265  1
  W  W10  1  0.452897  0.452897  0.905793  1
  O  O11  1  0.381622  0.881622  0.763244  1
  O  O12  1  0.528456  0.028456  0.056914  1
  O  O13  1  0.227330  0.227330  0.454659  1
  O  O14  1  0.971544  0.471544  0.943086  1
  O  O15  1  0.772670  0.772670  0.545341  1
  O  O16  1  0.118378  0.618378  0.236756  1
  O  O17  1  0.618378  0.118378  0.236756  1
  O  O18  1  0.321554  0.321554  0.643106  1
  O  O19  1  0.881622  0.381622  0.763244  1
  O  O20  1  0.028456  0.528456  0.056914  1
  O  O21  1  0.471544  0.971544  0.943086  1
  O  O22  1  0.678446  0.678446  0.356894  1
