# generated using pymatgen
data_BaBi4O7
_symmetry_space_group_name_H-M   'P 1'
_cell_length_a   7.86975579
_cell_length_b   7.86975503
_cell_length_c   13.36174002
_cell_angle_alpha   90.00000000
_cell_angle_beta   90.00000000
_cell_angle_gamma   120.00000696
_symmetry_Int_Tables_number   1
_chemical_formula_structural   BaBi4O7
_chemical_formula_sum   'Ba2 Bi8 O14'
_cell_volume   716.66482357
_cell_formula_units_Z   2
loop_
 _symmetry_equiv_pos_site_id
 _symmetry_equiv_pos_as_xyz
  1  'x, y, z'
loop_
 _atom_site_type_symbol
 _atom_site_label
 _atom_site_symmetry_multiplicity
 _atom_site_fract_x
 _atom_site_fract_y
 _atom_site_fract_z
 _atom_site_occupancy
  Ba  Ba0  1  0.666667  0.333333  0.400914  1
  Ba  Ba1  1  0.333333  0.666667  0.900914  1
  Bi  Bi2  1  0.834463  0.165538  0.193042  1
  Bi  Bi3  1  0.668925  0.834462  0.693043  1
  Bi  Bi4  1  0.165538  0.331075  0.693043  1
  Bi  Bi5  1  0.834463  0.668925  0.193042  1
  Bi  Bi6  1  0.331074  0.165538  0.193042  1
  Bi  Bi7  1  0.165538  0.834462  0.693043  1
  Bi  Bi8  1  0.000000  0.000000  0.460968  1
  Bi  Bi9  1  0.000000  0.000000  0.960968  1
  O  O10  1  0.858602  0.141399  0.030981  1
  O  O11  1  0.717203  0.858601  0.530980  1
  O  O12  1  0.141398  0.282796  0.530980  1
  O  O13  1  0.858603  0.717204  0.030981  1
  O  O14  1  0.282796  0.141399  0.030981  1
  O  O15  1  0.141398  0.858601  0.530980  1
  O  O16  1  0.000000  0.000000  0.749521  1
  O  O17  1  0.000000  0.000000  0.249522  1
  O  O18  1  0.535887  0.464115  0.256860  1
  O  O19  1  0.071772  0.535887  0.756860  1
  O  O20  1  0.464114  0.928228  0.756860  1
  O  O21  1  0.535887  0.071772  0.256860  1
  O  O22  1  0.464115  0.535887  0.756860  1
  O  O23  1  0.928228  0.464115  0.256860  1
