# generated using pymatgen
data_V2P2O9
_symmetry_space_group_name_H-M   'P 1'
_cell_length_a   6.37301626
_cell_length_b   7.69372426
_cell_length_c   13.81520051
_cell_angle_alpha   90.02703186
_cell_angle_beta   89.99993169
_cell_angle_gamma   90.00015071
_symmetry_Int_Tables_number   1
_chemical_formula_structural   V2P2O9
_chemical_formula_sum   'V8 P8 O36'
_cell_volume   677.39001044
_cell_formula_units_Z   4
loop_
 _symmetry_equiv_pos_site_id
 _symmetry_equiv_pos_as_xyz
  1  'x, y, z'
loop_
 _atom_site_type_symbol
 _atom_site_label
 _atom_site_symmetry_multiplicity
 _atom_site_fract_x
 _atom_site_fract_y
 _atom_site_fract_z
 _atom_site_occupancy
  V  V0  1  0.750013  0.349018  0.877956  1
  V  V1  1  0.249992  0.650945  0.122077  1
  V  V2  1  0.249984  0.849213  0.621998  1
  V  V3  1  0.750014  0.150746  0.377948  1
  V  V4  1  0.499913  0.999958  0.000025  1
  V  V5  1  0.500020  0.499980  0.500008  1
  V  V6  1  0.999978  0.499978  0.500005  1
  V  V7  1  0.000078  0.999955  0.000023  1
  P  P8  1  0.249981  0.354450  0.935992  1
  P  P9  1  0.750020  0.645628  0.064135  1
  P  P10  1  0.750008  0.854529  0.564031  1
  P  P11  1  0.249987  0.145521  0.435878  1
  P  P12  1  0.750000  0.392637  0.690828  1
  P  P13  1  0.749998  0.107448  0.190987  1
  P  P14  1  0.250006  0.892539  0.809053  1
  P  P15  1  0.250004  0.607395  0.309093  1
  O  O16  1  0.054748  0.595219  0.377763  1
  O  O17  1  0.554792  0.404756  0.622272  1
  O  O18  1  0.945296  0.095339  0.122255  1
  O  O19  1  0.445252  0.904667  0.877732  1
  O  O20  1  0.945213  0.404754  0.622268  1
  O  O21  1  0.445253  0.595215  0.377762  1
  O  O22  1  0.054755  0.904658  0.877735  1
  O  O23  1  0.554701  0.095333  0.122261  1
  O  O24  1  0.249993  0.335195  0.483802  1
  O  O25  1  0.750005  0.664812  0.516211  1
  O  O26  1  0.749989  0.835213  0.016170  1
  O  O27  1  0.250002  0.164786  0.983802  1
  O  O28  1  0.749995  0.135340  0.949828  1
  O  O29  1  0.250004  0.864725  0.050187  1
  O  O30  1  0.249993  0.635386  0.550182  1
  O  O31  1  0.750005  0.364623  0.449836  1
  O  O32  1  0.750013  0.222869  0.751729  1
  O  O33  1  0.249994  0.777165  0.248300  1
  O  O34  1  0.249986  0.722827  0.748135  1
  O  O35  1  0.750018  0.277107  0.251867  1
  O  O36  1  0.445789  0.133852  0.373663  1
  O  O37  1  0.945820  0.866183  0.626365  1
  O  O38  1  0.554257  0.634089  0.126318  1
  O  O39  1  0.054172  0.365967  0.873627  1
  O  O40  1  0.554132  0.866156  0.626359  1
  O  O41  1  0.054253  0.133828  0.373654  1
  O  O42  1  0.445871  0.365947  0.873636  1
  O  O43  1  0.945708  0.634076  0.126322  1
  O  O44  1  0.750001  0.510601  0.982191  1
  O  O45  1  0.250002  0.033318  0.731077  1
  O  O46  1  0.250006  0.466683  0.230968  1
  O  O47  1  0.750001  0.533451  0.769023  1
  O  O48  1  0.749990  0.989262  0.482245  1
  O  O49  1  0.250005  0.010674  0.517781  1
  O  O50  1  0.250002  0.489289  0.017743  1
  O  O51  1  0.750004  0.966694  0.268891  1
