# generated using pymatgen
data_CaMo2P2O9
_symmetry_space_group_name_H-M   'P 1'
_cell_length_a   6.74183586
_cell_length_b   7.47425212
_cell_length_c   15.04679100
_cell_angle_alpha   90.00000000
_cell_angle_beta   90.00000000
_cell_angle_gamma   90.00000000
_symmetry_Int_Tables_number   1
_chemical_formula_structural   CaMo2P2O9
_chemical_formula_sum   'Ca4 Mo8 P8 O36'
_cell_volume   758.21052150
_cell_formula_units_Z   4
loop_
 _symmetry_equiv_pos_site_id
 _symmetry_equiv_pos_as_xyz
  1  'x, y, z'
loop_
 _atom_site_type_symbol
 _atom_site_label
 _atom_site_symmetry_multiplicity
 _atom_site_fract_x
 _atom_site_fract_y
 _atom_site_fract_z
 _atom_site_occupancy
  Ca  Ca0  1  0.750000  0.899593  0.778117  1
  Ca  Ca1  1  0.750000  0.600407  0.278117  1
  Ca  Ca2  1  0.250001  0.399592  0.721883  1
  Ca  Ca3  1  0.250001  0.100407  0.221883  1
  Mo  Mo4  1  0.750000  0.363755  0.876612  1
  Mo  Mo5  1  0.250001  0.636245  0.123388  1
  Mo  Mo6  1  0.250001  0.863755  0.623388  1
  Mo  Mo7  1  0.750000  0.136245  0.376612  1
  Mo  Mo8  1  0.500000  -0.000000  -0.000000  1
  Mo  Mo9  1  0.500000  0.500000  0.500000  1
  Mo  Mo10  1  -0.000000  0.500000  0.500000  1
  Mo  Mo11  1  -0.000000  -0.000000  -0.000000  1
  P  P12  1  0.250001  0.368291  0.927848  1
  P  P13  1  0.750000  0.631709  0.072153  1
  P  P14  1  0.750000  0.868291  0.572152  1
  P  P15  1  0.250001  0.131710  0.427848  1
  P  P16  1  0.750000  0.395874  0.690551  1
  P  P17  1  0.750000  0.104126  0.190551  1
  P  P18  1  0.250001  0.895874  0.809449  1
  P  P19  1  0.250001  0.604125  0.309449  1
  O  O20  1  0.057505  0.603136  0.366150  1
  O  O21  1  0.557504  0.396863  0.633850  1
  O  O22  1  0.942495  0.103136  0.133850  1
  O  O23  1  0.442495  0.896864  0.866150  1
  O  O24  1  0.942495  0.396863  0.633850  1
  O  O25  1  0.442495  0.603136  0.366150  1
  O  O26  1  0.057505  0.896864  0.866150  1
  O  O27  1  0.557504  0.103136  0.133850  1
  O  O28  1  0.250001  0.317535  0.478154  1
  O  O29  1  0.750000  0.682466  0.521846  1
  O  O30  1  0.750000  0.817534  0.021845  1
  O  O31  1  0.250001  0.182466  0.978154  1
  O  O32  1  0.750000  0.116695  0.937493  1
  O  O33  1  0.250001  0.883305  0.062506  1
  O  O34  1  0.250001  0.616695  0.562506  1
  O  O35  1  0.750000  0.383306  0.437494  1
  O  O36  1  0.750000  0.223665  0.749793  1
  O  O37  1  0.250001  0.776335  0.250208  1
  O  O38  1  0.250001  0.723665  0.750207  1
  O  O39  1  0.750000  0.276336  0.249792  1
  O  O40  1  0.430130  0.126064  0.363840  1
  O  O41  1  0.930130  0.873936  0.636160  1
  O  O42  1  0.569870  0.626063  0.136160  1
  O  O43  1  0.069870  0.373936  0.863840  1
  O  O44  1  0.569870  0.873936  0.636160  1
  O  O45  1  0.069870  0.126064  0.363840  1
  O  O46  1  0.430130  0.373936  0.863840  1
  O  O47  1  0.930130  0.626063  0.136160  1
  O  O48  1  0.750000  0.483573  0.003926  1
  O  O49  1  0.250001  0.054485  0.740913  1
  O  O50  1  0.250001  0.445514  0.240913  1
  O  O51  1  0.750000  0.554485  0.759087  1
  O  O52  1  0.750000  0.016427  0.503926  1
  O  O53  1  0.250001  0.983573  0.496074  1
  O  O54  1  0.250001  0.516426  0.996073  1
  O  O55  1  0.750000  0.945515  0.259087  1
