# generated using pymatgen
data_SrZnCu(PO4)2
_symmetry_space_group_name_H-M   'P 1'
_cell_length_a   5.60753692
_cell_length_b   6.88705568
_cell_length_c   9.26968523
_cell_angle_alpha   108.97241594
_cell_angle_beta   102.81021996
_cell_angle_gamma   99.57188129
_symmetry_Int_Tables_number   1
_chemical_formula_structural   SrZnCu(PO4)2
_chemical_formula_sum   'Sr2 Zn2 Cu2 P4 O16'
_cell_volume   318.89580672
_cell_formula_units_Z   2
loop_
 _symmetry_equiv_pos_site_id
 _symmetry_equiv_pos_as_xyz
  1  'x, y, z'
loop_
 _atom_site_type_symbol
 _atom_site_label
 _atom_site_symmetry_multiplicity
 _atom_site_fract_x
 _atom_site_fract_y
 _atom_site_fract_z
 _atom_site_occupancy
  Sr  Sr0  1  0.254334  0.801680  0.057074  1
  Sr  Sr1  1  0.745666  0.198320  0.942926  1
  Zn  Zn2  1  0.990915  0.384571  0.640405  1
  Zn  Zn3  1  0.009085  0.615429  0.359595  1
  Cu  Cu4  1  0.637292  0.845572  0.545959  1
  Cu  Cu5  1  0.362708  0.154428  0.454041  1
  P  P6  1  0.397699  0.425689  0.239066  1
  P  P7  1  0.602301  0.574311  0.760934  1
  P  P8  1  0.839563  0.024030  0.299902  1
  P  P9  1  0.160437  0.975970  0.700098  1
  O  O10  1  0.809782  0.562476  0.895956  1
  O  O11  1  0.663262  0.479267  0.214535  1
  O  O12  1  0.654831  0.795779  0.748943  1
  O  O13  1  0.941851  0.097142  0.683431  1
  O  O14  1  0.336738  0.520733  0.785465  1
  O  O15  1  0.035251  0.738611  0.588763  1
  O  O16  1  0.964749  0.261389  0.411237  1
  O  O17  1  0.266340  0.006152  0.874158  1
  O  O18  1  0.345169  0.204221  0.251057  1
  O  O19  1  0.733660  0.993848  0.125842  1
  O  O20  1  0.190218  0.437524  0.104044  1
  O  O21  1  0.373107  0.592769  0.397043  1
  O  O22  1  0.626893  0.407231  0.602957  1
  O  O23  1  0.622267  0.926058  0.355730  1
  O  O24  1  0.058149  0.902858  0.316569  1
  O  O25  1  0.377733  0.073942  0.644270  1
