# generated using pymatgen
data_Zn2Ni9O13
_symmetry_space_group_name_H-M   'P 1'
_cell_length_a   2.90895065
_cell_length_b   5.09461026
_cell_length_c   16.41991865
_cell_angle_alpha   98.57832836
_cell_angle_beta   90.03048529
_cell_angle_gamma   106.54062317
_symmetry_Int_Tables_number   1
_chemical_formula_structural   Zn2Ni9O13
_chemical_formula_sum   'Zn2 Ni9 O13'
_cell_volume   230.42563756
_cell_formula_units_Z   1
loop_
 _symmetry_equiv_pos_site_id
 _symmetry_equiv_pos_as_xyz
  1  'x, y, z'
loop_
 _atom_site_type_symbol
 _atom_site_label
 _atom_site_symmetry_multiplicity
 _atom_site_fract_x
 _atom_site_fract_y
 _atom_site_fract_z
 _atom_site_occupancy
  Zn  Zn0  1  0.216170  0.432937  0.229110  1
  Zn  Zn1  1  0.783830  0.567063  0.770890  1
  Ni  Ni2  1  0.500000  -0.000000  0.500000  1
  Ni  Ni3  1  0.646998  0.293505  0.041030  1
  Ni  Ni4  1  0.353002  0.706495  0.958970  1
  Ni  Ni5  1  0.751400  0.502144  0.418734  1
  Ni  Ni6  1  0.248600  0.497856  0.581266  1
  Ni  Ni7  1  0.936965  0.873239  0.123614  1
  Ni  Ni8  1  0.063035  0.126761  0.876386  1
  Ni  Ni9  1  0.993865  0.987609  0.334543  1
  Ni  Ni10  1  0.006135  0.012391  0.665457  1
  O  O11  1  -0.000000  -0.000000  -0.000000  1
  O  O12  1  0.860671  0.722344  0.228976  1
  O  O13  1  0.139329  0.277656  0.771024  1
  O  O14  1  0.297209  0.592735  0.070057  1
  O  O15  1  0.702791  0.407265  0.929944  1
  O  O16  1  0.584243  0.168424  0.147026  1
  O  O17  1  0.415757  0.831576  0.852974  1
  O  O18  1  0.626632  0.253724  0.310663  1
  O  O19  1  0.373368  0.746276  0.689337  1
  O  O20  1  0.384673  0.769026  0.388453  1
  O  O21  1  0.615327  0.230974  0.611547  1
  O  O22  1  0.129470  0.258085  0.462720  1
  O  O23  1  0.870530  0.741915  0.537280  1
