# generated using pymatgen
data_Ca2Ti2O5
_symmetry_space_group_name_H-M   'P 1'
_cell_length_a   3.94311943
_cell_length_b   5.35137155
_cell_length_c   10.57661002
_cell_angle_alpha   90.02934076
_cell_angle_beta   89.99996411
_cell_angle_gamma   90.00004911
_symmetry_Int_Tables_number   1
_chemical_formula_structural   Ca2Ti2O5
_chemical_formula_sum   'Ca4 Ti4 O10'
_cell_volume   223.17804631
_cell_formula_units_Z   2
loop_
 _symmetry_equiv_pos_site_id
 _symmetry_equiv_pos_as_xyz
  1  'x, y, z'
loop_
 _atom_site_type_symbol
 _atom_site_label
 _atom_site_symmetry_multiplicity
 _atom_site_fract_x
 _atom_site_fract_y
 _atom_site_fract_z
 _atom_site_occupancy
  Ca  Ca0  1  0.500001  0.233614  0.882506  1
  Ca  Ca1  1  0.499999  0.766172  0.116869  1
  Ca  Ca2  1  0.499997  0.733840  0.617201  1
  Ca  Ca3  1  0.500005  0.266005  0.383382  1
  Ti  Ti4  1  0.000001  0.223713  0.627312  1
  Ti  Ti5  1  0.000002  0.776253  0.372722  1
  Ti  Ti6  1  0.000001  0.276121  0.127766  1
  Ti  Ti7  1  0.999999  0.723829  0.872231  1
  O  O8  1  0.000000  0.499780  0.499937  1
  O  O9  1  0.000003  0.106122  0.287355  1
  O  O10  1  0.000000  0.606156  0.212637  1
  O  O11  1  1.000000  0.394059  0.787306  1
  O  O12  1  0.500000  0.295491  0.111947  1
  O  O13  1  0.499999  0.704725  0.887544  1
  O  O14  1  -0.000000  0.894060  0.712715  1
  O  O15  1  0.500000  0.204925  0.612647  1
  O  O16  1  0.999999  0.999773  0.000047  1
  O  O17  1  0.500002  0.795362  0.387874  1
