# generated using pymatgen
data_Mg2TiWO6
_symmetry_space_group_name_H-M   'P 1'
_cell_length_a   5.23042574
_cell_length_b   5.36546201
_cell_length_c   7.63612361
_cell_angle_alpha   90.00000000
_cell_angle_beta   91.27366718
_cell_angle_gamma   90.00000000
_symmetry_Int_Tables_number   1
_chemical_formula_structural   Mg2TiWO6
_chemical_formula_sum   'Mg4 Ti2 W2 O12'
_cell_volume   214.24455838
_cell_formula_units_Z   2
loop_
 _symmetry_equiv_pos_site_id
 _symmetry_equiv_pos_as_xyz
  1  'x, y, z'
loop_
 _atom_site_type_symbol
 _atom_site_label
 _atom_site_symmetry_multiplicity
 _atom_site_fract_x
 _atom_site_fract_y
 _atom_site_fract_z
 _atom_site_occupancy
  Mg  Mg0  1  0.991708  0.051253  0.255073  1
  Mg  Mg1  1  0.508292  0.551254  0.244927  1
  Mg  Mg2  1  0.008293  0.948748  0.744927  1
  Mg  Mg3  1  0.491707  0.448747  0.755073  1
  Ti  Ti4  1  0.500000  0.000000  0.000000  1
  Ti  Ti5  1  0.000001  0.499999  0.500000  1
  W  W6  1  0.500000  0.000000  0.499999  1
  W  W7  1  0.000000  0.499999  0.000000  1
  O  O8  1  0.685696  0.318847  0.429229  1
  O  O9  1  0.814304  0.818848  0.070771  1
  O  O10  1  0.314303  0.681153  0.570771  1
  O  O11  1  0.185697  0.181152  0.929229  1
  O  O12  1  0.165276  0.193320  0.569123  1
  O  O13  1  0.334724  0.693319  0.930877  1
  O  O14  1  0.834725  0.806680  0.430877  1
  O  O15  1  0.665275  0.306681  0.069123  1
  O  O16  1  0.129428  0.435182  0.253903  1
  O  O17  1  0.370573  0.935183  0.246096  1
  O  O18  1  0.629428  0.064817  0.753904  1
  O  O19  1  0.870573  0.564818  0.746097  1
