# generated using pymatgen
data_TeO3
_symmetry_space_group_name_H-M   'P 1'
_cell_length_a   5.10700430
_cell_length_b   5.27332600
_cell_length_c   7.37632302
_cell_angle_alpha   89.98361062
_cell_angle_beta   89.98411896
_cell_angle_gamma   90.00270709
_symmetry_Int_Tables_number   1
_chemical_formula_structural   TeO3
_chemical_formula_sum   'Te4 O12'
_cell_volume   198.65099140
_cell_formula_units_Z   4
loop_
 _symmetry_equiv_pos_site_id
 _symmetry_equiv_pos_as_xyz
  1  'x, y, z'
loop_
 _atom_site_type_symbol
 _atom_site_label
 _atom_site_symmetry_multiplicity
 _atom_site_fract_x
 _atom_site_fract_y
 _atom_site_fract_z
 _atom_site_occupancy
  Te  Te0  1  0.500041  -0.000228  0.000795  1
  Te  Te1  1  0.000300  0.500254  0.999121  1
  Te  Te2  1  0.999907  0.499849  0.499288  1
  Te  Te3  1  0.499740  0.999682  0.500941  1
  O  O4  1  0.876911  0.521491  0.749094  1
  O  O5  1  0.377626  0.976472  0.250916  1
  O  O6  1  0.623217  0.021512  0.750870  1
  O  O7  1  0.122390  0.476428  0.249101  1
  O  O8  1  0.683918  0.310160  0.440069  1
  O  O9  1  0.185281  0.190852  0.561572  1
  O  O10  1  0.816078  0.810448  0.059767  1
  O  O11  1  0.314721  0.691228  0.938464  1
  O  O12  1  0.684042  0.310978  0.059880  1
  O  O13  1  0.185314  0.190278  0.938643  1
  O  O14  1  0.314766  0.689977  0.561358  1
  O  O15  1  0.815747  0.810617  0.440123  1
