# generated using pymatgen
data_Mg2MnIrO6
_symmetry_space_group_name_H-M   'P 1'
_cell_length_a   5.09779273
_cell_length_b   5.28203495
_cell_length_c   7.67970214
_cell_angle_alpha   90.00000000
_cell_angle_beta   90.77732176
_cell_angle_gamma   90.00000000
_symmetry_Int_Tables_number   1
_chemical_formula_structural   Mg2MnIrO6
_chemical_formula_sum   'Mg4 Mn2 Ir2 O12'
_cell_volume   206.77015399
_cell_formula_units_Z   2
loop_
 _symmetry_equiv_pos_site_id
 _symmetry_equiv_pos_as_xyz
  1  'x, y, z'
loop_
 _atom_site_type_symbol
 _atom_site_label
 _atom_site_symmetry_multiplicity
 _atom_site_fract_x
 _atom_site_fract_y
 _atom_site_fract_z
 _atom_site_occupancy
  Mg  Mg0  1  0.013354  0.941166  0.249204  1
  Mg  Mg1  1  0.486646  0.441166  0.250796  1
  Mg  Mg2  1  0.513354  0.558834  0.749204  1
  Mg  Mg3  1  0.986646  0.058834  0.750796  1
  Mn  Mn4  1  0.000000  0.500000  0.000000  1
  Mn  Mn5  1  0.500000  0.000000  0.500000  1
  Ir  Ir6  1  0.000000  0.500000  0.500000  1
  Ir  Ir7  1  0.500000  0.000000  0.000000  1
  O  O8  1  0.136826  0.426001  0.739633  1
  O  O9  1  0.181883  0.187759  0.071147  1
  O  O10  1  0.180478  0.185779  0.426617  1
  O  O11  1  0.319522  0.685779  0.073383  1
  O  O12  1  0.318117  0.687759  0.428853  1
  O  O13  1  0.363174  0.926001  0.760367  1
  O  O14  1  0.636826  0.073999  0.239633  1
  O  O15  1  0.681883  0.312241  0.571147  1
  O  O16  1  0.680478  0.314221  0.926617  1
  O  O17  1  0.818117  0.812241  0.928853  1
  O  O18  1  0.819522  0.814221  0.573383  1
  O  O19  1  0.863174  0.573999  0.260367  1
