# generated using pymatgen
data_Ca(CuO2)2
_symmetry_space_group_name_H-M   'P 1'
_cell_length_a   3.06261320
_cell_length_b   9.02833283
_cell_length_c   10.59891485
_cell_angle_alpha   90.00057325
_cell_angle_beta   90.00003845
_cell_angle_gamma   90.00005050
_symmetry_Int_Tables_number   1
_chemical_formula_structural   Ca(CuO2)2
_chemical_formula_sum   'Ca4 Cu8 O16'
_cell_volume   293.06308305
_cell_formula_units_Z   4
loop_
 _symmetry_equiv_pos_site_id
 _symmetry_equiv_pos_as_xyz
  1  'x, y, z'
loop_
 _atom_site_type_symbol
 _atom_site_label
 _atom_site_symmetry_multiplicity
 _atom_site_fract_x
 _atom_site_fract_y
 _atom_site_fract_z
 _atom_site_occupancy
  Ca  Ca0  1  0.749999  0.241562  0.339758  1
  Ca  Ca1  1  0.250000  0.758348  0.660222  1
  Ca  Ca2  1  0.750001  0.741651  0.160270  1
  Ca  Ca3  1  0.249999  0.258420  0.839748  1
  Cu  Cu4  1  0.250000  0.416548  0.101020  1
  Cu  Cu5  1  0.749999  0.083429  0.601055  1
  Cu  Cu6  1  0.250000  0.916517  0.398976  1
  Cu  Cu7  1  0.750001  0.583540  0.898951  1
  Cu  Cu8  1  0.749999  0.560638  0.386975  1
  Cu  Cu9  1  0.249999  0.439346  0.613000  1
  Cu  Cu10  1  0.749999  0.060636  0.112993  1
  Cu  Cu11  1  0.249999  0.939348  0.886984  1
  O  O12  1  0.250000  0.917663  0.074181  1
  O  O13  1  0.749998  0.082294  0.925772  1
  O  O14  1  0.249998  0.417678  0.425843  1
  O  O15  1  0.750000  0.582292  0.574175  1
  O  O16  1  0.249999  0.025479  0.715719  1
  O  O17  1  0.750000  0.974527  0.284256  1
  O  O18  1  0.250000  0.525480  0.784198  1
  O  O19  1  0.750000  0.474494  0.215700  1
  O  O20  1  0.250001  0.617448  0.024693  1
  O  O21  1  0.750001  0.382530  0.975415  1
  O  O22  1  0.249999  0.117489  0.475450  1
  O  O23  1  0.750000  0.882597  0.524671  1
  O  O24  1  0.750000  0.793826  0.839874  1
  O  O25  1  0.249999  0.206337  0.160093  1
  O  O26  1  0.250000  0.706211  0.339901  1
  O  O27  1  0.749999  0.293670  0.660107  1
