# generated using pymatgen
data_Al13(CuS8)3
_symmetry_space_group_name_H-M   'P 1'
_cell_length_a   7.01683561
_cell_length_b   7.01683599
_cell_length_c   21.05437391
_cell_angle_alpha   60.33430786
_cell_angle_beta   60.33430844
_cell_angle_gamma   60.38304870
_symmetry_Int_Tables_number   1
_chemical_formula_structural   Al13(CuS8)3
_chemical_formula_sum   'Al13 Cu3 S24'
_cell_volume   738.82266853
_cell_formula_units_Z   1
loop_
 _symmetry_equiv_pos_site_id
 _symmetry_equiv_pos_as_xyz
  1  'x, y, z'
loop_
 _atom_site_type_symbol
 _atom_site_label
 _atom_site_symmetry_multiplicity
 _atom_site_fract_x
 _atom_site_fract_y
 _atom_site_fract_z
 _atom_site_occupancy
  Al  Al0  1  0.015666  0.498034  0.162781  1
  Al  Al1  1  0.008019  0.496170  0.499327  1
  Al  Al2  1  0.001117  0.496166  0.835931  1
  Al  Al3  1  0.497415  0.497415  0.339013  1
  Al  Al4  1  0.495434  0.495434  0.667679  1
  Al  Al5  1  0.498034  0.015666  0.162781  1
  Al  Al6  1  0.496170  0.008019  0.499327  1
  Al  Al7  1  0.496166  0.001117  0.835931  1
  Al  Al8  1  0.498089  0.498089  0.162509  1
  Al  Al9  1  0.495338  0.495338  0.835857  1
  Al  Al10  1  0.875784  0.875784  0.293776  1
  Al  Al11  1  0.882445  0.882445  0.624815  1
  Al  Al12  1  0.882688  0.882688  0.950950  1
  Cu  Cu13  1  0.121465  0.121465  0.044790  1
  Cu  Cu14  1  0.119567  0.119567  0.376887  1
  Cu  Cu15  1  0.127660  0.127660  0.705933  1
  S  S16  1  0.257329  0.257329  0.085468  1
  S  S17  1  0.258089  0.258089  0.418090  1
  S  S18  1  0.255950  0.255950  0.753537  1
  S  S19  1  0.256741  0.729630  0.085458  1
  S  S20  1  0.253854  0.729325  0.419250  1
  S  S21  1  0.259614  0.725831  0.752231  1
  S  S22  1  0.257691  0.257691  0.242653  1
  S  S23  1  0.252805  0.252805  0.577154  1
  S  S24  1  0.256230  0.256230  0.910603  1
  S  S25  1  0.729630  0.256741  0.085458  1
  S  S26  1  0.729325  0.253854  0.419250  1
  S  S27  1  0.725831  0.259614  0.752231  1
  S  S28  1  0.277436  0.740716  0.246787  1
  S  S29  1  0.273065  0.743915  0.580839  1
  S  S30  1  0.272868  0.743454  0.913586  1
  S  S31  1  0.743467  0.743467  0.090032  1
  S  S32  1  0.744710  0.744710  0.423641  1
  S  S33  1  0.741325  0.741325  0.758108  1
  S  S34  1  0.740716  0.277436  0.246787  1
  S  S35  1  0.743915  0.273065  0.580839  1
  S  S36  1  0.743454  0.272868  0.913586  1
  S  S37  1  0.742124  0.742124  0.247413  1
  S  S38  1  0.743284  0.743284  0.580778  1
  S  S39  1  0.743117  0.743117  0.913390  1
