# generated using pymatgen
data_CaV(PO3)4
_symmetry_space_group_name_H-M   'P 1'
_cell_length_a   7.60614619
_cell_length_b   7.60095276
_cell_length_c   10.19225010
_cell_angle_alpha   98.60869829
_cell_angle_beta   110.34796728
_cell_angle_gamma   109.48031521
_symmetry_Int_Tables_number   1
_chemical_formula_structural   CaV(PO3)4
_chemical_formula_sum   'Ca2 V2 P8 O24'
_cell_volume   496.77981111
_cell_formula_units_Z   2
loop_
 _symmetry_equiv_pos_site_id
 _symmetry_equiv_pos_as_xyz
  1  'x, y, z'
loop_
 _atom_site_type_symbol
 _atom_site_label
 _atom_site_symmetry_multiplicity
 _atom_site_fract_x
 _atom_site_fract_y
 _atom_site_fract_z
 _atom_site_occupancy
  Ca  Ca0  1  0.706517  0.955638  0.751020  1
  Ca  Ca1  1  0.296627  0.046148  0.250819  1
  V  V2  1  0.501870  0.501338  0.501238  1
  V  V3  1  0.501726  0.000570  0.000745  1
  P  P4  1  0.504834  0.319783  0.808192  1
  P  P5  1  0.013751  0.696716  0.693910  1
  P  P6  1  0.497765  0.681994  0.194020  1
  P  P7  1  0.989700  0.304124  0.307899  1
  P  P8  1  0.754205  0.719136  0.024899  1
  P  P9  1  0.196491  0.730209  0.477370  1
  P  P10  1  0.248884  0.281978  0.977618  1
  P  P11  1  0.805706  0.270973  0.523809  1
  O  O12  1  0.317857  0.322799  0.847809  1
  O  O13  1  0.976828  0.469950  0.653368  1
  O  O14  1  0.684655  0.678560  0.154538  1
  O  O15  1  0.025836  0.530644  0.348157  1
  O  O16  1  0.704823  0.502627  0.935786  1
  O  O17  1  0.070309  0.770574  0.567205  1
  O  O18  1  0.297903  0.498124  0.067130  1
  O  O19  1  0.931755  0.229912  0.434073  1
  O  O20  1  0.466491  0.350855  0.662205  1
  O  O21  1  0.190298  0.803370  0.840314  1
  O  O22  1  0.536307  0.652487  0.340475  1
  O  O23  1  0.814105  0.196760  0.161127  1
  O  O24  1  0.538035  0.138421  0.831391  1
  O  O25  1  0.809359  0.706958  0.670441  1
  O  O26  1  0.464162  0.862836  0.169778  1
  O  O27  1  0.194743  0.294839  0.332372  1
  O  O28  1  0.620310  0.801054  0.927654  1
  O  O29  1  0.375962  0.693649  0.574190  1
  O  O30  1  0.383251  0.200016  0.074385  1
  O  O31  1  0.627124  0.308867  0.427224  1
  O  O32  1  0.980774  0.831379  0.089936  1
  O  O33  1  0.242837  0.891556  0.411935  1
  O  O34  1  0.022353  0.169304  0.912860  1
  O  O35  1  0.757836  0.109258  0.588737  1
