# generated using pymatgen
data_YCo4(CuO4)3
_symmetry_space_group_name_H-M   'P 1'
_cell_length_a   6.30163322
_cell_length_b   6.30300022
_cell_length_c   6.29996007
_cell_angle_alpha   109.41749187
_cell_angle_beta   109.44231885
_cell_angle_gamma   109.47271769
_symmetry_Int_Tables_number   1
_chemical_formula_structural   YCo4(CuO4)3
_chemical_formula_sum   'Y1 Co4 Cu3 O12'
_cell_volume   192.81924187
_cell_formula_units_Z   1
loop_
 _symmetry_equiv_pos_site_id
 _symmetry_equiv_pos_as_xyz
  1  'x, y, z'
loop_
 _atom_site_type_symbol
 _atom_site_label
 _atom_site_symmetry_multiplicity
 _atom_site_fract_x
 _atom_site_fract_y
 _atom_site_fract_z
 _atom_site_occupancy
  Y  Y0  1  0.999997  0.999999  0.999999  1
  Co  Co1  1  0.499999  0.000000  0.000001  1
  Co  Co2  1  0.000000  0.000001  0.500001  1
  Co  Co3  1  0.000000  0.499999  0.999999  1
  Co  Co4  1  0.500000  0.499998  0.499999  1
  Cu  Cu5  1  0.499999  0.999999  0.500000  1
  Cu  Cu6  1  0.500000  0.499999  0.999999  1
  Cu  Cu7  1  0.000002  0.500002  0.500000  1
  O  O8  1  0.829912  0.305612  0.135391  1
  O  O9  1  0.170089  0.694390  0.864609  1
  O  O10  1  0.831408  0.696984  0.523164  1
  O  O11  1  0.302803  0.476860  0.168540  1
  O  O12  1  0.476878  0.168360  0.302617  1
  O  O13  1  0.135218  0.829697  0.305465  1
  O  O14  1  0.694259  0.864639  0.169907  1
  O  O15  1  0.523122  0.831638  0.697385  1
  O  O16  1  0.168593  0.303019  0.476838  1
  O  O17  1  0.697197  0.523138  0.831458  1
  O  O18  1  0.864780  0.170300  0.694535  1
  O  O19  1  0.305742  0.135362  0.830092  1
