# generated using pymatgen
data_Ti2Be3(SiO4)3
_symmetry_space_group_name_H-M   'P 1'
_cell_length_a   7.51322523
_cell_length_b   8.09105746
_cell_length_c   13.86551938
_cell_angle_alpha   89.81920400
_cell_angle_beta   90.00048737
_cell_angle_gamma   89.99420970
_symmetry_Int_Tables_number   1
_chemical_formula_structural   Ti2Be3(SiO4)3
_chemical_formula_sum   'Ti8 Be12 Si12 O48'
_cell_volume   842.87984981
_cell_formula_units_Z   4
loop_
 _symmetry_equiv_pos_site_id
 _symmetry_equiv_pos_as_xyz
  1  'x, y, z'
loop_
 _atom_site_type_symbol
 _atom_site_label
 _atom_site_symmetry_multiplicity
 _atom_site_fract_x
 _atom_site_fract_y
 _atom_site_fract_z
 _atom_site_occupancy
  Ti  Ti0  1  0.446589  0.247513  0.088346  1
  Ti  Ti1  1  0.053279  0.747490  0.588351  1
  Ti  Ti2  1  0.553235  0.752539  0.911620  1
  Ti  Ti3  1  0.946528  0.252491  0.411652  1
  Ti  Ti4  1  0.560475  0.248167  0.425437  1
  Ti  Ti5  1  0.060456  0.251874  0.074584  1
  Ti  Ti6  1  0.439670  0.751847  0.574520  1
  Ti  Ti7  1  0.939723  0.748148  0.925434  1
  Be  Be8  1  0.850993  0.924743  0.764208  1
  Be  Be9  1  0.656232  0.926719  0.402396  1
  Be  Be10  1  0.156331  0.573277  0.097592  1
  Be  Be11  1  0.343698  0.073365  0.597595  1
  Be  Be12  1  0.843811  0.426672  0.902378  1
  Be  Be13  1  0.148416  0.613092  0.414113  1
  Be  Be14  1  0.648429  0.886948  0.085919  1
  Be  Be15  1  0.851605  0.386876  0.585876  1
  Be  Be16  1  0.351654  0.113127  0.914124  1
  Be  Be17  1  0.648922  0.424723  0.264225  1
  Be  Be18  1  0.148948  0.075244  0.235793  1
  Be  Be19  1  0.350989  0.575251  0.735762  1
  Si  Si20  1  0.234151  0.929620  0.767179  1
  Si  Si21  1  0.734135  0.570369  0.732802  1
  Si  Si22  1  0.765826  0.070378  0.232798  1
  Si  Si23  1  0.265851  0.429602  0.267201  1
  Si  Si24  1  0.735914  0.111986  0.919442  1
  Si  Si25  1  0.235876  0.388016  0.580571  1
  Si  Si26  1  0.264127  0.888043  0.080577  1
  Si  Si27  1  0.764124  0.611981  0.419410  1
  Si  Si28  1  0.235955  0.439749  0.901342  1
  Si  Si29  1  0.735873  0.060245  0.598663  1
  Si  Si30  1  0.764119  0.560210  0.098663  1
  Si  Si31  1  0.264087  0.939786  0.401358  1
  O  O32  1  0.120588  0.750303  0.037949  1
  O  O33  1  0.042402  0.892975  0.824287  1
  O  O34  1  0.542341  0.606966  0.675692  1
  O  O35  1  0.957564  0.106991  0.175761  1
  O  O36  1  0.457621  0.393029  0.324322  1
  O  O37  1  0.541061  0.180315  0.960078  1
  O  O38  1  0.041076  0.319683  0.539970  1
  O  O39  1  0.458947  0.819655  0.039927  1
  O  O40  1  0.958908  0.680335  0.460033  1
  O  O41  1  0.035492  0.526771  0.890092  1
  O  O42  1  0.535376  0.973160  0.609878  1
  O  O43  1  0.964654  0.473194  0.109899  1
  O  O44  1  0.123996  0.077532  0.354443  1
  O  O45  1  0.624000  0.422409  0.145533  1
  O  O46  1  0.875953  0.922416  0.645550  1
  O  O47  1  0.376096  0.577613  0.854504  1
  O  O48  1  0.620519  0.749684  0.462007  1
  O  O49  1  0.464586  0.026881  0.390138  1
  O  O50  1  0.379473  0.250315  0.537989  1
  O  O51  1  0.879493  0.249716  0.962000  1
  O  O52  1  0.761786  0.072023  0.476763  1
  O  O53  1  0.616573  0.063015  0.145394  1
  O  O54  1  0.883361  0.563014  0.645391  1
  O  O55  1  0.383404  0.936966  0.854599  1
  O  O56  1  0.733120  0.423593  0.808956  1
  O  O57  1  0.233126  0.076417  0.691055  1
  O  O58  1  0.266909  0.576360  0.191052  1
  O  O59  1  0.766794  0.923602  0.308966  1
  O  O60  1  0.746187  0.068894  0.808091  1
  O  O61  1  0.246197  0.431082  0.691912  1
  O  O62  1  0.253774  0.931058  0.191880  1
  O  O63  1  0.753756  0.568884  0.308065  1
  O  O64  1  0.244942  0.253425  0.866747  1
  O  O65  1  0.744788  0.246616  0.633236  1
  O  O66  1  0.755132  0.746615  0.133262  1
  O  O67  1  0.255216  0.753405  0.366780  1
  O  O68  1  0.754095  0.742925  0.802538  1
  O  O69  1  0.254111  0.757071  0.697447  1
  O  O70  1  0.245865  0.257005  0.197464  1
  O  O71  1  0.745786  0.242903  0.302553  1
  O  O72  1  0.760041  0.927574  0.976684  1
  O  O73  1  0.260060  0.572439  0.523316  1
  O  O74  1  0.239949  0.072506  0.023343  1
  O  O75  1  0.739932  0.427586  0.476688  1
  O  O76  1  0.738295  0.572069  0.976746  1
  O  O77  1  0.238187  0.927981  0.523257  1
  O  O78  1  0.261856  0.427969  0.023234  1
  O  O79  1  0.116589  0.436965  0.354600  1
