# generated using pymatgen
data_Ca(FeS2)2
_symmetry_space_group_name_H-M   'P 1'
_cell_length_a   7.10567113
_cell_length_b   7.10567230
_cell_length_c   7.25986515
_cell_angle_alpha   119.29986450
_cell_angle_beta   119.29986829
_cell_angle_gamma   89.99999350
_symmetry_Int_Tables_number   1
_chemical_formula_structural   Ca(FeS2)2
_chemical_formula_sum   'Ca2 Fe4 S8'
_cell_volume   264.58388516
_cell_formula_units_Z   2
loop_
 _symmetry_equiv_pos_site_id
 _symmetry_equiv_pos_as_xyz
  1  'x, y, z'
loop_
 _atom_site_type_symbol
 _atom_site_label
 _atom_site_symmetry_multiplicity
 _atom_site_fract_x
 _atom_site_fract_y
 _atom_site_fract_z
 _atom_site_occupancy
  Ca  Ca0  1  0.375000  0.625000  0.750000  1
  Ca  Ca1  1  0.625000  0.375000  0.250000  1
  Fe  Fe2  1  0.000000  0.000000  0.500000  1
  Fe  Fe3  1  0.000000  0.500000  0.000000  1
  Fe  Fe4  1  0.500000  0.000000  0.500000  1
  Fe  Fe5  1  0.000000  0.000000  0.000000  1
  S  S6  1  0.778903  0.817957  0.557806  1
  S  S7  1  0.760152  0.221097  0.942194  1
  S  S8  1  0.182043  0.221097  0.942194  1
  S  S9  1  0.221097  0.182043  0.442194  1
  S  S10  1  0.221097  0.760152  0.442194  1
  S  S11  1  0.239848  0.778903  0.057806  1
  S  S12  1  0.778903  0.239848  0.557806  1
  S  S13  1  0.817957  0.778903  0.057806  1
