# generated using pymatgen
data_MgCuO2
_symmetry_space_group_name_H-M   'P 1'
_cell_length_a   2.86003223
_cell_length_b   8.08993420
_cell_length_c   8.32574625
_cell_angle_alpha   92.65043864
_cell_angle_beta   81.00842615
_cell_angle_gamma   100.51102071
_symmetry_Int_Tables_number   1
_chemical_formula_structural   MgCuO2
_chemical_formula_sum   'Mg4 Cu4 O8'
_cell_volume   187.04553944
_cell_formula_units_Z   4
loop_
 _symmetry_equiv_pos_site_id
 _symmetry_equiv_pos_as_xyz
  1  'x, y, z'
loop_
 _atom_site_type_symbol
 _atom_site_label
 _atom_site_symmetry_multiplicity
 _atom_site_fract_x
 _atom_site_fract_y
 _atom_site_fract_z
 _atom_site_occupancy
  Mg  Mg0  1  0.388311  0.083952  0.297279  1
  Mg  Mg1  1  0.607938  0.896194  0.730804  1
  Mg  Mg2  1  0.290319  0.765861  0.142801  1
  Mg  Mg3  1  0.705561  0.214035  0.885541  1
  Cu  Cu4  1  0.369376  0.280828  0.582336  1
  Cu  Cu5  1  0.109100  0.411900  0.191355  1
  Cu  Cu6  1  0.886816  0.568066  0.836812  1
  Cu  Cu7  1  0.627417  0.699219  0.445843  1
  O  O8  1  0.104870  0.775342  0.585889  1
  O  O9  1  0.330491  0.405833  0.783173  1
  O  O10  1  0.665120  0.574161  0.245466  1
  O  O11  1  0.891395  0.204426  0.442068  1
  O  O12  1  0.163171  0.061742  0.804209  1
  O  O13  1  0.566251  0.264651  0.121708  1
  O  O14  1  0.832652  0.918138  0.223986  1
  O  O15  1  0.429487  0.714986  0.906350  1
