# generated using pymatgen
data_Mg2V3O8
_symmetry_space_group_name_H-M   'P 1'
_cell_length_a   4.87059698
_cell_length_b   5.80724608
_cell_length_c   6.10641132
_cell_angle_alpha   118.39217225
_cell_angle_beta   109.95916752
_cell_angle_gamma   89.99999716
_symmetry_Int_Tables_number   1
_chemical_formula_structural   Mg2V3O8
_chemical_formula_sum   'Mg2 V3 O8'
_cell_volume   140.03782433
_cell_formula_units_Z   1
loop_
 _symmetry_equiv_pos_site_id
 _symmetry_equiv_pos_as_xyz
  1  'x, y, z'
loop_
 _atom_site_type_symbol
 _atom_site_label
 _atom_site_symmetry_multiplicity
 _atom_site_fract_x
 _atom_site_fract_y
 _atom_site_fract_z
 _atom_site_occupancy
  Mg  Mg0  1  0.665079  0.732011  0.464020  1
  Mg  Mg1  1  0.334920  0.267990  0.535980  1
  V  V2  1  0.500000  0.999999  0.000000  1
  V  V3  1  0.999999  0.710255  0.000000  1
  V  V4  1  0.999999  0.289745  1.000000  1
  O  O5  1  0.080870  0.385139  0.770280  1
  O  O6  1  0.919130  0.614860  0.229720  1
  O  O7  1  0.090039  0.896974  0.793948  1
  O  O8  1  0.909961  0.103025  0.206051  1
  O  O9  1  0.399802  0.347856  0.231620  1
  O  O10  1  0.399802  0.883764  0.231620  1
  O  O11  1  0.600199  0.116235  0.768380  1
  O  O12  1  0.600199  0.652144  0.768380  1
