# generated using pymatgen
data_MgTi2O4
_symmetry_space_group_name_H-M   'P 1'
_cell_length_a   6.03815272
_cell_length_b   6.03815258
_cell_length_c   6.03815310
_cell_angle_alpha   60.00000277
_cell_angle_beta   60.00000350
_cell_angle_gamma   60.00000160
_symmetry_Int_Tables_number   1
_chemical_formula_structural   MgTi2O4
_chemical_formula_sum   'Mg2 Ti4 O8'
_cell_volume   155.66727575
_cell_formula_units_Z   2
loop_
 _symmetry_equiv_pos_site_id
 _symmetry_equiv_pos_as_xyz
  1  'x, y, z'
loop_
 _atom_site_type_symbol
 _atom_site_label
 _atom_site_symmetry_multiplicity
 _atom_site_fract_x
 _atom_site_fract_y
 _atom_site_fract_z
 _atom_site_occupancy
  Mg  Mg0  1  0.875000  0.875000  0.875000  1
  Mg  Mg1  1  0.125000  0.125000  0.125000  1
  Ti  Ti2  1  0.500000  0.500000  0.500000  1
  Ti  Ti3  1  0.500000  0.500000  0.000000  1
  Ti  Ti4  1  0.000000  0.500000  0.500000  1
  Ti  Ti5  1  0.500000  0.000000  0.500000  1
  O  O6  1  0.258244  0.258244  0.258244  1
  O  O7  1  0.741756  0.741756  0.274733  1
  O  O8  1  0.274733  0.741756  0.741756  1
  O  O9  1  0.741756  0.274733  0.741756  1
  O  O10  1  0.725267  0.258244  0.258244  1
  O  O11  1  0.258244  0.725267  0.258244  1
  O  O12  1  0.258244  0.258244  0.725267  1
  O  O13  1  0.741756  0.741756  0.741756  1
