# generated using pymatgen
data_CaPr(SnO3)2
_symmetry_space_group_name_H-M   'P 1'
_cell_length_a   5.69606067
_cell_length_b   5.95208571
_cell_length_c   8.23298294
_cell_angle_alpha   89.99990966
_cell_angle_beta   89.99999360
_cell_angle_gamma   90.03439809
_symmetry_Int_Tables_number   1
_chemical_formula_structural   CaPr(SnO3)2
_chemical_formula_sum   'Ca2 Pr2 Sn4 O12'
_cell_volume   279.12640342
_cell_formula_units_Z   2
loop_
 _symmetry_equiv_pos_site_id
 _symmetry_equiv_pos_as_xyz
  1  'x, y, z'
loop_
 _atom_site_type_symbol
 _atom_site_label
 _atom_site_symmetry_multiplicity
 _atom_site_fract_x
 _atom_site_fract_y
 _atom_site_fract_z
 _atom_site_occupancy
  Ca  Ca0  1  0.484816  0.448386  0.750001  1
  Ca  Ca1  1  0.984909  0.051157  0.250001  1
  Pr  Pr2  1  0.019725  0.941253  0.750000  1
  Pr  Pr3  1  0.520307  0.559331  0.250000  1
  Sn  Sn4  1  0.001158  0.495970  0.999463  1
  Sn  Sn5  1  0.001161  0.495970  0.500538  1
  Sn  Sn6  1  0.501743  0.004245  0.499481  1
  Sn  Sn7  1  0.501739  0.004243  0.000518  1
  O  O8  1  0.118572  0.448970  0.250001  1
  O  O9  1  0.195421  0.200430  0.938438  1
  O  O10  1  0.195424  0.200431  0.561561  1
  O  O11  1  0.297310  0.703222  0.562230  1
  O  O12  1  0.297309  0.703221  0.937771  1
  O  O13  1  0.383048  0.953441  0.250000  1
  O  O14  1  0.617948  0.050417  0.749999  1
  O  O15  1  0.698055  0.302313  0.061740  1
  O  O16  1  0.698059  0.302314  0.438260  1
  O  O17  1  0.800079  0.794007  0.062320  1
  O  O18  1  0.800081  0.794006  0.437679  1
  O  O19  1  0.883129  0.546670  0.749999  1
