# generated using pymatgen
data_Bi6P2O15
_symmetry_space_group_name_H-M   'P 1'
_cell_length_a   5.55133656
_cell_length_b   7.88855770
_cell_length_c   17.29873774
_cell_angle_alpha   102.17251918
_cell_angle_beta   90.12312123
_cell_angle_gamma   110.37847625
_symmetry_Int_Tables_number   1
_chemical_formula_structural   Bi6P2O15
_chemical_formula_sum   'Bi12 P4 O30'
_cell_volume   691.80362327
_cell_formula_units_Z   2
loop_
 _symmetry_equiv_pos_site_id
 _symmetry_equiv_pos_as_xyz
  1  'x, y, z'
loop_
 _atom_site_type_symbol
 _atom_site_label
 _atom_site_symmetry_multiplicity
 _atom_site_fract_x
 _atom_site_fract_y
 _atom_site_fract_z
 _atom_site_occupancy
  Bi  Bi0  1  0.891840  0.430707  0.381697  1
  Bi  Bi1  1  0.268350  0.146319  0.917376  1
  Bi  Bi2  1  0.170138  0.952768  0.596268  1
  Bi  Bi3  1  0.786319  0.079293  0.746056  1
  Bi  Bi4  1  0.075058  0.707064  0.761982  1
  Bi  Bi5  1  0.362439  0.295104  0.238492  1
  Bi  Bi6  1  0.465531  0.571964  0.619892  1
  Bi  Bi7  1  0.216054  0.048712  0.403278  1
  Bi  Bi8  1  0.595125  0.799320  0.914158  1
  Bi  Bi9  1  0.707097  0.921319  0.254584  1
  Bi  Bi10  1  0.791666  0.202605  0.087193  1
  Bi  Bi11  1  0.122498  0.854182  0.084288  1
  P  P12  1  0.893831  0.426792  0.905796  1
  P  P13  1  0.469254  0.572670  0.094693  1
  P  P14  1  0.495855  0.717625  0.425465  1
  P  P15  1  0.783526  0.284329  0.575053  1
  O  O16  1  0.405564  0.938731  0.838062  1
  O  O17  1  0.038643  0.855177  0.295124  1
  O  O18  1  0.794313  0.442713  0.648704  1
  O  O19  1  0.321052  0.690034  0.495600  1
  O  O20  1  0.639347  0.312972  0.504708  1
  O  O21  1  0.939769  0.001101  0.000344  1
  O  O22  1  0.920281  0.948590  0.834412  1
  O  O23  1  0.726296  0.670484  0.150313  1
  O  O24  1  0.502234  0.199732  0.335662  1
  O  O25  1  0.765442  0.711584  0.444357  1
  O  O26  1  0.059251  0.288937  0.556867  1
  O  O27  1  0.823950  0.816800  0.665178  1
  O  O28  1  0.805738  0.418729  0.256493  1
  O  O29  1  0.532910  0.907148  0.403776  1
  O  O30  1  0.385003  0.578317  0.743909  1
  O  O31  1  0.628543  0.094989  0.596512  1
  O  O32  1  0.005734  0.186232  0.335296  1
  O  O33  1  0.464692  0.062072  0.162758  1
  O  O34  1  0.183607  0.144135  0.705327  1
  O  O35  1  0.967356  0.051817  0.166126  1
  O  O36  1  0.517871  0.627068  0.014642  1
  O  O37  1  0.453432  0.000738  0.000343  1
  O  O38  1  0.021708  0.640422  0.911934  1
  O  O39  1  0.259385  0.639767  0.136440  1
  O  O40  1  0.386919  0.359028  0.086520  1
  O  O41  1  0.889274  0.376054  0.986395  1
  O  O42  1  0.348691  0.559320  0.352083  1
  O  O43  1  0.617552  0.356592  0.863621  1
  O  O44  1  0.055421  0.328570  0.851095  1
  O  O45  1  0.307351  0.803400  0.664652  1
