# generated using pymatgen
data_Zn2NiSbO6
_symmetry_space_group_name_H-M   'P 1'
_cell_length_a   5.29621098
_cell_length_b   5.26536718
_cell_length_c   7.61734735
_cell_angle_alpha   90.00000000
_cell_angle_beta   90.00000000
_cell_angle_gamma   92.95973347
_symmetry_Int_Tables_number   1
_chemical_formula_structural   Zn2NiSbO6
_chemical_formula_sum   'Zn4 Ni2 Sb2 O12'
_cell_volume   212.13776735
_cell_formula_units_Z   2
loop_
 _symmetry_equiv_pos_site_id
 _symmetry_equiv_pos_as_xyz
  1  'x, y, z'
loop_
 _atom_site_type_symbol
 _atom_site_label
 _atom_site_symmetry_multiplicity
 _atom_site_fract_x
 _atom_site_fract_y
 _atom_site_fract_z
 _atom_site_occupancy
  Zn  Zn0  1  0.519833  0.557625  0.750000  1
  Zn  Zn1  1  0.480167  0.442375  0.250000  1
  Zn  Zn2  1  0.032318  0.020518  0.750000  1
  Zn  Zn3  1  0.967682  0.979482  0.250000  1
  Ni  Ni4  1  0.500000  0.000000  0.500000  1
  Ni  Ni5  1  0.500000  0.000000  0.000000  1
  Sb  Sb6  1  0.000000  0.500000  0.500000  1
  Sb  Sb7  1  0.000000  0.500000  0.000000  1
  O  O8  1  0.329186  0.676771  0.434810  1
  O  O9  1  0.163333  0.188211  0.068807  1
  O  O10  1  0.670814  0.323229  0.934810  1
  O  O11  1  0.836667  0.811789  0.568807  1
  O  O12  1  0.163333  0.188211  0.431193  1
  O  O13  1  0.836667  0.811789  0.931193  1
  O  O14  1  0.869320  0.587391  0.250000  1
  O  O15  1  0.329186  0.676771  0.065190  1
  O  O16  1  0.389671  0.914614  0.750000  1
  O  O17  1  0.670814  0.323229  0.565190  1
  O  O18  1  0.130680  0.412609  0.750000  1
  O  O19  1  0.610329  0.085386  0.250000  1
