# generated using pymatgen
data_Zn(SnN)2
_symmetry_space_group_name_H-M   'P 1'
_cell_length_a   3.35273214
_cell_length_b   3.35191996
_cell_length_c   8.06420856
_cell_angle_alpha   90.04340968
_cell_angle_beta   90.08544840
_cell_angle_gamma   89.99328395
_symmetry_Int_Tables_number   1
_chemical_formula_structural   Zn(SnN)2
_chemical_formula_sum   'Zn1 Sn2 N2'
_cell_volume   90.62617232
_cell_formula_units_Z   1
loop_
 _symmetry_equiv_pos_site_id
 _symmetry_equiv_pos_as_xyz
  1  'x, y, z'
loop_
 _atom_site_type_symbol
 _atom_site_label
 _atom_site_symmetry_multiplicity
 _atom_site_fract_x
 _atom_site_fract_y
 _atom_site_fract_z
 _atom_site_occupancy
  Zn  Zn0  1  0.999294  0.000171  0.249973  1
  Sn  Sn1  1  0.498868  0.498459  0.944147  1
  Sn  Sn2  1  0.503221  0.500735  0.555903  1
  N  N3  1  0.499372  0.000515  0.395783  1
  N  N4  1  0.999244  0.500119  0.104194  1
