# generated using pymatgen
data_TaZn2CoO6
_symmetry_space_group_name_H-M   'P 1'
_cell_length_a   5.14061779
_cell_length_b   5.26920398
_cell_length_c   7.58991748
_cell_angle_alpha   90.00000000
_cell_angle_beta   90.00000000
_cell_angle_gamma   88.80093662
_symmetry_Int_Tables_number   1
_chemical_formula_structural   TaZn2CoO6
_chemical_formula_sum   'Ta2 Zn4 Co2 O12'
_cell_volume   205.54280092
_cell_formula_units_Z   2
loop_
 _symmetry_equiv_pos_site_id
 _symmetry_equiv_pos_as_xyz
  1  'x, y, z'
loop_
 _atom_site_type_symbol
 _atom_site_label
 _atom_site_symmetry_multiplicity
 _atom_site_fract_x
 _atom_site_fract_y
 _atom_site_fract_z
 _atom_site_occupancy
  Ta  Ta0  1  0.000000  0.500000  0.000000  1
  Ta  Ta1  1  0.000000  0.500000  0.500000  1
  Zn  Zn2  1  0.003083  0.973077  0.250000  1
  Zn  Zn3  1  0.487639  0.442415  0.250000  1
  Zn  Zn4  1  0.512361  0.557585  0.750000  1
  Zn  Zn5  1  0.996917  0.026923  0.750000  1
  Co  Co6  1  0.500000  0.000000  0.000000  1
  Co  Co7  1  0.500000  0.000000  0.500000  1
  O  O8  1  0.810819  0.817613  0.563095  1
  O  O9  1  0.319181  0.691901  0.435037  1
  O  O10  1  0.189181  0.182387  0.436905  1
  O  O11  1  0.680819  0.308099  0.935037  1
  O  O12  1  0.125176  0.448435  0.750000  1
  O  O13  1  0.680819  0.308099  0.564963  1
  O  O14  1  0.319181  0.691901  0.064963  1
  O  O15  1  0.810819  0.817613  0.936905  1
  O  O16  1  0.622598  0.069026  0.250000  1
  O  O17  1  0.189181  0.182387  0.063095  1
  O  O18  1  0.377402  0.930974  0.750000  1
  O  O19  1  0.874824  0.551565  0.250000  1
