# generated using pymatgen
data_Ta2MoO8
_symmetry_space_group_name_H-M   'P 1'
_cell_length_a   5.14678609
_cell_length_b   6.11158326
_cell_length_c   10.43786905
_cell_angle_alpha   106.94155865
_cell_angle_beta   89.23158539
_cell_angle_gamma   89.99048286
_symmetry_Int_Tables_number   1
_chemical_formula_structural   Ta2MoO8
_chemical_formula_sum   'Ta4 Mo2 O16'
_cell_volume   314.04378159
_cell_formula_units_Z   2
loop_
 _symmetry_equiv_pos_site_id
 _symmetry_equiv_pos_as_xyz
  1  'x, y, z'
loop_
 _atom_site_type_symbol
 _atom_site_label
 _atom_site_symmetry_multiplicity
 _atom_site_fract_x
 _atom_site_fract_y
 _atom_site_fract_z
 _atom_site_occupancy
  Ta  Ta0  1  0.751095  0.314105  0.264600  1
  Ta  Ta1  1  0.748401  0.050580  0.735057  1
  Ta  Ta2  1  0.248322  0.683092  0.735005  1
  Ta  Ta3  1  0.251291  0.946204  0.264469  1
  Mo  Mo4  1  0.749773  0.660240  0.999611  1
  Mo  Mo5  1  0.249811  0.337250  0.999852  1
  O  O6  1  0.080223  0.216614  0.114713  1
  O  O7  1  0.419250  0.102310  0.884864  1
  O  O8  1  0.919311  0.781069  0.884843  1
  O  O9  1  0.580250  0.895234  0.114607  1
  O  O10  1  0.568714  0.435828  0.104109  1
  O  O11  1  0.930739  0.332082  0.895475  1
  O  O12  1  0.430872  0.561702  0.895431  1
  O  O13  1  0.068862  0.665473  0.103934  1
  O  O14  1  0.422872  0.239970  0.323555  1
  O  O15  1  0.076641  0.917990  0.675964  1
  O  O16  1  0.353618  0.796100  0.371752  1
  O  O17  1  0.145717  0.425975  0.627431  1
  O  O18  1  0.645492  0.200048  0.627249  1
  O  O19  1  0.853680  0.570596  0.372378  1
  O  O20  1  0.922843  0.078784  0.323310  1
  O  O21  1  0.576745  0.756891  0.676201  1
