# generated using pymatgen
data_CaCr2CuO7
_symmetry_space_group_name_H-M   'P 1'
_cell_length_a   8.97088273
_cell_length_b   10.18241753
_cell_length_c   10.35213175
_cell_angle_alpha   92.71178972
_cell_angle_beta   90.00000000
_cell_angle_gamma   90.00000000
_symmetry_Int_Tables_number   1
_chemical_formula_structural   CaCr2CuO7
_chemical_formula_sum   'Ca6 Cr12 Cu6 O42'
_cell_volume   944.55936600
_cell_formula_units_Z   6
loop_
 _symmetry_equiv_pos_site_id
 _symmetry_equiv_pos_as_xyz
  1  'x, y, z'
loop_
 _atom_site_type_symbol
 _atom_site_label
 _atom_site_symmetry_multiplicity
 _atom_site_fract_x
 _atom_site_fract_y
 _atom_site_fract_z
 _atom_site_occupancy
  Ca  Ca0  1  0.442333  0.176525  0.567088  1
  Ca  Ca1  1  0.931629  0.500000  0.750000  1
  Ca  Ca2  1  0.442333  0.823475  0.932912  1
  Ca  Ca3  1  0.068371  0.500000  0.250000  1
  Ca  Ca4  1  0.557667  0.823475  0.432912  1
  Ca  Ca5  1  0.557667  0.176525  0.067088  1
  Cr  Cr6  1  0.208036  0.163083  0.289864  1
  Cr  Cr7  1  0.746769  0.164502  0.381431  1
  Cr  Cr8  1  0.253231  0.164502  0.881431  1
  Cr  Cr9  1  0.791964  0.163083  0.789864  1
  Cr  Cr10  1  0.289189  0.475884  0.960266  1
  Cr  Cr11  1  0.746769  0.835498  0.118569  1
  Cr  Cr12  1  0.710811  0.475884  0.460266  1
  Cr  Cr13  1  0.253231  0.835498  0.618569  1
  Cr  Cr14  1  0.289189  0.524116  0.539734  1
  Cr  Cr15  1  0.710811  0.524116  0.039734  1
  Cr  Cr16  1  0.791964  0.836917  0.710136  1
  Cr  Cr17  1  0.208036  0.836917  0.210136  1
  Cu  Cu18  1  0.941967  0.807228  0.409957  1
  Cu  Cu19  1  0.058033  0.192772  0.590043  1
  Cu  Cu20  1  0.448061  0.500000  0.250000  1
  Cu  Cu21  1  0.941967  0.192772  0.090043  1
  Cu  Cu22  1  0.551939  0.500000  0.750000  1
  Cu  Cu23  1  0.058033  0.807228  0.909957  1
  O  O24  1  0.788335  0.189527  0.955115  1
  O  O25  1  0.769702  0.827097  0.281382  1
  O  O26  1  0.853865  -0.000000  0.750000  1
  O  O27  1  0.877907  0.510737  0.103858  1
  O  O28  1  0.381803  0.945872  0.569327  1
  O  O29  1  0.922591  0.263451  0.718378  1
  O  O30  1  0.356016  0.309518  0.936150  1
  O  O31  1  0.122093  0.510737  0.603858  1
  O  O32  1  0.712243  0.487731  0.876779  1
  O  O33  1  0.381803  0.054128  0.930673  1
  O  O34  1  0.712243  0.512269  0.623221  1
  O  O35  1  0.415110  0.571798  0.879652  1
  O  O36  1  0.909466  0.854741  0.040604  1
  O  O37  1  0.077409  0.263451  0.218378  1
  O  O38  1  0.643984  0.690482  0.063850  1
  O  O39  1  0.356016  0.690482  0.563850  1
  O  O40  1  0.922591  0.736549  0.781622  1
  O  O41  1  0.618197  0.054128  0.430673  1
  O  O42  1  0.211665  0.189527  0.455115  1
  O  O43  1  0.584890  0.428202  0.120348  1
  O  O44  1  0.374289  0.812687  0.273602  1
  O  O45  1  0.287757  0.512269  0.123221  1
  O  O46  1  0.090534  0.854741  0.540604  1
  O  O47  1  0.287757  0.487731  0.376779  1
  O  O48  1  0.877907  0.489263  0.396142  1
  O  O49  1  0.584890  0.571798  0.379652  1
  O  O50  1  0.122093  0.489263  0.896142  1
  O  O51  1  0.625711  0.812687  0.773602  1
  O  O52  1  0.625711  0.187313  0.726398  1
  O  O53  1  0.090534  0.145259  0.959396  1
  O  O54  1  0.077409  0.736549  0.281622  1
  O  O55  1  0.788335  0.810473  0.544885  1
  O  O56  1  0.146135  -0.000000  0.250000  1
  O  O57  1  0.230298  0.827097  0.781382  1
  O  O58  1  0.618197  0.945872  0.069327  1
  O  O59  1  0.909466  0.145259  0.459396  1
  O  O60  1  0.211665  0.810473  0.044885  1
  O  O61  1  0.769702  0.172903  0.218618  1
  O  O62  1  0.415110  0.428202  0.620348  1
  O  O63  1  0.643984  0.309518  0.436150  1
  O  O64  1  0.230298  0.172903  0.718618  1
  O  O65  1  0.374289  0.187313  0.226398  1
