# generated using pymatgen
data_Ba2YV3O7
_symmetry_space_group_name_H-M   'P 1'
_cell_length_a   3.90041334
_cell_length_b   4.14935505
_cell_length_c   11.63264840
_cell_angle_alpha   90.02071406
_cell_angle_beta   90.00063450
_cell_angle_gamma   89.99981498
_symmetry_Int_Tables_number   1
_chemical_formula_structural   Ba2YV3O7
_chemical_formula_sum   'Ba2 Y1 V3 O7'
_cell_volume   188.26509337
_cell_formula_units_Z   1
loop_
 _symmetry_equiv_pos_site_id
 _symmetry_equiv_pos_as_xyz
  1  'x, y, z'
loop_
 _atom_site_type_symbol
 _atom_site_label
 _atom_site_symmetry_multiplicity
 _atom_site_fract_x
 _atom_site_fract_y
 _atom_site_fract_z
 _atom_site_occupancy
  Ba  Ba0  1  0.499998  0.498796  0.822264  1
  Ba  Ba1  1  0.499977  0.499497  0.177700  1
  Y  Y2  1  0.500031  0.502192  0.499989  1
  V  V3  1  0.000017  0.000565  0.652828  1
  V  V4  1  0.000011  0.000459  0.347165  1
  V  V5  1  0.999935  0.999433  0.999996  1
  O  O6  1  0.999974  0.499425  0.000031  1
  O  O7  1  0.500016  0.000151  0.618607  1
  O  O8  1  0.500019  0.999951  0.381363  1
  O  O9  1  0.000025  0.500615  0.626098  1
  O  O10  1  0.000026  0.500469  0.373960  1
  O  O11  1  -0.000004  0.998809  0.825208  1
  O  O12  1  0.999974  0.999639  0.174790  1
