# generated using pymatgen
data_Mg2Sb3O8
_symmetry_space_group_name_H-M   'P 1'
_cell_length_a   5.51624135
_cell_length_b   6.40558648
_cell_length_c   6.41886350
_cell_angle_alpha   119.93160196
_cell_angle_beta   110.31818470
_cell_angle_gamma   89.99999649
_symmetry_Int_Tables_number   1
_chemical_formula_structural   Mg2Sb3O8
_chemical_formula_sum   'Mg2 Sb3 O8'
_cell_volume   180.09009092
_cell_formula_units_Z   1
loop_
 _symmetry_equiv_pos_site_id
 _symmetry_equiv_pos_as_xyz
  1  'x, y, z'
loop_
 _atom_site_type_symbol
 _atom_site_label
 _atom_site_symmetry_multiplicity
 _atom_site_fract_x
 _atom_site_fract_y
 _atom_site_fract_z
 _atom_site_occupancy
  Mg  Mg0  1  0.640214  0.714502  0.429004  1
  Mg  Mg1  1  0.359785  0.285499  0.570996  1
  Sb  Sb2  1  0.500000  0.999999  0.000000  1
  Sb  Sb3  1  0.999999  0.734998  0.000000  1
  Sb  Sb4  1  0.999999  0.265002  1.000000  1
  O  O5  1  0.086931  0.395881  0.791762  1
  O  O6  1  0.913069  0.604118  0.208238  1
  O  O7  1  0.032793  0.886683  0.773365  1
  O  O8  1  0.967207  0.113316  0.226634  1
  O  O9  1  0.393811  0.365508  0.244225  1
  O  O10  1  0.393811  0.878717  0.244225  1
  O  O11  1  0.606190  0.121282  0.755775  1
  O  O12  1  0.606190  0.634492  0.755775  1
