# generated using pymatgen
data_Ta2Zn2CuO8
_symmetry_space_group_name_H-M   'P 1'
_cell_length_a   5.23049986
_cell_length_b   5.99997840
_cell_length_c   10.10524257
_cell_angle_alpha   106.48331613
_cell_angle_beta   92.13100275
_cell_angle_gamma   90.55310437
_symmetry_Int_Tables_number   1
_chemical_formula_structural   Ta2Zn2CuO8
_chemical_formula_sum   'Ta4 Zn4 Cu2 O16'
_cell_volume   303.82046213
_cell_formula_units_Z   2
loop_
 _symmetry_equiv_pos_site_id
 _symmetry_equiv_pos_as_xyz
  1  'x, y, z'
loop_
 _atom_site_type_symbol
 _atom_site_label
 _atom_site_symmetry_multiplicity
 _atom_site_fract_x
 _atom_site_fract_y
 _atom_site_fract_z
 _atom_site_occupancy
  Ta  Ta0  1  0.728998  0.273181  0.229392  1
  Ta  Ta1  1  0.774205  0.041641  0.769769  1
  Ta  Ta2  1  0.271639  0.727810  0.769703  1
  Ta  Ta3  1  0.226675  0.959738  0.229046  1
  Zn  Zn4  1  0.763471  0.437869  0.562221  1
  Zn  Zn5  1  0.735216  0.872891  0.436972  1
  Zn  Zn6  1  0.236946  0.562293  0.436773  1
  Zn  Zn7  1  0.264840  0.127591  0.560871  1
  Cu  Cu8  1  0.748419  0.643127  0.999142  1
  Cu  Cu9  1  0.249171  0.358798  0.000231  1
  O  O10  1  0.059019  0.190840  0.141450  1
  O  O11  1  0.445472  0.037710  0.855685  1
  O  O12  1  0.942320  0.812463  0.857553  1
  O  O13  1  0.555983  0.961883  0.143011  1
  O  O14  1  0.564245  0.422815  0.111981  1
  O  O15  1  0.939076  0.305683  0.885546  1
  O  O16  1  0.432662  0.576421  0.888122  1
  O  O17  1  0.057717  0.698704  0.113691  1
  O  O18  1  0.432944  0.281512  0.357341  1
  O  O19  1  0.068606  0.923376  0.642535  1
  O  O20  1  0.358226  0.839184  0.384607  1
  O  O21  1  0.141123  0.453902  0.614302  1
  O  O22  1  0.641954  0.159877  0.613349  1
  O  O23  1  0.859093  0.547103  0.384828  1
  O  O24  1  0.932812  0.078249  0.356651  1
  O  O25  1  0.567937  0.718197  0.642108  1
