# generated using pymatgen
data_ZnCrPO5
_symmetry_space_group_name_H-M   'P 1'
_cell_length_a   5.41294175
_cell_length_b   7.23508183
_cell_length_c   8.08058193
_cell_angle_alpha   89.97453339
_cell_angle_beta   41.64647061
_cell_angle_gamma   72.22516940
_symmetry_Int_Tables_number   1
_chemical_formula_structural   ZnCrPO5
_chemical_formula_sum   'Zn2 Cr2 P2 O10'
_cell_volume   186.84892272
_cell_formula_units_Z   2
loop_
 _symmetry_equiv_pos_site_id
 _symmetry_equiv_pos_as_xyz
  1  'x, y, z'
loop_
 _atom_site_type_symbol
 _atom_site_label
 _atom_site_symmetry_multiplicity
 _atom_site_fract_x
 _atom_site_fract_y
 _atom_site_fract_z
 _atom_site_occupancy
  Zn  Zn0  1  0.508685  0.227227  0.671214  1
  Zn  Zn1  1  0.514916  0.725794  0.307653  1
  Cr  Cr2  1  0.499631  0.486092  0.995699  1
  Cr  Cr3  1  0.499571  0.986083  0.995347  1
  P  P4  1  0.497583  0.236737  0.341416  1
  P  P5  1  0.494704  0.737137  0.653082  1
  O  O6  1  0.393663  0.091410  0.285858  1
  O  O7  1  0.603099  0.384602  0.183227  1
  O  O8  1  0.596573  0.885996  0.707066  1
  O  O9  1  0.387536  0.592645  0.814763  1
  O  O10  1  0.859956  0.609744  0.345763  1
  O  O11  1  0.138499  0.858739  0.702571  1
  O  O12  1  0.138156  0.360303  0.648492  1
  O  O13  1  0.859636  0.111141  0.286395  1
  O  O14  1  0.495955  0.736969  0.088488  1
  O  O15  1  0.498565  0.236509  0.904980  1
