# generated using pymatgen
data_Ba2Ca3Tl2(NiO3)4
_symmetry_space_group_name_H-M   'P 1'
_cell_length_a   3.82044803
_cell_length_b   3.82044806
_cell_length_c   21.95347437
_cell_angle_alpha   94.99175211
_cell_angle_beta   94.99175313
_cell_angle_gamma   89.99999919
_symmetry_Int_Tables_number   1
_chemical_formula_structural   Ba2Ca3Tl2(NiO3)4
_chemical_formula_sum   'Ba2 Ca3 Tl2 Ni4 O12'
_cell_volume   317.99376269
_cell_formula_units_Z   1
loop_
 _symmetry_equiv_pos_site_id
 _symmetry_equiv_pos_as_xyz
  1  'x, y, z'
loop_
 _atom_site_type_symbol
 _atom_site_label
 _atom_site_symmetry_multiplicity
 _atom_site_fract_x
 _atom_site_fract_y
 _atom_site_fract_z
 _atom_site_occupancy
  Ba  Ba0  1  0.156675  0.156675  0.313349  1
  Ba  Ba1  1  0.843325  0.843325  0.686651  1
  Ca  Ca2  1  0.074297  0.074297  0.148594  1
  Ca  Ca3  1  0.925703  0.925703  0.851406  1
  Ca  Ca4  1  0.000000  0.000000  -0.000000  1
  Tl  Tl5  1  0.723400  0.723400  0.446800  1
  Tl  Tl6  1  0.276600  0.276600  0.553200  1
  Ni  Ni7  1  0.537270  0.537270  0.074540  1
  Ni  Ni8  1  0.390157  0.390157  0.780315  1
  Ni  Ni9  1  0.609843  0.609843  0.219685  1
  Ni  Ni10  1  0.462730  0.462730  0.925460  1
  O  O11  1  0.389900  0.889900  0.779800  1
  O  O12  1  0.537093  0.037093  0.074186  1
  O  O13  1  0.228468  0.228468  0.456937  1
  O  O14  1  0.962907  0.462907  0.925814  1
  O  O15  1  0.771532  0.771532  0.543063  1
  O  O16  1  0.110100  0.610100  0.220200  1
  O  O17  1  0.610100  0.110100  0.220200  1
  O  O18  1  0.323573  0.323573  0.647146  1
  O  O19  1  0.889900  0.389900  0.779800  1
  O  O20  1  0.037093  0.537093  0.074186  1
  O  O21  1  0.462907  0.962907  0.925814  1
  O  O22  1  0.676427  0.676427  0.352854  1
