# generated using pymatgen
data_BaMgCoF7
_symmetry_space_group_name_H-M   'P 1'
_cell_length_a   5.66141875
_cell_length_b   9.60242731
_cell_length_c   9.92850353
_cell_angle_alpha   90.00000000
_cell_angle_beta   90.00000000
_cell_angle_gamma   93.19470393
_symmetry_Int_Tables_number   1
_chemical_formula_structural   BaMgCoF7
_chemical_formula_sum   'Ba4 Mg4 Co4 F28'
_cell_volume   538.90802161
_cell_formula_units_Z   4
loop_
 _symmetry_equiv_pos_site_id
 _symmetry_equiv_pos_as_xyz
  1  'x, y, z'
loop_
 _atom_site_type_symbol
 _atom_site_label
 _atom_site_symmetry_multiplicity
 _atom_site_fract_x
 _atom_site_fract_y
 _atom_site_fract_z
 _atom_site_occupancy
  Ba  Ba0  1  0.266423  0.500092  0.315813  1
  Ba  Ba1  1  0.733577  0.999908  0.815813  1
  Ba  Ba2  1  0.733577  0.499908  0.684187  1
  Ba  Ba3  1  0.266423  0.000092  0.184187  1
  Mg  Mg4  1  0.696350  0.809798  0.396341  1
  Mg  Mg5  1  0.303650  0.690202  0.896341  1
  Mg  Mg6  1  0.696350  0.309798  0.103659  1
  Mg  Mg7  1  0.303650  0.190202  0.603659  1
  Co  Co8  1  0.193592  0.810911  0.611525  1
  Co  Co9  1  0.806408  0.189089  0.388475  1
  Co  Co10  1  0.193592  0.310911  0.888475  1
  Co  Co11  1  0.806408  0.689089  0.111525  1
  F  F12  1  0.113469  0.125655  0.446902  1
  F  F13  1  0.372265  0.369471  0.049304  1
  F  F14  1  0.472707  0.749389  0.713851  1
  F  F15  1  0.527293  0.250611  0.286149  1
  F  F16  1  0.885526  0.363852  0.455404  1
  F  F17  1  0.257799  0.493747  0.811695  1
  F  F18  1  0.025765  0.750561  0.781330  1
  F  F19  1  0.114474  0.136148  0.955404  1
  F  F20  1  0.372265  0.869471  0.450696  1
  F  F21  1  0.527293  0.750611  0.213851  1
  F  F22  1  0.113469  0.625655  0.053098  1
  F  F23  1  0.886531  0.874345  0.553098  1
  F  F24  1  0.974235  0.749439  0.281330  1
  F  F25  1  0.383164  0.876300  0.958689  1
  F  F26  1  0.114474  0.636148  0.544596  1
  F  F27  1  0.885526  0.863852  0.044596  1
  F  F28  1  0.974235  0.249439  0.218670  1
  F  F29  1  0.886531  0.374345  0.946902  1
  F  F30  1  0.616836  0.623700  0.458689  1
  F  F31  1  0.627735  0.630529  0.950696  1
  F  F32  1  0.616836  0.123700  0.041311  1
  F  F33  1  0.025765  0.250561  0.718670  1
  F  F34  1  0.383164  0.376300  0.541311  1
  F  F35  1  0.742201  0.006253  0.311695  1
  F  F36  1  0.742201  0.506253  0.188305  1
  F  F37  1  0.257799  0.993747  0.688305  1
  F  F38  1  0.627735  0.130529  0.549304  1
  F  F39  1  0.472707  0.249389  0.786149  1
