# generated using pymatgen
data_MgCuAs2O7
_symmetry_space_group_name_H-M   'P 1'
_cell_length_a   7.20986634
_cell_length_b   8.49696411
_cell_length_c   9.77614563
_cell_angle_alpha   90.00000000
_cell_angle_beta   112.34516499
_cell_angle_gamma   90.00000000
_symmetry_Int_Tables_number   1
_chemical_formula_structural   MgCuAs2O7
_chemical_formula_sum   'Mg4 Cu4 As8 O28'
_cell_volume   553.93433106
_cell_formula_units_Z   4
loop_
 _symmetry_equiv_pos_site_id
 _symmetry_equiv_pos_as_xyz
  1  'x, y, z'
loop_
 _atom_site_type_symbol
 _atom_site_label
 _atom_site_symmetry_multiplicity
 _atom_site_fract_x
 _atom_site_fract_y
 _atom_site_fract_z
 _atom_site_occupancy
  Mg  Mg0  1  0.267466  0.926591  0.898688  1
  Mg  Mg1  1  0.732534  0.426591  0.601312  1
  Mg  Mg2  1  0.732534  0.073409  0.101312  1
  Mg  Mg3  1  0.267466  0.573409  0.398688  1
  Cu  Cu4  1  0.798379  0.058286  0.669296  1
  Cu  Cu5  1  0.201621  0.558286  0.830704  1
  Cu  Cu6  1  0.201621  0.941714  0.330704  1
  Cu  Cu7  1  0.798379  0.441714  0.169296  1
  As  As8  1  0.439204  0.226028  0.753981  1
  As  As9  1  0.560796  0.726028  0.746019  1
  As  As10  1  0.560796  0.773972  0.246019  1
  As  As11  1  0.439204  0.273972  0.253980  1
  As  As12  1  0.034949  0.277943  0.964488  1
  As  As13  1  0.965051  0.777943  0.535512  1
  As  As14  1  0.965051  0.722057  0.035512  1
  As  As15  1  0.034949  0.222057  0.464488  1
  O  O16  1  0.858557  0.274378  0.043880  1
  O  O17  1  0.141443  0.774378  0.456120  1
  O  O18  1  0.141443  0.725622  0.956120  1
  O  O19  1  0.858557  0.225622  0.543880  1
  O  O20  1  0.363700  0.410812  0.770976  1
  O  O21  1  0.636300  0.910812  0.729024  1
  O  O22  1  0.636300  0.589188  0.229024  1
  O  O23  1  0.363700  0.089188  0.270976  1
  O  O24  1  0.471518  0.099194  0.895684  1
  O  O25  1  0.528482  0.599194  0.604316  1
  O  O26  1  0.528482  0.900806  0.104316  1
  O  O27  1  0.471518  0.400806  0.395684  1
  O  O28  1  0.256603  0.135047  0.594750  1
  O  O29  1  0.743397  0.635047  0.905250  1
  O  O30  1  0.743397  0.864953  0.405250  1
  O  O31  1  0.256603  0.364953  0.094750  1
  O  O32  1  0.988025  0.082950  0.327687  1
  O  O33  1  0.011975  0.582950  0.172313  1
  O  O34  1  0.011975  0.917050  0.672313  1
  O  O35  1  0.988025  0.417050  0.827687  1
  O  O36  1  0.643444  0.263347  0.202983  1
  O  O37  1  0.356556  0.763347  0.297017  1
  O  O38  1  0.356556  0.736653  0.797017  1
  O  O39  1  0.643444  0.236653  0.702983  1
  O  O40  1  0.070227  0.402186  0.406291  1
  O  O41  1  0.929774  0.902186  0.093709  1
  O  O42  1  0.929774  0.597814  0.593709  1
  O  O43  1  0.070227  0.097814  0.906291  1
