# generated using pymatgen
data_MgFe3O7
_symmetry_space_group_name_H-M   'P 1'
_cell_length_a   5.30516156
_cell_length_b   10.35748519
_cell_length_c   10.34832586
_cell_angle_alpha   90.00000000
_cell_angle_beta   90.00000000
_cell_angle_gamma   90.00000000
_symmetry_Int_Tables_number   1
_chemical_formula_structural   MgFe3O7
_chemical_formula_sum   'Mg4 Fe12 O28'
_cell_volume   568.62117832
_cell_formula_units_Z   4
loop_
 _symmetry_equiv_pos_site_id
 _symmetry_equiv_pos_as_xyz
  1  'x, y, z'
loop_
 _atom_site_type_symbol
 _atom_site_label
 _atom_site_symmetry_multiplicity
 _atom_site_fract_x
 _atom_site_fract_y
 _atom_site_fract_z
 _atom_site_occupancy
  Mg  Mg0  1  0.658277  0.750000  0.908315  1
  Mg  Mg1  1  0.158277  0.250000  0.591685  1
  Mg  Mg2  1  0.341723  0.250000  0.091685  1
  Mg  Mg3  1  0.841723  0.750000  0.408315  1
  Fe  Fe4  1  0.299650  0.026875  0.318399  1
  Fe  Fe5  1  0.799650  0.973125  0.181601  1
  Fe  Fe6  1  0.700350  0.526875  0.681601  1
  Fe  Fe7  1  0.200350  0.473125  0.818399  1
  Fe  Fe8  1  0.315322  0.750000  0.224994  1
  Fe  Fe9  1  0.815322  0.250000  0.275006  1
  Fe  Fe10  1  0.684678  0.250000  0.775006  1
  Fe  Fe11  1  0.184678  0.750000  0.724994  1
  Fe  Fe12  1  0.799650  0.526875  0.181601  1
  Fe  Fe13  1  0.299650  0.473125  0.318399  1
  Fe  Fe14  1  0.200350  0.026875  0.818399  1
  Fe  Fe15  1  0.700350  0.973125  0.681601  1
  O  O16  1  0.938783  0.122867  0.718495  1
  O  O17  1  0.438783  0.877133  0.781505  1
  O  O18  1  0.061217  0.622867  0.281505  1
  O  O19  1  0.561217  0.377133  0.218495  1
  O  O20  1  0.061217  0.877133  0.281505  1
  O  O21  1  0.561217  0.122867  0.218495  1
  O  O22  1  0.938783  0.377133  0.718495  1
  O  O23  1  0.438783  0.622867  0.781505  1
  O  O24  1  0.451088  0.119394  0.707840  1
  O  O25  1  0.951088  0.880606  0.792160  1
  O  O26  1  0.548912  0.619394  0.292160  1
  O  O27  1  0.048912  0.380606  0.207840  1
  O  O28  1  0.548912  0.880606  0.292160  1
  O  O29  1  0.048912  0.119394  0.207840  1
  O  O30  1  0.451088  0.380606  0.707840  1
  O  O31  1  0.951088  0.619394  0.792160  1
  O  O32  1  0.120524  0.750000  0.550711  1
  O  O33  1  0.620524  0.250000  0.949289  1
  O  O34  1  0.879476  0.250000  0.449289  1
  O  O35  1  0.379476  0.750000  0.050711  1
  O  O36  1  0.244512  0.396977  0.973310  1
  O  O37  1  0.744512  0.603023  0.526690  1
  O  O38  1  0.755488  0.896977  0.026690  1
  O  O39  1  0.255488  0.103023  0.473310  1
  O  O40  1  0.755488  0.603023  0.026690  1
  O  O41  1  0.255488  0.396977  0.473310  1
  O  O42  1  0.244512  0.103023  0.973310  1
  O  O43  1  0.744512  0.896977  0.526690  1
