# generated using pymatgen
data_Mg(CuO2)2
_symmetry_space_group_name_H-M   'P 1'
_cell_length_a   2.94201606
_cell_length_b   5.04462466
_cell_length_c   9.32132499
_cell_angle_alpha   90.00000000
_cell_angle_beta   90.00000000
_cell_angle_gamma   106.95372145
_symmetry_Int_Tables_number   1
_chemical_formula_structural   Mg(CuO2)2
_chemical_formula_sum   'Mg2 Cu4 O8'
_cell_volume   132.32897687
_cell_formula_units_Z   2
loop_
 _symmetry_equiv_pos_site_id
 _symmetry_equiv_pos_as_xyz
  1  'x, y, z'
loop_
 _atom_site_type_symbol
 _atom_site_label
 _atom_site_symmetry_multiplicity
 _atom_site_fract_x
 _atom_site_fract_y
 _atom_site_fract_z
 _atom_site_occupancy
  Mg  Mg0  1  0.392192  0.784386  0.750000  1
  Mg  Mg1  1  0.607808  0.215614  0.250000  1
  Cu  Cu2  1  0.867253  0.734505  0.070824  1
  Cu  Cu3  1  0.132747  0.265495  0.929176  1
  Cu  Cu4  1  0.867253  0.734505  0.429176  1
  Cu  Cu5  1  0.132747  0.265495  0.570824  1
  O  O6  1  0.219917  0.439834  0.385948  1
  O  O7  1  0.780083  0.560166  0.614052  1
  O  O8  1  0.780083  0.560166  0.885948  1
  O  O9  1  0.219917  0.439834  0.114052  1
  O  O10  1  0.959430  0.918860  0.250000  1
  O  O11  1  0.040570  0.081140  0.750000  1
  O  O12  1  0.500000  -0.000000  -0.000000  1
  O  O13  1  0.500000  -0.000000  0.500000  1
