# generated using pymatgen
data_CrF5
_symmetry_space_group_name_H-M   'P 1'
_cell_length_a   3.02839893
_cell_length_b   5.81541493
_cell_length_c   5.81541520
_cell_angle_alpha   82.07635021
_cell_angle_beta   74.90759019
_cell_angle_gamma   74.90756848
_symmetry_Int_Tables_number   1
_chemical_formula_structural   CrF5
_chemical_formula_sum   'Cr1 F5'
_cell_volume   95.20407749
_cell_formula_units_Z   1
loop_
 _symmetry_equiv_pos_site_id
 _symmetry_equiv_pos_as_xyz
  1  'x, y, z'
loop_
 _atom_site_type_symbol
 _atom_site_label
 _atom_site_symmetry_multiplicity
 _atom_site_fract_x
 _atom_site_fract_y
 _atom_site_fract_z
 _atom_site_occupancy
  Cr  Cr0  1  0.000000  0.000000  0.000000  1
  F  F1  1  0.500000  0.840319  0.159681  1
  F  F2  1  0.500000  0.159681  0.840319  1
  F  F3  1  0.784937  0.215063  0.215063  1
  F  F4  1  0.215063  0.784937  0.784937  1
  F  F5  1  0.000000  0.500000  0.500000  1
