# generated using pymatgen
data_Zn(CuO2)2
_symmetry_space_group_name_H-M   'P 1'
_cell_length_a   5.95564217
_cell_length_b   5.88826546
_cell_length_c   5.89691561
_cell_angle_alpha   89.75951104
_cell_angle_beta   119.68009503
_cell_angle_gamma   119.74554362
_symmetry_Int_Tables_number   1
_chemical_formula_structural   Zn(CuO2)2
_chemical_formula_sum   'Zn2 Cu4 O8'
_cell_volume   147.78285816
_cell_formula_units_Z   2
loop_
 _symmetry_equiv_pos_site_id
 _symmetry_equiv_pos_as_xyz
  1  'x, y, z'
loop_
 _atom_site_type_symbol
 _atom_site_label
 _atom_site_symmetry_multiplicity
 _atom_site_fract_x
 _atom_site_fract_y
 _atom_site_fract_z
 _atom_site_occupancy
  Zn  Zn0  1  0.246179  0.122884  0.876306  1
  Zn  Zn1  1  0.753827  0.877122  0.123713  1
  Cu  Cu2  1  0.500011  0.999995  0.500008  1
  Cu  Cu3  1  0.500024  0.500019  0.500017  1
  Cu  Cu4  1  0.999981  0.499996  0.999977  1
  Cu  Cu5  1  0.000001  0.499992  0.499995  1
  O  O6  1  0.022652  0.736369  0.257949  1
  O  O7  1  0.473027  0.738538  0.715889  1
  O  O8  1  0.489613  0.743676  0.269461  1
  O  O9  1  0.975657  0.712578  0.744213  1
  O  O10  1  0.510378  0.256324  0.730542  1
  O  O11  1  0.526975  0.261461  0.284108  1
  O  O12  1  0.024337  0.287420  0.255783  1
  O  O13  1  0.977338  0.263626  0.742040  1
