# generated using pymatgen
data_SrZnP2WO8
_symmetry_space_group_name_H-M   'P 1'
_cell_length_a   5.48851565
_cell_length_b   7.62134114
_cell_length_c   9.53067454
_cell_angle_alpha   104.94134570
_cell_angle_beta   103.40453250
_cell_angle_gamma   105.94248525
_symmetry_Int_Tables_number   1
_chemical_formula_structural   SrZnP2WO8
_chemical_formula_sum   'Sr2 Zn2 P4 W2 O16'
_cell_volume   350.16938290
_cell_formula_units_Z   2
loop_
 _symmetry_equiv_pos_site_id
 _symmetry_equiv_pos_as_xyz
  1  'x, y, z'
loop_
 _atom_site_type_symbol
 _atom_site_label
 _atom_site_symmetry_multiplicity
 _atom_site_fract_x
 _atom_site_fract_y
 _atom_site_fract_z
 _atom_site_occupancy
  Sr  Sr0  1  0.207951  0.783319  0.040790  1
  Sr  Sr1  1  0.792049  0.216681  0.959210  1
  Zn  Zn2  1  0.932931  0.368524  0.617623  1
  Zn  Zn3  1  0.067069  0.631476  0.382377  1
  P  P4  1  0.483953  0.424630  0.222611  1
  P  P5  1  0.516047  0.575370  0.777389  1
  P  P6  1  0.840688  0.023137  0.290306  1
  P  P7  1  0.159312  0.976863  0.709694  1
  W  W8  1  0.587096  0.821574  0.544970  1
  W  W9  1  0.412904  0.178426  0.455030  1
  O  O10  1  0.738695  0.556087  0.896252  1
  O  O11  1  0.749804  0.449251  0.184726  1
  O  O12  1  0.611000  0.777597  0.755985  1
  O  O13  1  0.963406  0.092630  0.692084  1
  O  O14  1  0.250196  0.550749  0.815274  1
  O  O15  1  0.973215  0.767401  0.607522  1
  O  O16  1  0.026785  0.232599  0.392478  1
  O  O17  1  0.292043  0.012487  0.878507  1
  O  O18  1  0.389000  0.222403  0.244015  1
  O  O19  1  0.707957  0.987513  0.121493  1
  O  O20  1  0.261305  0.443913  0.103748  1
  O  O21  1  0.569833  0.583114  0.381503  1
  O  O22  1  0.430167  0.416886  0.618497  1
  O  O23  1  0.601396  0.962050  0.362062  1
  O  O24  1  0.036594  0.907370  0.307916  1
  O  O25  1  0.398604  0.037950  0.637938  1
