# generated using pymatgen
data_Ba2AlV3O7
_symmetry_space_group_name_H-M   'P 1'
_cell_length_a   3.76703259
_cell_length_b   4.07686086
_cell_length_c   11.49154810
_cell_angle_alpha   90.00141790
_cell_angle_beta   90.00014821
_cell_angle_gamma   89.99523218
_symmetry_Int_Tables_number   1
_chemical_formula_structural   Ba2AlV3O7
_chemical_formula_sum   'Ba2 Al1 V3 O7'
_cell_volume   176.48337680
_cell_formula_units_Z   1
loop_
 _symmetry_equiv_pos_site_id
 _symmetry_equiv_pos_as_xyz
  1  'x, y, z'
loop_
 _atom_site_type_symbol
 _atom_site_label
 _atom_site_symmetry_multiplicity
 _atom_site_fract_x
 _atom_site_fract_y
 _atom_site_fract_z
 _atom_site_occupancy
  Ba  Ba0  1  0.500001  0.500002  0.821738  1
  Ba  Ba1  1  0.500006  0.499991  0.178261  1
  Al  Al2  1  0.499715  0.500023  0.500003  1
  V  V3  1  0.000023  0.000015  0.647731  1
  V  V4  1  0.000031  0.000061  0.352232  1
  V  V5  1  0.999999  0.999987  0.999947  1
  O  O6  1  0.000009  0.500020  0.000003  1
  O  O7  1  0.499991  0.999984  0.606126  1
  O  O8  1  0.499974  0.999994  0.393911  1
  O  O9  1  0.000125  0.499979  0.610937  1
  O  O10  1  0.000118  0.499947  0.389059  1
  O  O11  1  0.000000  0.000003  0.821095  1
  O  O12  1  0.000007  0.999997  0.178961  1
