# generated using pymatgen
data_Mg2Mn2O5
_symmetry_space_group_name_H-M   'P 1'
_cell_length_a   3.62635212
_cell_length_b   5.27354669
_cell_length_c   10.67796083
_cell_angle_alpha   90.00135778
_cell_angle_beta   89.99996535
_cell_angle_gamma   89.99960249
_symmetry_Int_Tables_number   1
_chemical_formula_structural   Mg2Mn2O5
_chemical_formula_sum   'Mg4 Mn4 O10'
_cell_volume   204.20251694
_cell_formula_units_Z   2
loop_
 _symmetry_equiv_pos_site_id
 _symmetry_equiv_pos_as_xyz
  1  'x, y, z'
loop_
 _atom_site_type_symbol
 _atom_site_label
 _atom_site_symmetry_multiplicity
 _atom_site_fract_x
 _atom_site_fract_y
 _atom_site_fract_z
 _atom_site_occupancy
  Mg  Mg0  1  0.500006  0.256162  0.905662  1
  Mg  Mg1  1  0.499998  0.743926  0.094359  1
  Mg  Mg2  1  0.500001  0.756106  0.594337  1
  Mg  Mg3  1  0.499996  0.243912  0.405651  1
  Mn  Mn4  1  0.999995  0.224356  0.635915  1
  Mn  Mn5  1  0.000010  0.775612  0.364086  1
  Mn  Mn6  1  -0.000001  0.275626  0.135926  1
  Mn  Mn7  1  -0.000006  0.724408  0.864124  1
  O  O8  1  0.000003  0.499956  0.499962  1
  O  O9  1  0.000001  0.142117  0.315507  1
  O  O10  1  0.000001  0.642171  0.184437  1
  O  O11  1  0.000006  0.357898  0.815533  1
  O  O12  1  0.500001  0.324946  0.094817  1
  O  O13  1  0.499992  0.674971  0.905250  1
  O  O14  1  0.000003  0.857824  0.684476  1
  O  O15  1  0.499993  0.174998  0.594795  1
  O  O16  1  0.000002  0.000045  0.999981  1
  O  O17  1  0.500007  0.824966  0.405185  1
