# generated using pymatgen
data_IrWO6
_symmetry_space_group_name_H-M   'P 1'
_cell_length_a   5.23590339
_cell_length_b   5.33909715
_cell_length_c   7.49857256
_cell_angle_alpha   90.00000000
_cell_angle_beta   89.97624438
_cell_angle_gamma   90.00000000
_symmetry_Int_Tables_number   1
_chemical_formula_structural   IrWO6
_chemical_formula_sum   'Ir2 W2 O12'
_cell_volume   209.62255442
_cell_formula_units_Z   2
loop_
 _symmetry_equiv_pos_site_id
 _symmetry_equiv_pos_as_xyz
  1  'x, y, z'
loop_
 _atom_site_type_symbol
 _atom_site_label
 _atom_site_symmetry_multiplicity
 _atom_site_fract_x
 _atom_site_fract_y
 _atom_site_fract_z
 _atom_site_occupancy
  Ir  Ir0  1  0.000000  0.500000  0.500000  1
  Ir  Ir1  1  0.500000  -0.000000  0.000000  1
  W  W2  1  0.000000  0.500000  0.000000  1
  W  W3  1  0.500000  -0.000000  0.500000  1
  O  O4  1  0.075926  0.489025  0.748592  1
  O  O5  1  0.207003  0.206504  0.038196  1
  O  O6  1  0.204523  0.209231  0.461846  1
  O  O7  1  0.295477  0.709231  0.038154  1
  O  O8  1  0.292997  0.706504  0.461804  1
  O  O9  1  0.424074  0.989025  0.751408  1
  O  O10  1  0.575926  0.010975  0.248592  1
  O  O11  1  0.707003  0.293496  0.538196  1
  O  O12  1  0.704523  0.290769  0.961846  1
  O  O13  1  0.792997  0.793496  0.961804  1
  O  O14  1  0.795477  0.790769  0.538154  1
  O  O15  1  0.924074  0.510975  0.251408  1
