# generated using pymatgen
data_MgMn2O5
_symmetry_space_group_name_H-M   'P 1'
_cell_length_a   3.58156151
_cell_length_b   4.47826324
_cell_length_c   11.48862560
_cell_angle_alpha   89.96903723
_cell_angle_beta   90.00008500
_cell_angle_gamma   90.00016818
_symmetry_Int_Tables_number   1
_chemical_formula_structural   MgMn2O5
_chemical_formula_sum   'Mg2 Mn4 O10'
_cell_volume   184.26805271
_cell_formula_units_Z   2
loop_
 _symmetry_equiv_pos_site_id
 _symmetry_equiv_pos_as_xyz
  1  'x, y, z'
loop_
 _atom_site_type_symbol
 _atom_site_label
 _atom_site_symmetry_multiplicity
 _atom_site_fract_x
 _atom_site_fract_y
 _atom_site_fract_z
 _atom_site_occupancy
  Mg  Mg0  1  0.750000  0.878866  0.249995  1
  Mg  Mg1  1  0.249998  0.121120  0.750018  1
  Mn  Mn2  1  0.249999  0.429690  0.097532  1
  Mn  Mn3  1  0.750001  0.570324  0.902468  1
  Mn  Mn4  1  0.750001  0.570537  0.597490  1
  Mn  Mn5  1  0.249999  0.429444  0.402518  1
  O  O6  1  0.749997  0.428625  0.750002  1
  O  O7  1  0.250000  0.571353  0.250001  1
  O  O8  1  0.750000  0.547315  0.076482  1
  O  O9  1  0.249998  0.452725  0.923524  1
  O  O10  1  0.749999  0.547324  0.423490  1
  O  O11  1  0.249999  0.452684  0.576509  1
  O  O12  1  0.249998  0.046216  0.365953  1
  O  O13  1  0.750003  0.953777  0.634023  1
  O  O14  1  0.750002  0.953643  0.865921  1
  O  O15  1  0.249998  0.046356  0.134073  1
