# generated using pymatgen
data_Y(FeO2)2
_symmetry_space_group_name_H-M   'P 1'
_cell_length_a   5.76137076
_cell_length_b   5.74261979
_cell_length_c   6.47035454
_cell_angle_alpha   116.20937556
_cell_angle_beta   116.30237845
_cell_angle_gamma   90.27169988
_symmetry_Int_Tables_number   1
_chemical_formula_structural   Y(FeO2)2
_chemical_formula_sum   'Y2 Fe4 O8'
_cell_volume   166.74694464
_cell_formula_units_Z   2
loop_
 _symmetry_equiv_pos_site_id
 _symmetry_equiv_pos_as_xyz
  1  'x, y, z'
loop_
 _atom_site_type_symbol
 _atom_site_label
 _atom_site_symmetry_multiplicity
 _atom_site_fract_x
 _atom_site_fract_y
 _atom_site_fract_z
 _atom_site_occupancy
  Y  Y0  1  0.875255  0.125255  0.750510  1
  Y  Y1  1  0.124745  0.874745  0.249490  1
  Fe  Fe2  1  0.500000  0.000000  0.000000  1
  Fe  Fe3  1  0.500000  0.500000  0.000000  1
  Fe  Fe4  1  0.000000  0.500000  0.500000  1
  Fe  Fe5  1  0.500000  0.500000  0.500000  1
  O  O6  1  0.729845  0.529685  0.859417  1
  O  O7  1  0.129572  0.829733  0.859417  1
  O  O8  1  0.270155  0.470315  0.140583  1
  O  O9  1  0.870428  0.170267  0.140583  1
  O  O10  1  0.532730  0.130606  0.359234  1
  O  O11  1  0.826504  0.728628  0.359234  1
  O  O12  1  0.173496  0.271372  0.640766  1
  O  O13  1  0.467270  0.869394  0.640766  1
