# generated using pymatgen
data_ZnNiP2O7
_symmetry_space_group_name_H-M   'P 1'
_cell_length_a   6.38961455
_cell_length_b   6.35614753
_cell_length_c   6.64974904
_cell_angle_alpha   66.27409159
_cell_angle_beta   81.02627201
_cell_angle_gamma   80.26935767
_symmetry_Int_Tables_number   1
_chemical_formula_structural   ZnNiP2O7
_chemical_formula_sum   'Zn2 Ni2 P4 O14'
_cell_volume   242.52441248
_cell_formula_units_Z   2
loop_
 _symmetry_equiv_pos_site_id
 _symmetry_equiv_pos_as_xyz
  1  'x, y, z'
loop_
 _atom_site_type_symbol
 _atom_site_label
 _atom_site_symmetry_multiplicity
 _atom_site_fract_x
 _atom_site_fract_y
 _atom_site_fract_z
 _atom_site_occupancy
  Zn  Zn0  1  0.866625  0.287160  0.163517  1
  Zn  Zn1  1  0.133375  0.712840  0.836483  1
  Ni  Ni2  1  0.660850  0.098469  0.783781  1
  Ni  Ni3  1  0.339150  0.901531  0.216219  1
  P  P4  1  0.154930  0.220431  0.759316  1
  P  P5  1  0.845070  0.779569  0.240684  1
  P  P6  1  0.611773  0.639868  0.689877  1
  P  P7  1  0.388227  0.360132  0.310123  1
  O  O8  1  0.759789  0.609662  0.477030  1
  O  O9  1  0.240211  0.390338  0.522970  1
  O  O10  1  0.997153  0.069392  0.744007  1
  O  O11  1  0.002847  0.930608  0.255993  1
  O  O12  1  0.614591  0.260437  0.389140  1
  O  O13  1  0.385409  0.739563  0.610860  1
  O  O14  1  0.377781  0.610337  0.144057  1
  O  O15  1  0.622219  0.389663  0.855942  1
  O  O16  1  0.949441  0.611046  0.130842  1
  O  O17  1  0.050559  0.388954  0.869158  1
  O  O18  1  0.654221  0.939576  0.128808  1
  O  O19  1  0.345779  0.060424  0.871192  1
  O  O20  1  0.279517  0.201617  0.252602  1
  O  O21  1  0.720483  0.798383  0.747398  1
