# generated using pymatgen
data_Ca(NiS2)2
_symmetry_space_group_name_H-M   'P 1'
_cell_length_a   6.98216249
_cell_length_b   6.98216357
_cell_length_c   7.34373917
_cell_angle_alpha   118.38422316
_cell_angle_beta   118.38422753
_cell_angle_gamma   89.99999392
_symmetry_Int_Tables_number   1
_chemical_formula_structural   Ca(NiS2)2
_chemical_formula_sum   'Ca2 Ni4 S8'
_cell_volume   265.03118657
_cell_formula_units_Z   2
loop_
 _symmetry_equiv_pos_site_id
 _symmetry_equiv_pos_as_xyz
  1  'x, y, z'
loop_
 _atom_site_type_symbol
 _atom_site_label
 _atom_site_symmetry_multiplicity
 _atom_site_fract_x
 _atom_site_fract_y
 _atom_site_fract_z
 _atom_site_occupancy
  Ca  Ca0  1  0.375000  0.625000  0.750000  1
  Ca  Ca1  1  0.625000  0.375000  0.250000  1
  Ni  Ni2  1  0.000000  0.000000  0.500000  1
  Ni  Ni3  1  0.000000  0.500000  0.000000  1
  Ni  Ni4  1  0.500000  0.000000  0.500000  1
  Ni  Ni5  1  0.000000  0.000000  0.000000  1
  S  S6  1  0.775531  0.816287  0.551062  1
  S  S7  1  0.765226  0.224469  0.948938  1
  S  S8  1  0.183713  0.224469  0.948938  1
  S  S9  1  0.224469  0.183713  0.448938  1
  S  S10  1  0.224469  0.765226  0.448938  1
  S  S11  1  0.234774  0.775531  0.051062  1
  S  S12  1  0.775531  0.234774  0.551062  1
  S  S13  1  0.816287  0.775531  0.051062  1
