# generated using pymatgen
data_LaCrMoO6
_symmetry_space_group_name_H-M   'P 1'
_cell_length_a   5.51977145
_cell_length_b   5.52602598
_cell_length_c   5.50069207
_cell_angle_alpha   59.95566017
_cell_angle_beta   119.98917190
_cell_angle_gamma   89.83904325
_symmetry_Int_Tables_number   1
_chemical_formula_structural   LaCrMoO6
_chemical_formula_sum   'La1 Cr1 Mo1 O6'
_cell_volume   118.41332255
_cell_formula_units_Z   1
loop_
 _symmetry_equiv_pos_site_id
 _symmetry_equiv_pos_as_xyz
  1  'x, y, z'
loop_
 _atom_site_type_symbol
 _atom_site_label
 _atom_site_symmetry_multiplicity
 _atom_site_fract_x
 _atom_site_fract_y
 _atom_site_fract_z
 _atom_site_occupancy
  La  La0  1  0.759233  0.258968  0.504266  1
  Cr  Cr1  1  0.001412  0.510215  0.000310  1
  Mo  Mo2  1  0.502774  0.009151  0.004153  1
  O  O3  1  0.319911  0.251892  0.507551  1
  O  O4  1  0.222880  0.286987  0.937554  1
  O  O5  1  0.765109  0.719193  0.062768  1
  O  O6  1  0.215562  0.803080  0.944179  1
  O  O7  1  0.772053  0.231083  0.047934  1
  O  O8  1  0.701302  0.770841  0.491699  1
