# generated using pymatgen
data_Zn(AgO2)2
_symmetry_space_group_name_H-M   'P 1'
_cell_length_a   6.22802070
_cell_length_b   6.22801653
_cell_length_c   6.76231479
_cell_angle_alpha   57.11907709
_cell_angle_beta   57.11911486
_cell_angle_gamma   62.48685182
_symmetry_Int_Tables_number   1
_chemical_formula_structural   Zn(AgO2)2
_chemical_formula_sum   'Zn2 Ag4 O8'
_cell_volume   179.71492524
_cell_formula_units_Z   2
loop_
 _symmetry_equiv_pos_site_id
 _symmetry_equiv_pos_as_xyz
  1  'x, y, z'
loop_
 _atom_site_type_symbol
 _atom_site_label
 _atom_site_symmetry_multiplicity
 _atom_site_fract_x
 _atom_site_fract_y
 _atom_site_fract_z
 _atom_site_occupancy
  Zn  Zn0  1  0.125000  0.625000  0.625000  1
  Zn  Zn1  1  0.625000  0.125000  0.625000  1
  Ag  Ag2  1  0.973896  0.973897  0.026104  1
  Ag  Ag3  1  0.276104  0.276103  0.223896  1
  Ag  Ag4  1  0.625000  0.625000  0.125000  1
  Ag  Ag5  1  0.625000  0.625000  0.625000  1
  O  O6  1  0.374957  0.374957  0.424617  1
  O  O7  1  0.425593  0.844679  0.364864  1
  O  O8  1  0.374957  0.374957  0.825471  1
  O  O9  1  0.844680  0.425592  0.364864  1
  O  O10  1  0.405320  0.824408  0.885136  1
  O  O11  1  0.824407  0.405321  0.885136  1
  O  O12  1  0.875043  0.875043  0.424529  1
  O  O13  1  0.875043  0.875043  0.825383  1
