# generated using pymatgen
data_Ca(FeO2)2
_symmetry_space_group_name_H-M   'P 1'
_cell_length_a   6.22535115
_cell_length_b   6.23294935
_cell_length_c   6.31279050
_cell_angle_alpha   93.24609701
_cell_angle_beta   118.31359903
_cell_angle_gamma   118.85342902
_symmetry_Int_Tables_number   1
_chemical_formula_structural   Ca(FeO2)2
_chemical_formula_sum   'Ca2 Fe4 O8'
_cell_volume   175.45054101
_cell_formula_units_Z   2
loop_
 _symmetry_equiv_pos_site_id
 _symmetry_equiv_pos_as_xyz
  1  'x, y, z'
loop_
 _atom_site_type_symbol
 _atom_site_label
 _atom_site_symmetry_multiplicity
 _atom_site_fract_x
 _atom_site_fract_y
 _atom_site_fract_z
 _atom_site_occupancy
  Ca  Ca0  1  0.256975  0.137440  0.878066  1
  Ca  Ca1  1  0.743148  0.862276  0.121705  1
  Fe  Fe2  1  0.499516  -0.000456  0.499849  1
  Fe  Fe3  1  0.498158  0.499515  0.499429  1
  Fe  Fe4  1  -0.000056  0.500278  0.000759  1
  Fe  Fe5  1  0.000671  0.499914  0.499474  1
  O  O6  1  0.032947  0.720437  0.262108  1
  O  O7  1  0.467744  0.753360  0.699182  1
  O  O8  1  0.440289  0.704695  0.251015  1
  O  O9  1  0.949637  0.713682  0.698862  1
  O  O10  1  0.559996  0.295330  0.748817  1
  O  O11  1  0.532290  0.246885  0.300234  1
  O  O12  1  0.051779  0.287790  0.303013  1
  O  O13  1  0.966907  0.278857  0.737488  1
