# generated using pymatgen
data_BaZnNiF7
_symmetry_space_group_name_H-M   'P 1'
_cell_length_a   5.61615456
_cell_length_b   9.57620589
_cell_length_c   10.00391112
_cell_angle_alpha   90.00000000
_cell_angle_beta   90.00000000
_cell_angle_gamma   92.68530975
_symmetry_Int_Tables_number   1
_chemical_formula_structural   BaZnNiF7
_chemical_formula_sum   'Ba4 Zn4 Ni4 F28'
_cell_volume   537.43407541
_cell_formula_units_Z   4
loop_
 _symmetry_equiv_pos_site_id
 _symmetry_equiv_pos_as_xyz
  1  'x, y, z'
loop_
 _atom_site_type_symbol
 _atom_site_label
 _atom_site_symmetry_multiplicity
 _atom_site_fract_x
 _atom_site_fract_y
 _atom_site_fract_z
 _atom_site_occupancy
  Ba  Ba0  1  0.259787  0.500267  0.314678  1
  Ba  Ba1  1  0.740213  0.999733  0.814678  1
  Ba  Ba2  1  0.740213  0.499733  0.685322  1
  Ba  Ba3  1  0.259787  0.000267  0.185322  1
  Zn  Zn4  1  0.698014  0.809675  0.399269  1
  Zn  Zn5  1  0.301986  0.690325  0.899269  1
  Zn  Zn6  1  0.698014  0.309675  0.100731  1
  Zn  Zn7  1  0.301986  0.190325  0.600731  1
  Ni  Ni8  1  0.195215  0.811253  0.612480  1
  Ni  Ni9  1  0.804785  0.188747  0.387520  1
  Ni  Ni10  1  0.195215  0.311253  0.887520  1
  Ni  Ni11  1  0.804785  0.688747  0.112480  1
  F  F12  1  0.105553  0.122384  0.442589  1
  F  F13  1  0.364999  0.370907  0.051803  1
  F  F14  1  0.472943  0.749999  0.705371  1
  F  F15  1  0.527057  0.250002  0.294629  1
  F  F16  1  0.883380  0.363368  0.455167  1
  F  F17  1  0.257882  0.491988  0.809983  1
  F  F18  1  0.019683  0.750129  0.779625  1
  F  F19  1  0.116620  0.136632  0.955167  1
  F  F20  1  0.364999  0.870907  0.448197  1
  F  F21  1  0.527057  0.750001  0.205371  1
  F  F22  1  0.105553  0.622384  0.057411  1
  F  F23  1  0.894447  0.877616  0.557411  1
  F  F24  1  0.980317  0.749871  0.279625  1
  F  F25  1  0.382141  0.880760  0.957282  1
  F  F26  1  0.116620  0.636632  0.544833  1
  F  F27  1  0.883380  0.863368  0.044833  1
  F  F28  1  0.980317  0.249871  0.220375  1
  F  F29  1  0.894447  0.377616  0.942589  1
  F  F30  1  0.617859  0.619240  0.457282  1
  F  F31  1  0.635001  0.629093  0.948197  1
  F  F32  1  0.617859  0.119240  0.042718  1
  F  F33  1  0.019683  0.250129  0.720375  1
  F  F34  1  0.382141  0.380760  0.542718  1
  F  F35  1  0.742118  0.008012  0.309983  1
  F  F36  1  0.742118  0.508012  0.190017  1
  F  F37  1  0.257882  0.991988  0.690017  1
  F  F38  1  0.635001  0.129093  0.551803  1
  F  F39  1  0.472943  0.249999  0.794629  1
