# generated using pymatgen
data_Ba2MgCuMo2F14
_symmetry_space_group_name_H-M   'P 1'
_cell_length_a   5.30535228
_cell_length_b   7.67634842
_cell_length_c   15.21546786
_cell_angle_alpha   90.81633616
_cell_angle_beta   89.98697670
_cell_angle_gamma   110.12386676
_symmetry_Int_Tables_number   1
_chemical_formula_structural   Ba2MgCuMo2F14
_chemical_formula_sum   'Ba4 Mg2 Cu2 Mo4 F28'
_cell_volume   581.76513220
_cell_formula_units_Z   2
loop_
 _symmetry_equiv_pos_site_id
 _symmetry_equiv_pos_as_xyz
  1  'x, y, z'
loop_
 _atom_site_type_symbol
 _atom_site_label
 _atom_site_symmetry_multiplicity
 _atom_site_fract_x
 _atom_site_fract_y
 _atom_site_fract_z
 _atom_site_occupancy
  Ba  Ba0  1  0.093343  0.364176  0.624010  1
  Ba  Ba1  1  0.272172  0.364059  0.124102  1
  Ba  Ba2  1  0.907210  0.636698  0.376622  1
  Ba  Ba3  1  0.728992  0.635731  0.876380  1
  Mg  Mg4  1  0.438842  0.001495  0.750096  1
  Mg  Mg5  1  0.561915  0.999860  0.250443  1
  Cu  Cu6  1  0.500723  0.000158  0.000240  1
  Cu  Cu7  1  0.499590  0.000285  0.500497  1
  Mo  Mo8  1  0.094460  0.237431  0.873589  1
  Mo  Mo9  1  0.906854  0.762467  0.126866  1
  Mo  Mo10  1  0.143780  0.238498  0.373686  1
  Mo  Mo11  1  0.856252  0.762185  0.626995  1
  F  F12  1  0.862732  0.979279  0.334194  1
  F  F13  1  0.862602  0.291700  0.457229  1
  F  F14  1  0.137799  0.709573  0.543383  1
  F  F15  1  0.623782  0.489046  0.596975  1
  F  F16  1  0.623456  0.078104  0.618799  1
  F  F17  1  0.545998  0.923445  0.881661  1
  F  F18  1  0.428101  0.289775  0.957305  1
  F  F19  1  0.886471  0.021917  0.166893  1
  F  F20  1  0.368748  0.345092  0.772198  1
  F  F21  1  0.376900  0.511463  0.403750  1
  F  F22  1  0.786191  0.214341  0.779806  1
  F  F23  1  0.136671  0.511275  0.903256  1
  F  F24  1  0.428745  0.213693  0.279926  1
  F  F25  1  0.215372  0.786501  0.220813  1
  F  F26  1  0.455622  0.077193  0.118848  1
  F  F27  1  0.632523  0.653037  0.228050  1
  F  F28  1  0.121449  0.842855  0.007298  1
  F  F29  1  0.136765  0.021444  0.666453  1
  F  F30  1  0.879823  0.157949  0.993210  1
  F  F31  1  0.721802  0.842809  0.507486  1
  F  F32  1  0.573220  0.709902  0.043124  1
  F  F33  1  0.571102  0.786807  0.720682  1
  F  F34  1  0.980046  0.348744  0.272344  1
  F  F35  1  0.277584  0.157860  0.493332  1
  F  F36  1  0.376334  0.922918  0.382113  1
  F  F37  1  0.113797  0.977562  0.833740  1
  F  F38  1  0.020362  0.651742  0.728153  1
  F  F39  1  0.866607  0.489386  0.096428  1
