# generated using pymatgen
data_CaCr2(SiO4)3
_symmetry_space_group_name_H-M   'P 1'
_cell_length_a   10.32649410
_cell_length_b   10.32649396
_cell_length_c   10.32649420
_cell_angle_alpha   110.34495171
_cell_angle_beta   107.73755138
_cell_angle_gamma   110.34494784
_symmetry_Int_Tables_number   1
_chemical_formula_structural   CaCr2(SiO4)3
_chemical_formula_sum   'Ca4 Cr8 Si12 O48'
_cell_volume   847.10957324
_cell_formula_units_Z   4
loop_
 _symmetry_equiv_pos_site_id
 _symmetry_equiv_pos_as_xyz
  1  'x, y, z'
loop_
 _atom_site_type_symbol
 _atom_site_label
 _atom_site_symmetry_multiplicity
 _atom_site_fract_x
 _atom_site_fract_y
 _atom_site_fract_z
 _atom_site_occupancy
  Ca  Ca0  1  0.375000  0.750000  0.125001  1
  Ca  Ca1  1  0.125000  0.250000  0.375000  1
  Ca  Ca2  1  0.875000  0.750000  0.625000  1
  Ca  Ca3  1  0.625000  0.250000  0.875000  1
  Cr  Cr4  1  0.000000  0.000000  0.000000  1
  Cr  Cr5  1  0.000000  0.499999  0.000000  1
  Cr  Cr6  1  0.000000  0.000000  0.500000  1
  Cr  Cr7  1  0.000000  0.499999  0.499999  1
  Cr  Cr8  1  0.500000  0.000000  0.500000  1
  Cr  Cr9  1  0.500000  0.499999  0.000000  1
  Cr  Cr10  1  0.500000  0.499999  0.500000  1
  Cr  Cr11  1  0.500000  0.000000  0.000000  1
  Si  Si12  1  0.250000  0.124183  0.874183  1
  Si  Si13  1  0.750000  0.875817  0.125817  1
  Si  Si14  1  0.375000  0.250000  0.625000  1
  Si  Si15  1  0.625817  0.375817  0.250000  1
  Si  Si16  1  0.125000  0.750000  0.875000  1
  Si  Si17  1  0.874183  0.124183  0.750000  1
  Si  Si18  1  0.750001  0.375817  0.625817  1
  Si  Si19  1  0.374183  0.624183  0.750000  1
  Si  Si20  1  0.125816  0.875817  0.250000  1
  Si  Si21  1  0.875000  0.250000  0.125000  1
  Si  Si22  1  0.625000  0.750000  0.375000  1
  Si  Si23  1  0.250000  0.624183  0.374183  1
  O  O24  1  0.302072  0.494048  0.390484  1
  O  O25  1  0.000673  0.312196  0.893587  1
  O  O26  1  0.113356  0.607639  0.916686  1
  O  O27  1  0.197928  0.588412  0.191976  1
  O  O28  1  0.188476  0.107085  0.000673  1
  O  O29  1  0.581391  0.187805  0.188476  1
  O  O30  1  0.606413  0.187805  0.499327  1
  O  O31  1  0.190953  0.196669  0.583314  1
  O  O32  1  0.893587  0.392916  0.581392  1
  O  O33  1  0.308024  0.911588  0.302072  1
  O  O34  1  0.916685  0.303330  0.309048  1
  O  O35  1  0.005717  0.196669  0.113355  1
  O  O36  1  0.191976  0.494048  0.603564  1
  O  O37  1  0.583315  0.892362  0.386645  1
  O  O38  1  0.109517  0.005953  0.197929  1
  O  O39  1  0.494283  0.607639  0.190952  1
  O  O40  1  0.390484  0.588412  0.896436  1
  O  O41  1  0.896436  0.005953  0.308024  1
  O  O42  1  0.603564  0.911588  0.109517  1
  O  O43  1  0.106413  0.607084  0.418609  1
  O  O44  1  0.499327  0.392916  0.311525  1
  O  O45  1  0.386644  0.303330  0.494282  1
  O  O46  1  0.309048  0.892362  0.005717  1
  O  O47  1  0.311524  0.312196  0.918609  1
  O  O48  1  0.697928  0.505952  0.609517  1
  O  O49  1  0.999328  0.687804  0.106413  1
  O  O50  1  0.886644  0.392362  0.083314  1
  O  O51  1  0.802071  0.411588  0.808024  1
  O  O52  1  0.811524  0.892915  0.999328  1
  O  O53  1  0.418609  0.812195  0.811525  1
  O  O54  1  0.393586  0.812195  0.500672  1
  O  O55  1  0.809048  0.803331  0.416686  1
  O  O56  1  0.688476  0.687804  0.081391  1
  O  O57  1  0.690952  0.107638  0.994282  1
  O  O58  1  0.613356  0.696670  0.505718  1
  O  O59  1  0.500672  0.607084  0.688475  1
  O  O60  1  0.081391  0.892915  0.393587  1
  O  O61  1  0.396436  0.088412  0.890483  1
  O  O62  1  0.103564  0.994047  0.691976  1
  O  O63  1  0.609516  0.411588  0.103564  1
  O  O64  1  0.505718  0.392362  0.809047  1
  O  O65  1  0.890484  0.994047  0.802072  1
  O  O66  1  0.416686  0.107638  0.613355  1
  O  O67  1  0.808023  0.505952  0.396436  1
  O  O68  1  0.994282  0.803331  0.886644  1
  O  O69  1  0.083314  0.696670  0.690953  1
  O  O70  1  0.691976  0.088412  0.697928  1
  O  O71  1  0.918609  0.107085  0.606413  1
