# generated using pymatgen
data_Ti4ZnO8
_symmetry_space_group_name_H-M   'P 1'
_cell_length_a   2.95570873
_cell_length_b   7.39019657
_cell_length_c   7.55191558
_cell_angle_alpha   84.05689098
_cell_angle_beta   78.71432245
_cell_angle_gamma   78.42671053
_symmetry_Int_Tables_number   1
_chemical_formula_structural   Ti4ZnO8
_chemical_formula_sum   'Ti4 Zn1 O8'
_cell_volume   158.12475916
_cell_formula_units_Z   1
loop_
 _symmetry_equiv_pos_site_id
 _symmetry_equiv_pos_as_xyz
  1  'x, y, z'
loop_
 _atom_site_type_symbol
 _atom_site_label
 _atom_site_symmetry_multiplicity
 _atom_site_fract_x
 _atom_site_fract_y
 _atom_site_fract_z
 _atom_site_occupancy
  Ti  Ti0  1  0.631488  0.176274  0.560781  1
  Ti  Ti1  1  0.147611  0.491125  0.213831  1
  Ti  Ti2  1  0.824392  0.502567  0.849504  1
  Ti  Ti3  1  0.342180  0.812697  0.503544  1
  Zn  Zn4  1  0.447559  0.036435  0.068800  1
  O  O5  1  0.841490  0.680543  0.636787  1
  O  O6  1  0.449178  0.348396  0.753145  1
  O  O7  1  0.525404  0.642496  0.306493  1
  O  O8  1  0.136010  0.307107  0.420574  1
  O  O9  1  0.151633  0.030559  0.666339  1
  O  O10  1  0.771529  0.361456  0.096503  1
  O  O11  1  0.823255  0.959968  0.393243  1
  O  O12  1  0.205752  0.626485  0.961104  1
