# generated using pymatgen
data_V(ZnN)2
_symmetry_space_group_name_H-M   'P 1'
_cell_length_a   4.53941398
_cell_length_b   5.60371012
_cell_length_c   5.97176527
_cell_angle_alpha   61.19235178
_cell_angle_beta   67.66179554
_cell_angle_gamma   66.10659016
_symmetry_Int_Tables_number   1
_chemical_formula_structural   V(ZnN)2
_chemical_formula_sum   'V2 Zn4 N4'
_cell_volume   118.41473774
_cell_formula_units_Z   2
loop_
 _symmetry_equiv_pos_site_id
 _symmetry_equiv_pos_as_xyz
  1  'x, y, z'
loop_
 _atom_site_type_symbol
 _atom_site_label
 _atom_site_symmetry_multiplicity
 _atom_site_fract_x
 _atom_site_fract_y
 _atom_site_fract_z
 _atom_site_occupancy
  V  V0  1  0.347822  0.181156  0.123201  1
  V  V1  1  0.652178  0.818844  0.876799  1
  Zn  Zn2  1  0.686876  0.267113  0.359136  1
  Zn  Zn3  1  0.313124  0.732887  0.640864  1
  Zn  Zn4  1  0.030309  0.727502  0.211878  1
  Zn  Zn5  1  0.969691  0.272498  0.788122  1
  N  N6  1  0.160778  0.275261  0.403184  1
  N  N7  1  0.839222  0.724739  0.596816  1
  N  N8  1  0.517842  0.210818  0.753497  1
  N  N9  1  0.482158  0.789182  0.246503  1
