# generated using pymatgen
data_ZnCoMo2O7
_symmetry_space_group_name_H-M   'P 1'
_cell_length_a   6.67981064
_cell_length_b   12.21220960
_cell_length_c   15.21317088
_cell_angle_alpha   90.00000000
_cell_angle_beta   90.00000000
_cell_angle_gamma   104.43949066
_symmetry_Int_Tables_number   1
_chemical_formula_structural   ZnCoMo2O7
_chemical_formula_sum   'Zn8 Co8 Mo16 O56'
_cell_volume   1201.81630804
_cell_formula_units_Z   8
loop_
 _symmetry_equiv_pos_site_id
 _symmetry_equiv_pos_as_xyz
  1  'x, y, z'
loop_
 _atom_site_type_symbol
 _atom_site_label
 _atom_site_symmetry_multiplicity
 _atom_site_fract_x
 _atom_site_fract_y
 _atom_site_fract_z
 _atom_site_occupancy
  Zn  Zn0  1  0.036036  0.754843  0.522798  1
  Zn  Zn1  1  0.349500  0.024760  0.863179  1
  Zn  Zn2  1  0.650500  0.475240  0.363179  1
  Zn  Zn3  1  0.650500  0.975240  0.136821  1
  Zn  Zn4  1  0.349500  0.524760  0.636821  1
  Zn  Zn5  1  0.036036  0.254843  0.977202  1
  Zn  Zn6  1  0.963964  0.245157  0.477202  1
  Zn  Zn7  1  0.963964  0.745157  0.022798  1
  Co  Co8  1  0.653314  0.088344  0.639530  1
  Co  Co9  1  0.346686  0.411656  0.139530  1
  Co  Co10  1  0.346686  0.911656  0.360470  1
  Co  Co11  1  0.653314  0.588344  0.860470  1
  Co  Co12  1  0.978620  0.247932  0.764557  1
  Co  Co13  1  0.021380  0.252068  0.264557  1
  Co  Co14  1  0.021380  0.752068  0.235443  1
  Co  Co15  1  0.978620  0.747932  0.735443  1
  Mo  Mo16  1  0.857282  0.994863  0.896809  1
  Mo  Mo17  1  0.439395  0.696076  0.036269  1
  Mo  Mo18  1  0.439395  0.196076  0.463731  1
  Mo  Mo19  1  0.560605  0.303924  0.963731  1
  Mo  Mo20  1  0.514787  0.807985  0.740458  1
  Mo  Mo21  1  0.485213  0.692015  0.240458  1
  Mo  Mo22  1  0.485213  0.192015  0.259542  1
  Mo  Mo23  1  0.514787  0.307985  0.759542  1
  Mo  Mo24  1  0.560605  0.803924  0.536269  1
  Mo  Mo25  1  0.857422  0.479744  0.141265  1
  Mo  Mo26  1  0.142578  0.020256  0.641265  1
  Mo  Mo27  1  0.142578  0.520256  0.858735  1
  Mo  Mo28  1  0.142718  0.505137  0.396809  1
  Mo  Mo29  1  0.857282  0.494863  0.603191  1
  Mo  Mo30  1  0.142718  0.005137  0.103191  1
  Mo  Mo31  1  0.857422  0.979744  0.358736  1
  O  O32  1  0.780448  0.951881  0.010674  1
  O  O33  1  0.219552  0.548119  0.510674  1
  O  O34  1  0.219552  0.048119  0.989326  1
  O  O35  1  0.780448  0.451881  0.489326  1
  O  O36  1  0.051104  0.940979  0.833325  1
  O  O37  1  0.948896  0.559021  0.333325  1
  O  O38  1  0.948896  0.059021  0.166675  1
  O  O39  1  0.051104  0.440979  0.666675  1
  O  O40  1  0.955629  0.150364  0.870683  1
  O  O41  1  0.044371  0.349636  0.370683  1
  O  O42  1  0.044371  0.849636  0.129317  1
  O  O43  1  0.955629  0.650364  0.629317  1
  O  O44  1  0.633143  0.944033  0.288813  1
  O  O45  1  0.366857  0.555967  0.788813  1
  O  O46  1  0.366857  0.055967  0.711187  1
  O  O47  1  0.633143  0.444033  0.211187  1
  O  O48  1  0.975552  0.129790  0.362684  1
  O  O49  1  0.024448  0.370210  0.862684  1
  O  O50  1  0.024448  0.870210  0.637316  1
  O  O51  1  0.975552  0.629790  0.137316  1
  O  O52  1  0.045450  0.900868  0.330986  1
  O  O53  1  0.307368  0.816223  0.471526  1
  O  O54  1  0.954550  0.599132  0.830986  1
  O  O55  1  0.045450  0.400868  0.169014  1
  O  O56  1  0.750345  0.728387  0.489415  1
  O  O57  1  0.249655  0.771613  0.989415  1
  O  O58  1  0.249655  0.271613  0.510585  1
  O  O59  1  0.750345  0.228387  0.010585  1
  O  O60  1  0.749869  0.949020  0.466067  1
  O  O61  1  0.250131  0.550980  0.966067  1
  O  O62  1  0.250131  0.050980  0.533933  1
  O  O63  1  0.749869  0.449020  0.033933  1
  O  O64  1  0.450243  0.196831  0.859865  1
  O  O65  1  0.549757  0.303169  0.359865  1
  O  O66  1  0.549757  0.803169  0.140135  1
  O  O67  1  0.450243  0.696831  0.640135  1
  O  O68  1  0.711423  0.240120  0.709468  1
  O  O69  1  0.288577  0.259880  0.209468  1
  O  O70  1  0.288577  0.759880  0.290532  1
  O  O71  1  0.711423  0.740120  0.790532  1
  O  O72  1  0.594072  0.450712  0.665627  1
  O  O73  1  0.405928  0.049288  0.165627  1
  O  O74  1  0.405928  0.549288  0.334373  1
  O  O75  1  0.594072  0.950712  0.834373  1
  O  O76  1  0.258184  0.284511  0.720412  1
  O  O77  1  0.741816  0.215489  0.220412  1
  O  O78  1  0.741816  0.715489  0.279588  1
  O  O79  1  0.258184  0.784511  0.779588  1
  O  O80  1  0.594476  0.413560  0.860931  1
  O  O81  1  0.405524  0.086440  0.360931  1
  O  O82  1  0.405524  0.586440  0.139069  1
  O  O83  1  0.594476  0.913560  0.639069  1
  O  O84  1  0.307368  0.316223  0.028474  1
  O  O85  1  0.692632  0.183777  0.528474  1
  O  O86  1  0.692632  0.683777  0.971526  1
  O  O87  1  0.954550  0.099132  0.669014  1
