# generated using pymatgen
data_Ca2YFeO5
_symmetry_space_group_name_H-M   'P 1'
_cell_length_a   5.53524397
_cell_length_b   5.71018046
_cell_length_c   8.90557716
_cell_angle_alpha   108.70086265
_cell_angle_beta   108.11378269
_cell_angle_gamma   90.00259474
_symmetry_Int_Tables_number   1
_chemical_formula_structural   Ca2YFeO5
_chemical_formula_sum   'Ca4 Y2 Fe2 O10'
_cell_volume   251.84695888
_cell_formula_units_Z   2
loop_
 _symmetry_equiv_pos_site_id
 _symmetry_equiv_pos_as_xyz
  1  'x, y, z'
loop_
 _atom_site_type_symbol
 _atom_site_label
 _atom_site_symmetry_multiplicity
 _atom_site_fract_x
 _atom_site_fract_y
 _atom_site_fract_z
 _atom_site_occupancy
  Ca  Ca0  1  0.109289  0.625559  0.196644  1
  Ca  Ca1  1  0.412127  0.928177  0.801797  1
  Ca  Ca2  1  0.912140  0.370034  0.801839  1
  Ca  Ca3  1  0.609390  0.067413  0.196686  1
  Y  Y4  1  0.294187  0.292840  0.499210  1
  Y  Y5  1  0.794219  0.702680  0.499246  1
  Fe  Fe6  1  0.487525  0.497815  0.999265  1
  Fe  Fe7  1  0.988048  0.997832  0.999254  1
  O  O8  1  0.691396  0.331568  0.499255  1
  O  O9  1  0.191417  0.663978  0.499224  1
  O  O10  1  0.574287  0.708116  0.258142  1
  O  O11  1  0.314926  0.287383  0.740322  1
  O  O12  1  0.073911  0.046339  0.258100  1
  O  O13  1  0.814950  0.949308  0.740377  1
  O  O14  1  0.218265  0.735759  0.963351  1
  O  O15  1  0.253781  0.260299  0.035230  1
  O  O16  1  0.753839  0.271191  0.035136  1
  O  O17  1  0.718278  0.723922  0.963226  1
