# generated using pymatgen
data_ZnSnP2O7
_symmetry_space_group_name_H-M   'P 1'
_cell_length_a   7.00016808
_cell_length_b   7.15590146
_cell_length_c   7.04945294
_cell_angle_alpha   67.08792996
_cell_angle_beta   73.63386222
_cell_angle_gamma   82.46961362
_symmetry_Int_Tables_number   1
_chemical_formula_structural   ZnSnP2O7
_chemical_formula_sum   'Zn2 Sn2 P4 O14'
_cell_volume   311.99387666
_cell_formula_units_Z   2
loop_
 _symmetry_equiv_pos_site_id
 _symmetry_equiv_pos_as_xyz
  1  'x, y, z'
loop_
 _atom_site_type_symbol
 _atom_site_label
 _atom_site_symmetry_multiplicity
 _atom_site_fract_x
 _atom_site_fract_y
 _atom_site_fract_z
 _atom_site_occupancy
  Zn  Zn0  1  0.793716  0.408882  0.052718  1
  Zn  Zn1  1  0.206284  0.591118  0.947282  1
  Sn  Sn2  1  0.717616  0.103826  0.726216  1
  Sn  Sn3  1  0.282384  0.896174  0.273784  1
  P  P4  1  0.176568  0.214158  0.795823  1
  P  P5  1  0.823432  0.785842  0.204177  1
  P  P6  1  0.630414  0.658932  0.673902  1
  P  P7  1  0.369586  0.341068  0.326098  1
  O  O8  1  0.702199  0.642498  0.439402  1
  O  O9  1  0.297801  0.357502  0.560598  1
  O  O10  1  0.031505  0.090702  0.772179  1
  O  O11  1  0.968495  0.909298  0.227821  1
  O  O12  1  0.589978  0.271117  0.306946  1
  O  O13  1  0.410022  0.728883  0.693054  1
  O  O14  1  0.345258  0.559873  0.169547  1
  O  O15  1  0.654742  0.440127  0.830452  1
  O  O16  1  0.922998  0.626197  0.102397  1
  O  O17  1  0.077002  0.373803  0.897603  1
  O  O18  1  0.665401  0.914185  0.089572  1
  O  O19  1  0.334599  0.085815  0.910428  1
  O  O20  1  0.235651  0.197556  0.313159  1
  O  O21  1  0.764349  0.802444  0.686841  1
