# generated using pymatgen
data_Zn2SbMoO6
_symmetry_space_group_name_H-M   'P 1'
_cell_length_a   5.38011728
_cell_length_b   5.40282840
_cell_length_c   8.07721957
_cell_angle_alpha   90.00000000
_cell_angle_beta   90.00000000
_cell_angle_gamma   90.83203549
_symmetry_Int_Tables_number   1
_chemical_formula_structural   Zn2SbMoO6
_chemical_formula_sum   'Zn4 Sb2 Mo2 O12'
_cell_volume   234.76265450
_cell_formula_units_Z   2
loop_
 _symmetry_equiv_pos_site_id
 _symmetry_equiv_pos_as_xyz
  1  'x, y, z'
loop_
 _atom_site_type_symbol
 _atom_site_label
 _atom_site_symmetry_multiplicity
 _atom_site_fract_x
 _atom_site_fract_y
 _atom_site_fract_z
 _atom_site_occupancy
  Zn  Zn0  1  0.489130  0.532667  0.750000  1
  Zn  Zn1  1  0.510870  0.467333  0.250000  1
  Zn  Zn2  1  0.019474  0.014880  0.750000  1
  Zn  Zn3  1  0.980526  0.985120  0.250000  1
  Sb  Sb4  1  0.000000  0.500000  0.500000  1
  Sb  Sb5  1  0.000000  0.500000  0.000000  1
  Mo  Mo6  1  0.500000  0.000000  0.500000  1
  Mo  Mo7  1  0.500000  0.000000  0.000000  1
  O  O8  1  0.346168  0.672553  0.429737  1
  O  O9  1  0.172784  0.169526  0.072938  1
  O  O10  1  0.653832  0.327447  0.929737  1
  O  O11  1  0.827216  0.830474  0.572938  1
  O  O12  1  0.172784  0.169526  0.427062  1
  O  O13  1  0.827216  0.830474  0.927062  1
  O  O14  1  0.887323  0.598485  0.250000  1
  O  O15  1  0.346168  0.672553  0.070263  1
  O  O16  1  0.376668  0.898759  0.750000  1
  O  O17  1  0.653832  0.327447  0.570263  1
  O  O18  1  0.112677  0.401515  0.750000  1
  O  O19  1  0.623332  0.101241  0.250000  1
