# generated using pymatgen
data_Ca2FeIrO6
_symmetry_space_group_name_H-M   'P 1'
_cell_length_a   5.41565358
_cell_length_b   5.60453605
_cell_length_c   7.72885007
_cell_angle_alpha   90.00000000
_cell_angle_beta   89.96210450
_cell_angle_gamma   90.00000000
_symmetry_Int_Tables_number   1
_chemical_formula_structural   Ca2FeIrO6
_chemical_formula_sum   'Ca4 Fe2 Ir2 O12'
_cell_volume   234.58775069
_cell_formula_units_Z   2
loop_
 _symmetry_equiv_pos_site_id
 _symmetry_equiv_pos_as_xyz
  1  'x, y, z'
loop_
 _atom_site_type_symbol
 _atom_site_label
 _atom_site_symmetry_multiplicity
 _atom_site_fract_x
 _atom_site_fract_y
 _atom_site_fract_z
 _atom_site_occupancy
  Ca  Ca0  1  0.015073  0.941054  0.249181  1
  Ca  Ca1  1  0.484927  0.441054  0.250819  1
  Ca  Ca2  1  0.515073  0.558946  0.749181  1
  Ca  Ca3  1  0.984927  0.058946  0.750819  1
  Fe  Fe4  1  0.000000  0.500000  0.000000  1
  Fe  Fe5  1  0.500000  0.000000  0.500000  1
  Ir  Ir6  1  0.000000  0.500000  0.500000  1
  Ir  Ir7  1  0.500000  0.000000  0.000000  1
  O  O8  1  0.095806  0.471487  0.747987  1
  O  O9  1  0.201058  0.200710  0.048903  1
  O  O10  1  0.193901  0.206538  0.449736  1
  O  O11  1  0.306099  0.706538  0.050264  1
  O  O12  1  0.298942  0.700710  0.451097  1
  O  O13  1  0.404194  0.971487  0.752013  1
  O  O14  1  0.595806  0.028513  0.247987  1
  O  O15  1  0.701058  0.299290  0.548903  1
  O  O16  1  0.693901  0.293462  0.949736  1
  O  O17  1  0.798942  0.799290  0.951097  1
  O  O18  1  0.806099  0.793462  0.550264  1
  O  O19  1  0.904194  0.528513  0.252013  1
