# generated using pymatgen
data_Mg2Sb2O5
_symmetry_space_group_name_H-M   'P 1'
_cell_length_a   3.16870479
_cell_length_b   7.90274970
_cell_length_c   12.73530573
_cell_angle_alpha   89.99940199
_cell_angle_beta   89.99984854
_cell_angle_gamma   90.00032877
_symmetry_Int_Tables_number   1
_chemical_formula_structural   Mg2Sb2O5
_chemical_formula_sum   'Mg4 Sb4 O10'
_cell_volume   318.91091428
_cell_formula_units_Z   2
loop_
 _symmetry_equiv_pos_site_id
 _symmetry_equiv_pos_as_xyz
  1  'x, y, z'
loop_
 _atom_site_type_symbol
 _atom_site_label
 _atom_site_symmetry_multiplicity
 _atom_site_fract_x
 _atom_site_fract_y
 _atom_site_fract_z
 _atom_site_occupancy
  Mg  Mg0  1  0.500032  0.084055  0.901616  1
  Mg  Mg1  1  0.500019  0.915871  0.098251  1
  Mg  Mg2  1  0.499938  0.583940  0.598367  1
  Mg  Mg3  1  0.499994  0.415891  0.401766  1
  Sb  Sb4  1  0.000178  0.215161  0.670122  1
  Sb  Sb5  1  0.000205  0.785282  0.329719  1
  Sb  Sb6  1  0.999834  0.285245  0.170198  1
  Sb  Sb7  1  0.999888  0.715251  0.829965  1
  O  O8  1  0.000090  0.499666  0.500142  1
  O  O9  1  -0.000044  0.317558  0.320259  1
  O  O10  1  0.000067  0.817561  0.179804  1
  O  O11  1  0.000068  0.182395  0.820364  1
  O  O12  1  0.499887  0.129255  0.184352  1
  O  O13  1  0.499796  0.870789  0.815314  1
  O  O14  1  0.999909  0.682354  0.679581  1
  O  O15  1  0.500143  0.370802  0.684671  1
  O  O16  1  0.999907  0.999673  -0.000139  1
  O  O17  1  0.500098  0.629251  0.315648  1
