# generated using pymatgen
data_Ti2AlO4
_symmetry_space_group_name_H-M   'P 1'
_cell_length_a   5.44032458
_cell_length_b   5.43186749
_cell_length_c   6.47255648
_cell_angle_alpha   114.68776432
_cell_angle_beta   114.72915005
_cell_angle_gamma   90.26373778
_symmetry_Int_Tables_number   1
_chemical_formula_structural   Ti2AlO4
_chemical_formula_sum   'Ti4 Al2 O8'
_cell_volume   154.07971067
_cell_formula_units_Z   2
loop_
 _symmetry_equiv_pos_site_id
 _symmetry_equiv_pos_as_xyz
  1  'x, y, z'
loop_
 _atom_site_type_symbol
 _atom_site_label
 _atom_site_symmetry_multiplicity
 _atom_site_fract_x
 _atom_site_fract_y
 _atom_site_fract_z
 _atom_site_occupancy
  Ti  Ti0  1  0.500000  0.000000  0.000000  1
  Ti  Ti1  1  0.500000  0.500000  0.000000  1
  Ti  Ti2  1  0.000000  0.500000  0.500000  1
  Ti  Ti3  1  0.500000  0.500000  0.500000  1
  Al  Al4  1  0.877041  0.127041  0.754084  1
  Al  Al5  1  0.122959  0.872959  0.245916  1
  O  O6  1  0.714782  0.431731  0.809234  1
  O  O7  1  0.094452  0.877503  0.809234  1
  O  O8  1  0.285218  0.568269  0.190766  1
  O  O9  1  0.905548  0.122497  0.190766  1
  O  O10  1  0.430135  0.094738  0.308030  1
  O  O11  1  0.877895  0.713292  0.308030  1
  O  O12  1  0.122105  0.286708  0.691970  1
  O  O13  1  0.569865  0.905262  0.691970  1
