# generated using pymatgen
data_ZnBi6P2O15
_symmetry_space_group_name_H-M   'P 1'
_cell_length_a   5.51662348
_cell_length_b   8.20439360
_cell_length_c   17.20383752
_cell_angle_alpha   103.86142713
_cell_angle_beta   90.00000000
_cell_angle_gamma   109.64548591
_symmetry_Int_Tables_number   1
_chemical_formula_structural   ZnBi6P2O15
_chemical_formula_sum   'Zn2 Bi12 P4 O30'
_cell_volume   709.20656520
_cell_formula_units_Z   2
loop_
 _symmetry_equiv_pos_site_id
 _symmetry_equiv_pos_as_xyz
  1  'x, y, z'
loop_
 _atom_site_type_symbol
 _atom_site_label
 _atom_site_symmetry_multiplicity
 _atom_site_fract_x
 _atom_site_fract_y
 _atom_site_fract_z
 _atom_site_occupancy
  Zn  Zn0  1  0.388878  0.376092  0.765892  1
  Zn  Zn1  1  0.012786  0.623908  0.234108  1
  Bi  Bi2  1  0.888678  0.421061  0.390624  1
  Bi  Bi3  1  0.270001  0.141191  0.923636  1
  Bi  Bi4  1  0.171372  0.948666  0.594538  1
  Bi  Bi5  1  0.776752  0.057668  0.743831  1
  Bi  Bi6  1  0.073922  0.713926  0.756464  1
  Bi  Bi7  1  0.359996  0.286074  0.243536  1
  Bi  Bi8  1  0.467617  0.578939  0.609376  1
  Bi  Bi9  1  0.222707  0.051334  0.405462  1
  Bi  Bi10  1  0.598849  0.808331  0.911386  1
  Bi  Bi11  1  0.719084  0.942332  0.256169  1
  Bi  Bi12  1  0.790518  0.191669  0.088614  1
  Bi  Bi13  1  0.128809  0.858809  0.076364  1
  P  P14  1  0.903968  0.432811  0.897837  1
  P  P15  1  0.471157  0.567189  0.102163  1
  P  P16  1  0.487085  0.722242  0.421380  1
  P  P17  1  0.764843  0.277758  0.578620  1
  O  O18  1  0.401982  0.936223  0.839126  1
  O  O19  1  0.048721  0.865312  0.290993  1
  O  O20  1  0.753242  0.429652  0.653371  1
  O  O21  1  0.316039  0.707608  0.493486  1
  O  O22  1  0.608431  0.292392  0.506514  1
  O  O23  1  0.951695  0.000000  0.000000  1
  O  O24  1  0.914216  0.953177  0.838242  1
  O  O25  1  0.731359  0.656659  0.158879  1
  O  O26  1  0.506197  0.198167  0.339220  1
  O  O27  1  0.746092  0.700456  0.440447  1
  O  O28  1  0.045636  0.299544  0.559553  1
  O  O29  1  0.826163  0.812811  0.661049  1
  O  O30  1  0.806903  0.412053  0.262760  1
  O  O31  1  0.536898  0.905757  0.399656  1
  O  O32  1  0.394850  0.587947  0.737240  1
  O  O33  1  0.631141  0.094243  0.600344  1
  O  O34  1  0.013353  0.187189  0.338951  1
  O  O35  1  0.465759  0.063777  0.160874  1
  O  O36  1  0.183409  0.134688  0.709007  1
  O  O37  1  0.961040  0.046823  0.161758  1
  O  O38  1  0.505985  0.642940  0.028446  1
  O  O39  1  0.458465  0.000000  0.000000  1
  O  O40  1  0.031515  0.640323  0.915243  1
  O  O41  1  0.263535  0.630918  0.151735  1
  O  O42  1  0.391192  0.359677  0.084757  1
  O  O43  1  0.863045  0.357060  0.971554  1
  O  O44  1  0.323590  0.570348  0.346629  1
  O  O45  1  0.632617  0.369082  0.848265  1
  O  O46  1  0.074700  0.343341  0.841121  1
  O  O47  1  0.308030  0.801833  0.660780  1
