# generated using pymatgen
data_CaCuBiO5
_symmetry_space_group_name_H-M   'P 1'
_cell_length_a   5.61745027
_cell_length_b   8.71997617
_cell_length_c   11.01463371
_cell_angle_alpha   90.00000000
_cell_angle_beta   90.00000000
_cell_angle_gamma   117.03051571
_symmetry_Int_Tables_number   1
_chemical_formula_structural   CaCuBiO5
_chemical_formula_sum   'Ca4 Cu4 Bi4 O20'
_cell_volume   480.60418111
_cell_formula_units_Z   4
loop_
 _symmetry_equiv_pos_site_id
 _symmetry_equiv_pos_as_xyz
  1  'x, y, z'
loop_
 _atom_site_type_symbol
 _atom_site_label
 _atom_site_symmetry_multiplicity
 _atom_site_fract_x
 _atom_site_fract_y
 _atom_site_fract_z
 _atom_site_occupancy
  Ca  Ca0  1  0.679382  0.211181  0.904403  1
  Ca  Ca1  1  0.320618  0.788819  0.095597  1
  Ca  Ca2  1  0.820618  0.288819  0.404403  1
  Ca  Ca3  1  0.179382  0.711181  0.595597  1
  Cu  Cu4  1  0.827751  0.966864  0.640947  1
  Cu  Cu5  1  0.172249  0.033136  0.359053  1
  Cu  Cu6  1  0.672249  0.533136  0.140947  1
  Cu  Cu7  1  0.327751  0.466864  0.859053  1
  Bi  Bi8  1  0.163541  0.158984  0.100125  1
  Bi  Bi9  1  0.836459  0.841016  0.899875  1
  Bi  Bi10  1  0.663541  0.658984  0.399875  1
  Bi  Bi11  1  0.336459  0.341016  0.600125  1
  O  O12  1  0.592015  0.315096  0.082671  1
  O  O13  1  0.130564  0.355837  0.998114  1
  O  O14  1  0.596793  0.701856  0.211528  1
  O  O15  1  0.743465  0.501631  0.535996  1
  O  O16  1  0.694414  0.461986  0.292528  1
  O  O17  1  0.194414  0.961986  0.207472  1
  O  O18  1  0.630564  0.855837  0.501886  1
  O  O19  1  0.369436  0.144163  0.498114  1
  O  O20  1  0.256535  0.498369  0.464004  1
  O  O21  1  0.907985  0.184904  0.582671  1
  O  O22  1  0.305586  0.538014  0.707472  1
  O  O23  1  0.407985  0.684904  0.917329  1
  O  O24  1  0.092015  0.815096  0.417329  1
  O  O25  1  0.805586  0.038014  0.792528  1
  O  O26  1  0.756535  0.998369  0.035996  1
  O  O27  1  0.243465  0.001631  0.964004  1
  O  O28  1  0.403207  0.298144  0.788472  1
  O  O29  1  0.869436  0.644163  0.001886  1
  O  O30  1  0.903207  0.798144  0.711528  1
  O  O31  1  0.096793  0.201856  0.288472  1
