# generated using pymatgen
data_MgMnSiO5
_symmetry_space_group_name_H-M   'P 1'
_cell_length_a   5.27116246
_cell_length_b   6.97465849
_cell_length_c   8.29286900
_cell_angle_alpha   89.96701328
_cell_angle_beta   141.85435181
_cell_angle_gamma   74.72903533
_symmetry_Int_Tables_number   1
_chemical_formula_structural   MgMnSiO5
_chemical_formula_sum   'Mg2 Mn2 Si2 O10'
_cell_volume   170.27064787
_cell_formula_units_Z   2
loop_
 _symmetry_equiv_pos_site_id
 _symmetry_equiv_pos_as_xyz
  1  'x, y, z'
loop_
 _atom_site_type_symbol
 _atom_site_label
 _atom_site_symmetry_multiplicity
 _atom_site_fract_x
 _atom_site_fract_y
 _atom_site_fract_z
 _atom_site_occupancy
  Mg  Mg0  1  0.502527  0.242107  0.174589  1
  Mg  Mg1  1  0.502412  0.743307  0.828239  1
  Mn  Mn2  1  0.499227  0.493615  0.500099  1
  Mn  Mn3  1  0.500646  0.993548  0.500687  1
  Si  Si4  1  0.499654  0.243715  0.823914  1
  Si  Si5  1  0.499607  0.743594  0.176832  1
  O  O6  1  0.288776  0.111172  0.608885  1
  O  O7  1  0.712549  0.375296  0.820461  1
  O  O8  1  0.713444  0.874905  0.393402  1
  O  O9  1  0.283782  0.613308  0.179014  1
  O  O10  1  0.866606  0.582961  0.230067  1
  O  O11  1  0.133525  0.903503  0.862922  1
  O  O12  1  0.131686  0.403530  0.770293  1
  O  O13  1  0.866656  0.084765  0.138538  1
  O  O14  1  0.498901  0.743757  0.586116  1
  O  O15  1  0.500256  0.243616  0.413783  1
