# generated using pymatgen
data_Sr2Cr2GaO7
_symmetry_space_group_name_H-M   'P 1'
_cell_length_a   5.29408406
_cell_length_b   5.36131029
_cell_length_c   12.94879944
_cell_angle_alpha   102.26998998
_cell_angle_beta   101.80360555
_cell_angle_gamma   90.01728502
_symmetry_Int_Tables_number   1
_chemical_formula_structural   Sr2Cr2GaO7
_chemical_formula_sum   'Sr4 Cr4 Ga2 O14'
_cell_volume   351.17089016
_cell_formula_units_Z   2
loop_
 _symmetry_equiv_pos_site_id
 _symmetry_equiv_pos_as_xyz
  1  'x, y, z'
loop_
 _atom_site_type_symbol
 _atom_site_label
 _atom_site_symmetry_multiplicity
 _atom_site_fract_x
 _atom_site_fract_y
 _atom_site_fract_z
 _atom_site_occupancy
  Sr  Sr0  1  0.159339  0.164208  0.310705  1
  Sr  Sr1  1  0.848453  0.836057  0.689120  1
  Sr  Sr2  1  0.659434  0.643597  0.310851  1
  Sr  Sr3  1  0.348795  0.356885  0.689115  1
  Cr  Cr4  1  0.430589  0.928985  0.850427  1
  Cr  Cr5  1  0.080774  0.572910  0.151111  1
  Cr  Cr6  1  0.930155  0.427742  0.849456  1
  Cr  Cr7  1  0.580070  0.071216  0.149595  1
  Ga  Ga8  1  0.205446  0.819911  0.499027  1
  Ga  Ga9  1  0.706589  0.180753  0.500807  1
  O  O10  1  0.830629  0.324219  0.152826  1
  O  O11  1  0.845698  0.852317  0.500070  1
  O  O12  1  0.330638  0.322550  0.153072  1
  O  O13  1  0.839013  0.352339  0.643072  1
  O  O14  1  0.676059  0.172929  0.840847  1
  O  O15  1  0.176272  0.174155  0.840561  1
  O  O16  1  0.345770  0.148235  0.499778  1
  O  O17  1  0.178447  0.678126  0.847419  1
  O  O18  1  0.677782  0.675372  0.847004  1
  O  O19  1  0.340168  0.787545  0.639868  1
  O  O20  1  0.195469  0.648406  0.356739  1
  O  O21  1  0.700717  0.213311  0.360054  1
  O  O22  1  0.836072  0.827668  0.159651  1
  O  O23  1  0.335556  0.826666  0.159289  1
