# generated using pymatgen
data_ZnNiF5
_symmetry_space_group_name_H-M   'P 1'
_cell_length_a   5.18105651
_cell_length_b   5.18104878
_cell_length_c   7.43302332
_cell_angle_alpha   98.28640323
_cell_angle_beta   108.37666397
_cell_angle_gamma   109.96381344
_symmetry_Int_Tables_number   1
_chemical_formula_structural   ZnNiF5
_chemical_formula_sum   'Zn2 Ni2 F10'
_cell_volume   170.73726209
_cell_formula_units_Z   2
loop_
 _symmetry_equiv_pos_site_id
 _symmetry_equiv_pos_as_xyz
  1  'x, y, z'
loop_
 _atom_site_type_symbol
 _atom_site_label
 _atom_site_symmetry_multiplicity
 _atom_site_fract_x
 _atom_site_fract_y
 _atom_site_fract_z
 _atom_site_occupancy
  Zn  Zn0  1  0.289056  0.540645  0.749998  1
  Zn  Zn1  1  0.711429  0.463113  0.250826  1
  Ni  Ni2  1  0.001425  0.004313  0.000729  1
  Ni  Ni3  1  0.499775  0.000978  0.500342  1
  F  F4  1  0.364229  0.119400  0.251894  1
  F  F5  1  0.635669  0.884218  0.749366  1
  F  F6  1  0.586673  0.736635  0.370215  1
  F  F7  1  0.863057  0.224801  0.123232  1
  F  F8  1  0.756439  0.691109  0.045198  1
  F  F9  1  0.140718  0.712525  0.459311  1
  F  F10  1  0.249702  0.318407  0.958470  1
  F  F11  1  0.859163  0.286534  0.542242  1
  F  F12  1  0.134615  0.781962  0.872794  1
  F  F13  1  0.412608  0.264914  0.630539  1
