# generated using pymatgen
data_ZnSnF4
_symmetry_space_group_name_H-M   'P 1'
_cell_length_a   5.16878876
_cell_length_b   5.57315541
_cell_length_c   7.46696371
_cell_angle_alpha   118.41828019
_cell_angle_beta   112.53301486
_cell_angle_gamma   89.87441332
_symmetry_Int_Tables_number   1
_chemical_formula_structural   ZnSnF4
_chemical_formula_sum   'Zn2 Sn2 F8'
_cell_volume   170.38260899
_cell_formula_units_Z   2
loop_
 _symmetry_equiv_pos_site_id
 _symmetry_equiv_pos_as_xyz
  1  'x, y, z'
loop_
 _atom_site_type_symbol
 _atom_site_label
 _atom_site_symmetry_multiplicity
 _atom_site_fract_x
 _atom_site_fract_y
 _atom_site_fract_z
 _atom_site_occupancy
  Zn  Zn0  1  0.247873  0.254249  0.501883  1
  Zn  Zn1  1  0.751544  0.757798  0.502667  1
  Sn  Sn2  1  0.032415  0.524665  0.047185  1
  Sn  Sn3  1  0.476161  0.968164  0.961730  1
  F  F4  1  0.749336  0.479768  0.187040  1
  F  F5  1  0.751835  0.024913  0.818795  1
  F  F6  1  0.024590  0.552803  0.625826  1
  F  F7  1  0.130275  0.045027  0.636997  1
  F  F8  1  0.475113  0.957684  0.375050  1
  F  F9  1  0.365874  0.468397  0.366090  1
  F  F10  1  0.920255  0.966975  0.196428  1
  F  F11  1  0.579075  0.536015  0.806309  1
