# generated using pymatgen
data_Ca3Cr2O7
_symmetry_space_group_name_H-M   'P 1'
_cell_length_a   5.40236397
_cell_length_b   5.37287334
_cell_length_c   10.08071468
_cell_angle_alpha   105.45566149
_cell_angle_beta   90.00000000
_cell_angle_gamma   90.00000000
_symmetry_Int_Tables_number   1
_chemical_formula_structural   Ca3Cr2O7
_chemical_formula_sum   'Ca6 Cr4 O14'
_cell_volume   282.02353085
_cell_formula_units_Z   2
loop_
 _symmetry_equiv_pos_site_id
 _symmetry_equiv_pos_as_xyz
  1  'x, y, z'
loop_
 _atom_site_type_symbol
 _atom_site_label
 _atom_site_symmetry_multiplicity
 _atom_site_fract_x
 _atom_site_fract_y
 _atom_site_fract_z
 _atom_site_occupancy
  Ca  Ca0  1  0.709757  0.755502  1.000000  1
  Ca  Ca1  1  0.209757  0.244498  0.000000  1
  Ca  Ca2  1  0.786100  0.569963  0.626432  1
  Ca  Ca3  1  0.286100  0.430037  0.373568  1
  Ca  Ca4  1  0.786100  0.943530  0.373568  1
  Ca  Ca5  1  0.286100  0.056470  0.626432  1
  Cr  Cr6  1  0.750621  0.349535  0.196888  1
  Cr  Cr7  1  0.250621  0.650465  0.803112  1
  Cr  Cr8  1  0.250621  0.847353  0.196888  1
  Cr  Cr9  1  0.750621  0.152647  0.803112  1
  O  O10  1  0.734737  0.000061  0.607534  1
  O  O11  1  0.234737  -0.000061  0.392466  1
  O  O12  1  0.234737  0.607471  0.607534  1
  O  O13  1  0.734737  0.392529  0.392466  1
  O  O14  1  0.037173  0.342495  0.778070  1
  O  O15  1  0.537173  0.657505  0.221930  1
  O  O16  1  0.537173  0.435575  0.778070  1
  O  O17  1  0.037173  0.564425  0.221930  1
  O  O18  1  0.963327  0.868718  0.832145  1
  O  O19  1  0.463327  0.131282  0.167855  1
  O  O20  1  0.766328  0.319676  0.000000  1
  O  O21  1  0.266328  0.680324  1.000000  1
  O  O22  1  0.963327  0.036573  0.167855  1
  O  O23  1  0.463327  0.963427  0.832145  1
