# generated using pymatgen
data_Mg(BiO2)2
_symmetry_space_group_name_H-M   'P 1'
_cell_length_a   3.39958658
_cell_length_b   10.17250620
_cell_length_c   6.92923535
_cell_angle_alpha   72.69200341
_cell_angle_beta   75.80394882
_cell_angle_gamma   80.37404000
_symmetry_Int_Tables_number   1
_chemical_formula_structural   Mg(BiO2)2
_chemical_formula_sum   'Mg2 Bi4 O8'
_cell_volume   220.63903462
_cell_formula_units_Z   2
loop_
 _symmetry_equiv_pos_site_id
 _symmetry_equiv_pos_as_xyz
  1  'x, y, z'
loop_
 _atom_site_type_symbol
 _atom_site_label
 _atom_site_symmetry_multiplicity
 _atom_site_fract_x
 _atom_site_fract_y
 _atom_site_fract_z
 _atom_site_occupancy
  Mg  Mg0  1  0.263143  0.233062  0.248636  1
  Mg  Mg1  1  0.739288  0.745102  0.784382  1
  Bi  Bi2  1  0.618967  0.095654  0.674674  1
  Bi  Bi3  1  0.116842  0.572670  0.201531  1
  Bi  Bi4  1  0.885253  0.405469  0.831492  1
  Bi  Bi5  1  0.383453  0.882462  0.358397  1
  O  O6  1  0.895754  0.739294  0.477185  1
  O  O7  1  0.409389  0.256433  0.932569  1
  O  O8  1  0.592850  0.721695  0.100464  1
  O  O9  1  0.106641  0.238796  0.555902  1
  O  O10  1  0.217906  0.888859  0.683382  1
  O  O11  1  0.729721  0.386303  0.162211  1
  O  O12  1  0.784500  0.089219  0.349739  1
  O  O13  1  0.272604  0.591780  0.870878  1
