# generated using pymatgen
data_ZnNiO3
_symmetry_space_group_name_H-M   'P 1'
_cell_length_a   5.05374615
_cell_length_b   5.15672907
_cell_length_c   7.36808289
_cell_angle_alpha   90.00093955
_cell_angle_beta   89.99805750
_cell_angle_gamma   89.99872160
_symmetry_Int_Tables_number   1
_chemical_formula_structural   ZnNiO3
_chemical_formula_sum   'Zn4 Ni4 O12'
_cell_volume   192.01813216
_cell_formula_units_Z   4
loop_
 _symmetry_equiv_pos_site_id
 _symmetry_equiv_pos_as_xyz
  1  'x, y, z'
loop_
 _atom_site_type_symbol
 _atom_site_label
 _atom_site_symmetry_multiplicity
 _atom_site_fract_x
 _atom_site_fract_y
 _atom_site_fract_z
 _atom_site_occupancy
  Zn  Zn0  1  0.991241  0.054660  0.250000  1
  Zn  Zn1  1  0.491248  0.445362  0.749989  1
  Zn  Zn2  1  0.508755  0.554663  0.250013  1
  Zn  Zn3  1  0.008758  0.945363  0.750002  1
  Ni  Ni4  1  0.499993  0.999997  0.999996  1
  Ni  Ni5  1  0.000008  0.499998  -0.000005  1
  Ni  Ni6  1  -0.000004  0.500006  0.499993  1
  Ni  Ni7  1  0.500006  0.000003  0.499991  1
  O  O8  1  0.873710  0.567727  0.750013  1
  O  O9  1  0.373699  0.932281  0.249993  1
  O  O10  1  0.626291  0.067720  0.750007  1
  O  O11  1  0.126301  0.432276  0.249987  1
  O  O12  1  0.686901  0.311094  0.429712  1
  O  O13  1  0.186873  0.188903  0.570266  1
  O  O14  1  0.813115  0.811117  0.070289  1
  O  O15  1  0.313145  0.688869  0.929750  1
  O  O16  1  0.686866  0.311116  0.070276  1
  O  O17  1  0.186870  0.188866  0.929737  1
  O  O18  1  0.313108  0.688897  0.570271  1
  O  O19  1  0.813115  0.811085  0.429718  1
