# generated using pymatgen
data_Zn(Sn2O3)2
_symmetry_space_group_name_H-M   'P 1'
_cell_length_a   3.12689563
_cell_length_b   6.46629004
_cell_length_c   16.91472984
_cell_angle_alpha   90.00000000
_cell_angle_beta   90.00000000
_cell_angle_gamma   103.99187888
_symmetry_Int_Tables_number   1
_chemical_formula_structural   Zn(Sn2O3)2
_chemical_formula_sum   'Zn2 Sn8 O12'
_cell_volume   331.85861306
_cell_formula_units_Z   2
loop_
 _symmetry_equiv_pos_site_id
 _symmetry_equiv_pos_as_xyz
  1  'x, y, z'
loop_
 _atom_site_type_symbol
 _atom_site_label
 _atom_site_symmetry_multiplicity
 _atom_site_fract_x
 _atom_site_fract_y
 _atom_site_fract_z
 _atom_site_occupancy
  Zn  Zn0  1  0.670300  0.340600  0.750000  1
  Zn  Zn1  1  0.329700  0.659400  0.250000  1
  Sn  Sn2  1  0.874308  0.748620  0.039667  1
  Sn  Sn3  1  0.417113  0.834225  0.666028  1
  Sn  Sn4  1  0.125690  0.251379  0.960333  1
  Sn  Sn5  1  0.582887  0.165775  0.333973  1
  Sn  Sn6  1  0.874308  0.748620  0.460333  1
  Sn  Sn7  1  0.125690  0.251379  0.539667  1
  Sn  Sn8  1  0.582887  0.165775  0.166027  1
  Sn  Sn9  1  0.417113  0.834225  0.833972  1
  O  O10  1  0.499999  -0.000000  0.500000  1
  O  O11  1  0.499999  -0.000000  0.000000  1
  O  O12  1  0.047848  0.095696  0.843688  1
  O  O13  1  0.952152  0.904304  0.156313  1
  O  O14  1  0.952152  0.904304  0.343687  1
  O  O15  1  0.047848  0.095696  0.656313  1
  O  O16  1  0.844686  0.689375  0.893432  1
  O  O17  1  0.155313  0.310626  0.106568  1
  O  O18  1  0.155313  0.310626  0.393432  1
  O  O19  1  0.844686  0.689375  0.606568  1
  O  O20  1  0.258096  0.516194  0.750000  1
  O  O21  1  0.741902  0.483805  0.250000  1
