# generated using pymatgen
data_Ca2TiNb2O8
_symmetry_space_group_name_H-M   'P 1'
_cell_length_a   5.50689530
_cell_length_b   6.34523091
_cell_length_c   9.80479687
_cell_angle_alpha   108.87058175
_cell_angle_beta   91.57337121
_cell_angle_gamma   89.99859324
_symmetry_Int_Tables_number   1
_chemical_formula_structural   Ca2TiNb2O8
_chemical_formula_sum   'Ca4 Ti2 Nb4 O16'
_cell_volume   324.05345192
_cell_formula_units_Z   2
loop_
 _symmetry_equiv_pos_site_id
 _symmetry_equiv_pos_as_xyz
  1  'x, y, z'
loop_
 _atom_site_type_symbol
 _atom_site_label
 _atom_site_symmetry_multiplicity
 _atom_site_fract_x
 _atom_site_fract_y
 _atom_site_fract_z
 _atom_site_occupancy
  Ca  Ca0  1  0.761831  0.474689  0.589266  1
  Ca  Ca1  1  0.740748  0.885691  0.411153  1
  Ca  Ca2  1  0.240700  0.527425  0.410622  1
  Ca  Ca3  1  0.261639  0.116767  0.589255  1
  Ti  Ti4  1  0.751626  0.622832  0.999620  1
  Ti  Ti5  1  0.251575  0.379263  0.999488  1
  Nb  Nb6  1  0.760216  0.252779  0.217791  1
  Nb  Nb7  1  0.742033  0.034322  0.782071  1
  Nb  Nb8  1  0.242092  0.749762  0.781811  1
  Nb  Nb9  1  0.260266  0.967347  0.217860  1
  O  O10  1  0.108203  0.213305  0.132123  1
  O  O11  1  0.392421  0.081630  0.867376  1
  O  O12  1  0.892215  0.787248  0.867101  1
  O  O13  1  0.608364  0.920898  0.132144  1
  O  O14  1  0.582894  0.425202  0.107504  1
  O  O15  1  0.916902  0.318998  0.892659  1
  O  O16  1  0.416193  0.575513  0.892638  1
  O  O17  1  0.083381  0.684452  0.107552  1
  O  O18  1  0.490957  0.235026  0.354508  1
  O  O19  1  0.011231  0.880116  0.645158  1
  O  O20  1  0.338059  0.839600  0.369779  1
  O  O21  1  0.164601  0.469703  0.629801  1
  O  O22  1  0.664299  0.162608  0.630168  1
  O  O23  1  0.837911  0.532447  0.369602  1
  O  O24  1  0.990943  0.121736  0.354613  1
  O  O25  1  0.511474  0.767225  0.645186  1
