# generated using pymatgen
data_CaAg3P3O13
_symmetry_space_group_name_H-M   'P 1'
_cell_length_a   6.63268579
_cell_length_b   7.54795383
_cell_length_c   10.80565584
_cell_angle_alpha   99.21414287
_cell_angle_beta   90.00000000
_cell_angle_gamma   90.00000000
_symmetry_Int_Tables_number   1
_chemical_formula_structural   CaAg3P3O13
_chemical_formula_sum   'Ca2 Ag6 P6 O26'
_cell_volume   533.98556955
_cell_formula_units_Z   2
loop_
 _symmetry_equiv_pos_site_id
 _symmetry_equiv_pos_as_xyz
  1  'x, y, z'
loop_
 _atom_site_type_symbol
 _atom_site_label
 _atom_site_symmetry_multiplicity
 _atom_site_fract_x
 _atom_site_fract_y
 _atom_site_fract_z
 _atom_site_occupancy
  Ca  Ca0  1  0.750000  0.664737  0.189846  1
  Ca  Ca1  1  0.250000  0.335263  0.810154  1
  Ag  Ag2  1  0.250000  0.283569  0.248155  1
  Ag  Ag3  1  0.750000  0.716431  0.751845  1
  Ag  Ag4  1  0.250000  0.741861  0.417588  1
  Ag  Ag5  1  0.500000  -0.000000  0.000000  1
  Ag  Ag6  1  0.750000  0.258139  0.582411  1
  Ag  Ag7  1  -0.000000  -0.000000  0.000000  1
  P  P8  1  0.250000  0.238024  0.508317  1
  P  P9  1  0.750000  0.761976  0.491683  1
  P  P10  1  0.250000  0.776423  0.731505  1
  P  P11  1  0.750000  0.223578  0.268495  1
  P  P12  1  0.750000  0.317382  0.897203  1
  P  P13  1  0.250000  0.682618  0.102797  1
  O  O14  1  0.750000  0.394960  0.770857  1
  O  O15  1  0.572291  0.745098  0.395701  1
  O  O16  1  0.250000  0.850066  0.604910  1
  O  O17  1  0.555122  0.198923  0.888276  1
  O  O18  1  0.750000  0.597739  0.565127  1
  O  O19  1  0.750000  0.852545  0.932034  1
  O  O20  1  0.250000  0.402261  0.434873  1
  O  O21  1  0.055122  0.801077  0.111724  1
  O  O22  1  0.250000  0.075165  0.404080  1
  O  O23  1  0.750000  0.924835  0.595920  1
  O  O24  1  0.070563  0.651270  0.751410  1
  O  O25  1  0.250000  0.147455  0.067966  1
  O  O26  1  0.570563  0.348730  0.248590  1
  O  O27  1  0.750000  0.466840  0.006818  1
  O  O28  1  0.750000  0.149934  0.395090  1
  O  O29  1  0.444878  0.801077  0.111724  1
  O  O30  1  0.927709  0.745098  0.395701  1
  O  O31  1  0.427709  0.254902  0.604299  1
  O  O32  1  0.429437  0.651270  0.751410  1
  O  O33  1  0.250000  0.605039  0.229143  1
  O  O34  1  0.750000  0.046607  0.176122  1
  O  O35  1  0.250000  0.953393  0.823878  1
  O  O36  1  0.929437  0.348730  0.248590  1
  O  O37  1  0.944878  0.198923  0.888276  1
  O  O38  1  0.072291  0.254902  0.604299  1
  O  O39  1  0.250000  0.533160  0.993182  1
