# generated using pymatgen
data_ScZnMo3O8
_symmetry_space_group_name_H-M   'P 1'
_cell_length_a   5.89501384
_cell_length_b   5.89501384
_cell_length_c   10.19330549
_cell_angle_alpha   90.00000000
_cell_angle_beta   90.00000000
_cell_angle_gamma   120.00000001
_symmetry_Int_Tables_number   1
_chemical_formula_structural   ScZnMo3O8
_chemical_formula_sum   'Sc2 Zn2 Mo6 O16'
_cell_volume   306.77172595
_cell_formula_units_Z   2
loop_
 _symmetry_equiv_pos_site_id
 _symmetry_equiv_pos_as_xyz
  1  'x, y, z'
loop_
 _atom_site_type_symbol
 _atom_site_label
 _atom_site_symmetry_multiplicity
 _atom_site_fract_x
 _atom_site_fract_y
 _atom_site_fract_z
 _atom_site_occupancy
  O  O0  1  0.833364  0.166636  0.128349  1
  O  O1  1  0.666727  0.833364  0.628349  1
  O  O2  1  0.166636  0.333273  0.628349  1
  O  O3  1  0.833364  0.666727  0.128349  1
  O  O4  1  0.333273  0.166636  0.128349  1
  O  O5  1  0.166636  0.833364  0.628349  1
  O  O6  1  0.511127  0.488873  0.867336  1
  O  O7  1  0.022253  0.511127  0.367336  1
  O  O8  1  0.488873  0.977747  0.367336  1
  O  O9  1  0.511127  0.022253  0.867336  1
  O  O10  1  0.000000  0.000000  0.391446  1
  O  O11  1  0.000000  0.000000  0.891446  1
  O  O12  1  0.333333  0.666667  0.147007  1
  O  O13  1  0.666667  0.333333  0.647007  1
  O  O14  1  0.488873  0.511127  0.367336  1
  O  O15  1  0.977747  0.488873  0.867336  1
  Sc  Sc16  1  0.666667  0.333333  0.014702  1
  Sc  Sc17  1  0.333333  0.666667  0.514702  1
  Zn  Zn18  1  0.666667  0.333333  0.451190  1
  Zn  Zn19  1  0.333333  0.666667  0.951190  1
  Mo  Mo20  1  0.288756  0.144378  0.750600  1
  Mo  Mo21  1  0.144378  0.855622  0.250600  1
  Mo  Mo22  1  0.855622  0.711244  0.750600  1
  Mo  Mo23  1  0.144378  0.288756  0.250600  1
  Mo  Mo24  1  0.711244  0.855622  0.250600  1
  Mo  Mo25  1  0.855622  0.144378  0.750600  1
