# generated using pymatgen
data_Ca2YBiO5
_symmetry_space_group_name_H-M   'P 1'
_cell_length_a   6.09899513
_cell_length_b   6.05740467
_cell_length_c   8.99925379
_cell_angle_alpha   109.77384539
_cell_angle_beta   110.42135457
_cell_angle_gamma   90.02905979
_symmetry_Int_Tables_number   1
_chemical_formula_structural   Ca2YBiO5
_chemical_formula_sum   'Ca4 Y2 Bi2 O10'
_cell_volume   290.54102200
_cell_formula_units_Z   2
loop_
 _symmetry_equiv_pos_site_id
 _symmetry_equiv_pos_as_xyz
  1  'x, y, z'
loop_
 _atom_site_type_symbol
 _atom_site_label
 _atom_site_symmetry_multiplicity
 _atom_site_fract_x
 _atom_site_fract_y
 _atom_site_fract_z
 _atom_site_occupancy
  Ca  Ca0  1  0.165031  0.623878  0.248542  1
  Ca  Ca1  1  0.418792  0.877231  0.755826  1
  Ca  Ca2  1  0.920079  0.381948  0.754236  1
  Ca  Ca3  1  0.661470  0.127938  0.246218  1
  Y  Y4  1  0.315344  0.273684  0.505406  1
  Y  Y5  1  0.813787  0.735036  0.503160  1
  Bi  Bi6  1  0.497088  0.502744  0.999568  1
  Bi  Bi7  1  0.994620  0.001686  -0.000123  1
  O  O8  1  0.668172  0.397224  0.498540  1
  O  O9  1  0.169628  0.607061  0.501411  1
  O  O10  1  0.546478  0.800677  0.294357  1
  O  O11  1  0.255790  0.207288  0.712953  1
  O  O12  1  0.047143  0.999086  0.294373  1
  O  O13  1  0.756426  0.009372  0.712979  1
  O  O14  1  0.189878  0.737914  0.877209  1
  O  O15  1  0.308009  0.271695  0.116270  1
  O  O16  1  0.811688  0.355240  0.123353  1
  O  O17  1  0.685318  0.636553  0.868996  1
