# generated using pymatgen
data_ZnBi2O5
_symmetry_space_group_name_H-M   'P 1'
_cell_length_a   3.68394400
_cell_length_b   5.29813904
_cell_length_c   13.25645255
_cell_angle_alpha   85.43572628
_cell_angle_beta   97.23453586
_cell_angle_gamma   90.03973834
_symmetry_Int_Tables_number   1
_chemical_formula_structural   ZnBi2O5
_chemical_formula_sum   'Zn2 Bi4 O10'
_cell_volume   255.85484002
_cell_formula_units_Z   2
loop_
 _symmetry_equiv_pos_site_id
 _symmetry_equiv_pos_as_xyz
  1  'x, y, z'
loop_
 _atom_site_type_symbol
 _atom_site_label
 _atom_site_symmetry_multiplicity
 _atom_site_fract_x
 _atom_site_fract_y
 _atom_site_fract_z
 _atom_site_occupancy
  Zn  Zn0  1  0.538204  0.870747  0.269168  1
  Zn  Zn1  1  0.065210  0.107701  0.761655  1
  Bi  Bi2  1  0.189291  0.370338  0.121522  1
  Bi  Bi3  1  0.600610  0.586504  0.883181  1
  Bi  Bi4  1  0.905195  0.647701  0.602447  1
  Bi  Bi5  1  0.277542  0.305792  0.412272  1
  O  O6  1  0.000887  0.497092  0.758016  1
  O  O7  1  0.328498  0.526523  0.267380  1
  O  O8  1  0.681069  0.576106  0.084276  1
  O  O9  1  0.121374  0.391141  0.957342  1
  O  O10  1  0.833675  0.564960  0.443842  1
  O  O11  1  0.404204  0.462610  0.593954  1
  O  O12  1  0.020331  0.032659  0.310018  1
  O  O13  1  0.000720  0.023243  0.607889  1
  O  O14  1  0.586121  0.995158  0.811449  1
  O  O15  1  0.475664  0.038873  0.130412  1
