# generated using pymatgen
data_Mg2Ti2O5
_symmetry_space_group_name_H-M   'P 1'
_cell_length_a   3.55030613
_cell_length_b   5.57541610
_cell_length_c   10.78497829
_cell_angle_alpha   90.08182441
_cell_angle_beta   89.99997869
_cell_angle_gamma   89.99971038
_symmetry_Int_Tables_number   1
_chemical_formula_structural   Mg2Ti2O5
_chemical_formula_sum   'Mg4 Ti4 O10'
_cell_volume   213.48232265
_cell_formula_units_Z   2
loop_
 _symmetry_equiv_pos_site_id
 _symmetry_equiv_pos_as_xyz
  1  'x, y, z'
loop_
 _atom_site_type_symbol
 _atom_site_label
 _atom_site_symmetry_multiplicity
 _atom_site_fract_x
 _atom_site_fract_y
 _atom_site_fract_z
 _atom_site_occupancy
  Mg  Mg0  1  0.500005  0.288670  0.899109  1
  Mg  Mg1  1  0.499996  0.710784  0.100842  1
  Mg  Mg2  1  0.500000  0.789090  0.600838  1
  Mg  Mg3  1  0.499999  0.210643  0.399242  1
  Ti  Ti4  1  0.000002  0.265530  0.636712  1
  Ti  Ti5  1  -0.000002  0.735191  0.363070  1
  Ti  Ti6  1  0.000002  0.235690  0.137009  1
  Ti  Ti7  1  0.000002  0.763890  0.862967  1
  O  O8  1  -0.000001  0.500515  0.500147  1
  O  O9  1  -0.000005  0.132857  0.306142  1
  O  O10  1  -0.000000  0.633297  0.193431  1
  O  O11  1  0.000000  0.366488  0.806791  1
  O  O12  1  0.500000  0.333867  0.087767  1
  O  O13  1  0.500003  0.666061  0.912303  1
  O  O14  1  0.000004  0.867449  0.694139  1
  O  O15  1  0.500003  0.166150  0.587747  1
  O  O16  1  0.000004  -0.000013  0.999689  1
  O  O17  1  0.499997  0.833840  0.412055  1
