# generated using pymatgen
data_CaCr3(P2O7)2
_symmetry_space_group_name_H-M   'P 1'
_cell_length_a   7.55017913
_cell_length_b   7.99524351
_cell_length_c   9.56205394
_cell_angle_alpha   90.00000000
_cell_angle_beta   110.03445874
_cell_angle_gamma   90.00000000
_symmetry_Int_Tables_number   1
_chemical_formula_structural   CaCr3(P2O7)2
_chemical_formula_sum   'Ca2 Cr6 P8 O28'
_cell_volume   542.28900766
_cell_formula_units_Z   2
loop_
 _symmetry_equiv_pos_site_id
 _symmetry_equiv_pos_as_xyz
  1  'x, y, z'
loop_
 _atom_site_type_symbol
 _atom_site_label
 _atom_site_symmetry_multiplicity
 _atom_site_fract_x
 _atom_site_fract_y
 _atom_site_fract_z
 _atom_site_occupancy
  Ca  Ca0  1  0.500000  0.000000  -0.000000  1
  Ca  Ca1  1  0.500000  0.500000  0.500000  1
  Cr  Cr2  1  0.189909  0.870166  0.523413  1
  Cr  Cr3  1  0.810091  0.370166  0.976587  1
  Cr  Cr4  1  0.810091  0.129834  0.476587  1
  Cr  Cr5  1  0.189909  0.629834  0.023413  1
  Cr  Cr6  1  -0.000000  0.000000  -0.000000  1
  Cr  Cr7  1  -0.000000  0.500000  0.500000  1
  P  P8  1  0.595448  0.056530  0.703034  1
  P  P9  1  0.404552  0.556530  0.796966  1
  P  P10  1  0.404552  0.943470  0.296966  1
  P  P11  1  0.595448  0.443470  0.203034  1
  P  P12  1  0.882955  0.794798  0.693388  1
  P  P13  1  0.117045  0.294798  0.806612  1
  P  P14  1  0.117045  0.205202  0.306611  1
  P  P15  1  0.882955  0.705202  0.193388  1
  O  O16  1  0.830086  0.626581  0.612825  1
  O  O17  1  0.169914  0.126581  0.887175  1
  O  O18  1  0.169914  0.373419  0.387175  1
  O  O19  1  0.830086  0.873419  0.112825  1
  O  O20  1  0.297441  0.604596  0.633090  1
  O  O21  1  0.702559  0.104596  0.866910  1
  O  O22  1  0.702559  0.395404  0.366910  1
  O  O23  1  0.297441  0.895404  0.133090  1
  O  O24  1  0.623369  0.183407  0.592187  1
  O  O25  1  0.376631  0.683407  0.907813  1
  O  O26  1  0.376631  0.816593  0.407813  1
  O  O27  1  0.623369  0.316593  0.092187  1
  O  O28  1  0.682386  0.879609  0.673547  1
  O  O29  1  0.317614  0.379609  0.826453  1
  O  O30  1  0.317614  0.120391  0.326453  1
  O  O31  1  0.682386  0.620391  0.173547  1
  O  O32  1  0.393107  0.486812  0.188383  1
  O  O33  1  0.606893  0.986812  0.311617  1
  O  O34  1  0.606893  0.513188  0.811617  1
  O  O35  1  0.393107  0.013188  0.688383  1
  O  O36  1  0.014366  0.212295  0.135906  1
  O  O37  1  0.985634  0.712295  0.364094  1
  O  O38  1  0.985634  0.787705  0.864094  1
  O  O39  1  0.014366  0.287705  0.635906  1
  O  O40  1  0.985284  0.589749  0.119244  1
  O  O41  1  0.014716  0.089749  0.380756  1
  O  O42  1  0.014716  0.410251  0.880756  1
  O  O43  1  0.985284  0.910251  0.619244  1
