# generated using pymatgen
data_AlFeO3
_symmetry_space_group_name_H-M   'P 1'
_cell_length_a   4.88617106
_cell_length_b   4.93583789
_cell_length_c   7.43877833
_cell_angle_alpha   90.04055092
_cell_angle_beta   90.01894336
_cell_angle_gamma   89.98879270
_symmetry_Int_Tables_number   1
_chemical_formula_structural   AlFeO3
_chemical_formula_sum   'Al4 Fe4 O12'
_cell_volume   179.40354949
_cell_formula_units_Z   4
loop_
 _symmetry_equiv_pos_site_id
 _symmetry_equiv_pos_as_xyz
  1  'x, y, z'
loop_
 _atom_site_type_symbol
 _atom_site_label
 _atom_site_symmetry_multiplicity
 _atom_site_fract_x
 _atom_site_fract_y
 _atom_site_fract_z
 _atom_site_occupancy
  Al  Al0  1  0.994342  0.964637  0.749822  1
  Al  Al1  1  0.494204  0.535301  0.250063  1
  Al  Al2  1  0.505798  0.464704  0.749939  1
  Al  Al3  1  0.005658  0.035365  0.250179  1
  Fe  Fe4  1  -0.000008  0.499996  0.499999  1
  Fe  Fe5  1  0.499997  0.000011  0.499999  1
  Fe  Fe6  1  0.500002  -0.000016  -0.000000  1
  Fe  Fe7  1  0.000007  0.499990  0.000000  1
  O  O8  1  0.664287  0.328594  0.422318  1
  O  O9  1  0.164227  0.171362  0.577573  1
  O  O10  1  0.835879  0.828877  0.077620  1
  O  O11  1  0.335893  0.671124  0.922425  1
  O  O12  1  0.335714  0.671411  0.577681  1
  O  O13  1  0.835771  0.828641  0.422426  1
  O  O14  1  0.164126  0.171123  0.922380  1
  O  O15  1  0.664104  0.328875  0.077576  1
  O  O16  1  0.141669  0.392526  0.250000  1
  O  O17  1  0.641717  0.107488  0.749899  1
  O  O18  1  0.358283  0.892515  0.250101  1
  O  O19  1  0.858332  0.607476  0.750001  1
