# generated using pymatgen
data_CaNiO2
_symmetry_space_group_name_H-M   'P 1'
_cell_length_a   3.16846331
_cell_length_b   9.75826387
_cell_length_c   8.94918849
_cell_angle_alpha   51.58163891
_cell_angle_beta   79.56418857
_cell_angle_gamma   79.72403982
_symmetry_Int_Tables_number   1
_chemical_formula_structural   CaNiO2
_chemical_formula_sum   'Ca4 Ni4 O8'
_cell_volume   212.42511868
_cell_formula_units_Z   4
loop_
 _symmetry_equiv_pos_site_id
 _symmetry_equiv_pos_as_xyz
  1  'x, y, z'
loop_
 _atom_site_type_symbol
 _atom_site_label
 _atom_site_symmetry_multiplicity
 _atom_site_fract_x
 _atom_site_fract_y
 _atom_site_fract_z
 _atom_site_occupancy
  Ca  Ca0  1  0.317634  0.134683  0.234524  1
  Ca  Ca1  1  0.674365  0.844917  0.792858  1
  Ca  Ca2  1  0.010914  0.692395  0.290400  1
  Ca  Ca3  1  0.993989  0.281910  0.739796  1
  Ni  Ni4  1  0.657130  0.242978  0.477068  1
  Ni  Ni5  1  0.173088  0.514898  0.137565  1
  Ni  Ni6  1  0.826755  0.464818  0.887085  1
  Ni  Ni7  1  0.354171  0.736717  0.549902  1
  O  O8  1  0.911003  0.574819  0.606469  1
  O  O9  1  0.403701  0.278651  0.920557  1
  O  O10  1  0.599987  0.696924  0.108774  1
  O  O11  1  0.102278  0.402674  0.419483  1
  O  O12  1  0.120151  0.064378  0.654837  1
  O  O13  1  0.735066  0.343363  0.185215  1
  O  O14  1  0.857659  0.914748  0.381468  1
  O  O15  1  0.262489  0.640219  0.835622  1
