# generated using pymatgen
data_SrP2WO8
_symmetry_space_group_name_H-M   'P 1'
_cell_length_a   5.75618820
_cell_length_b   7.14811787
_cell_length_c   9.33491170
_cell_angle_alpha   110.90244965
_cell_angle_beta   100.40802074
_cell_angle_gamma   98.35007958
_symmetry_Int_Tables_number   1
_chemical_formula_structural   SrP2WO8
_chemical_formula_sum   'Sr2 P4 W2 O16'
_cell_volume   343.60013519
_cell_formula_units_Z   2
loop_
 _symmetry_equiv_pos_site_id
 _symmetry_equiv_pos_as_xyz
  1  'x, y, z'
loop_
 _atom_site_type_symbol
 _atom_site_label
 _atom_site_symmetry_multiplicity
 _atom_site_fract_x
 _atom_site_fract_y
 _atom_site_fract_z
 _atom_site_occupancy
  Sr  Sr0  1  0.246676  0.751633  0.021215  1
  Sr  Sr1  1  0.753324  0.248367  0.978785  1
  P  P2  1  0.387497  0.446551  0.231828  1
  P  P3  1  0.612503  0.553449  0.768172  1
  P  P4  1  0.844651  0.038023  0.303749  1
  P  P5  1  0.155349  0.961977  0.696251  1
  W  W6  1  0.664330  0.844368  0.563826  1
  W  W7  1  0.335670  0.155632  0.436174  1
  O  O8  1  0.835559  0.554330  0.884658  1
  O  O9  1  0.619771  0.486100  0.182876  1
  O  O10  1  0.644715  0.766964  0.747682  1
  O  O11  1  0.955416  0.095912  0.705776  1
  O  O12  1  0.380229  0.513900  0.817124  1
  O  O13  1  0.993413  0.749339  0.575714  1
  O  O14  1  0.006587  0.250661  0.424286  1
  O  O15  1  0.285613  0.984289  0.858786  1
  O  O16  1  0.355285  0.233036  0.252318  1
  O  O17  1  0.714387  0.015711  0.141214  1
  O  O18  1  0.164441  0.445670  0.115342  1
  O  O19  1  0.402723  0.614120  0.401271  1
  O  O20  1  0.597277  0.385880  0.598729  1
  O  O21  1  0.640966  0.976121  0.387959  1
  O  O22  1  0.044584  0.904088  0.294224  1
  O  O23  1  0.359034  0.023879  0.612041  1
