# generated using pymatgen
data_CaV2Ni2(P2O9)2
_symmetry_space_group_name_H-M   'P 1'
_cell_length_a   6.40323031
_cell_length_b   7.55212579
_cell_length_c   13.98964024
_cell_angle_alpha   90.00387991
_cell_angle_beta   89.99995776
_cell_angle_gamma   90.00020781
_symmetry_Int_Tables_number   1
_chemical_formula_structural   CaV2Ni2(P2O9)2
_chemical_formula_sum   'Ca2 V4 Ni4 P8 O36'
_cell_volume   676.51103215
_cell_formula_units_Z   2
loop_
 _symmetry_equiv_pos_site_id
 _symmetry_equiv_pos_as_xyz
  1  'x, y, z'
loop_
 _atom_site_type_symbol
 _atom_site_label
 _atom_site_symmetry_multiplicity
 _atom_site_fract_x
 _atom_site_fract_y
 _atom_site_fract_z
 _atom_site_occupancy
  Ca  Ca0  1  0.250000  0.123644  0.218088  1
  Ca  Ca1  1  0.249999  0.376287  0.718071  1
  V  V2  1  0.750000  0.348187  0.879493  1
  V  V3  1  0.250001  0.654080  0.122337  1
  V  V4  1  0.250000  0.845921  0.622351  1
  V  V5  1  0.750000  0.151789  0.379493  1
  Ni  Ni6  1  0.502329  0.995278  0.996474  1
  Ni  Ni7  1  0.502331  0.504737  0.496428  1
  Ni  Ni8  1  0.997669  0.504736  0.496429  1
  Ni  Ni9  1  0.997670  0.995277  0.996473  1
  P  P10  1  0.250000  0.349756  0.940561  1
  P  P11  1  0.750000  0.649334  0.062534  1
  P  P12  1  0.750000  0.850651  0.562528  1
  P  P13  1  0.250001  0.150247  0.440549  1
  P  P14  1  0.750000  0.389746  0.692114  1
  P  P15  1  0.249999  0.608383  0.312138  1
  P  P16  1  0.250000  0.891621  0.812141  1
  P  P17  1  0.750001  0.110265  0.192126  1
  O  O18  1  0.050118  0.607575  0.369273  1
  O  O19  1  0.551580  0.392256  0.630931  1
  O  O20  1  0.948418  0.107745  0.130963  1
  O  O21  1  0.449880  0.892457  0.869312  1
  O  O22  1  0.948419  0.392256  0.630931  1
  O  O23  1  0.449883  0.607575  0.369272  1
  O  O24  1  0.050119  0.892454  0.869312  1
  O  O25  1  0.551582  0.107745  0.130964  1
  O  O26  1  0.250001  0.333400  0.487376  1
  O  O27  1  0.749999  0.665619  0.517729  1
  O  O28  1  0.750000  0.834426  0.017756  1
  O  O29  1  0.250000  0.166611  0.987405  1
  O  O30  1  0.749998  0.156395  0.941640  1
  O  O31  1  0.250002  0.850216  0.061336  1
  O  O32  1  0.250001  0.649803  0.561296  1
  O  O33  1  0.749999  0.343616  0.441631  1
  O  O34  1  0.749999  0.220279  0.759428  1
  O  O35  1  0.250001  0.779063  0.241439  1
  O  O36  1  0.250000  0.720952  0.741433  1
  O  O37  1  0.750002  0.279698  0.259454  1
  O  O38  1  0.438852  0.131219  0.370935  1
  O  O39  1  0.948254  0.872658  0.623734  1
  O  O40  1  0.551745  0.627346  0.123745  1
  O  O41  1  0.061143  0.368751  0.870932  1
  O  O42  1  0.551746  0.872660  0.623734  1
  O  O43  1  0.061148  0.131220  0.370935  1
  O  O44  1  0.438856  0.368751  0.870932  1
  O  O45  1  0.948255  0.627347  0.123745  1
  O  O46  1  0.750000  0.968255  0.272954  1
  O  O47  1  0.250001  0.034542  0.728585  1
  O  O48  1  0.249999  0.465445  0.228568  1
  O  O49  1  0.750000  0.531705  0.772944  1
  O  O50  1  0.750000  0.995983  0.483348  1
  O  O51  1  0.250000  0.005761  0.516364  1
  O  O52  1  0.250000  0.494247  0.016364  1
  O  O53  1  0.750000  0.504032  0.983345  1
