# generated using pymatgen
data_Ca2Cu9O13
_symmetry_space_group_name_H-M   'P 1'
_cell_length_a   3.07695977
_cell_length_b   5.18817089
_cell_length_c   16.39812924
_cell_angle_alpha   98.10146444
_cell_angle_beta   90.01701623
_cell_angle_gamma   107.35065060
_symmetry_Int_Tables_number   1
_chemical_formula_structural   Ca2Cu9O13
_chemical_formula_sum   'Ca2 Cu9 O13'
_cell_volume   247.12299801
_cell_formula_units_Z   1
loop_
 _symmetry_equiv_pos_site_id
 _symmetry_equiv_pos_as_xyz
  1  'x, y, z'
loop_
 _atom_site_type_symbol
 _atom_site_label
 _atom_site_symmetry_multiplicity
 _atom_site_fract_x
 _atom_site_fract_y
 _atom_site_fract_z
 _atom_site_occupancy
  Ca  Ca0  1  0.216096  0.433888  0.228509  1
  Ca  Ca1  1  0.783904  0.566112  0.771491  1
  Cu  Cu2  1  0.500000  0.000000  0.500000  1
  Cu  Cu3  1  0.647643  0.294932  0.037925  1
  Cu  Cu4  1  0.352357  0.705068  0.962075  1
  Cu  Cu5  1  0.751933  0.504644  0.421417  1
  Cu  Cu6  1  0.248067  0.495356  0.578583  1
  Cu  Cu7  1  0.937834  0.876537  0.119504  1
  Cu  Cu8  1  0.062166  0.123463  0.880496  1
  Cu  Cu9  1  0.995723  0.993020  0.336957  1
  Cu  Cu10  1  0.004277  0.006980  0.663043  1
  O  O11  1  0.000000  0.000000  0.000000  1
  O  O12  1  0.884723  0.768605  0.226867  1
  O  O13  1  0.115277  0.231395  0.773133  1
  O  O14  1  0.299830  0.599777  0.071407  1
  O  O15  1  0.700170  0.400223  0.928593  1
  O  O16  1  0.577408  0.156761  0.138409  1
  O  O17  1  0.422592  0.843239  0.861591  1
  O  O18  1  0.626965  0.255364  0.322703  1
  O  O19  1  0.373035  0.744636  0.677297  1
  O  O20  1  0.393188  0.784554  0.388354  1
  O  O21  1  0.606812  0.215446  0.611646  1
  O  O22  1  0.132040  0.267000  0.471407  1
  O  O23  1  0.867960  0.733000  0.528593  1
