# generated using pymatgen
data_CaFe2S5
_symmetry_space_group_name_H-M   'P 1'
_cell_length_a   4.17485305
_cell_length_b   5.84201857
_cell_length_c   13.59050225
_cell_angle_alpha   90.01860857
_cell_angle_beta   90.00002716
_cell_angle_gamma   90.00002637
_symmetry_Int_Tables_number   1
_chemical_formula_structural   CaFe2S5
_chemical_formula_sum   'Ca2 Fe4 S10'
_cell_volume   331.46647531
_cell_formula_units_Z   2
loop_
 _symmetry_equiv_pos_site_id
 _symmetry_equiv_pos_as_xyz
  1  'x, y, z'
loop_
 _atom_site_type_symbol
 _atom_site_label
 _atom_site_symmetry_multiplicity
 _atom_site_fract_x
 _atom_site_fract_y
 _atom_site_fract_z
 _atom_site_occupancy
  Ca  Ca0  1  0.750000  0.891944  0.250042  1
  Ca  Ca1  1  0.250000  0.107887  0.750093  1
  Fe  Fe2  1  0.250000  0.411834  0.099928  1
  Fe  Fe3  1  0.749999  0.587842  0.900051  1
  Fe  Fe4  1  0.750000  0.588193  0.599942  1
  Fe  Fe5  1  0.249999  0.411974  0.400013  1
  S  S6  1  0.750000  0.460964  0.749957  1
  S  S7  1  0.250000  0.539191  0.249971  1
  S  S8  1  0.749999  0.538246  0.065897  1
  S  S9  1  0.249999  0.461602  0.934128  1
  S  S10  1  0.749999  0.538743  0.434132  1
  S  S11  1  0.249999  0.461490  0.565873  1
  S  S12  1  0.250000  0.057203  0.377445  1
  S  S13  1  0.750000  0.943074  0.622424  1
  S  S14  1  0.750000  0.942719  0.877753  1
  S  S15  1  0.250000  0.057093  0.122349  1
