# generated using pymatgen
data_Cu13Si2(SbO14)2
_symmetry_space_group_name_H-M   'P 1'
_cell_length_a   5.41038625
_cell_length_b   8.06235390
_cell_length_c   11.96150941
_cell_angle_alpha   88.15341515
_cell_angle_beta   77.11972593
_cell_angle_gamma   81.97679184
_symmetry_Int_Tables_number   1
_chemical_formula_structural   Cu13Si2(SbO14)2
_chemical_formula_sum   'Cu13 Si2 Sb2 O28'
_cell_volume   503.65864459
_cell_formula_units_Z   1
loop_
 _symmetry_equiv_pos_site_id
 _symmetry_equiv_pos_as_xyz
  1  'x, y, z'
loop_
 _atom_site_type_symbol
 _atom_site_label
 _atom_site_symmetry_multiplicity
 _atom_site_fract_x
 _atom_site_fract_y
 _atom_site_fract_z
 _atom_site_occupancy
  Cu  Cu0  1  0.952641  0.621152  0.678877  1
  Cu  Cu1  1  0.667277  0.361473  0.148006  1
  Cu  Cu2  1  0.372490  0.374883  0.679870  1
  Cu  Cu3  1  0.047236  0.377068  0.321515  1
  Cu  Cu4  1  0.336042  0.636880  0.852361  1
  Cu  Cu5  1  0.281908  0.999598  0.436947  1
  Cu  Cu6  1  0.186989  0.637906  0.148543  1
  Cu  Cu7  1  0.000231  0.999867  0.999870  1
  Cu  Cu8  1  0.421106  0.999385  0.157795  1
  Cu  Cu9  1  0.815084  0.360218  0.851607  1
  Cu  Cu10  1  0.627967  0.623113  0.320577  1
  Cu  Cu11  1  0.579656  0.000018  0.842469  1
  Cu  Cu12  1  0.719860  0.998555  0.563538  1
  Si  Si13  1  0.220889  0.319970  0.001090  1
  Si  Si14  1  0.779476  0.679552  0.999335  1
  Sb  Sb15  1  0.849183  0.999703  0.301874  1
  Sb  Sb16  1  0.152650  0.997787  0.698705  1
  O  O17  1  0.712041  0.392854  0.297178  1
  O  O18  1  0.268457  0.422436  0.416990  1
  O  O19  1  0.910891  0.341422  0.000113  1
  O  O20  1  0.296139  0.112358  0.003290  1
  O  O21  1  0.732441  0.575786  0.582932  1
  O  O22  1  0.286912  0.605053  0.703502  1
  O  O23  1  0.020114  0.118526  0.568167  1
  O  O24  1  0.981101  0.879062  0.432488  1
  O  O25  1  0.703536  0.887139  0.998215  1
  O  O26  1  0.122497  0.877632  0.169203  1
  O  O27  1  0.273217  0.393646  0.119934  1
  O  O28  1  0.986885  0.607007  0.296233  1
  O  O29  1  0.415342  0.879174  0.567783  1
  O  O30  1  0.709537  0.120806  0.168546  1
  O  O31  1  0.606214  0.607417  0.118110  1
  O  O32  1  0.088298  0.656888  -0.000089  1
  O  O33  1  0.293616  0.878471  0.831697  1
  O  O34  1  0.879376  0.118980  0.831113  1
  O  O35  1  0.587462  0.119184  0.432780  1
  O  O36  1  0.135321  0.139641  0.307257  1
  O  O37  1  0.867106  0.857928  0.692812  1
  O  O38  1  0.393623  0.390662  0.882215  1
  O  O39  1  0.445658  0.137087  0.694859  1
  O  O40  1  0.686539  0.420567  0.583297  1
  O  O41  1  0.726131  0.606032  0.880477  1
  O  O42  1  0.555660  0.861206  0.305756  1
  O  O43  1  0.013686  0.391255  0.703455  1
  O  O44  1  0.312541  0.578574  0.416214  1
