# generated using pymatgen
data_AlCo4(CuO4)3
_symmetry_space_group_name_H-M   'P 1'
_cell_length_a   6.15796623
_cell_length_b   6.16542978
_cell_length_c   6.16847593
_cell_angle_alpha   109.46027655
_cell_angle_beta   109.24527005
_cell_angle_gamma   109.60644998
_symmetry_Int_Tables_number   1
_chemical_formula_structural   AlCo4(CuO4)3
_chemical_formula_sum   'Al1 Co4 Cu3 O12'
_cell_volume   180.50825855
_cell_formula_units_Z   1
loop_
 _symmetry_equiv_pos_site_id
 _symmetry_equiv_pos_as_xyz
  1  'x, y, z'
loop_
 _atom_site_type_symbol
 _atom_site_label
 _atom_site_symmetry_multiplicity
 _atom_site_fract_x
 _atom_site_fract_y
 _atom_site_fract_z
 _atom_site_occupancy
  Al  Al0  1  0.000023  0.000006  0.999966  1
  Co  Co1  1  0.500004  -0.000008  -0.000004  1
  Co  Co2  1  0.000009  0.000007  0.500002  1
  Co  Co3  1  0.000001  0.499995  -0.000002  1
  Co  Co4  1  0.499996  0.499998  0.500007  1
  Cu  Cu5  1  0.499996  -0.000002  0.499998  1
  Cu  Cu6  1  0.500006  0.499996  0.000005  1
  Cu  Cu7  1  0.000001  0.500003  0.500006  1
  O  O8  1  0.835488  0.292373  0.127232  1
  O  O9  1  0.164520  0.707634  0.872784  1
  O  O10  1  0.830380  0.701951  0.528686  1
  O  O11  1  0.297057  0.472151  0.168261  1
  O  O12  1  0.471810  0.169127  0.297500  1
  O  O13  1  0.126897  0.834830  0.292849  1
  O  O14  1  0.707712  0.873237  0.164749  1
  O  O15  1  0.528189  0.830891  0.702475  1
  O  O16  1  0.169613  0.298077  0.471335  1
  O  O17  1  0.702939  0.527833  0.831746  1
  O  O18  1  0.873070  0.165142  0.707135  1
  O  O19  1  0.292288  0.126759  0.835266  1
