# generated using pymatgen
data_CaCoO3
_symmetry_space_group_name_H-M   'P 1'
_cell_length_a   3.17692662
_cell_length_b   3.17692668
_cell_length_c   9.79563215
_cell_angle_alpha   84.06621299
_cell_angle_beta   84.06621506
_cell_angle_gamma   89.95622816
_symmetry_Int_Tables_number   1
_chemical_formula_structural   CaCoO3
_chemical_formula_sum   'Ca1 Co1 O3'
_cell_volume   97.80444859
_cell_formula_units_Z   1
loop_
 _symmetry_equiv_pos_site_id
 _symmetry_equiv_pos_as_xyz
  1  'x, y, z'
loop_
 _atom_site_type_symbol
 _atom_site_label
 _atom_site_symmetry_multiplicity
 _atom_site_fract_x
 _atom_site_fract_y
 _atom_site_fract_z
 _atom_site_occupancy
  Ca  Ca0  1  0.308353  0.308354  0.278097  1
  Co  Co1  1  0.737236  0.737234  0.513399  1
  O  O2  1  0.800526  0.800525  0.302980  1
  O  O3  1  0.680640  0.680640  0.679128  1
  O  O4  1  0.233751  0.233751  0.500699  1
