# generated using pymatgen
data_MgVO2
_symmetry_space_group_name_H-M   'P 1'
_cell_length_a   3.01225205
_cell_length_b   8.53210479
_cell_length_c   8.53919467
_cell_angle_alpha   81.73716306
_cell_angle_beta   79.97955058
_cell_angle_gamma   79.78088603
_symmetry_Int_Tables_number   1
_chemical_formula_structural   MgVO2
_chemical_formula_sum   'Mg4 V4 O8'
_cell_volume   211.24165647
_cell_formula_units_Z   4
loop_
 _symmetry_equiv_pos_site_id
 _symmetry_equiv_pos_as_xyz
  1  'x, y, z'
loop_
 _atom_site_type_symbol
 _atom_site_label
 _atom_site_symmetry_multiplicity
 _atom_site_fract_x
 _atom_site_fract_y
 _atom_site_fract_z
 _atom_site_occupancy
  Mg  Mg0  1  0.352572  0.056053  0.235271  1
  Mg  Mg1  1  0.643256  0.925812  0.792327  1
  Mg  Mg2  1  0.068129  0.711909  0.149868  1
  Mg  Mg3  1  0.927684  0.267239  0.878751  1
  V  V4  1  0.630123  0.193425  0.545473  1
  V  V5  1  0.236480  0.369349  0.154216  1
  V  V6  1  0.758918  0.609542  0.874731  1
  V  V7  1  0.367443  0.785156  0.483858  1
  O  O8  1  0.808965  0.752086  0.636855  1
  O  O9  1  0.350452  0.420634  0.880035  1
  O  O10  1  0.645553  0.559696  0.147140  1
  O  O11  1  0.183770  0.229279  0.389900  1
  O  O12  1  0.090644  0.105612  0.722878  1
  O  O13  1  0.853725  0.180588  0.107755  1
  O  O14  1  0.908381  0.873941  0.306111  1
  O  O15  1  0.142182  0.799015  0.920446  1
