# generated using pymatgen
data_BaYTiCuO5
_symmetry_space_group_name_H-M   'P 1'
_cell_length_a   3.93770313
_cell_length_b   3.93768769
_cell_length_c   7.92654922
_cell_angle_alpha   89.99974932
_cell_angle_beta   90.00030008
_cell_angle_gamma   90.00019949
_symmetry_Int_Tables_number   1
_chemical_formula_structural   BaYTiCuO5
_chemical_formula_sum   'Ba1 Y1 Ti1 Cu1 O5'
_cell_volume   122.90467409
_cell_formula_units_Z   1
loop_
 _symmetry_equiv_pos_site_id
 _symmetry_equiv_pos_as_xyz
  1  'x, y, z'
loop_
 _atom_site_type_symbol
 _atom_site_label
 _atom_site_symmetry_multiplicity
 _atom_site_fract_x
 _atom_site_fract_y
 _atom_site_fract_z
 _atom_site_occupancy
  Ba  Ba0  1  0.000002  0.999999  0.011085  1
  Y  Y1  1  0.999996  1.000000  0.450592  1
  Ti  Ti2  1  0.499997  0.500000  0.694877  1
  Cu  Cu3  1  0.500004  0.500004  0.278226  1
  O  O4  1  0.999999  0.500000  0.640556  1
  O  O5  1  0.499997  0.999998  0.640555  1
  O  O6  1  0.000000  0.499997  0.275167  1
  O  O7  1  0.500000  0.999999  0.275164  1
  O  O8  1  0.499999  0.499999  0.921696  1
