# generated using pymatgen
data_Ca2AlSnO5
_symmetry_space_group_name_H-M   'P 1'
_cell_length_a   5.69720093
_cell_length_b   6.08946740
_cell_length_c   8.44768586
_cell_angle_alpha   110.71104276
_cell_angle_beta   108.45106990
_cell_angle_gamma   91.10678981
_symmetry_Int_Tables_number   1
_chemical_formula_structural   Ca2AlSnO5
_chemical_formula_sum   'Ca4 Al2 Sn2 O10'
_cell_volume   257.18252091
_cell_formula_units_Z   2
loop_
 _symmetry_equiv_pos_site_id
 _symmetry_equiv_pos_as_xyz
  1  'x, y, z'
loop_
 _atom_site_type_symbol
 _atom_site_label
 _atom_site_symmetry_multiplicity
 _atom_site_fract_x
 _atom_site_fract_y
 _atom_site_fract_z
 _atom_site_occupancy
  Ca  Ca0  1  0.081370  0.654330  0.237164  1
  Ca  Ca1  1  0.426602  0.924689  0.763446  1
  Ca  Ca2  1  0.899774  0.334320  0.760461  1
  Ca  Ca3  1  0.656528  0.073285  0.243284  1
  Al  Al4  1  0.281489  0.331722  0.509897  1
  Al  Al5  1  0.776648  0.661659  0.494098  1
  Sn  Sn6  1  0.500521  0.501853  0.000034  1
  Sn  Sn7  1  0.024897  0.001900  0.005261  1
  O  O8  1  0.587766  0.411506  0.494436  1
  O  O9  1  0.094560  0.577773  0.509875  1
  O  O10  1  0.666841  0.709705  0.290335  1
  O  O11  1  0.324661  0.282880  0.712112  1
  O  O12  1  0.110223  0.068785  0.331599  1
  O  O13  1  0.775700  0.925797  0.670256  1
  O  O14  1  0.349446  0.799189  0.974359  1
  O  O15  1  0.195395  0.369065  0.030327  1
  O  O16  1  0.683067  0.222540  0.033988  1
  O  O17  1  0.802289  0.644528  0.965559  1
