# generated using pymatgen
data_YV2O4
_symmetry_space_group_name_H-M   'P 1'
_cell_length_a   5.82817811
_cell_length_b   5.82762975
_cell_length_c   6.50208735
_cell_angle_alpha   116.60869397
_cell_angle_beta   116.61138962
_cell_angle_gamma   90.03074677
_symmetry_Int_Tables_number   1
_chemical_formula_structural   YV2O4
_chemical_formula_sum   'Y2 V4 O8'
_cell_volume   170.85179179
_cell_formula_units_Z   2
loop_
 _symmetry_equiv_pos_site_id
 _symmetry_equiv_pos_as_xyz
  1  'x, y, z'
loop_
 _atom_site_type_symbol
 _atom_site_label
 _atom_site_symmetry_multiplicity
 _atom_site_fract_x
 _atom_site_fract_y
 _atom_site_fract_z
 _atom_site_occupancy
  Y  Y0  1  0.875010  0.125010  0.750020  1
  Y  Y1  1  0.124990  0.874990  0.249980  1
  V  V2  1  0.500000  0.000000  0.000000  1
  V  V3  1  0.500000  0.500000  0.000000  1
  V  V4  1  0.000000  0.500000  0.500000  1
  V  V5  1  0.500000  0.500000  0.500000  1
  O  O6  1  0.730767  0.527290  0.855577  1
  O  O7  1  0.124810  0.828287  0.855577  1
  O  O8  1  0.269233  0.472710  0.144423  1
  O  O9  1  0.875190  0.171713  0.144423  1
  O  O10  1  0.527360  0.124851  0.355655  1
  O  O11  1  0.828295  0.730804  0.355655  1
  O  O12  1  0.171705  0.269196  0.644345  1
  O  O13  1  0.472640  0.875149  0.644345  1
