# generated using pymatgen
data_Zn(SbO3)2
_symmetry_space_group_name_H-M   'P 1'
_cell_length_a   5.25533939
_cell_length_b   5.38590562
_cell_length_c   7.62815190
_cell_angle_alpha   89.98241124
_cell_angle_beta   89.99976275
_cell_angle_gamma   89.99912213
_symmetry_Int_Tables_number   1
_chemical_formula_structural   Zn(SbO3)2
_chemical_formula_sum   'Zn2 Sb4 O12'
_cell_volume   215.91301321
_cell_formula_units_Z   2
loop_
 _symmetry_equiv_pos_site_id
 _symmetry_equiv_pos_as_xyz
  1  'x, y, z'
loop_
 _atom_site_type_symbol
 _atom_site_label
 _atom_site_symmetry_multiplicity
 _atom_site_fract_x
 _atom_site_fract_y
 _atom_site_fract_z
 _atom_site_occupancy
  Zn  Zn0  1  0.511190  0.556912  0.249992  1
  Zn  Zn1  1  0.011253  0.943151  0.749956  1
  Sb  Sb2  1  0.501544  0.002846  0.000319  1
  Sb  Sb3  1  0.001536  0.497147  0.999683  1
  Sb  Sb4  1  0.001747  0.497211  0.500281  1
  Sb  Sb5  1  0.501756  0.002815  0.499684  1
  O  O6  1  0.673663  0.321746  0.435016  1
  O  O7  1  0.173712  0.178321  0.564998  1
  O  O8  1  0.807702  0.801145  0.060943  1
  O  O9  1  0.307772  0.698774  0.939176  1
  O  O10  1  0.308453  0.698233  0.560480  1
  O  O11  1  0.808439  0.801780  0.439437  1
  O  O12  1  0.173436  0.178352  0.935085  1
  O  O13  1  0.673401  0.321653  0.064861  1
  O  O14  1  0.134583  0.458542  0.249957  1
  O  O15  1  0.634600  0.041332  0.750030  1
  O  O16  1  0.398643  0.934798  0.250029  1
  O  O17  1  0.898751  0.565304  0.749962  1
