# generated using pymatgen
data_MoF5
_symmetry_space_group_name_H-M   'P 1'
_cell_length_a   3.59219551
_cell_length_b   5.86182439
_cell_length_c   8.56501911
_cell_angle_alpha   90.00000000
_cell_angle_beta   90.00000000
_cell_angle_gamma   107.84276808
_symmetry_Int_Tables_number   1
_chemical_formula_structural   MoF5
_chemical_formula_sum   'Mo2 F10'
_cell_volume   171.67729549
_cell_formula_units_Z   2
loop_
 _symmetry_equiv_pos_site_id
 _symmetry_equiv_pos_as_xyz
  1  'x, y, z'
loop_
 _atom_site_type_symbol
 _atom_site_label
 _atom_site_symmetry_multiplicity
 _atom_site_fract_x
 _atom_site_fract_y
 _atom_site_fract_z
 _atom_site_occupancy
  Mo  Mo0  1  0.500000  0.000000  0.500000  1
  Mo  Mo1  1  0.500000  0.000000  0.000000  1
  F  F2  1  0.495647  0.991293  0.250000  1
  F  F3  1  0.504353  0.008707  0.750000  1
  F  F4  1  0.071032  0.142062  0.592207  1
  F  F5  1  0.928968  0.857938  0.407793  1
  F  F6  1  0.338740  0.677481  0.931140  1
  F  F7  1  0.661260  0.322519  0.068860  1
  F  F8  1  0.661260  0.322519  0.431140  1
  F  F9  1  0.338740  0.677481  0.568860  1
  F  F10  1  0.071032  0.142062  0.907793  1
  F  F11  1  0.928968  0.857938  0.092207  1
