# generated using pymatgen
data_CaSi2WO6
_symmetry_space_group_name_H-M   'P 1'
_cell_length_a   5.11967504
_cell_length_b   6.95899273
_cell_length_c   6.95899292
_cell_angle_alpha   79.53039127
_cell_angle_beta   80.09311628
_cell_angle_gamma   80.09311992
_symmetry_Int_Tables_number   1
_chemical_formula_structural   CaSi2WO6
_chemical_formula_sum   'Ca2 Si4 W2 O12'
_cell_volume   237.62027732
_cell_formula_units_Z   2
loop_
 _symmetry_equiv_pos_site_id
 _symmetry_equiv_pos_as_xyz
  1  'x, y, z'
loop_
 _atom_site_type_symbol
 _atom_site_label
 _atom_site_symmetry_multiplicity
 _atom_site_fract_x
 _atom_site_fract_y
 _atom_site_fract_z
 _atom_site_occupancy
  Ca  Ca0  1  0.750000  0.284701  0.715299  1
  Ca  Ca1  1  0.250001  0.715299  0.284702  1
  Si  Si2  1  0.273732  0.205790  0.396489  1
  Si  Si3  1  0.226267  0.603511  0.794210  1
  Si  Si4  1  0.773732  0.396489  0.205790  1
  Si  Si5  1  0.726268  0.794210  0.603511  1
  W  W6  1  0.249999  0.066141  0.933860  1
  W  W7  1  0.749999  0.933861  0.066140  1
  O  O8  1  0.526270  0.332153  0.387366  1
  O  O9  1  0.973730  0.612633  0.667848  1
  O  O10  1  0.473731  0.667848  0.612634  1
  O  O11  1  0.026269  0.387367  0.332152  1
  O  O12  1  0.176244  0.115014  0.620952  1
  O  O13  1  0.323756  0.379047  0.884985  1
  O  O14  1  0.823756  0.884986  0.379048  1
  O  O15  1  0.676243  0.620952  0.115015  1
  O  O16  1  0.847584  0.237410  0.053054  1
  O  O17  1  0.652416  0.946946  0.762589  1
  O  O18  1  0.347583  0.053054  0.237411  1
  O  O19  1  0.152417  0.762590  0.946946  1
