# generated using pymatgen
data_Zn(WO2)2
_symmetry_space_group_name_H-M   'P 1'
_cell_length_a   3.20279773
_cell_length_b   10.48219777
_cell_length_c   10.34732635
_cell_angle_alpha   89.99853480
_cell_angle_beta   90.01007284
_cell_angle_gamma   89.96700633
_symmetry_Int_Tables_number   1
_chemical_formula_structural   Zn(WO2)2
_chemical_formula_sum   'Zn4 W8 O16'
_cell_volume   347.38409460
_cell_formula_units_Z   4
loop_
 _symmetry_equiv_pos_site_id
 _symmetry_equiv_pos_as_xyz
  1  'x, y, z'
loop_
 _atom_site_type_symbol
 _atom_site_label
 _atom_site_symmetry_multiplicity
 _atom_site_fract_x
 _atom_site_fract_y
 _atom_site_fract_z
 _atom_site_occupancy
  Zn  Zn0  1  0.465878  0.750077  0.145037  1
  Zn  Zn1  1  0.464291  0.250064  0.354912  1
  Zn  Zn2  1  0.535695  0.749950  0.645081  1
  Zn  Zn3  1  0.534133  0.249900  0.854974  1
  W  W4  1  0.801529  0.573770  0.381427  1
  W  W5  1  0.801452  0.073868  0.118672  1
  W  W6  1  0.198027  0.073950  0.618599  1
  W  W7  1  0.801711  0.426273  0.118604  1
  W  W8  1  0.198658  0.426215  0.618573  1
  W  W9  1  0.801779  0.926046  0.381396  1
  W  W10  1  0.198354  0.926139  0.881338  1
  W  W11  1  0.198488  0.573739  0.881388  1
  O  O12  1  0.302370  0.889068  0.518036  1
  O  O13  1  0.697435  0.110929  0.481963  1
  O  O14  1  0.306977  0.999731  0.249894  1
  O  O15  1  0.698342  0.889093  0.017932  1
  O  O16  1  0.698299  0.611041  0.017833  1
  O  O17  1  0.937410  0.250189  0.227475  1
  O  O18  1  0.301439  0.110912  0.982074  1
  O  O19  1  0.062133  0.250228  0.727295  1
  O  O20  1  0.306886  0.500065  0.249972  1
  O  O21  1  0.692825  0.000271  0.750111  1
  O  O22  1  0.301911  0.611035  0.517912  1
  O  O23  1  0.062595  0.749823  0.772519  1
  O  O24  1  0.937886  0.749762  0.272715  1
  O  O25  1  0.693305  0.499939  0.750019  1
  O  O26  1  0.301906  0.388966  0.982160  1
  O  O27  1  0.698286  0.388953  0.482087  1
