# generated using pymatgen
data_SbO2
_symmetry_space_group_name_H-M   'P 1'
_cell_length_a   8.75307752
_cell_length_b   7.92605544
_cell_length_c   6.07308653
_cell_angle_alpha   89.38305013
_cell_angle_beta   90.29400225
_cell_angle_gamma   96.01500383
_symmetry_Int_Tables_number   1
_chemical_formula_structural   SbO2
_chemical_formula_sum   'Sb8 O16'
_cell_volume   418.98746904
_cell_formula_units_Z   8
loop_
 _symmetry_equiv_pos_site_id
 _symmetry_equiv_pos_as_xyz
  1  'x, y, z'
loop_
 _atom_site_type_symbol
 _atom_site_label
 _atom_site_symmetry_multiplicity
 _atom_site_fract_x
 _atom_site_fract_y
 _atom_site_fract_z
 _atom_site_occupancy
  Sb  Sb0  1  0.392082  0.335688  0.996692  1
  Sb  Sb1  1  0.771086  0.320517  0.497445  1
  Sb  Sb2  1  0.227764  0.678664  0.502489  1
  Sb  Sb3  1  0.942968  0.201435  0.999089  1
  Sb  Sb4  1  0.057233  0.797372  0.000752  1
  Sb  Sb5  1  0.607637  0.664127  0.003498  1
  Sb  Sb6  1  0.730131  0.814084  0.501452  1
  Sb  Sb7  1  0.270682  0.187236  0.498695  1
  O  O8  1  0.169410  0.258622  0.000412  1
  O  O9  1  0.715848  0.083601  0.503577  1
  O  O10  1  0.282641  0.916384  0.496768  1
  O  O11  1  0.621285  0.417886  0.994357  1
  O  O12  1  0.378929  0.582037  0.005735  1
  O  O13  1  0.830876  0.741773  0.999333  1
  O  O14  1  0.680190  0.527384  0.489030  1
  O  O15  1  0.319877  0.473084  0.510539  1
  O  O16  1  0.086143  0.650154  0.257778  1
  O  O17  1  0.426747  0.201671  0.740620  1
  O  O18  1  0.570727  0.792237  0.738209  1
  O  O19  1  0.915376  0.347070  0.254131  1
  O  O20  1  0.914950  0.349935  0.742286  1
  O  O21  1  0.572754  0.798627  0.259625  1
  O  O22  1  0.428676  0.207793  0.261482  1
  O  O23  1  0.085989  0.652618  0.746008  1
