# generated using pymatgen
data_ZnCr4O8
_symmetry_space_group_name_H-M   'P 1'
_cell_length_a   6.04435953
_cell_length_b   6.04435938
_cell_length_c   6.04435976
_cell_angle_alpha   58.69465830
_cell_angle_beta   58.69465086
_cell_angle_gamma   58.69466460
_symmetry_Int_Tables_number   1
_chemical_formula_structural   ZnCr4O8
_chemical_formula_sum   'Zn1 Cr4 O8'
_cell_volume   151.49023131
_cell_formula_units_Z   1
loop_
 _symmetry_equiv_pos_site_id
 _symmetry_equiv_pos_as_xyz
  1  'x, y, z'
loop_
 _atom_site_type_symbol
 _atom_site_label
 _atom_site_symmetry_multiplicity
 _atom_site_fract_x
 _atom_site_fract_y
 _atom_site_fract_z
 _atom_site_occupancy
  Zn  Zn0  1  0.500000  0.500001  0.499999  1
  Cr  Cr1  1  0.500001  0.999999  0.500001  1
  Cr  Cr2  1  0.999999  0.500000  0.500001  1
  Cr  Cr3  1  0.500000  0.500000  0.000000  1
  Cr  Cr4  1  -0.000000  0.000000  0.000000  1
  O  O5  1  0.758400  0.274622  0.758400  1
  O  O6  1  0.241599  0.241600  0.725378  1
  O  O7  1  0.241599  0.725379  0.241599  1
  O  O8  1  0.725377  0.241600  0.241600  1
  O  O9  1  0.271548  0.271549  0.271548  1
  O  O10  1  0.728452  0.728452  0.728452  1
  O  O11  1  0.274623  0.758401  0.758400  1
  O  O12  1  0.758401  0.758401  0.274622  1
