# generated using pymatgen
data_Zn3Fe3(AsO4)4
_symmetry_space_group_name_H-M   'P 1'
_cell_length_a   5.28463919
_cell_length_b   8.62645646
_cell_length_c   15.42035970
_cell_angle_alpha   100.78678687
_cell_angle_beta   90.00000000
_cell_angle_gamma   90.00000000
_symmetry_Int_Tables_number   1
_chemical_formula_structural   Zn3Fe3(AsO4)4
_chemical_formula_sum   'Zn6 Fe6 As8 O32'
_cell_volume   690.55755451
_cell_formula_units_Z   2
loop_
 _symmetry_equiv_pos_site_id
 _symmetry_equiv_pos_as_xyz
  1  'x, y, z'
loop_
 _atom_site_type_symbol
 _atom_site_label
 _atom_site_symmetry_multiplicity
 _atom_site_fract_x
 _atom_site_fract_y
 _atom_site_fract_z
 _atom_site_occupancy
  Zn  Zn0  1  0.939825  0.023185  0.715205  1
  Zn  Zn1  1  0.439825  0.476815  0.784795  1
  Zn  Zn2  1  0.060175  0.976815  0.284795  1
  Zn  Zn3  1  0.560175  0.523185  0.215205  1
  Zn  Zn4  1  0.000000  -0.000000  -0.000000  1
  Zn  Zn5  1  0.500000  0.500000  0.500000  1
  Fe  Fe6  1  0.004212  0.323796  0.124602  1
  Fe  Fe7  1  0.995788  0.676204  0.875398  1
  Fe  Fe8  1  0.504212  0.176204  0.375398  1
  Fe  Fe9  1  0.495788  0.823796  0.624602  1
  Fe  Fe10  1  0.500000  0.500000  -0.000000  1
  Fe  Fe11  1  0.000000  -0.000000  0.500000  1
  As  As12  1  0.521396  0.882942  0.851921  1
  As  As13  1  0.004693  0.309292  0.894267  1
  As  As14  1  0.504693  0.190708  0.605733  1
  As  As15  1  0.495307  0.809292  0.394267  1
  As  As16  1  0.478604  0.117058  0.148079  1
  As  As17  1  0.995307  0.690708  0.105733  1
  As  As18  1  0.978604  0.382942  0.351921  1
  As  As19  1  0.021396  0.617058  0.648079  1
  O  O20  1  0.098861  0.566898  0.748955  1
  O  O21  1  0.570168  0.263473  0.511615  1
  O  O22  1  0.091006  0.191382  0.798800  1
  O  O23  1  0.115424  0.815378  0.654027  1
  O  O24  1  0.908994  0.808618  0.201200  1
  O  O25  1  0.401139  0.066898  0.248955  1
  O  O26  1  0.591006  0.308618  0.701200  1
  O  O27  1  0.789617  0.895042  0.395293  1
  O  O28  1  0.810699  0.508787  0.427404  1
  O  O29  1  0.901139  0.433102  0.251045  1
  O  O30  1  0.384576  0.315378  0.154027  1
  O  O31  1  0.210383  0.104958  0.604707  1
  O  O32  1  0.214299  0.473984  0.902262  1
  O  O33  1  0.189301  0.491213  0.572596  1
  O  O34  1  0.799311  0.118075  0.127744  1
  O  O35  1  0.299311  0.381925  0.372256  1
  O  O36  1  0.714299  0.026016  0.597738  1
  O  O37  1  0.408994  0.691382  0.298800  1
  O  O38  1  0.310699  0.991213  0.072596  1
  O  O39  1  0.289617  0.604958  0.104707  1
  O  O40  1  0.700689  0.618075  0.627744  1
  O  O41  1  0.200689  0.881925  0.872256  1
  O  O42  1  0.429832  0.736527  0.488385  1
  O  O43  1  0.070168  0.236527  0.988385  1
  O  O44  1  0.785701  0.526016  0.097738  1
  O  O45  1  0.598861  0.933102  0.751045  1
  O  O46  1  0.884576  0.184622  0.345973  1
  O  O47  1  0.689301  0.008787  0.927404  1
  O  O48  1  0.929832  0.763473  0.011615  1
  O  O49  1  0.710383  0.395042  0.895293  1
  O  O50  1  0.285701  0.973984  0.402262  1
  O  O51  1  0.615424  0.684622  0.845973  1
