# generated using pymatgen
data_Y2Cr3(SiO4)3
_symmetry_space_group_name_H-M   'P 1'
_cell_length_a   10.78113945
_cell_length_b   10.78113895
_cell_length_c   10.78113909
_cell_angle_alpha   109.47122089
_cell_angle_beta   109.47121997
_cell_angle_gamma   109.47122220
_symmetry_Int_Tables_number   1
_chemical_formula_structural   Y2Cr3(SiO4)3
_chemical_formula_sum   'Y8 Cr12 Si12 O48'
_cell_volume   964.65508693
_cell_formula_units_Z   4
loop_
 _symmetry_equiv_pos_site_id
 _symmetry_equiv_pos_as_xyz
  1  'x, y, z'
loop_
 _atom_site_type_symbol
 _atom_site_label
 _atom_site_symmetry_multiplicity
 _atom_site_fract_x
 _atom_site_fract_y
 _atom_site_fract_z
 _atom_site_occupancy
  Y  Y0  1  0.500000  0.000000  0.000000  1
  Y  Y1  1  0.000000  0.000000  0.000000  1
  Y  Y2  1  0.000000  0.500000  0.000000  1
  Y  Y3  1  0.000000  0.000000  0.500000  1
  Y  Y4  1  0.000000  0.500000  0.500001  1
  Y  Y5  1  0.500000  0.000000  0.500001  1
  Y  Y6  1  0.500000  0.500000  0.000000  1
  Y  Y7  1  0.500000  0.500000  0.500000  1
  Cr  Cr8  1  0.250000  0.875001  0.625000  1
  Cr  Cr9  1  0.875000  0.625000  0.250000  1
  Cr  Cr10  1  0.625001  0.875001  0.750001  1
  Cr  Cr11  1  0.875001  0.750001  0.625001  1
  Cr  Cr12  1  0.625000  0.250000  0.875000  1
  Cr  Cr13  1  0.750000  0.625000  0.875000  1
  Cr  Cr14  1  0.750000  0.125000  0.375000  1
  Cr  Cr15  1  0.125000  0.375000  0.750000  1
  Cr  Cr16  1  0.375000  0.125000  0.250000  1
  Cr  Cr17  1  0.125000  0.250000  0.375000  1
  Cr  Cr18  1  0.375000  0.750001  0.125000  1
  Cr  Cr19  1  0.250000  0.375000  0.125000  1
  Si  Si20  1  0.250000  0.125000  0.875000  1
  Si  Si21  1  0.875000  0.250000  0.125000  1
  Si  Si22  1  0.625000  0.750001  0.375000  1
  Si  Si23  1  0.250000  0.625000  0.375001  1
  Si  Si24  1  0.375000  0.625000  0.750000  1
  Si  Si25  1  0.750000  0.375000  0.625000  1
  Si  Si26  1  0.875000  0.125000  0.750000  1
  Si  Si27  1  0.125000  0.750001  0.875000  1
  Si  Si28  1  0.125000  0.875001  0.250000  1
  Si  Si29  1  0.625000  0.375000  0.250000  1
  Si  Si30  1  0.375000  0.250000  0.625000  1
  Si  Si31  1  0.750000  0.875001  0.125000  1
  O  O32  1  0.277701  0.481228  0.370060  1
  O  O33  1  0.018772  0.296473  0.888832  1
  O  O34  1  0.129940  0.611168  0.907641  1
  O  O35  1  0.222298  0.592359  0.203527  1
  O  O36  1  0.222298  0.129939  0.018771  1
  O  O37  1  0.592358  0.203526  0.222298  1
  O  O38  1  0.611167  0.203526  0.481228  1
  O  O39  1  0.203527  0.222298  0.592360  1
  O  O40  1  0.888833  0.370060  0.592359  1
  O  O41  1  0.296474  0.907641  0.277702  1
  O  O42  1  0.907641  0.277702  0.296474  1
  O  O43  1  0.018772  0.222298  0.129939  1
  O  O44  1  0.203527  0.481228  0.611168  1
  O  O45  1  0.592359  0.888833  0.370061  1
  O  O46  1  0.129939  0.018771  0.222298  1
  O  O47  1  0.481228  0.611168  0.203526  1
  O  O48  1  0.370060  0.592359  0.888832  1
  O  O49  1  0.888832  0.018771  0.296473  1
  O  O50  1  0.611167  0.907641  0.129940  1
  O  O51  1  0.111167  0.629939  0.407641  1
  O  O52  1  0.481228  0.370060  0.277701  1
  O  O53  1  0.370060  0.277702  0.481228  1
  O  O54  1  0.296474  0.888833  0.018772  1
  O  O55  1  0.277701  0.296473  0.907640  1
  O  O56  1  0.722298  0.518771  0.629940  1
  O  O57  1  0.981228  0.703526  0.111167  1
  O  O58  1  0.870061  0.388833  0.092359  1
  O  O59  1  0.777702  0.407641  0.796474  1
  O  O60  1  0.777701  0.870061  0.981229  1
  O  O61  1  0.407641  0.796473  0.777701  1
  O  O62  1  0.388833  0.796473  0.518771  1
  O  O63  1  0.796474  0.777702  0.407641  1
  O  O64  1  0.722298  0.703526  0.092359  1
  O  O65  1  0.703527  0.111168  0.981228  1
  O  O66  1  0.629939  0.722299  0.518772  1
  O  O67  1  0.518772  0.629939  0.722298  1
  O  O68  1  0.092359  0.870061  0.388832  1
  O  O69  1  0.388832  0.092358  0.870060  1
  O  O70  1  0.111168  0.981228  0.703526  1
  O  O71  1  0.629940  0.407641  0.111167  1
  O  O72  1  0.518772  0.388833  0.796474  1
  O  O73  1  0.870061  0.981228  0.777702  1
  O  O74  1  0.407642  0.111168  0.629940  1
  O  O75  1  0.796473  0.518771  0.388833  1
  O  O76  1  0.981228  0.777702  0.870061  1
  O  O77  1  0.092360  0.722299  0.703527  1
  O  O78  1  0.703526  0.092358  0.722298  1
  O  O79  1  0.907641  0.129939  0.611167  1
