# generated using pymatgen
data_Sr2YFeCu2O7
_symmetry_space_group_name_H-M   'P 1'
_cell_length_a   5.42800971
_cell_length_b   5.52461869
_cell_length_c   12.28759009
_cell_angle_alpha   102.99772042
_cell_angle_beta   102.76041564
_cell_angle_gamma   89.99524337
_symmetry_Int_Tables_number   1
_chemical_formula_structural   Sr2YFeCu2O7
_chemical_formula_sum   'Sr4 Y2 Fe2 Cu4 O14'
_cell_volume   349.69107256
_cell_formula_units_Z   2
loop_
 _symmetry_equiv_pos_site_id
 _symmetry_equiv_pos_as_xyz
  1  'x, y, z'
loop_
 _atom_site_type_symbol
 _atom_site_label
 _atom_site_symmetry_multiplicity
 _atom_site_fract_x
 _atom_site_fract_y
 _atom_site_fract_z
 _atom_site_occupancy
  Sr  Sr0  1  0.336989  0.332274  0.698013  1
  Sr  Sr1  1  0.638686  0.668976  0.300790  1
  Sr  Sr2  1  0.836369  0.867344  0.697716  1
  Sr  Sr3  1  0.138327  0.133563  0.300985  1
  Y  Y4  1  0.984252  0.999055  0.999432  1
  Y  Y5  1  0.484178  0.499235  0.999582  1
  Fe  Fe6  1  0.275612  0.682770  0.499487  1
  Fe  Fe7  1  0.774422  0.317948  0.499362  1
  Cu  Cu8  1  0.912425  0.429558  0.858101  1
  Cu  Cu9  1  0.054130  0.569985  0.141214  1
  Cu  Cu10  1  0.412327  0.927592  0.857555  1
  Cu  Cu11  1  0.553657  0.071420  0.140548  1
  O  O12  1  0.134353  0.357900  0.499549  1
  O  O13  1  0.635322  0.643513  0.499127  1
  O  O14  1  0.177680  0.194315  0.876905  1
  O  O15  1  0.299063  0.805228  0.120713  1
  O  O16  1  0.678181  0.182318  0.877845  1
  O  O17  1  0.799357  0.817038  0.121928  1
  O  O18  1  0.664103  0.680296  0.872703  1
  O  O19  1  0.791914  0.318582  0.127198  1
  O  O20  1  0.163425  0.690804  0.871375  1
  O  O21  1  0.291732  0.308451  0.126385  1
  O  O22  1  0.285644  0.867720  0.649102  1
  O  O23  1  0.632126  0.131623  0.350567  1
  O  O24  1  0.781050  0.281465  0.648506  1
  O  O25  1  0.133645  0.718980  0.350205  1
