# generated using pymatgen
data_Mn2ZnO4
_symmetry_space_group_name_H-M   'P 1'
_cell_length_a   3.00452099
_cell_length_b   7.66630264
_cell_length_c   7.72043081
_cell_angle_alpha   74.60906206
_cell_angle_beta   78.89156850
_cell_angle_gamma   78.84460525
_symmetry_Int_Tables_number   1
_chemical_formula_structural   Mn2ZnO4
_chemical_formula_sum   'Mn4 Zn2 O8'
_cell_volume   166.32443460
_cell_formula_units_Z   2
loop_
 _symmetry_equiv_pos_site_id
 _symmetry_equiv_pos_as_xyz
  1  'x, y, z'
loop_
 _atom_site_type_symbol
 _atom_site_label
 _atom_site_symmetry_multiplicity
 _atom_site_fract_x
 _atom_site_fract_y
 _atom_site_fract_z
 _atom_site_occupancy
  Mn  Mn0  1  0.622509  0.183190  0.572375  1
  Mn  Mn1  1  0.141765  0.515220  0.199109  1
  Mn  Mn2  1  0.853569  0.462034  0.833412  1
  Mn  Mn3  1  0.372047  0.794907  0.460251  1
  Zn  Zn4  1  0.319429  0.150114  0.211512  1
  Zn  Zn5  1  0.676178  0.826825  0.820911  1
  O  O6  1  0.858167  0.668371  0.615044  1
  O  O7  1  0.450760  0.332131  0.769341  1
  O  O8  1  0.542971  0.641357  0.269076  1
  O  O9  1  0.138111  0.307625  0.416607  1
  O  O10  1  0.158253  0.997385  0.687141  1
  O  O11  1  0.783928  0.338082  0.097031  1
  O  O12  1  0.843178  0.976411  0.335661  1
  O  O13  1  0.207410  0.645683  0.938146  1
