# generated using pymatgen
data_CaPr(NiO3)2
_symmetry_space_group_name_H-M   'P 1'
_cell_length_a   5.42046072
_cell_length_b   5.42646423
_cell_length_c   7.60236815
_cell_angle_alpha   90.01863746
_cell_angle_beta   89.99911160
_cell_angle_gamma   89.99873566
_symmetry_Int_Tables_number   1
_chemical_formula_structural   CaPr(NiO3)2
_chemical_formula_sum   'Ca2 Pr2 Ni4 O12'
_cell_volume   223.61556001
_cell_formula_units_Z   2
loop_
 _symmetry_equiv_pos_site_id
 _symmetry_equiv_pos_as_xyz
  1  'x, y, z'
loop_
 _atom_site_type_symbol
 _atom_site_label
 _atom_site_symmetry_multiplicity
 _atom_site_fract_x
 _atom_site_fract_y
 _atom_site_fract_z
 _atom_site_occupancy
  Ca  Ca0  1  0.490657  0.454880  0.750246  1
  Ca  Ca1  1  0.990582  0.045134  0.249748  1
  Pr  Pr2  1  0.008325  0.962060  0.750313  1
  Pr  Pr3  1  0.508391  0.537863  0.249719  1
  Ni  Ni4  1  0.000358  0.499442  0.999900  1
  Ni  Ni5  1  0.000280  0.499420  0.500077  1
  Ni  Ni6  1  0.500327  0.000572  0.499920  1
  Ni  Ni7  1  0.500416  0.000544  0.000091  1
  O  O8  1  0.071055  0.484845  0.250324  1
  O  O9  1  0.217687  0.217894  0.962922  1
  O  O10  1  0.217469  0.217938  0.537868  1
  O  O11  1  0.286096  0.714532  0.542031  1
  O  O12  1  0.286074  0.714501  0.958534  1
  O  O13  1  0.421624  0.987987  0.250324  1
  O  O14  1  0.571024  0.015284  0.749681  1
  O  O15  1  0.717815  0.282231  0.037115  1
  O  O16  1  0.717649  0.282235  0.462085  1
  O  O17  1  0.786252  0.785371  0.041404  1
  O  O18  1  0.786316  0.785259  0.458025  1
  O  O19  1  0.921600  0.512007  0.749672  1
