# generated using pymatgen
data_MgCr2O4
_symmetry_space_group_name_H-M   'P 1'
_cell_length_a   2.93722897
_cell_length_b   8.94315708
_cell_length_c   10.52144762
_cell_angle_alpha   90.00000000
_cell_angle_beta   90.00000000
_cell_angle_gamma   90.00000000
_symmetry_Int_Tables_number   1
_chemical_formula_structural   MgCr2O4
_chemical_formula_sum   'Mg4 Cr8 O16'
_cell_volume   276.37843884
_cell_formula_units_Z   4
loop_
 _symmetry_equiv_pos_site_id
 _symmetry_equiv_pos_as_xyz
  1  'x, y, z'
loop_
 _atom_site_type_symbol
 _atom_site_label
 _atom_site_symmetry_multiplicity
 _atom_site_fract_x
 _atom_site_fract_y
 _atom_site_fract_z
 _atom_site_occupancy
  Mg  Mg0  1  0.749999  0.237886  0.344430  1
  Mg  Mg1  1  0.250000  0.762115  0.655570  1
  Mg  Mg2  1  0.749999  0.737886  0.155570  1
  Mg  Mg3  1  0.250000  0.262115  0.844430  1
  Cr  Cr4  1  0.250000  0.413132  0.101208  1
  Cr  Cr5  1  0.749999  0.086868  0.601208  1
  Cr  Cr6  1  0.250000  0.913133  0.398792  1
  Cr  Cr7  1  0.749999  0.586868  0.898792  1
  Cr  Cr8  1  0.749999  0.559085  0.382702  1
  Cr  Cr9  1  0.250000  0.440915  0.617298  1
  Cr  Cr10  1  0.749999  0.059084  0.117297  1
  Cr  Cr11  1  0.250000  0.940915  0.882702  1
  O  O12  1  0.250000  0.909464  0.074967  1
  O  O13  1  0.749999  0.090535  0.925033  1
  O  O14  1  0.250000  0.409464  0.425033  1
  O  O15  1  0.749999  0.590536  0.574967  1
  O  O16  1  0.250000  0.029062  0.712893  1
  O  O17  1  0.749999  0.970937  0.287107  1
  O  O18  1  0.250000  0.529063  0.787107  1
  O  O19  1  0.749999  0.470937  0.212893  1
  O  O20  1  0.250000  0.624625  0.032774  1
  O  O21  1  0.749999  0.375376  0.967226  1
  O  O22  1  0.250000  0.124624  0.467226  1
  O  O23  1  0.749999  0.875375  0.532774  1
  O  O24  1  0.749999  0.796074  0.821182  1
  O  O25  1  0.250000  0.203926  0.178818  1
  O  O26  1  0.250000  0.703926  0.321182  1
  O  O27  1  0.749999  0.296073  0.678818  1
