# generated using pymatgen
data_BaMnAlCuO5
_symmetry_space_group_name_H-M   'P 1'
_cell_length_a   3.71130768
_cell_length_b   3.71127627
_cell_length_c   8.17187080
_cell_angle_alpha   90.01040841
_cell_angle_beta   89.98704628
_cell_angle_gamma   90.01496241
_symmetry_Int_Tables_number   1
_chemical_formula_structural   BaMnAlCuO5
_chemical_formula_sum   'Ba1 Mn1 Al1 Cu1 O5'
_cell_volume   112.55679106
_cell_formula_units_Z   1
loop_
 _symmetry_equiv_pos_site_id
 _symmetry_equiv_pos_as_xyz
  1  'x, y, z'
loop_
 _atom_site_type_symbol
 _atom_site_label
 _atom_site_symmetry_multiplicity
 _atom_site_fract_x
 _atom_site_fract_y
 _atom_site_fract_z
 _atom_site_occupancy
  Ba  Ba0  1  0.999988  0.000005  0.007231  1
  Mn  Mn1  1  0.500026  0.499977  0.682472  1
  Al  Al2  1  0.000009  0.000020  0.462251  1
  Cu  Cu3  1  0.499965  0.500025  0.270732  1
  O  O4  1  0.000065  0.499906  0.607916  1
  O  O5  1  0.500106  0.999946  0.607932  1
  O  O6  1  0.999946  0.500072  0.309256  1
  O  O7  1  0.499898  0.000041  0.309271  1
  O  O8  1  0.499992  0.500003  0.930857  1
