# generated using pymatgen
data_CaLa2CoO6
_symmetry_space_group_name_H-M   'P 1'
_cell_length_a   5.59683255
_cell_length_b   5.59683218
_cell_length_c   5.59683278
_cell_angle_alpha   62.64863508
_cell_angle_beta   62.64863634
_cell_angle_gamma   62.64863931
_symmetry_Int_Tables_number   1
_chemical_formula_structural   CaLa2CoO6
_chemical_formula_sum   'Ca1 La2 Co1 O6'
_cell_volume   131.27780155
_cell_formula_units_Z   1
loop_
 _symmetry_equiv_pos_site_id
 _symmetry_equiv_pos_as_xyz
  1  'x, y, z'
loop_
 _atom_site_type_symbol
 _atom_site_label
 _atom_site_symmetry_multiplicity
 _atom_site_fract_x
 _atom_site_fract_y
 _atom_site_fract_z
 _atom_site_occupancy
  Ca  Ca0  1  0.500000  0.500000  0.500000  1
  La  La1  1  0.760877  0.760877  0.760877  1
  La  La2  1  0.239123  0.239123  0.239123  1
  Co  Co3  1  0.000000  0.000000  0.000000  1
  O  O4  1  0.316805  0.790042  0.138208  1
  O  O5  1  0.790042  0.138208  0.316805  1
  O  O6  1  0.138208  0.316805  0.790042  1
  O  O7  1  0.683195  0.209958  0.861792  1
  O  O8  1  0.861792  0.683195  0.209958  1
  O  O9  1  0.209958  0.861792  0.683195  1
