# generated using pymatgen
data_CaMn4(SiO3)5
_symmetry_space_group_name_H-M   'P 1'
_cell_length_a   6.80303656
_cell_length_b   7.81816254
_cell_length_c   11.99701318
_cell_angle_alpha   105.64508968
_cell_angle_beta   92.42118627
_cell_angle_gamma   93.95055466
_symmetry_Int_Tables_number   1
_chemical_formula_structural   CaMn4(SiO3)5
_chemical_formula_sum   'Ca2 Mn8 Si10 O30'
_cell_volume   611.75741252
_cell_formula_units_Z   2
loop_
 _symmetry_equiv_pos_site_id
 _symmetry_equiv_pos_as_xyz
  1  'x, y, z'
loop_
 _atom_site_type_symbol
 _atom_site_label
 _atom_site_symmetry_multiplicity
 _atom_site_fract_x
 _atom_site_fract_y
 _atom_site_fract_z
 _atom_site_occupancy
  Ca  Ca0  1  0.635374  0.045823  0.693033  1
  Ca  Ca1  1  0.364626  0.954177  0.306967  1
  Mn  Mn2  1  0.031563  0.117381  0.148414  1
  Mn  Mn3  1  0.125356  0.316685  0.445413  1
  Mn  Mn4  1  0.796434  0.304905  0.977903  1
  Mn  Mn5  1  0.203566  0.695095  0.022097  1
  Mn  Mn6  1  0.812361  0.491942  0.270407  1
  Mn  Mn7  1  0.968437  0.882619  0.851586  1
  Mn  Mn8  1  0.874644  0.683315  0.554587  1
  Mn  Mn9  1  0.187639  0.508058  0.729593  1
  Si  Si10  1  0.290763  0.538573  0.261208  1
  Si  Si11  1  0.495760  0.221382  0.125383  1
  Si  Si12  1  0.844532  0.926807  0.345476  1
  Si  Si13  1  0.155468  0.073193  0.654524  1
  Si  Si14  1  0.754804  0.746384  0.089463  1
  Si  Si15  1  0.504240  0.778618  0.874617  1
  Si  Si16  1  0.245196  0.253616  0.910537  1
  Si  Si17  1  0.638407  0.269905  0.470554  1
  Si  Si18  1  0.709237  0.461427  0.738792  1
  Si  Si19  1  0.361593  0.730095  0.529446  1
  O  O20  1  0.301354  0.943815  0.565908  1
  O  O21  1  0.883809  0.752533  0.388747  1
  O  O22  1  0.104759  0.399139  0.268219  1
  O  O23  1  0.254807  0.672658  0.183128  1
  O  O24  1  0.266383  0.796760  0.869090  1
  O  O25  1  0.299624  0.136011  0.778520  1
  O  O26  1  0.634430  0.316323  0.613184  1
  O  O27  1  0.961797  0.954593  0.676764  1
  O  O28  1  0.116191  0.247467  0.611253  1
  O  O29  1  0.418690  0.256081  0.413452  1
  O  O30  1  0.057153  0.156913  0.959012  1
  O  O31  1  0.700376  0.863989  0.221480  1
  O  O32  1  0.809433  0.400882  0.436360  1
  O  O33  1  0.895241  0.600861  0.731781  1
  O  O34  1  0.038203  0.045407  0.323236  1
  O  O35  1  0.942847  0.843087  0.040988  1
  O  O36  1  0.190567  0.599118  0.563640  1
  O  O37  1  0.581310  0.743919  0.586548  1
  O  O38  1  0.806558  0.552587  0.100110  1
  O  O39  1  0.444875  0.256592  0.995737  1
  O  O40  1  0.555125  0.743408  0.004263  1
  O  O41  1  0.193442  0.447413  0.899890  1
  O  O42  1  0.517012  0.579026  0.778575  1
  O  O43  1  0.745193  0.327342  0.816872  1
  O  O44  1  0.698646  0.056185  0.434092  1
  O  O45  1  0.658681  0.928888  0.851619  1
  O  O46  1  0.365570  0.683677  0.386816  1
  O  O47  1  0.482988  0.420974  0.221425  1
  O  O48  1  0.733617  0.203240  0.130910  1
  O  O49  1  0.341319  0.071112  0.148381  1
