# generated using pymatgen
data_CaV2O4
_symmetry_space_group_name_H-M   'P 1'
_cell_length_a   6.27713208
_cell_length_b   6.27713158
_cell_length_c   6.30310461
_cell_angle_alpha   59.86302343
_cell_angle_beta   59.86303275
_cell_angle_gamma   59.85082647
_symmetry_Int_Tables_number   1
_chemical_formula_structural   CaV2O4
_chemical_formula_sum   'Ca2 V4 O8'
_cell_volume   175.05309749
_cell_formula_units_Z   2
loop_
 _symmetry_equiv_pos_site_id
 _symmetry_equiv_pos_as_xyz
  1  'x, y, z'
loop_
 _atom_site_type_symbol
 _atom_site_label
 _atom_site_symmetry_multiplicity
 _atom_site_fract_x
 _atom_site_fract_y
 _atom_site_fract_z
 _atom_site_occupancy
  Ca  Ca0  1  0.125000  0.625000  0.625000  1
  Ca  Ca1  1  0.625000  0.125000  0.625000  1
  V  V2  1  0.989975  0.989975  0.010025  1
  V  V3  1  0.260025  0.260025  0.239975  1
  V  V4  1  0.625000  0.625000  0.125000  1
  V  V5  1  0.625000  0.625000  0.625000  1
  O  O6  1  0.397406  0.397406  0.342743  1
  O  O7  1  0.399985  0.867829  0.366093  1
  O  O8  1  0.397406  0.397406  0.862447  1
  O  O9  1  0.867829  0.399985  0.366093  1
  O  O10  1  0.382170  0.850015  0.883907  1
  O  O11  1  0.850015  0.382170  0.883907  1
  O  O12  1  0.852594  0.852594  0.387553  1
  O  O13  1  0.852594  0.852594  0.907257  1
