# generated using pymatgen
data_MgSnF5
_symmetry_space_group_name_H-M   'P 1'
_cell_length_a   5.60964964
_cell_length_b   5.60869251
_cell_length_c   8.01722503
_cell_angle_alpha   98.96986315
_cell_angle_beta   109.04928708
_cell_angle_gamma   108.24531920
_symmetry_Int_Tables_number   1
_chemical_formula_structural   MgSnF5
_chemical_formula_sum   'Mg2 Sn2 F10'
_cell_volume   216.88294704
_cell_formula_units_Z   2
loop_
 _symmetry_equiv_pos_site_id
 _symmetry_equiv_pos_as_xyz
  1  'x, y, z'
loop_
 _atom_site_type_symbol
 _atom_site_label
 _atom_site_symmetry_multiplicity
 _atom_site_fract_x
 _atom_site_fract_y
 _atom_site_fract_z
 _atom_site_occupancy
  Mg  Mg0  1  0.261935  0.512323  0.750527  1
  Mg  Mg1  1  0.735081  0.488179  0.247059  1
  Sn  Sn2  1  0.001101  0.001054  -0.000736  1
  Sn  Sn3  1  0.497624  -0.001273  0.499383  1
  F  F4  1  0.392224  0.141373  0.250697  1
  F  F5  1  0.610949  0.862948  0.748024  1
  F  F6  1  0.583911  0.703309  0.360483  1
  F  F7  1  0.842912  0.226150  0.140813  1
  F  F8  1  0.766152  0.674173  0.060541  1
  F  F9  1  0.109996  0.699441  0.439752  1
  F  F10  1  0.245054  0.329340  0.940697  1
  F  F11  1  0.885449  0.297531  0.564613  1
  F  F12  1  0.162225  0.777002  0.862599  1
  F  F13  1  0.410025  0.296754  0.634990  1
