# generated using pymatgen
data_ZnWO3
_symmetry_space_group_name_H-M   'P 1'
_cell_length_a   5.33048578
_cell_length_b   5.38402256
_cell_length_c   7.94074399
_cell_angle_alpha   90.26210541
_cell_angle_beta   89.94380243
_cell_angle_gamma   89.95965900
_symmetry_Int_Tables_number   1
_chemical_formula_structural   ZnWO3
_chemical_formula_sum   'Zn4 W4 O12'
_cell_volume   227.89247909
_cell_formula_units_Z   4
loop_
 _symmetry_equiv_pos_site_id
 _symmetry_equiv_pos_as_xyz
  1  'x, y, z'
loop_
 _atom_site_type_symbol
 _atom_site_label
 _atom_site_symmetry_multiplicity
 _atom_site_fract_x
 _atom_site_fract_y
 _atom_site_fract_z
 _atom_site_occupancy
  Zn  Zn0  1  0.018234  0.019146  0.249802  1
  Zn  Zn1  1  0.518627  0.480919  0.750507  1
  Zn  Zn2  1  0.481358  0.519111  0.249494  1
  Zn  Zn3  1  0.981759  -0.019166  0.750196  1
  W  W4  1  0.499958  -0.000023  -0.000007  1
  W  W5  1  0.000043  0.499987  -0.000013  1
  W  W6  1  -0.000041  0.500094  0.499996  1
  W  W7  1  0.500018  -0.000046  0.499991  1
  O  O8  1  0.885235  0.604698  0.750223  1
  O  O9  1  0.385480  0.895038  0.249992  1
  O  O10  1  0.614526  0.104989  0.750001  1
  O  O11  1  0.114759  0.395290  0.249770  1
  O  O12  1  0.662530  0.323416  0.431530  1
  O  O13  1  0.162849  0.176968  0.568573  1
  O  O14  1  0.835706  0.823814  0.068518  1
  O  O15  1  0.335117  0.676222  0.931713  1
  O  O16  1  0.664888  0.323805  0.068296  1
  O  O17  1  0.164285  0.176207  0.931476  1
  O  O18  1  0.337469  0.676605  0.568471  1
  O  O19  1  0.837200  0.822930  0.431468  1
