# generated using pymatgen
data_BaCa2(CoN2)2
_symmetry_space_group_name_H-M   'P 1'
_cell_length_a   9.11057739
_cell_length_b   8.05967817
_cell_length_c   11.72581818
_cell_angle_alpha   90.00000000
_cell_angle_beta   90.00000000
_cell_angle_gamma   90.00000000
_symmetry_Int_Tables_number   1
_chemical_formula_structural   BaCa2(CoN2)2
_chemical_formula_sum   'Ba4 Ca8 Co8 N16'
_cell_volume   861.00714959
_cell_formula_units_Z   4
loop_
 _symmetry_equiv_pos_site_id
 _symmetry_equiv_pos_as_xyz
  1  'x, y, z'
loop_
 _atom_site_type_symbol
 _atom_site_label
 _atom_site_symmetry_multiplicity
 _atom_site_fract_x
 _atom_site_fract_y
 _atom_site_fract_z
 _atom_site_occupancy
  Ba  Ba0  1  0.728774  0.718269  0.357303  1
  Ba  Ba1  1  0.228774  0.218269  0.642697  1
  Ba  Ba2  1  0.728774  0.781731  0.857303  1
  Ba  Ba3  1  0.228774  0.281731  0.142697  1
  Ca  Ca4  1  0.131807  0.631486  0.412065  1
  Ca  Ca5  1  0.131807  0.868514  0.912065  1
  Ca  Ca6  1  0.907312  0.145824  0.394830  1
  Ca  Ca7  1  0.407312  0.645824  0.605170  1
  Ca  Ca8  1  0.407312  0.854176  0.105170  1
  Ca  Ca9  1  0.907312  0.354176  0.894830  1
  Ca  Ca10  1  0.631807  0.368514  0.087935  1
  Ca  Ca11  1  0.631807  0.131486  0.587935  1
  Co  Co12  1  0.431187  0.574062  0.264339  1
  Co  Co13  1  0.931187  0.074062  0.735661  1
  Co  Co14  1  0.103078  0.574096  0.742828  1
  Co  Co15  1  0.603078  0.425904  0.757172  1
  Co  Co16  1  0.931187  0.425938  0.235661  1
  Co  Co17  1  0.603078  0.074096  0.257172  1
  Co  Co18  1  0.103078  0.925904  0.242828  1
  Co  Co19  1  0.431187  0.925938  0.764339  1
  N  N20  1  0.926058  0.451612  0.375563  1
  N  N21  1  0.663222  0.446877  0.889110  1
  N  N22  1  0.901540  0.384632  0.100446  1
  N  N23  1  0.663222  0.053123  0.389110  1
  N  N24  1  0.503837  0.372592  0.645492  1
  N  N25  1  0.003837  0.627408  0.854508  1
  N  N26  1  0.426058  0.951612  0.624437  1
  N  N27  1  0.163222  0.946877  0.110890  1
  N  N28  1  0.426058  0.548388  0.124437  1
  N  N29  1  0.163222  0.553123  0.610890  1
  N  N30  1  0.926058  0.048388  0.875563  1
  N  N31  1  0.003837  0.872592  0.354508  1
  N  N32  1  0.401540  0.884632  0.899554  1
  N  N33  1  0.401540  0.615368  0.399554  1
  N  N34  1  0.503837  0.127408  0.145492  1
  N  N35  1  0.901540  0.115368  0.600446  1
