# generated using pymatgen
data_Ca(BiO2)2
_symmetry_space_group_name_H-M   'P 1'
_cell_length_a   6.99774085
_cell_length_b   6.99773974
_cell_length_c   6.94991147
_cell_angle_alpha   60.22583883
_cell_angle_beta   60.22584253
_cell_angle_gamma   61.66917784
_symmetry_Int_Tables_number   1
_chemical_formula_structural   Ca(BiO2)2
_chemical_formula_sum   'Ca2 Bi4 O8'
_cell_volume   244.38405562
_cell_formula_units_Z   2
loop_
 _symmetry_equiv_pos_site_id
 _symmetry_equiv_pos_as_xyz
  1  'x, y, z'
loop_
 _atom_site_type_symbol
 _atom_site_label
 _atom_site_symmetry_multiplicity
 _atom_site_fract_x
 _atom_site_fract_y
 _atom_site_fract_z
 _atom_site_occupancy
  Ca  Ca0  1  0.125000  0.625000  0.625000  1
  Ca  Ca1  1  0.625000  0.125000  0.625000  1
  Bi  Bi2  1  0.001600  0.001600  0.998400  1
  Bi  Bi3  1  0.248400  0.248400  0.251600  1
  Bi  Bi4  1  0.625000  0.625000  0.125000  1
  Bi  Bi5  1  0.625000  0.625000  0.625000  1
  O  O6  1  0.380643  0.380643  0.384640  1
  O  O7  1  0.387470  0.848607  0.381962  1
  O  O8  1  0.380643  0.380643  0.854074  1
  O  O9  1  0.848607  0.387470  0.381962  1
  O  O10  1  0.401393  0.862530  0.868038  1
  O  O11  1  0.862530  0.401393  0.868038  1
  O  O12  1  0.869357  0.869357  0.395926  1
  O  O13  1  0.869357  0.869357  0.865360  1
