# generated using pymatgen
data_Ba2YTlW2O7
_symmetry_space_group_name_H-M   'P 1'
_cell_length_a   4.21913397
_cell_length_b   4.03778591
_cell_length_c   13.13401972
_cell_angle_alpha   89.99301548
_cell_angle_beta   90.04256316
_cell_angle_gamma   90.86605625
_symmetry_Int_Tables_number   1
_chemical_formula_structural   Ba2YTlW2O7
_chemical_formula_sum   'Ba2 Y1 Tl1 W2 O7'
_cell_volume   223.72500676
_cell_formula_units_Z   1
loop_
 _symmetry_equiv_pos_site_id
 _symmetry_equiv_pos_as_xyz
  1  'x, y, z'
loop_
 _atom_site_type_symbol
 _atom_site_label
 _atom_site_symmetry_multiplicity
 _atom_site_fract_x
 _atom_site_fract_y
 _atom_site_fract_z
 _atom_site_occupancy
  Ba  Ba0  1  0.500041  0.499984  0.190278  1
  Ba  Ba1  1  0.499913  0.500005  0.810112  1
  Y  Y2  1  0.500106  0.500007  0.499976  1
  Tl  Tl3  1  0.000027  0.000029  0.000229  1
  W  W4  1  0.999962  0.000072  0.373925  1
  W  W5  1  0.000187  -0.000022  0.626056  1
  O  O6  1  0.000234  0.999878  0.217659  1
  O  O7  1  0.000067  0.499991  0.387224  1
  O  O8  1  0.500007  0.999968  0.385873  1
  O  O9  1  0.500076  0.000062  0.613385  1
  O  O10  1  0.499938  0.499952  0.999855  1
  O  O11  1  0.999816  0.500049  0.612666  1
  O  O12  1  0.999623  0.000025  0.782764  1
