# generated using pymatgen
data_ZnCuO2
_symmetry_space_group_name_H-M   'P 1'
_cell_length_a   2.98099943
_cell_length_b   7.94362752
_cell_length_c   8.59211673
_cell_angle_alpha   88.92600618
_cell_angle_beta   74.68169100
_cell_angle_gamma   88.00341948
_symmetry_Int_Tables_number   1
_chemical_formula_structural   ZnCuO2
_chemical_formula_sum   'Zn4 Cu4 O8'
_cell_volume   196.10380567
_cell_formula_units_Z   4
loop_
 _symmetry_equiv_pos_site_id
 _symmetry_equiv_pos_as_xyz
  1  'x, y, z'
loop_
 _atom_site_type_symbol
 _atom_site_label
 _atom_site_symmetry_multiplicity
 _atom_site_fract_x
 _atom_site_fract_y
 _atom_site_fract_z
 _atom_site_occupancy
  Zn  Zn0  1  0.377481  0.073858  0.277148  1
  Zn  Zn1  1  0.620795  0.906042  0.751028  1
  Zn  Zn2  1  0.132144  0.728713  0.122651  1
  Zn  Zn3  1  0.865348  0.251107  0.905349  1
  Cu  Cu4  1  0.435645  0.247337  0.579619  1
  Cu  Cu5  1  0.073743  0.415484  0.219667  1
  Cu  Cu6  1  0.920395  0.564243  0.808854  1
  Cu  Cu7  1  0.559661  0.732378  0.448719  1
  O  O8  1  0.951887  0.736644  0.586643  1
  O  O9  1  0.451628  0.390258  0.775094  1
  O  O10  1  0.544002  0.590118  0.252805  1
  O  O11  1  0.043524  0.243168  0.441493  1
  O  O12  1  0.096517  0.065246  0.764271  1
  O  O13  1  0.646514  0.272674  0.134180  1
  O  O14  1  0.901457  0.914876  0.264050  1
  O  O15  1  0.347538  0.707186  0.894052  1
