# generated using pymatgen
data_Ba2Mg2Tl2Cu3O10
_symmetry_space_group_name_H-M   'P 1'
_cell_length_a   3.79850143
_cell_length_b   3.76554404
_cell_length_c   18.74711289
_cell_angle_alpha   94.39564350
_cell_angle_beta   95.53207882
_cell_angle_gamma   89.96125269
_symmetry_Int_Tables_number   1
_chemical_formula_structural   Ba2Mg2Tl2Cu3O10
_chemical_formula_sum   'Ba2 Mg2 Tl2 Cu3 O10'
_cell_volume   266.10783312
_cell_formula_units_Z   1
loop_
 _symmetry_equiv_pos_site_id
 _symmetry_equiv_pos_as_xyz
  1  'x, y, z'
loop_
 _atom_site_type_symbol
 _atom_site_label
 _atom_site_symmetry_multiplicity
 _atom_site_fract_x
 _atom_site_fract_y
 _atom_site_fract_z
 _atom_site_occupancy
  Ba  Ba0  1  0.100481  0.166124  0.276757  1
  Ba  Ba1  1  0.803557  0.828492  0.722901  1
  Mg  Mg2  1  0.873736  0.913563  0.912756  1
  Mg  Mg3  1  0.995770  0.065522  0.086318  1
  Tl  Tl4  1  0.641102  0.722851  0.435132  1
  Tl  Tl5  1  0.200630  0.269567  0.564156  1
  Cu  Cu6  1  0.352128  0.376811  0.842772  1
  Cu  Cu7  1  0.536557  0.615283  0.156857  1
  Cu  Cu8  1  0.410403  0.517310  0.999837  1
  O  O9  1  0.352587  0.870228  0.827455  1
  O  O10  1  0.291599  0.311663  0.677073  1
  O  O11  1  0.859330  0.385828  0.857530  1
  O  O12  1  0.813570  0.764725  0.549130  1
  O  O13  1  0.919713  0.548596  0.020501  1
  O  O14  1  0.044095  0.632021  0.171722  1
  O  O15  1  0.628899  0.682024  0.322177  1
  O  O16  1  0.525996  0.109829  0.140154  1
  O  O17  1  0.268343  0.228908  0.450124  1
  O  O18  1  0.382589  0.008619  0.977613  1
