# generated using pymatgen
data_ZnCo2(CuO4)2
_symmetry_space_group_name_H-M   'P 1'
_cell_length_a   6.41443289
_cell_length_b   8.27399707
_cell_length_c   11.80290224
_cell_angle_alpha   90.00035085
_cell_angle_beta   91.67403388
_cell_angle_gamma   89.99878000
_symmetry_Int_Tables_number   1
_chemical_formula_structural   ZnCo2(CuO4)2
_chemical_formula_sum   'Zn4 Co8 Cu8 O32'
_cell_volume   626.14806519
_cell_formula_units_Z   4
loop_
 _symmetry_equiv_pos_site_id
 _symmetry_equiv_pos_as_xyz
  1  'x, y, z'
loop_
 _atom_site_type_symbol
 _atom_site_label
 _atom_site_symmetry_multiplicity
 _atom_site_fract_x
 _atom_site_fract_y
 _atom_site_fract_z
 _atom_site_occupancy
  Zn  Zn0  1  0.110814  0.158430  0.049036  1
  Zn  Zn1  1  0.889189  0.841567  0.950964  1
  Zn  Zn2  1  0.889187  0.658432  0.450967  1
  Zn  Zn3  1  0.110809  0.341564  0.549033  1
  Co  Co4  1  0.102859  0.463577  0.841039  1
  Co  Co5  1  0.102856  0.036423  0.341059  1
  Co  Co6  1  0.606772  0.091306  0.132225  1
  Co  Co7  1  0.897144  0.963581  0.658952  1
  Co  Co8  1  0.393212  0.908686  0.867775  1
  Co  Co9  1  0.393230  0.591306  0.367774  1
  Co  Co10  1  0.606786  0.408685  0.632226  1
  Co  Co11  1  0.897140  0.536426  0.158949  1
  Cu  Cu12  1  0.751121  0.193437  0.879262  1
  Cu  Cu13  1  0.379403  0.059373  0.632572  1
  Cu  Cu14  1  0.620601  0.940622  0.367430  1
  Cu  Cu15  1  0.248886  0.806555  0.120736  1
  Cu  Cu16  1  0.751120  0.306560  0.379267  1
  Cu  Cu17  1  0.379404  0.440625  0.132571  1
  Cu  Cu18  1  0.248872  0.693432  0.620735  1
  Cu  Cu19  1  0.620591  0.559370  0.867427  1
  O  O20  1  0.023901  0.225887  0.399490  1
  O  O21  1  0.654523  0.014334  0.598950  1
  O  O22  1  0.191031  0.578664  0.478873  1
  O  O23  1  0.808973  0.078671  0.021128  1
  O  O24  1  0.023890  0.274128  0.899489  1
  O  O25  1  0.976108  0.774121  0.600508  1
  O  O26  1  0.095042  0.107907  0.626693  1
  O  O27  1  0.511951  0.895286  0.141002  1
  O  O28  1  0.511938  0.604728  0.641001  1
  O  O29  1  0.326100  0.870426  0.716269  1
  O  O30  1  0.673902  0.370425  0.783731  1
  O  O31  1  0.488064  0.104729  0.859000  1
  O  O32  1  0.904941  0.892077  0.373314  1
  O  O33  1  0.875565  0.526240  0.301542  1
  O  O34  1  0.407802  0.271015  0.581356  1
  O  O35  1  0.407813  0.228983  0.081355  1
  O  O36  1  0.124435  0.026243  0.198441  1
  O  O37  1  0.488045  0.395288  0.358998  1
  O  O38  1  0.124438  0.473786  0.698482  1
  O  O39  1  0.808975  0.421338  0.521132  1
  O  O40  1  0.654514  0.485655  0.098944  1
  O  O41  1  0.673895  0.129568  0.283725  1
  O  O42  1  0.976103  0.725882  0.100513  1
  O  O43  1  0.095050  0.392077  0.126684  1
  O  O44  1  0.191021  0.921331  0.978868  1
  O  O45  1  0.592204  0.771015  0.918646  1
  O  O46  1  0.345498  0.985656  0.401056  1
  O  O47  1  0.345466  0.514335  0.901049  1
  O  O48  1  0.904968  0.607907  0.873309  1
  O  O49  1  0.592183  0.728984  0.418644  1
  O  O50  1  0.326102  0.629572  0.216274  1
  O  O51  1  0.875563  0.973781  0.801536  1
