# generated using pymatgen
data_MgTi2(CuO4)2
_symmetry_space_group_name_H-M   'P 1'
_cell_length_a   6.41655363
_cell_length_b   8.35095365
_cell_length_c   12.06249235
_cell_angle_alpha   90.00000000
_cell_angle_beta   91.56240241
_cell_angle_gamma   90.00000000
_symmetry_Int_Tables_number   1
_chemical_formula_structural   MgTi2(CuO4)2
_chemical_formula_sum   'Mg4 Ti8 Cu8 O32'
_cell_volume   646.12041218
_cell_formula_units_Z   4
loop_
 _symmetry_equiv_pos_site_id
 _symmetry_equiv_pos_as_xyz
  1  'x, y, z'
loop_
 _atom_site_type_symbol
 _atom_site_label
 _atom_site_symmetry_multiplicity
 _atom_site_fract_x
 _atom_site_fract_y
 _atom_site_fract_z
 _atom_site_occupancy
  Mg  Mg0  1  0.113450  0.157677  0.047677  1
  Mg  Mg1  1  0.886550  0.842323  0.952323  1
  Mg  Mg2  1  0.886550  0.657677  0.452323  1
  Mg  Mg3  1  0.113450  0.342323  0.547677  1
  Ti  Ti4  1  0.097845  0.458124  0.839583  1
  Ti  Ti5  1  0.097845  0.041876  0.339583  1
  Ti  Ti6  1  0.612955  0.089276  0.137067  1
  Ti  Ti7  1  0.902155  0.958124  0.660417  1
  Ti  Ti8  1  0.387045  0.910724  0.862933  1
  Ti  Ti9  1  0.387045  0.589276  0.362933  1
  Ti  Ti10  1  0.612955  0.410724  0.637067  1
  Ti  Ti11  1  0.902155  0.541876  0.160417  1
  Cu  Cu12  1  0.764995  0.182292  0.875502  1
  Cu  Cu13  1  0.373767  0.061801  0.628057  1
  Cu  Cu14  1  0.626233  0.938199  0.371943  1
  Cu  Cu15  1  0.235005  0.817708  0.124498  1
  Cu  Cu16  1  0.764995  0.317708  0.375502  1
  Cu  Cu17  1  0.373767  0.438199  0.128057  1
  Cu  Cu18  1  0.235005  0.682292  0.624498  1
  Cu  Cu19  1  0.626233  0.561801  0.871943  1
  O  O20  1  0.031518  0.243223  0.397122  1
  O  O21  1  0.649852  0.014643  0.604358  1
  O  O22  1  0.193249  0.575542  0.475476  1
  O  O23  1  0.806751  0.075542  0.024524  1
  O  O24  1  0.031518  0.256777  0.897122  1
  O  O25  1  0.968482  0.756777  0.602878  1
  O  O26  1  0.092498  0.112617  0.613901  1
  O  O27  1  0.500269  0.895560  0.141988  1
  O  O28  1  0.500269  0.604440  0.641988  1
  O  O29  1  0.304804  0.874922  0.708726  1
  O  O30  1  0.695196  0.374922  0.791274  1
  O  O31  1  0.499731  0.104440  0.858012  1
  O  O32  1  0.907502  0.887384  0.386099  1
  O  O33  1  0.883201  0.533096  0.307888  1
  O  O34  1  0.418033  0.271406  0.585309  1
  O  O35  1  0.418033  0.228594  0.085309  1
  O  O36  1  0.116799  0.033096  0.192112  1
  O  O37  1  0.499731  0.395560  0.358012  1
  O  O38  1  0.116799  0.466904  0.692112  1
  O  O39  1  0.806751  0.424458  0.524524  1
  O  O40  1  0.649852  0.485357  0.104358  1
  O  O41  1  0.695196  0.125078  0.291274  1
  O  O42  1  0.968482  0.743223  0.102878  1
  O  O43  1  0.092498  0.387383  0.113901  1
  O  O44  1  0.193249  0.924458  0.975476  1
  O  O45  1  0.581967  0.771406  0.914691  1
  O  O46  1  0.350148  0.985357  0.395642  1
  O  O47  1  0.350148  0.514643  0.895642  1
  O  O48  1  0.907502  0.612616  0.886099  1
  O  O49  1  0.581967  0.728594  0.414691  1
  O  O50  1  0.304804  0.625078  0.208726  1
  O  O51  1  0.883201  0.966904  0.807888  1
