# generated using pymatgen
data_Mg2TaNiO6
_symmetry_space_group_name_H-M   'P 1'
_cell_length_a   5.10962833
_cell_length_b   5.39557579
_cell_length_c   7.51286802
_cell_angle_alpha   90.00000000
_cell_angle_beta   90.00000000
_cell_angle_gamma   87.78237080
_symmetry_Int_Tables_number   1
_chemical_formula_structural   Mg2TaNiO6
_chemical_formula_sum   'Mg4 Ta2 Ni2 O12'
_cell_volume   206.97004016
_cell_formula_units_Z   2
loop_
 _symmetry_equiv_pos_site_id
 _symmetry_equiv_pos_as_xyz
  1  'x, y, z'
loop_
 _atom_site_type_symbol
 _atom_site_label
 _atom_site_symmetry_multiplicity
 _atom_site_fract_x
 _atom_site_fract_y
 _atom_site_fract_z
 _atom_site_occupancy
  Mg  Mg0  1  0.026626  0.948331  0.250000  1
  Mg  Mg1  1  0.487077  0.426812  0.250000  1
  Mg  Mg2  1  0.512923  0.573188  0.750000  1
  Mg  Mg3  1  0.973374  0.051669  0.750000  1
  Ta  Ta4  1  0.000000  0.500000  0.000000  1
  Ta  Ta5  1  0.000000  0.500000  0.500000  1
  Ni  Ni6  1  0.500000  0.000000  0.000000  1
  Ni  Ni7  1  0.500000  0.000000  0.500000  1
  O  O8  1  0.814259  0.813559  0.566975  1
  O  O9  1  0.308333  0.682145  0.430314  1
  O  O10  1  0.185741  0.186441  0.433025  1
  O  O11  1  0.691667  0.317855  0.930314  1
  O  O12  1  0.134882  0.446109  0.750000  1
  O  O13  1  0.691667  0.317855  0.569686  1
  O  O14  1  0.308333  0.682145  0.069686  1
  O  O15  1  0.814259  0.813559  0.933025  1
  O  O16  1  0.634643  0.065235  0.250000  1
  O  O17  1  0.185741  0.186441  0.066975  1
  O  O18  1  0.365357  0.934765  0.750000  1
  O  O19  1  0.865117  0.553891  0.250000  1
