# generated using pymatgen
data_Ca2Ta2VO8
_symmetry_space_group_name_H-M   'P 1'
_cell_length_a   5.51596033
_cell_length_b   6.31761967
_cell_length_c   10.09232744
_cell_angle_alpha   108.24591209
_cell_angle_beta   91.56703178
_cell_angle_gamma   90.00036087
_symmetry_Int_Tables_number   1
_chemical_formula_structural   Ca2Ta2VO8
_chemical_formula_sum   'Ca4 Ta4 V2 O16'
_cell_volume   333.87358474
_cell_formula_units_Z   2
loop_
 _symmetry_equiv_pos_site_id
 _symmetry_equiv_pos_as_xyz
  1  'x, y, z'
loop_
 _atom_site_type_symbol
 _atom_site_label
 _atom_site_symmetry_multiplicity
 _atom_site_fract_x
 _atom_site_fract_y
 _atom_site_fract_z
 _atom_site_occupancy
  Ca  Ca0  1  0.755362  0.471883  0.583731  1
  Ca  Ca1  1  0.742292  0.888027  0.415751  1
  Ca  Ca2  1  0.242374  0.526690  0.416068  1
  Ca  Ca3  1  0.255311  0.110449  0.583883  1
  Ta  Ta4  1  0.758170  0.261030  0.224798  1
  Ta  Ta5  1  0.739451  0.035977  0.774878  1
  Ta  Ta6  1  0.239429  0.737338  0.774973  1
  Ta  Ta7  1  0.258101  0.962300  0.224797  1
  V  V8  1  0.748779  0.633862  0.999893  1
  V  V9  1  0.248742  0.364304  0.999869  1
  O  O10  1  0.090963  0.195212  0.141783  1
  O  O11  1  0.406525  0.053401  0.857790  1
  O  O12  1  0.906472  0.802692  0.857761  1
  O  O13  1  0.591150  0.944764  0.142077  1
  O  O14  1  0.595739  0.409345  0.114376  1
  O  O15  1  0.901720  0.294815  0.885332  1
  O  O16  1  0.401699  0.588900  0.885379  1
  O  O17  1  0.095809  0.703358  0.114503  1
  O  O18  1  0.500082  0.242010  0.361403  1
  O  O19  1  0.997570  0.880240  0.638320  1
  O  O20  1  0.344219  0.836729  0.370727  1
  O  O21  1  0.153333  0.465746  0.629112  1
  O  O22  1  0.653374  0.161824  0.629075  1
  O  O23  1  0.844439  0.532707  0.370532  1
  O  O24  1  0.000091  0.118265  0.361433  1
  O  O25  1  0.497522  0.756475  0.638311  1
