# generated using pymatgen
data_MgCr3(SO4)6
_symmetry_space_group_name_H-M   'P 1'
_cell_length_a   8.33311481
_cell_length_b   8.87223086
_cell_length_c   8.33311486
_cell_angle_alpha   118.00949328
_cell_angle_beta   59.99999333
_cell_angle_gamma   118.00949111
_symmetry_Int_Tables_number   1
_chemical_formula_structural   MgCr3(SO4)6
_chemical_formula_sum   'Mg1 Cr3 S6 O24'
_cell_volume   448.29484849
_cell_formula_units_Z   1
loop_
 _symmetry_equiv_pos_site_id
 _symmetry_equiv_pos_as_xyz
  1  'x, y, z'
loop_
 _atom_site_type_symbol
 _atom_site_label
 _atom_site_symmetry_multiplicity
 _atom_site_fract_x
 _atom_site_fract_y
 _atom_site_fract_z
 _atom_site_occupancy
  Mg  Mg0  1  0.147360  0.442082  0.147360  1
  Cr  Cr1  1  0.355220  0.065661  0.355220  1
  Cr  Cr2  1  0.643918  0.931754  0.643918  1
  Cr  Cr3  1  0.849975  0.549925  0.849975  1
  S  S4  1  0.038440  0.250390  0.467199  1
  S  S5  1  0.539233  0.748733  0.252665  1
  S  S6  1  0.252665  0.748733  0.956836  1
  S  S7  1  0.744751  0.250390  0.038440  1
  S  S8  1  0.467199  0.250390  0.744751  1
  S  S9  1  0.956836  0.748733  0.539233  1
  O  O10  1  0.297196  0.922767  0.108047  1
  O  O11  1  0.108047  0.922767  0.517525  1
  O  O12  1  0.013173  0.292393  0.333679  1
  O  O13  1  0.021746  0.394675  0.659582  1
  O  O14  1  0.352689  0.606453  0.281110  1
  O  O15  1  0.047697  0.706502  0.981539  1
  O  O16  1  0.517525  0.922767  0.297196  1
  O  O17  1  0.235188  0.233088  0.386693  1
  O  O18  1  0.677266  0.706502  0.047697  1
  O  O19  1  0.381444  0.771756  0.760641  1
  O  O20  1  0.629670  0.771756  0.381444  1
  O  O21  1  0.281110  0.606453  0.972654  1
  O  O22  1  0.713348  0.394675  0.021746  1
  O  O23  1  0.386693  0.233088  0.611207  1
  O  O24  1  0.611207  0.233088  0.235188  1
  O  O25  1  0.333679  0.292393  0.945541  1
  O  O26  1  0.760641  0.771756  0.629670  1
  O  O27  1  0.495354  0.076769  0.689047  1
  O  O28  1  0.945541  0.292393  0.013173  1
  O  O29  1  0.659582  0.394675  0.713348  1
  O  O30  1  0.972654  0.606453  0.352689  1
  O  O31  1  0.981539  0.706502  0.677266  1
  O  O32  1  0.892367  0.076769  0.495354  1
  O  O33  1  0.689047  0.076769  0.892367  1
