# generated using pymatgen
data_Ca2CoO3
_symmetry_space_group_name_H-M   'P 1'
_cell_length_a   3.25876665
_cell_length_b   3.25876689
_cell_length_c   11.02735498
_cell_angle_alpha   84.59185893
_cell_angle_beta   84.59185833
_cell_angle_gamma   90.00151044
_symmetry_Int_Tables_number   1
_chemical_formula_structural   Ca2CoO3
_chemical_formula_sum   'Ca2 Co1 O3'
_cell_volume   116.06072566
_cell_formula_units_Z   1
loop_
 _symmetry_equiv_pos_site_id
 _symmetry_equiv_pos_as_xyz
  1  'x, y, z'
loop_
 _atom_site_type_symbol
 _atom_site_label
 _atom_site_symmetry_multiplicity
 _atom_site_fract_x
 _atom_site_fract_y
 _atom_site_fract_z
 _atom_site_occupancy
  Ca  Ca0  1  0.304813  0.304813  0.289603  1
  Ca  Ca1  1  0.173930  0.173930  0.702070  1
  Co  Co2  1  0.741254  0.741254  0.495838  1
  O  O3  1  0.675077  0.675077  0.698032  1
  O  O4  1  0.235594  0.235594  0.495824  1
  O  O5  1  0.803332  0.803332  0.293633  1
