# generated using pymatgen
data_Ba2YTlFe2O7
_symmetry_space_group_name_H-M   'P 1'
_cell_length_a   3.96443729
_cell_length_b   3.96636731
_cell_length_c   12.96003330
_cell_angle_alpha   90.07904671
_cell_angle_beta   89.99553945
_cell_angle_gamma   89.98597895
_symmetry_Int_Tables_number   1
_chemical_formula_structural   Ba2YTlFe2O7
_chemical_formula_sum   'Ba2 Y1 Tl1 Fe2 O7'
_cell_volume   203.78873469
_cell_formula_units_Z   1
loop_
 _symmetry_equiv_pos_site_id
 _symmetry_equiv_pos_as_xyz
  1  'x, y, z'
loop_
 _atom_site_type_symbol
 _atom_site_label
 _atom_site_symmetry_multiplicity
 _atom_site_fract_x
 _atom_site_fract_y
 _atom_site_fract_z
 _atom_site_occupancy
  Ba  Ba0  1  0.500070  0.500119  0.200766  1
  Ba  Ba1  1  0.500012  0.499811  0.799326  1
  Y  Y2  1  0.499873  0.500119  0.499944  1
  Tl  Tl3  1  0.000136  0.000031  0.000068  1
  Fe  Fe4  1  0.000026  0.999874  0.371908  1
  Fe  Fe5  1  0.999939  0.000165  0.627930  1
  O  O6  1  0.000048  0.000159  0.166540  1
  O  O7  1  0.000014  0.500069  0.389293  1
  O  O8  1  0.499980  0.999925  0.389368  1
  O  O9  1  0.499986  0.000081  0.610686  1
  O  O10  1  0.499918  0.499906  0.000056  1
  O  O11  1  0.999995  0.499964  0.610496  1
  O  O12  1  0.000003  0.999779  0.833620  1
