# generated using pymatgen
data_Ca(CoO2)4
_symmetry_space_group_name_H-M   'P 1'
_cell_length_a   6.38433234
_cell_length_b   6.38433217
_cell_length_c   6.38433294
_cell_angle_alpha   52.42655857
_cell_angle_beta   52.42655491
_cell_angle_gamma   52.42655923
_symmetry_Int_Tables_number   1
_chemical_formula_structural   Ca(CoO2)4
_chemical_formula_sum   'Ca1 Co4 O8'
_cell_volume   151.28345070
_cell_formula_units_Z   1
loop_
 _symmetry_equiv_pos_site_id
 _symmetry_equiv_pos_as_xyz
  1  'x, y, z'
loop_
 _atom_site_type_symbol
 _atom_site_label
 _atom_site_symmetry_multiplicity
 _atom_site_fract_x
 _atom_site_fract_y
 _atom_site_fract_z
 _atom_site_occupancy
  Ca  Ca0  1  0.500000  0.500001  0.499999  1
  Co  Co1  1  0.500001  0.999999  0.500001  1
  Co  Co2  1  0.999999  0.500000  0.500001  1
  Co  Co3  1  0.500000  0.500000  0.000000  1
  Co  Co4  1  0.000000  0.000000  0.000000  1
  O  O5  1  0.772763  0.275613  0.772763  1
  O  O6  1  0.227236  0.227237  0.724387  1
  O  O7  1  0.227236  0.724388  0.227236  1
  O  O8  1  0.724386  0.227237  0.227237  1
  O  O9  1  0.277212  0.277214  0.277212  1
  O  O10  1  0.722788  0.722788  0.722788  1
  O  O11  1  0.275614  0.772764  0.772763  1
  O  O12  1  0.772764  0.772764  0.275613  1
