# generated using pymatgen
data_CaFeO3
_symmetry_space_group_name_H-M   'P 1'
_cell_length_a   5.37886835
_cell_length_b   5.44383439
_cell_length_c   7.61043443
_cell_angle_alpha   89.99397190
_cell_angle_beta   90.00650106
_cell_angle_gamma   90.00127650
_symmetry_Int_Tables_number   1
_chemical_formula_structural   CaFeO3
_chemical_formula_sum   'Ca4 Fe4 O12'
_cell_volume   222.84621537
_cell_formula_units_Z   4
loop_
 _symmetry_equiv_pos_site_id
 _symmetry_equiv_pos_as_xyz
  1  'x, y, z'
loop_
 _atom_site_type_symbol
 _atom_site_label
 _atom_site_symmetry_multiplicity
 _atom_site_fract_x
 _atom_site_fract_y
 _atom_site_fract_z
 _atom_site_occupancy
  Ca  Ca0  1  0.991518  0.043167  0.249999  1
  Ca  Ca1  1  0.491518  0.456828  0.750008  1
  Ca  Ca2  1  0.508482  0.543190  0.250000  1
  Ca  Ca3  1  0.008491  0.956816  0.750017  1
  Fe  Fe4  1  0.500021  0.999994  -0.000036  1
  Fe  Fe5  1  0.000028  0.500033  0.000012  1
  Fe  Fe6  1  0.000024  0.499952  0.499963  1
  Fe  Fe7  1  0.499973  0.000004  0.500006  1
  O  O8  1  0.926597  0.516467  0.750005  1
  O  O9  1  0.426603  0.983546  0.250052  1
  O  O10  1  0.573394  0.016456  0.749963  1
  O  O11  1  0.073390  0.483535  0.249997  1
  O  O12  1  0.709972  0.289255  0.461615  1
  O  O13  1  0.209998  0.210717  0.538386  1
  O  O14  1  0.790039  0.789243  0.038387  1
  O  O15  1  0.289976  0.710682  0.961614  1
  O  O16  1  0.709997  0.289290  0.038388  1
  O  O17  1  0.209950  0.210764  0.961620  1
  O  O18  1  0.290040  0.710759  0.538385  1
  O  O19  1  0.789989  0.789304  0.461619  1
