# generated using pymatgen
data_MoWO6
_symmetry_space_group_name_H-M   'P 1'
_cell_length_a   5.49010897
_cell_length_b   5.48887373
_cell_length_c   7.79002413
_cell_angle_alpha   89.58075256
_cell_angle_beta   134.73350787
_cell_angle_gamma   59.87599170
_symmetry_Int_Tables_number   1
_chemical_formula_structural   MoWO6
_chemical_formula_sum   'Mo1 W1 O6'
_cell_volume   116.79813433
_cell_formula_units_Z   1
loop_
 _symmetry_equiv_pos_site_id
 _symmetry_equiv_pos_as_xyz
  1  'x, y, z'
loop_
 _atom_site_type_symbol
 _atom_site_label
 _atom_site_symmetry_multiplicity
 _atom_site_fract_x
 _atom_site_fract_y
 _atom_site_fract_z
 _atom_site_occupancy
  Mo  Mo0  1  0.012547  0.973426  0.523031  1
  W  W1  1  0.010709  0.973585  0.021767  1
  O  O2  1  0.989786  0.953304  0.244798  1
  O  O3  1  0.003051  0.949198  0.750240  1
  O  O4  1  0.485471  0.454529  0.737865  1
  O  O5  1  0.498417  0.951138  0.249464  1
  O  O6  1  0.500882  0.947191  0.747004  1
  O  O7  1  0.494206  0.450944  0.244914  1
