# generated using pymatgen
data_Mg(VS2)2
_symmetry_space_group_name_H-M   'P 1'
_cell_length_a   7.27599062
_cell_length_b   7.27056295
_cell_length_c   7.26956558
_cell_angle_alpha   60.07230083
_cell_angle_beta   59.96935136
_cell_angle_gamma   59.97707733
_symmetry_Int_Tables_number   1
_chemical_formula_structural   Mg(VS2)2
_chemical_formula_sum   'Mg2 V4 S8'
_cell_volume   271.96575748
_cell_formula_units_Z   2
loop_
 _symmetry_equiv_pos_site_id
 _symmetry_equiv_pos_as_xyz
  1  'x, y, z'
loop_
 _atom_site_type_symbol
 _atom_site_label
 _atom_site_symmetry_multiplicity
 _atom_site_fract_x
 _atom_site_fract_y
 _atom_site_fract_z
 _atom_site_occupancy
  Mg  Mg0  1  0.874999  0.874990  0.875015  1
  Mg  Mg1  1  0.125002  0.125008  0.124985  1
  V  V2  1  0.500002  0.500000  0.499999  1
  V  V3  1  0.500002  0.500000  -0.000000  1
  V  V4  1  0.999999  0.499998  0.500001  1
  V  V5  1  0.500000  0.000001  0.499999  1
  S  S6  1  0.739021  0.738377  0.738427  1
  S  S7  1  0.261582  0.260996  0.715851  1
  S  S8  1  0.261617  0.715795  0.260982  1
  S  S9  1  0.715822  0.261625  0.261578  1
  S  S10  1  0.738381  0.284202  0.739023  1
  S  S11  1  0.284178  0.738374  0.738423  1
  S  S12  1  0.260980  0.261623  0.261572  1
  S  S13  1  0.738418  0.739006  0.284147  1
