# generated using pymatgen
data_Ca(FeO2)2
_symmetry_space_group_name_H-M   'P 1'
_cell_length_a   6.23318269
_cell_length_b   6.22705445
_cell_length_c   6.19177350
_cell_angle_alpha   90.94440022
_cell_angle_beta   118.95181555
_cell_angle_gamma   119.23054013
_symmetry_Int_Tables_number   1
_chemical_formula_structural   Ca(FeO2)2
_chemical_formula_sum   'Ca2 Fe4 O8'
_cell_volume   173.16211798
_cell_formula_units_Z   2
loop_
 _symmetry_equiv_pos_site_id
 _symmetry_equiv_pos_as_xyz
  1  'x, y, z'
loop_
 _atom_site_type_symbol
 _atom_site_label
 _atom_site_symmetry_multiplicity
 _atom_site_fract_x
 _atom_site_fract_y
 _atom_site_fract_z
 _atom_site_occupancy
  Ca  Ca0  1  0.246335  0.122229  0.876858  1
  Ca  Ca1  1  0.753636  0.877775  0.123136  1
  Fe  Fe2  1  0.500108  0.000031  0.500088  1
  Fe  Fe3  1  0.500145  0.500047  0.500118  1
  Fe  Fe4  1  -0.000168  0.499921  -0.000281  1
  Fe  Fe5  1  0.000012  0.499983  0.500025  1
  O  O6  1  0.037613  0.730030  0.261865  1
  O  O7  1  0.452625  0.728506  0.697202  1
  O  O8  1  0.482911  0.740537  0.280629  1
  O  O9  1  0.960443  0.692977  0.740519  1
  O  O10  1  0.517056  0.259459  0.719363  1
  O  O11  1  0.547354  0.271498  0.302797  1
  O  O12  1  0.039557  0.307013  0.259517  1
  O  O13  1  0.962374  0.269994  0.738165  1
