# generated using pymatgen
data_LaMgCrFeO6
_symmetry_space_group_name_H-M   'P 1'
_cell_length_a   5.49842692
_cell_length_b   5.34908679
_cell_length_c   7.62917400
_cell_angle_alpha   89.76050983
_cell_angle_beta   90.00000000
_cell_angle_gamma   90.00000000
_symmetry_Int_Tables_number   1
_chemical_formula_structural   LaMgCrFeO6
_chemical_formula_sum   'La2 Mg2 Cr2 Fe2 O12'
_cell_volume   224.38397019
_cell_formula_units_Z   2
loop_
 _symmetry_equiv_pos_site_id
 _symmetry_equiv_pos_as_xyz
  1  'x, y, z'
loop_
 _atom_site_type_symbol
 _atom_site_label
 _atom_site_symmetry_multiplicity
 _atom_site_fract_x
 _atom_site_fract_y
 _atom_site_fract_z
 _atom_site_occupancy
  La  La0  1  0.034077  0.990018  0.248663  1
  La  La1  1  0.465923  0.490018  0.748663  1
  Mg  Mg2  1  0.555421  0.530195  0.250951  1
  Mg  Mg3  1  0.944579  0.030195  0.750951  1
  Cr  Cr4  1  0.504546  -0.000126  0.496734  1
  Cr  Cr5  1  0.995454  0.499874  0.996734  1
  Fe  Fe6  1  0.496943  0.998641  0.000631  1
  Fe  Fe7  1  0.003057  0.498641  0.500631  1
  O  O8  1  0.018701  0.629442  0.757852  1
  O  O9  1  0.198119  0.194553  0.940519  1
  O  O10  1  0.207909  0.187440  0.558326  1
  O  O11  1  0.292091  0.687440  0.058326  1
  O  O12  1  0.301881  0.694553  0.440519  1
  O  O13  1  0.481299  0.129442  0.257851  1
  O  O14  1  0.541793  0.922792  0.743668  1
  O  O15  1  0.733355  0.270452  0.555944  1
  O  O16  1  0.736607  0.276592  0.946712  1
  O  O17  1  0.763393  0.776592  0.446712  1
  O  O18  1  0.766645  0.770452  0.055944  1
  O  O19  1  0.958207  0.422792  0.243668  1
