# generated using pymatgen
data_VZn(GeO3)2
_symmetry_space_group_name_H-M   'P 1'
_cell_length_a   5.53183347
_cell_length_b   9.38558353
_cell_length_c   9.84020173
_cell_angle_alpha   90.00000000
_cell_angle_beta   102.77686878
_cell_angle_gamma   90.00000000
_symmetry_Int_Tables_number   1
_chemical_formula_structural   VZn(GeO3)2
_chemical_formula_sum   'V4 Zn4 Ge8 O24'
_cell_volume   498.24771301
_cell_formula_units_Z   4
loop_
 _symmetry_equiv_pos_site_id
 _symmetry_equiv_pos_as_xyz
  1  'x, y, z'
loop_
 _atom_site_type_symbol
 _atom_site_label
 _atom_site_symmetry_multiplicity
 _atom_site_fract_x
 _atom_site_fract_y
 _atom_site_fract_z
 _atom_site_occupancy
  V  V0  1  0.966260  0.655298  0.246687  1
  V  V1  1  0.533740  0.155298  0.753313  1
  V  V2  1  0.033740  0.344702  0.753313  1
  V  V3  1  0.466260  0.844702  0.246687  1
  Zn  Zn4  1  0.458195  0.498319  0.244599  1
  Zn  Zn5  1  0.041805  0.998319  0.755401  1
  Zn  Zn6  1  0.541805  0.501681  0.755401  1
  Zn  Zn7  1  0.958195  0.001681  0.244599  1
  Ge  Ge8  1  0.814132  0.336103  0.057718  1
  Ge  Ge9  1  0.685868  0.836103  0.942282  1
  Ge  Ge10  1  0.185868  0.663897  0.942282  1
  Ge  Ge11  1  0.314132  0.163897  0.057718  1
  Ge  Ge12  1  0.250973  0.340885  0.454041  1
  Ge  Ge13  1  0.249027  0.840885  0.545959  1
  Ge  Ge14  1  0.749027  0.659115  0.545959  1
  Ge  Ge15  1  0.750973  0.159115  0.454041  1
  O  O16  1  0.506374  0.280142  0.384002  1
  O  O17  1  0.993626  0.780142  0.615998  1
  O  O18  1  0.493626  0.719858  0.615998  1
  O  O19  1  0.006374  0.219858  0.384002  1
  O  O20  1  0.148553  0.314694  0.108556  1
  O  O21  1  0.351447  0.814694  0.891445  1
  O  O22  1  0.851447  0.685306  0.891445  1
  O  O23  1  0.648553  0.185306  0.108556  1
  O  O24  1  0.714050  0.993611  0.371025  1
  O  O25  1  0.785950  0.493611  0.628975  1
  O  O26  1  0.285950  0.006389  0.628975  1
  O  O27  1  0.214050  0.506389  0.371025  1
  O  O28  1  0.229578  0.014911  0.142483  1
  O  O29  1  0.270422  0.514911  0.857517  1
  O  O30  1  0.770422  0.985089  0.857517  1
  O  O31  1  0.729578  0.485089  0.142483  1
  O  O32  1  0.745487  0.337580  0.872310  1
  O  O33  1  0.754513  0.837580  0.127690  1
  O  O34  1  0.254513  0.662420  0.127690  1
  O  O35  1  0.245487  0.162420  0.872310  1
  O  O36  1  0.319363  0.337123  0.638024  1
  O  O37  1  0.180637  0.837123  0.361976  1
  O  O38  1  0.680637  0.662877  0.361976  1
  O  O39  1  0.819363  0.162877  0.638024  1
