# generated using pymatgen
data_ZnCrP2O7
_symmetry_space_group_name_H-M   'P 1'
_cell_length_a   7.10595395
_cell_length_b   8.45316076
_cell_length_c   9.61521629
_cell_angle_alpha   90.00000000
_cell_angle_beta   114.00034181
_cell_angle_gamma   90.00000000
_symmetry_Int_Tables_number   1
_chemical_formula_structural   ZnCrP2O7
_chemical_formula_sum   'Zn4 Cr4 P8 O28'
_cell_volume   527.63012562
_cell_formula_units_Z   4
loop_
 _symmetry_equiv_pos_site_id
 _symmetry_equiv_pos_as_xyz
  1  'x, y, z'
loop_
 _atom_site_type_symbol
 _atom_site_label
 _atom_site_symmetry_multiplicity
 _atom_site_fract_x
 _atom_site_fract_y
 _atom_site_fract_z
 _atom_site_occupancy
  Zn  Zn0  1  0.121566  0.937934  0.813516  1
  Zn  Zn1  1  0.378434  0.437934  0.686484  1
  Zn  Zn2  1  0.621566  0.562066  0.313516  1
  Zn  Zn3  1  0.878434  0.062066  0.186484  1
  Cr  Cr4  1  0.372327  0.066486  0.612161  1
  Cr  Cr5  1  0.627673  0.933514  0.387839  1
  Cr  Cr6  1  0.127673  0.566486  0.887839  1
  Cr  Cr7  1  0.872327  0.433514  0.112161  1
  P  P8  1  0.179494  0.738278  0.248708  1
  P  P9  1  0.434041  0.228431  0.972524  1
  P  P10  1  0.679494  0.761722  0.748708  1
  P  P11  1  0.934041  0.271569  0.472524  1
  P  P12  1  0.320506  0.238278  0.251292  1
  P  P13  1  0.065959  0.728431  0.527476  1
  P  P14  1  0.565959  0.771569  0.027476  1
  P  P15  1  0.820506  0.261722  0.751292  1
  O  O16  1  0.345414  0.189243  0.096374  1
  O  O17  1  0.576364  0.603992  0.692973  1
  O  O18  1  0.076364  0.896008  0.192973  1
  O  O19  1  0.348514  0.389778  0.895661  1
  O  O20  1  0.654586  0.810757  0.903626  1
  O  O21  1  0.411381  0.102255  0.363425  1
  O  O22  1  0.651486  0.610222  0.104339  1
  O  O23  1  0.363485  0.090842  0.860876  1
  O  O24  1  0.171693  0.260841  0.554292  1
  O  O25  1  0.588619  0.897745  0.636575  1
  O  O26  1  0.911381  0.397745  0.863425  1
  O  O27  1  0.916208  0.755084  0.799872  1
  O  O28  1  0.583792  0.255084  0.700128  1
  O  O29  1  0.845414  0.310757  0.596374  1
  O  O30  1  0.088619  0.602255  0.136575  1
  O  O31  1  0.923636  0.103992  0.807027  1
  O  O32  1  0.083792  0.244916  0.200128  1
  O  O33  1  0.636515  0.909158  0.139124  1
  O  O34  1  0.671693  0.239159  0.054292  1
  O  O35  1  0.328307  0.760841  0.945708  1
  O  O36  1  0.151486  0.889778  0.604339  1
  O  O37  1  0.863485  0.409158  0.360876  1
  O  O38  1  0.136515  0.590842  0.639124  1
  O  O39  1  0.423636  0.396008  0.307027  1
  O  O40  1  0.416208  0.744916  0.299872  1
  O  O41  1  0.848514  0.110222  0.395661  1
  O  O42  1  0.828307  0.739159  0.445708  1
  O  O43  1  0.154586  0.689243  0.403626  1
