# generated using pymatgen
data_AlFe3Se2ClO8
_symmetry_space_group_name_H-M   'P 1'
_cell_length_a   5.57054128
_cell_length_b   8.29611112
_cell_length_c   9.92966329
_cell_angle_alpha   89.35619967
_cell_angle_beta   91.24093210
_cell_angle_gamma   89.87259674
_symmetry_Int_Tables_number   1
_chemical_formula_structural   AlFe3Se2ClO8
_chemical_formula_sum   'Al2 Fe6 Se4 Cl2 O16'
_cell_volume   458.74978282
_cell_formula_units_Z   2
loop_
 _symmetry_equiv_pos_site_id
 _symmetry_equiv_pos_as_xyz
  1  'x, y, z'
loop_
 _atom_site_type_symbol
 _atom_site_label
 _atom_site_symmetry_multiplicity
 _atom_site_fract_x
 _atom_site_fract_y
 _atom_site_fract_z
 _atom_site_occupancy
  Al  Al0  1  0.253637  0.157016  0.248154  1
  Al  Al1  1  0.747494  0.843001  0.751197  1
  Fe  Fe2  1  0.500616  0.999426  0.000304  1
  Fe  Fe3  1  0.499497  0.000421  0.500399  1
  Fe  Fe4  1  0.999077  0.999377  0.000625  1
  Fe  Fe5  1  0.762722  0.227550  0.750161  1
  Fe  Fe6  1  0.236478  0.772603  0.249522  1
  Fe  Fe7  1  0.000807  0.000596  0.500371  1
  Se  Se8  1  0.751690  0.362360  0.084999  1
  Se  Se9  1  0.248336  0.637743  0.915544  1
  Se  Se10  1  0.747129  0.362394  0.415892  1
  Se  Se11  1  0.252881  0.637508  0.584521  1
  Cl  Cl12  1  0.242034  0.178058  0.753110  1
  Cl  Cl13  1  0.758318  0.821890  0.243307  1
  O  O14  1  0.254889  0.978912  0.130764  1
  O  O15  1  0.248979  0.615813  0.085590  1
  O  O16  1  0.747359  0.385253  0.585184  1
  O  O17  1  0.508972  0.227891  0.109838  1
  O  O18  1  0.500519  0.771725  0.611451  1
  O  O19  1  0.010749  0.772160  0.607575  1
  O  O20  1  0.745241  0.021675  0.869137  1
  O  O21  1  0.999529  0.228561  0.113629  1
  O  O22  1  0.989295  0.228142  0.392725  1
  O  O23  1  0.000233  0.771270  0.886610  1
  O  O24  1  0.246948  0.978346  0.368407  1
  O  O25  1  0.753215  0.021115  0.631256  1
  O  O26  1  0.491010  0.771888  0.890441  1
  O  O27  1  0.499323  0.228456  0.388757  1
  O  O28  1  0.750568  0.384548  0.914987  1
  O  O29  1  0.252453  0.614302  0.415543  1
