# generated using pymatgen
data_Ca3(CoO3)2
_symmetry_space_group_name_H-M   'P 1'
_cell_length_a   6.55560194
_cell_length_b   3.39804079
_cell_length_c   9.95464344
_cell_angle_alpha   84.30360381
_cell_angle_beta   83.90226811
_cell_angle_gamma   89.14622088
_symmetry_Int_Tables_number   1
_chemical_formula_structural   Ca3(CoO3)2
_chemical_formula_sum   'Ca3 Co2 O6'
_cell_volume   219.40603598
_cell_formula_units_Z   1
loop_
 _symmetry_equiv_pos_site_id
 _symmetry_equiv_pos_as_xyz
  1  'x, y, z'
loop_
 _atom_site_type_symbol
 _atom_site_label
 _atom_site_symmetry_multiplicity
 _atom_site_fract_x
 _atom_site_fract_y
 _atom_site_fract_z
 _atom_site_occupancy
  Ca  Ca0  1  0.152188  0.313643  0.284072  1
  Ca  Ca1  1  0.656636  0.315004  0.277217  1
  Ca  Ca2  1  0.086433  0.171699  0.716419  1
  Co  Co3  1  0.384526  0.808415  0.507801  1
  Co  Co4  1  0.853687  0.822342  0.513597  1
  O  O5  1  0.402563  0.798471  0.300851  1
  O  O6  1  0.900107  0.804359  0.290854  1
  O  O7  1  0.316817  0.666181  0.680538  1
  O  O8  1  0.863670  0.678024  0.687144  1
  O  O9  1  0.111807  0.147728  0.495935  1
  O  O10  1  0.618820  0.168637  0.494873  1
