# generated using pymatgen
data_Al4(FeO4)3
_symmetry_space_group_name_H-M   'P 1'
_cell_length_a   5.78446203
_cell_length_b   5.78399562
_cell_length_c   17.38180650
_cell_angle_alpha   59.95730604
_cell_angle_beta   59.99251092
_cell_angle_gamma   59.78215512
_symmetry_Int_Tables_number   1
_chemical_formula_structural   Al4(FeO4)3
_chemical_formula_sum   'Al8 Fe6 O24'
_cell_volume   410.38017922
_cell_formula_units_Z   2
loop_
 _symmetry_equiv_pos_site_id
 _symmetry_equiv_pos_as_xyz
  1  'x, y, z'
loop_
 _atom_site_type_symbol
 _atom_site_label
 _atom_site_symmetry_multiplicity
 _atom_site_fract_x
 _atom_site_fract_y
 _atom_site_fract_z
 _atom_site_occupancy
  Al  Al0  1  0.505017  0.993851  0.502055  1
  Al  Al1  1  0.496733  0.001550  0.168730  1
  Al  Al2  1  0.499661  0.498994  0.334671  1
  Al  Al3  1  -0.000084  0.498522  0.168616  1
  Al  Al4  1  0.008147  0.503698  0.828610  1
  Al  Al5  1  0.996606  0.502593  0.501975  1
  Al  Al6  1  0.502929  0.503635  0.829618  1
  Al  Al7  1  0.502979  0.009265  0.828440  1
  Fe  Fe8  1  0.124973  0.127165  0.038092  1
  Fe  Fe9  1  0.506295  0.508090  0.995540  1
  Fe  Fe10  1  0.122815  0.121773  0.375433  1
  Fe  Fe11  1  0.121734  0.122239  0.712022  1
  Fe  Fe12  1  0.876572  0.876813  0.295549  1
  Fe  Fe13  1  0.882033  0.879387  0.618742  1
  O  O14  1  0.253050  0.255008  0.090273  1
  O  O15  1  0.242787  0.244146  0.241933  1
  O  O16  1  0.229561  0.728244  0.080928  1
  O  O17  1  0.726124  0.231633  0.081054  1
  O  O18  1  0.266115  0.264217  0.417343  1
  O  O19  1  0.278233  0.755107  0.253439  1
  O  O20  1  0.754594  0.278860  0.253261  1
  O  O21  1  0.239571  0.236841  0.576594  1
  O  O22  1  0.245092  0.720274  0.414240  1
  O  O23  1  0.736716  0.738923  0.105410  1
  O  O24  1  0.721673  0.243383  0.414200  1
  O  O25  1  0.739704  0.740633  0.250749  1
  O  O26  1  0.239060  0.240247  0.765721  1
  O  O27  1  0.257261  0.786193  0.576274  1
  O  O28  1  0.789248  0.254612  0.576340  1
  O  O29  1  0.263204  0.264137  0.903848  1
  O  O30  1  0.237798  0.725016  0.767375  1
  O  O31  1  0.751413  0.749228  0.428051  1
  O  O32  1  0.724433  0.238569  0.767410  1
  O  O33  1  0.758565  0.755669  0.570506  1
  O  O34  1  0.308300  0.735334  0.907972  1
  O  O35  1  0.734026  0.309308  0.908173  1
  O  O36  1  0.744109  0.744787  0.755517  1
  O  O37  1  0.735216  0.736304  0.908193  1
