# generated using pymatgen
data_CaLaCrSnO6
_symmetry_space_group_name_H-M   'P 1'
_cell_length_a   5.59226370
_cell_length_b   5.68207796
_cell_length_c   7.96238340
_cell_angle_alpha   90.00000000
_cell_angle_beta   89.77565487
_cell_angle_gamma   90.00000000
_symmetry_Int_Tables_number   1
_chemical_formula_structural   CaLaCrSnO6
_chemical_formula_sum   'Ca2 La2 Cr2 Sn2 O12'
_cell_volume   253.00819407
_cell_formula_units_Z   2
loop_
 _symmetry_equiv_pos_site_id
 _symmetry_equiv_pos_as_xyz
  1  'x, y, z'
loop_
 _atom_site_type_symbol
 _atom_site_label
 _atom_site_symmetry_multiplicity
 _atom_site_fract_x
 _atom_site_fract_y
 _atom_site_fract_z
 _atom_site_occupancy
  Ca  Ca0  1  0.487676  0.454460  0.749453  1
  Ca  Ca1  1  0.987676  0.045540  0.249453  1
  La  La2  1  0.010669  0.960462  0.750463  1
  La  La3  1  0.510669  0.539538  0.250463  1
  Cr  Cr4  1  0.500476  0.000179  0.499357  1
  Cr  Cr5  1  0.000476  0.499821  0.999357  1
  Sn  Sn6  1  0.500259  0.000654  0.000892  1
  Sn  Sn7  1  0.000259  0.499346  0.500892  1
  O  O8  1  0.089825  0.470096  0.246695  1
  O  O9  1  0.205629  0.213097  0.951243  1
  O  O10  1  0.212438  0.206606  0.548520  1
  O  O11  1  0.290906  0.704740  0.949231  1
  O  O12  1  0.297878  0.710020  0.550589  1
  O  O13  1  0.404243  0.973404  0.253559  1
  O  O14  1  0.589825  0.029904  0.746695  1
  O  O15  1  0.705629  0.286903  0.451243  1
  O  O16  1  0.712438  0.293394  0.048520  1
  O  O17  1  0.790906  0.795260  0.449231  1
  O  O18  1  0.797878  0.789980  0.050589  1
  O  O19  1  0.904243  0.526596  0.753559  1
