# generated using pymatgen
data_Ho(MoO3)2
_symmetry_space_group_name_H-M   'P 1'
_cell_length_a   5.37988086
_cell_length_b   5.63408311
_cell_length_c   7.83367614
_cell_angle_alpha   89.96879241
_cell_angle_beta   90.04358168
_cell_angle_gamma   89.85112492
_symmetry_Int_Tables_number   1
_chemical_formula_structural   Ho(MoO3)2
_chemical_formula_sum   'Ho2 Mo4 O12'
_cell_volume   237.44326991
_cell_formula_units_Z   2
loop_
 _symmetry_equiv_pos_site_id
 _symmetry_equiv_pos_as_xyz
  1  'x, y, z'
loop_
 _atom_site_type_symbol
 _atom_site_label
 _atom_site_symmetry_multiplicity
 _atom_site_fract_x
 _atom_site_fract_y
 _atom_site_fract_z
 _atom_site_occupancy
  Ho  Ho0  1  0.017339  0.924319  0.750074  1
  Ho  Ho1  1  0.524497  0.571195  0.249855  1
  Mo  Mo2  1  0.007379  0.490500  0.001059  1
  Mo  Mo3  1  0.007267  0.490515  0.499686  1
  Mo  Mo4  1  0.503501  0.014150  0.499517  1
  Mo  Mo5  1  0.503776  0.014260  -0.000174  1
  O  O6  1  0.124817  0.474112  0.250282  1
  O  O7  1  0.168153  0.198405  0.943070  1
  O  O8  1  0.168555  0.198532  0.557442  1
  O  O9  1  0.287729  0.717637  0.956694  1
  O  O10  1  0.286693  0.718520  0.544002  1
  O  O11  1  0.426608  0.961520  0.249706  1
  O  O12  1  0.616928  0.022426  0.749747  1
  O  O13  1  0.682777  0.312925  0.442219  1
  O  O14  1  0.682676  0.313098  0.057709  1
  O  O15  1  0.797777  0.770415  0.042847  1
  O  O16  1  0.796903  0.769865  0.456207  1
  O  O17  1  0.920727  0.537608  0.750059  1
