# generated using pymatgen
data_Ca(Cu2O3)2
_symmetry_space_group_name_H-M   'P 1'
_cell_length_a   3.10252023
_cell_length_b   5.18600280
_cell_length_c   14.74326499
_cell_angle_alpha   90.00000000
_cell_angle_beta   90.00000000
_cell_angle_gamma   107.40502656
_symmetry_Int_Tables_number   1
_chemical_formula_structural   Ca(Cu2O3)2
_chemical_formula_sum   'Ca2 Cu8 O12'
_cell_volume   226.35331814
_cell_formula_units_Z   2
loop_
 _symmetry_equiv_pos_site_id
 _symmetry_equiv_pos_as_xyz
  1  'x, y, z'
loop_
 _atom_site_type_symbol
 _atom_site_label
 _atom_site_symmetry_multiplicity
 _atom_site_fract_x
 _atom_site_fract_y
 _atom_site_fract_z
 _atom_site_occupancy
  Ca  Ca0  1  0.660596  0.321194  0.750000  1
  Ca  Ca1  1  0.339404  0.678806  0.250000  1
  Cu  Cu2  1  0.861806  0.723614  0.040797  1
  Cu  Cu3  1  0.409998  0.819995  0.631610  1
  Cu  Cu4  1  0.138192  0.276385  0.959203  1
  Cu  Cu5  1  0.590002  0.180005  0.368391  1
  Cu  Cu6  1  0.861806  0.723614  0.459203  1
  Cu  Cu7  1  0.138192  0.276385  0.540797  1
  Cu  Cu8  1  0.590002  0.180005  0.131609  1
  Cu  Cu9  1  0.409998  0.819995  0.868390  1
  O  O10  1  0.499999  0.000000  0.500000  1
  O  O11  1  0.499999  0.000000  -0.000000  1
  O  O12  1  0.044193  0.088385  0.849144  1
  O  O13  1  0.955807  0.911615  0.150857  1
  O  O14  1  0.955807  0.911615  0.349143  1
  O  O15  1  0.044193  0.088385  0.650857  1
  O  O16  1  0.781876  0.563754  0.921568  1
  O  O17  1  0.218123  0.436247  0.078432  1
  O  O18  1  0.218123  0.436247  0.421568  1
  O  O19  1  0.781876  0.563754  0.578432  1
  O  O20  1  0.327220  0.654440  0.750000  1
  O  O21  1  0.672778  0.345559  0.250000  1
