# generated using pymatgen
data_V4ZnO9
_symmetry_space_group_name_H-M   'P 1'
_cell_length_a   4.98235143
_cell_length_b   8.33038614
_cell_length_c   8.33042661
_cell_angle_alpha   90.00005887
_cell_angle_beta   90.00000000
_cell_angle_gamma   90.00000000
_symmetry_Int_Tables_number   1
_chemical_formula_structural   V4ZnO9
_chemical_formula_sum   'V8 Zn2 O18'
_cell_volume   345.75361751
_cell_formula_units_Z   2
loop_
 _symmetry_equiv_pos_site_id
 _symmetry_equiv_pos_as_xyz
  1  'x, y, z'
loop_
 _atom_site_type_symbol
 _atom_site_label
 _atom_site_symmetry_multiplicity
 _atom_site_fract_x
 _atom_site_fract_y
 _atom_site_fract_z
 _atom_site_occupancy
  V  V0  1  0.630115  0.531756  0.339600  1
  V  V1  1  0.369888  0.839597  0.468244  1
  V  V2  1  0.630113  0.339597  0.968244  1
  V  V3  1  0.369886  0.031755  0.839599  1
  V  V4  1  0.630115  0.968245  0.160400  1
  V  V5  1  0.630113  0.160403  0.531757  1
  V  V6  1  0.369886  0.468245  0.660400  1
  V  V7  1  0.369888  0.660402  0.031756  1
  Zn  Zn8  1  0.140734  0.250000  0.250000  1
  Zn  Zn9  1  0.859267  0.750000  0.749999  1
  O  O10  1  0.500000  0.750000  0.250000  1
  O  O11  1  0.499998  0.250001  0.750000  1
  O  O12  1  0.050581  0.685768  0.979867  1
  O  O13  1  0.050580  0.520134  0.685767  1
  O  O14  1  0.050580  0.979867  0.814233  1
  O  O15  1  0.050581  0.814233  0.520133  1
  O  O16  1  0.949420  0.314233  0.020133  1
  O  O17  1  0.949421  0.479866  0.314233  1
  O  O18  1  0.949421  0.020133  0.185767  1
  O  O19  1  0.949420  0.185767  0.479866  1
  O  O20  1  0.450452  0.045354  0.356627  1
  O  O21  1  0.450452  0.143373  0.045356  1
  O  O22  1  0.450452  0.356626  0.454645  1
  O  O23  1  0.450452  0.454646  0.143373  1
  O  O24  1  0.549547  0.545354  0.856627  1
  O  O25  1  0.549547  0.856626  0.954645  1
  O  O26  1  0.549547  0.643374  0.545355  1
  O  O27  1  0.549547  0.954645  0.643373  1
