# generated using pymatgen
data_MgCuBiO5
_symmetry_space_group_name_H-M   'P 1'
_cell_length_a   5.39152433
_cell_length_b   8.51647256
_cell_length_c   10.30540859
_cell_angle_alpha   90.00000000
_cell_angle_beta   90.00000000
_cell_angle_gamma   108.44943622
_symmetry_Int_Tables_number   1
_chemical_formula_structural   MgCuBiO5
_chemical_formula_sum   'Mg4 Cu4 Bi4 O20'
_cell_volume   448.87061086
_cell_formula_units_Z   4
loop_
 _symmetry_equiv_pos_site_id
 _symmetry_equiv_pos_as_xyz
  1  'x, y, z'
loop_
 _atom_site_type_symbol
 _atom_site_label
 _atom_site_symmetry_multiplicity
 _atom_site_fract_x
 _atom_site_fract_y
 _atom_site_fract_z
 _atom_site_occupancy
  Mg  Mg0  1  0.645007  0.156266  0.899964  1
  Mg  Mg1  1  0.354993  0.843734  0.100036  1
  Mg  Mg2  1  0.854993  0.343734  0.399964  1
  Mg  Mg3  1  0.145007  0.656266  0.600036  1
  Cu  Cu4  1  0.869635  0.929622  0.619754  1
  Cu  Cu5  1  0.130365  0.070378  0.380246  1
  Cu  Cu6  1  0.630365  0.570378  0.119754  1
  Cu  Cu7  1  0.369635  0.429622  0.880246  1
  Bi  Bi8  1  0.121242  0.166853  0.093885  1
  Bi  Bi9  1  0.878758  0.833147  0.906115  1
  Bi  Bi10  1  0.621242  0.666853  0.406115  1
  Bi  Bi11  1  0.378758  0.333147  0.593885  1
  O  O12  1  0.501544  0.350847  0.028347  1
  O  O13  1  0.999383  0.311006  0.963607  1
  O  O14  1  0.520352  0.724474  0.219893  1
  O  O15  1  0.761857  0.509609  0.536593  1
  O  O16  1  0.738749  0.505752  0.274550  1
  O  O17  1  0.238749  0.005752  0.225450  1
  O  O18  1  0.499383  0.811006  0.536393  1
  O  O19  1  0.500617  0.188994  0.463607  1
  O  O20  1  0.238143  0.490391  0.463407  1
  O  O21  1  0.998456  0.149153  0.528347  1
  O  O22  1  0.261251  0.494248  0.725450  1
  O  O23  1  0.498456  0.649153  0.971653  1
  O  O24  1  0.001544  0.850847  0.471653  1
  O  O25  1  0.761251  0.994248  0.774550  1
  O  O26  1  0.738143  0.990391  0.036593  1
  O  O27  1  0.261857  0.009609  0.963407  1
  O  O28  1  0.479648  0.275526  0.780107  1
  O  O29  1  0.000617  0.688994  0.036393  1
  O  O30  1  0.979648  0.775526  0.719893  1
  O  O31  1  0.020352  0.224474  0.280107  1
