# generated using pymatgen
data_Mg(BiO2)2
_symmetry_space_group_name_H-M   'P 1'
_cell_length_a   6.73430566
_cell_length_b   6.91652974
_cell_length_c   6.91653027
_cell_angle_alpha   59.99999101
_cell_angle_beta   59.10078083
_cell_angle_gamma   59.10077796
_symmetry_Int_Tables_number   1
_chemical_formula_structural   Mg(BiO2)2
_chemical_formula_sum   'Mg2 Bi4 O8'
_cell_volume   224.65486188
_cell_formula_units_Z   2
loop_
 _symmetry_equiv_pos_site_id
 _symmetry_equiv_pos_as_xyz
  1  'x, y, z'
loop_
 _atom_site_type_symbol
 _atom_site_label
 _atom_site_symmetry_multiplicity
 _atom_site_fract_x
 _atom_site_fract_y
 _atom_site_fract_z
 _atom_site_occupancy
  Mg  Mg0  1  0.997350  0.000883  0.000883  1
  Mg  Mg1  1  0.126355  0.624548  0.624548  1
  Bi  Bi2  1  0.275392  0.241536  0.241536  1
  Bi  Bi3  1  0.629081  0.119372  0.625773  1
  Bi  Bi4  1  0.629081  0.625773  0.119372  1
  Bi  Bi5  1  0.629081  0.625773  0.625773  1
  O  O6  1  0.356081  0.403107  0.403107  1
  O  O7  1  0.356081  0.403107  0.837704  1
  O  O8  1  0.356081  0.837704  0.403107  1
  O  O9  1  0.875394  0.374869  0.374869  1
  O  O10  1  0.376016  0.874661  0.874661  1
  O  O11  1  0.881335  0.381787  0.868439  1
  O  O12  1  0.881335  0.868439  0.381787  1
  O  O13  1  0.881335  0.868439  0.868439  1
