# generated using pymatgen
data_TiZnO2
_symmetry_space_group_name_H-M   'P 1'
_cell_length_a   2.90884383
_cell_length_b   7.62232554
_cell_length_c   8.53804537
_cell_angle_alpha   82.22674413
_cell_angle_beta   81.44963520
_cell_angle_gamma   84.39804582
_symmetry_Int_Tables_number   1
_chemical_formula_structural   TiZnO2
_chemical_formula_sum   'Ti4 Zn4 O8'
_cell_volume   184.90137156
_cell_formula_units_Z   4
loop_
 _symmetry_equiv_pos_site_id
 _symmetry_equiv_pos_as_xyz
  1  'x, y, z'
loop_
 _atom_site_type_symbol
 _atom_site_label
 _atom_site_symmetry_multiplicity
 _atom_site_fract_x
 _atom_site_fract_y
 _atom_site_fract_z
 _atom_site_occupancy
  Ti  Ti0  1  0.526748  0.293446  0.587599  1
  Ti  Ti1  1  0.103268  0.430587  0.258439  1
  Ti  Ti2  1  0.893066  0.549363  0.769836  1
  Ti  Ti3  1  0.469513  0.686496  0.440506  1
  Zn  Zn4  1  0.466502  0.060204  0.291007  1
  Zn  Zn5  1  0.529524  0.919720  0.737270  1
  Zn  Zn6  1  0.289927  0.840511  0.067122  1
  Zn  Zn7  1  0.704741  0.139352  0.960993  1
  O  O8  1  0.890659  0.743035  0.593466  1
  O  O9  1  0.422698  0.365860  0.813465  1
  O  O10  1  0.573602  0.614003  0.214904  1
  O  O11  1  0.105504  0.236994  0.434733  1
  O  O12  1  0.999884  0.104889  0.716753  1
  O  O13  1  0.685521  0.285072  0.157527  1
  O  O14  1  0.996398  0.875051  0.311329  1
  O  O15  1  0.310722  0.694751  0.870671  1
