# generated using pymatgen
data_Si2Sn13(SbO14)2
_symmetry_space_group_name_H-M   'P 1'
_cell_length_a   6.90208135
_cell_length_b   9.76574366
_cell_length_c   12.43433911
_cell_angle_alpha   85.03424091
_cell_angle_beta   66.24174104
_cell_angle_gamma   75.82337066
_symmetry_Int_Tables_number   1
_chemical_formula_structural   Si2Sn13(SbO14)2
_chemical_formula_sum   'Si2 Sn13 Sb2 O28'
_cell_volume   743.66464804
_cell_formula_units_Z   1
loop_
 _symmetry_equiv_pos_site_id
 _symmetry_equiv_pos_as_xyz
  1  'x, y, z'
loop_
 _atom_site_type_symbol
 _atom_site_label
 _atom_site_symmetry_multiplicity
 _atom_site_fract_x
 _atom_site_fract_y
 _atom_site_fract_z
 _atom_site_occupancy
  Si  Si0  1  0.229781  0.280147  0.983225  1
  Si  Si1  1  0.771421  0.718742  0.018974  1
  Sn  Sn2  1  0.988460  0.635816  0.731620  1
  Sn  Sn3  1  0.552943  0.331324  0.203528  1
  Sn  Sn4  1  0.356465  0.351053  0.701214  1
  Sn  Sn5  1  0.011843  0.362907  0.269111  1
  Sn  Sn6  1  0.448815  0.665794  0.797673  1
  Sn  Sn7  1  0.275564  0.908847  0.436925  1
  Sn  Sn8  1  0.208147  0.655494  0.113957  1
  Sn  Sn9  1  0.002163  0.998184  0.999156  1
  Sn  Sn10  1  0.347763  0.009600  0.169704  1
  Sn  Sn11  1  0.793832  0.342280  0.887676  1
  Sn  Sn12  1  0.644427  0.646921  0.300775  1
  Sn  Sn13  1  0.651396  0.990407  0.833232  1
  Sn  Sn14  1  0.723911  0.092436  0.559106  1
  Sb  Sb15  1  0.822122  0.007070  0.299457  1
  Sb  Sb16  1  0.178410  0.990378  0.698870  1
  O  O17  1  0.683708  0.424961  0.314609  1
  O  O18  1  0.249357  0.307557  0.323632  1
  O  O19  1  0.019291  0.250175  0.968379  1
  O  O20  1  0.375350  0.125810  0.009348  1
  O  O21  1  0.752294  0.687246  0.675939  1
  O  O22  1  0.316447  0.573241  0.687515  1
  O  O23  1  0.042912  0.057524  0.573077  1
  O  O24  1  0.952065  0.940566  0.426794  1
  O  O25  1  0.625555  0.874982  0.995967  1
  O  O26  1  0.100205  0.891243  0.175989  1
  O  O27  1  0.161978  0.391867  0.090562  1
  O  O28  1  0.964838  0.589534  0.272311  1
  O  O29  1  0.395849  0.874555  0.566000  1
  O  O30  1  0.695935  0.102768  0.185092  1
  O  O31  1  0.619346  0.658522  0.143552  1
  O  O32  1  0.983730  0.747775  0.032557  1
  O  O33  1  0.304118  0.892904  0.812603  1
  O  O34  1  0.904296  0.107426  0.823821  1
  O  O35  1  0.604368  0.127061  0.430017  1
  O  O36  1  0.020144  0.152158  0.247362  1
  O  O37  1  0.978944  0.846760  0.751861  1
  O  O38  1  0.384222  0.337856  0.857777  1
  O  O39  1  0.368079  0.133248  0.675370  1
  O  O40  1  0.669233  0.297658  0.597075  1
  O  O41  1  0.836703  0.609408  0.910358  1
  O  O42  1  0.637319  0.863516  0.323193  1
  O  O43  1  0.036451  0.408259  0.729632  1
  O  O44  1  0.330825  0.701950  0.402916  1
