# generated using pymatgen
data_ZnCo(SiO3)2
_symmetry_space_group_name_H-M   'P 1'
_cell_length_a   5.30814518
_cell_length_b   6.76673731
_cell_length_c   6.76673756
_cell_angle_alpha   85.80747712
_cell_angle_beta   75.13280318
_cell_angle_gamma   75.13280732
_symmetry_Int_Tables_number   1
_chemical_formula_structural   ZnCo(SiO3)2
_chemical_formula_sum   'Zn2 Co2 Si4 O12'
_cell_volume   227.04544311
_cell_formula_units_Z   2
loop_
 _symmetry_equiv_pos_site_id
 _symmetry_equiv_pos_as_xyz
  1  'x, y, z'
loop_
 _atom_site_type_symbol
 _atom_site_label
 _atom_site_symmetry_multiplicity
 _atom_site_fract_x
 _atom_site_fract_y
 _atom_site_fract_z
 _atom_site_occupancy
  Zn  Zn0  1  0.750000  0.241627  0.758373  1
  Zn  Zn1  1  0.250001  0.758373  0.241628  1
  Co  Co2  1  0.249999  0.100745  0.899256  1
  Co  Co3  1  0.749999  0.899257  0.100744  1
  Si  Si4  1  0.240047  0.215130  0.386968  1
  Si  Si5  1  0.259952  0.613032  0.784870  1
  Si  Si6  1  0.740047  0.386968  0.215130  1
  Si  Si7  1  0.759953  0.784870  0.613032  1
  O  O8  1  0.487223  0.322026  0.384803  1
  O  O9  1  0.012777  0.615196  0.677975  1
  O  O10  1  0.512778  0.677975  0.615197  1
  O  O11  1  0.987222  0.384804  0.322025  1
  O  O12  1  0.125815  0.140198  0.618902  1
  O  O13  1  0.374185  0.381097  0.859801  1
  O  O14  1  0.874185  0.859802  0.381098  1
  O  O15  1  0.625814  0.618902  0.140199  1
  O  O16  1  0.854146  0.210437  0.035888  1
  O  O17  1  0.645854  0.964112  0.789562  1
  O  O18  1  0.354145  0.035888  0.210438  1
  O  O19  1  0.145855  0.789563  0.964112  1
