# generated using pymatgen
data_Mg3Si3(AgO6)2
_symmetry_space_group_name_H-M   'P 1'
_cell_length_a   10.41911556
_cell_length_b   10.41911584
_cell_length_c   10.41911551
_cell_angle_alpha   109.47122184
_cell_angle_beta   109.47122243
_cell_angle_gamma   109.47121832
_symmetry_Int_Tables_number   1
_chemical_formula_structural   Mg3Si3(AgO6)2
_chemical_formula_sum   'Mg12 Si12 Ag8 O48'
_cell_volume   870.70428173
_cell_formula_units_Z   4
loop_
 _symmetry_equiv_pos_site_id
 _symmetry_equiv_pos_as_xyz
  1  'x, y, z'
loop_
 _atom_site_type_symbol
 _atom_site_label
 _atom_site_symmetry_multiplicity
 _atom_site_fract_x
 _atom_site_fract_y
 _atom_site_fract_z
 _atom_site_occupancy
  Mg  Mg0  1  0.375000  0.750000  0.125000  1
  Mg  Mg1  1  0.125000  0.250000  0.375000  1
  Mg  Mg2  1  0.375000  0.125000  0.250000  1
  Mg  Mg3  1  0.125000  0.375000  0.750000  1
  Mg  Mg4  1  0.875000  0.750000  0.625000  1
  Mg  Mg5  1  0.750000  0.125000  0.375000  1
  Mg  Mg6  1  0.750000  0.625000  0.875000  1
  Mg  Mg7  1  0.625000  0.250000  0.875000  1
  Mg  Mg8  1  0.250000  0.875000  0.625000  1
  Mg  Mg9  1  0.875000  0.625000  0.250000  1
  Mg  Mg10  1  0.625000  0.875000  0.750000  1
  Mg  Mg11  1  0.250000  0.375000  0.125000  1
  Si  Si12  1  0.250000  0.125000  0.875000  1
  Si  Si13  1  0.750000  0.875000  0.125000  1
  Si  Si14  1  0.375000  0.250000  0.625000  1
  Si  Si15  1  0.625000  0.375000  0.250000  1
  Si  Si16  1  0.125000  0.750000  0.875000  1
  Si  Si17  1  0.875000  0.125000  0.750000  1
  Si  Si18  1  0.750000  0.375000  0.625000  1
  Si  Si19  1  0.375000  0.625000  0.750000  1
  Si  Si20  1  0.125000  0.875000  0.250000  1
  Si  Si21  1  0.875000  0.250000  0.125000  1
  Si  Si22  1  0.625000  0.750000  0.375000  1
  Si  Si23  1  0.250000  0.625000  0.375000  1
  Ag  Ag24  1  0.000000  0.000000  0.000000  1
  Ag  Ag25  1  0.000000  0.500000  0.000000  1
  Ag  Ag26  1  0.000000  0.000000  0.500000  1
  Ag  Ag27  1  0.000000  0.500000  0.500000  1
  Ag  Ag28  1  0.500000  0.000000  0.500000  1
  Ag  Ag29  1  0.500000  0.500000  0.000000  1
  Ag  Ag30  1  0.500000  0.500000  0.500000  1
  Ag  Ag31  1  0.500000  0.000000  0.000000  1
  O  O32  1  0.270816  0.471637  0.368592  1
  O  O33  1  0.028363  0.299179  0.896954  1
  O  O34  1  0.131408  0.603046  0.902224  1
  O  O35  1  0.229184  0.597776  0.200821  1
  O  O36  1  0.229184  0.131408  0.028363  1
  O  O37  1  0.597776  0.200821  0.229184  1
  O  O38  1  0.603046  0.200821  0.471637  1
  O  O39  1  0.200821  0.229184  0.597776  1
  O  O40  1  0.896954  0.368592  0.597776  1
  O  O41  1  0.299179  0.902224  0.270816  1
  O  O42  1  0.902224  0.270816  0.299179  1
  O  O43  1  0.028363  0.229184  0.131408  1
  O  O44  1  0.200821  0.471637  0.603046  1
  O  O45  1  0.597776  0.896954  0.368592  1
  O  O46  1  0.131408  0.028363  0.229184  1
  O  O47  1  0.471637  0.603046  0.200821  1
  O  O48  1  0.368592  0.597776  0.896954  1
  O  O49  1  0.896954  0.028363  0.299179  1
  O  O50  1  0.603046  0.902224  0.131408  1
  O  O51  1  0.103046  0.631408  0.402224  1
  O  O52  1  0.902224  0.131408  0.603046  1
  O  O53  1  0.368592  0.270816  0.471637  1
  O  O54  1  0.299179  0.896954  0.028363  1
  O  O55  1  0.270816  0.299179  0.902224  1
  O  O56  1  0.729184  0.528363  0.631408  1
  O  O57  1  0.971637  0.700821  0.103046  1
  O  O58  1  0.868592  0.396954  0.097776  1
  O  O59  1  0.770816  0.402224  0.799179  1
  O  O60  1  0.770816  0.868592  0.971637  1
  O  O61  1  0.402224  0.799179  0.770816  1
  O  O62  1  0.396954  0.799179  0.528363  1
  O  O63  1  0.799179  0.770816  0.402224  1
  O  O64  1  0.729184  0.700821  0.097776  1
  O  O65  1  0.700821  0.103046  0.971637  1
  O  O66  1  0.631408  0.729184  0.528363  1
  O  O67  1  0.528363  0.631408  0.729184  1
  O  O68  1  0.097776  0.868592  0.396954  1
  O  O69  1  0.396954  0.097776  0.868592  1
  O  O70  1  0.103046  0.971637  0.700821  1
  O  O71  1  0.631408  0.402224  0.103046  1
  O  O72  1  0.528363  0.396954  0.799179  1
  O  O73  1  0.868592  0.971637  0.770816  1
  O  O74  1  0.402224  0.103046  0.631408  1
  O  O75  1  0.799179  0.528363  0.396954  1
  O  O76  1  0.971637  0.770816  0.868592  1
  O  O77  1  0.097776  0.729184  0.700821  1
  O  O78  1  0.700821  0.097776  0.729184  1
  O  O79  1  0.471637  0.368592  0.270816  1
