# generated using pymatgen
data_Ca(WO2)2
_symmetry_space_group_name_H-M   'P 1'
_cell_length_a   6.66671153
_cell_length_b   6.59731583
_cell_length_c   19.65079745
_cell_angle_alpha   59.59866810
_cell_angle_beta   60.18906294
_cell_angle_gamma   59.55926122
_symmetry_Int_Tables_number   1
_chemical_formula_structural   Ca(WO2)2
_chemical_formula_sum   'Ca6 W12 O24'
_cell_volume   608.07802409
_cell_formula_units_Z   6
loop_
 _symmetry_equiv_pos_site_id
 _symmetry_equiv_pos_as_xyz
  1  'x, y, z'
loop_
 _atom_site_type_symbol
 _atom_site_label
 _atom_site_symmetry_multiplicity
 _atom_site_fract_x
 _atom_site_fract_y
 _atom_site_fract_z
 _atom_site_occupancy
  Ca  Ca0  1  0.133924  0.125521  0.039779  1
  Ca  Ca1  1  0.500991  0.499382  0.332136  1
  Ca  Ca2  1  0.996176  0.495798  0.168345  1
  Ca  Ca3  1  0.499946  0.500543  0.667977  1
  Ca  Ca4  1  0.993742  0.502801  0.497273  1
  Ca  Ca5  1  0.998381  0.514267  0.833637  1
  W  W6  1  0.499738  0.005227  0.167067  1
  W  W7  1  0.090307  0.227142  0.366423  1
  W  W8  1  0.499506  0.501365  0.000286  1
  W  W9  1  0.505172  0.491273  0.168801  1
  W  W10  1  0.497083  0.996895  0.500990  1
  W  W11  1  0.105645  0.198568  0.700357  1
  W  W12  1  0.496621  0.497784  0.501659  1
  W  W13  1  0.504281  0.001952  0.830971  1
  W  W14  1  0.912551  0.809726  0.295227  1
  W  W15  1  0.498438  0.508888  0.828542  1
  W  W16  1  0.908777  0.774441  0.632986  1
  W  W17  1  0.913154  0.841098  0.970209  1
  O  O18  1  0.294829  0.268740  0.078786  1
  O  O19  1  0.276954  0.241888  0.246716  1
  O  O20  1  0.291069  0.699952  0.082200  1
  O  O21  1  0.701505  0.268438  0.087652  1
  O  O22  1  0.264245  0.221735  0.424326  1
  O  O23  1  0.281722  0.768236  0.234307  1
  O  O24  1  0.289846  0.237706  0.576888  1
  O  O25  1  0.752392  0.248900  0.244979  1
  O  O26  1  0.273276  0.687047  0.432952  1
  O  O27  1  0.702736  0.757771  0.093265  1
  O  O28  1  0.728986  0.239836  0.429019  1
  O  O29  1  0.721550  0.760545  0.246870  1
  O  O30  1  0.261243  0.231687  0.755638  1
  O  O31  1  0.266890  0.757128  0.574761  1
  O  O32  1  0.717509  0.290017  0.574819  1
  O  O33  1  0.254546  0.758159  0.750568  1
  O  O34  1  0.290149  0.260389  0.897673  1
  O  O35  1  0.681083  0.749221  0.431437  1
  O  O36  1  0.743563  0.231106  0.760229  1
  O  O37  1  0.731651  0.770468  0.578021  1
  O  O38  1  0.293301  0.746613  0.906602  1
  O  O39  1  0.702849  0.307778  0.916913  1
  O  O40  1  0.725299  0.761019  0.752335  1
  O  O41  1  0.698372  0.742951  0.920379  1
