# generated using pymatgen
data_ZnCr4O6
_symmetry_space_group_name_H-M   'P 1'
_cell_length_a   2.99944105
_cell_length_b   5.26734344
_cell_length_c   15.41064697
_cell_angle_alpha   90.00000000
_cell_angle_beta   90.00000000
_cell_angle_gamma   106.54214070
_symmetry_Int_Tables_number   1
_chemical_formula_structural   ZnCr4O6
_chemical_formula_sum   'Zn2 Cr8 O12'
_cell_volume   233.39688645
_cell_formula_units_Z   2
loop_
 _symmetry_equiv_pos_site_id
 _symmetry_equiv_pos_as_xyz
  1  'x, y, z'
loop_
 _atom_site_type_symbol
 _atom_site_label
 _atom_site_symmetry_multiplicity
 _atom_site_fract_x
 _atom_site_fract_y
 _atom_site_fract_z
 _atom_site_occupancy
  Zn  Zn0  1  0.661449  0.322899  0.750000  1
  Zn  Zn1  1  0.338551  0.677101  0.250000  1
  Cr  Cr2  1  0.863668  0.727337  0.045782  1
  Cr  Cr3  1  0.404472  0.808944  0.635284  1
  Cr  Cr4  1  0.136330  0.272662  0.954218  1
  Cr  Cr5  1  0.595528  0.191055  0.364717  1
  Cr  Cr6  1  0.863668  0.727337  0.454218  1
  Cr  Cr7  1  0.136330  0.272662  0.545782  1
  Cr  Cr8  1  0.595528  0.191055  0.135283  1
  Cr  Cr9  1  0.404472  0.808944  0.864716  1
  O  O10  1  0.499999  -0.000000  0.500000  1
  O  O11  1  0.499999  -0.000000  -0.000000  1
  O  O12  1  0.039820  0.079640  0.839995  1
  O  O13  1  0.960180  0.920360  0.160006  1
  O  O14  1  0.960180  0.920360  0.339994  1
  O  O15  1  0.039820  0.079640  0.660006  1
  O  O16  1  0.784886  0.569775  0.920382  1
  O  O17  1  0.215113  0.430226  0.079618  1
  O  O18  1  0.215113  0.430226  0.420382  1
  O  O19  1  0.784886  0.569775  0.579618  1
  O  O20  1  0.300761  0.601521  0.750000  1
  O  O21  1  0.699237  0.398478  0.250000  1
