# generated using pymatgen
data_BiWO5
_symmetry_space_group_name_H-M   'P 1'
_cell_length_a   5.75984254
_cell_length_b   9.22169852
_cell_length_c   11.46381301
_cell_angle_alpha   90.00000000
_cell_angle_beta   90.00000000
_cell_angle_gamma   106.97109495
_symmetry_Int_Tables_number   1
_chemical_formula_structural   BiWO5
_chemical_formula_sum   'Bi4 W4 O20'
_cell_volume   582.38993916
_cell_formula_units_Z   4
loop_
 _symmetry_equiv_pos_site_id
 _symmetry_equiv_pos_as_xyz
  1  'x, y, z'
loop_
 _atom_site_type_symbol
 _atom_site_label
 _atom_site_symmetry_multiplicity
 _atom_site_fract_x
 _atom_site_fract_y
 _atom_site_fract_z
 _atom_site_occupancy
  Bi  Bi0  1  0.164361  0.167738  0.087604  1
  Bi  Bi1  1  0.835639  0.832262  0.912396  1
  Bi  Bi2  1  0.664361  0.667738  0.412396  1
  Bi  Bi3  1  0.335639  0.332262  0.587604  1
  W  W4  1  0.782296  0.947665  0.645854  1
  W  W5  1  0.217704  0.052335  0.354146  1
  W  W6  1  0.717704  0.552335  0.145854  1
  W  W7  1  0.282296  0.447665  0.854146  1
  O  O8  1  0.531862  0.368391  0.090652  1
  O  O9  1  0.071757  0.336177  0.965205  1
  O  O10  1  0.530497  0.662022  0.204966  1
  O  O11  1  0.680210  0.511307  0.551787  1
  O  O12  1  0.876654  0.530145  0.277141  1
  O  O13  1  0.376654  0.030145  0.222859  1
  O  O14  1  0.571757  0.836177  0.534795  1
  O  O15  1  0.428243  0.163823  0.465205  1
  O  O16  1  0.319790  0.488693  0.448213  1
  O  O17  1  0.968138  0.131609  0.590652  1
  O  O18  1  0.123346  0.469855  0.722859  1
  O  O19  1  0.468138  0.631610  0.909348  1
  O  O20  1  0.031862  0.868390  0.409348  1
  O  O21  1  0.623346  0.969855  0.777141  1
  O  O22  1  0.819790  0.988693  0.051787  1
  O  O23  1  0.180210  0.011307  0.948213  1
  O  O24  1  0.469503  0.337978  0.795034  1
  O  O25  1  0.928243  0.663823  0.034795  1
  O  O26  1  0.969503  0.837978  0.704966  1
  O  O27  1  0.030497  0.162022  0.295034  1
