# generated using pymatgen
data_BaCaVF7
_symmetry_space_group_name_H-M   'P 1'
_cell_length_a   5.77525928
_cell_length_b   10.01309106
_cell_length_c   10.68065389
_cell_angle_alpha   90.00000000
_cell_angle_beta   90.00000000
_cell_angle_gamma   91.94763451
_symmetry_Int_Tables_number   1
_chemical_formula_structural   BaCaVF7
_chemical_formula_sum   'Ba4 Ca4 V4 F28'
_cell_volume   617.28614957
_cell_formula_units_Z   4
loop_
 _symmetry_equiv_pos_site_id
 _symmetry_equiv_pos_as_xyz
  1  'x, y, z'
loop_
 _atom_site_type_symbol
 _atom_site_label
 _atom_site_symmetry_multiplicity
 _atom_site_fract_x
 _atom_site_fract_y
 _atom_site_fract_z
 _atom_site_occupancy
  Ba  Ba0  1  0.265318  0.507064  0.334247  1
  Ba  Ba1  1  0.734682  0.992936  0.834247  1
  Ba  Ba2  1  0.734682  0.492936  0.665753  1
  Ba  Ba3  1  0.265318  0.007064  0.165753  1
  Ca  Ca4  1  0.709798  0.826492  0.411520  1
  Ca  Ca5  1  0.290202  0.673508  0.911520  1
  Ca  Ca6  1  0.709798  0.326492  0.088480  1
  Ca  Ca7  1  0.290202  0.173508  0.588480  1
  V  V8  1  0.192217  0.805955  0.624116  1
  V  V9  1  0.807783  0.194045  0.375884  1
  V  V10  1  0.192217  0.305955  0.875884  1
  V  V11  1  0.807783  0.694045  0.124116  1
  F  F12  1  0.097614  0.104433  0.413953  1
  F  F13  1  0.345588  0.370735  0.033443  1
  F  F14  1  0.467145  0.735797  0.709984  1
  F  F15  1  0.532855  0.264203  0.290016  1
  F  F16  1  0.918937  0.356019  0.461729  1
  F  F17  1  0.289495  0.478637  0.795791  1
  F  F18  1  0.009716  0.740445  0.776139  1
  F  F19  1  0.081063  0.143981  0.961729  1
  F  F20  1  0.345588  0.870735  0.466557  1
  F  F21  1  0.532855  0.764203  0.209984  1
  F  F22  1  0.097614  0.604433  0.086047  1
  F  F23  1  0.902386  0.895567  0.586047  1
  F  F24  1  0.990284  0.759555  0.276139  1
  F  F25  1  0.399644  0.877904  0.962552  1
  F  F26  1  0.081063  0.643981  0.538271  1
  F  F27  1  0.918937  0.856019  0.038271  1
  F  F28  1  0.990284  0.259555  0.223861  1
  F  F29  1  0.902386  0.395567  0.913953  1
  F  F30  1  0.600356  0.622096  0.462552  1
  F  F31  1  0.654412  0.629265  0.966557  1
  F  F32  1  0.600356  0.122096  0.037448  1
  F  F33  1  0.009716  0.240445  0.723861  1
  F  F34  1  0.399644  0.377904  0.537448  1
  F  F35  1  0.710505  0.021363  0.295791  1
  F  F36  1  0.710505  0.521363  0.204209  1
  F  F37  1  0.289495  0.978637  0.704209  1
  F  F38  1  0.654412  0.129265  0.533443  1
  F  F39  1  0.467145  0.235797  0.790016  1
