# generated using pymatgen
data_Zn(WO2)4
_symmetry_space_group_name_H-M   'P 1'
_cell_length_a   3.30293155
_cell_length_b   7.70445609
_cell_length_c   7.77860504
_cell_angle_alpha   87.28786545
_cell_angle_beta   77.68378491
_cell_angle_gamma   79.45824065
_symmetry_Int_Tables_number   1
_chemical_formula_structural   Zn(WO2)4
_chemical_formula_sum   'Zn1 W4 O8'
_cell_volume   190.11764826
_cell_formula_units_Z   1
loop_
 _symmetry_equiv_pos_site_id
 _symmetry_equiv_pos_as_xyz
  1  'x, y, z'
loop_
 _atom_site_type_symbol
 _atom_site_label
 _atom_site_symmetry_multiplicity
 _atom_site_fract_x
 _atom_site_fract_y
 _atom_site_fract_z
 _atom_site_occupancy
  Zn  Zn0  1  0.539795  0.008895  0.041569  1
  W  W1  1  0.631358  0.182349  0.542905  1
  W  W2  1  0.163458  0.489113  0.215531  1
  W  W3  1  0.839461  0.507718  0.845504  1
  W  W4  1  0.320002  0.813306  0.518805  1
  O  O5  1  0.826330  0.695963  0.649133  1
  O  O6  1  0.430869  0.376722  0.730645  1
  O  O7  1  0.529872  0.621769  0.328786  1
  O  O8  1  0.122066  0.301583  0.413254  1
  O  O9  1  0.139721  0.048258  0.657526  1
  O  O10  1  0.789504  0.373308  0.084206  1
  O  O11  1  0.811782  0.947574  0.404445  1
  O  O12  1  0.233943  0.624081  0.976484  1
