# generated using pymatgen
data_Mg(AgO2)2
_symmetry_space_group_name_H-M   'P 1'
_cell_length_a   6.31463235
_cell_length_b   6.33881140
_cell_length_c   6.33918185
_cell_angle_alpha   90.01005255
_cell_angle_beta   120.11850299
_cell_angle_gamma   120.11252779
_symmetry_Int_Tables_number   1
_chemical_formula_structural   Mg(AgO2)2
_chemical_formula_sum   'Mg2 Ag4 O8'
_cell_volume   178.77706216
_cell_formula_units_Z   2
loop_
 _symmetry_equiv_pos_site_id
 _symmetry_equiv_pos_as_xyz
  1  'x, y, z'
loop_
 _atom_site_type_symbol
 _atom_site_label
 _atom_site_symmetry_multiplicity
 _atom_site_fract_x
 _atom_site_fract_y
 _atom_site_fract_z
 _atom_site_occupancy
  Mg  Mg0  1  0.250044  0.124908  0.875017  1
  Mg  Mg1  1  0.750019  0.875317  0.125099  1
  Ag  Ag2  1  0.500089  0.000062  0.500055  1
  Ag  Ag3  1  0.499767  0.499873  0.499924  1
  Ag  Ag4  1  -0.000054  0.499952  0.000008  1
  Ag  Ag5  1  0.000029  0.499947  0.499990  1
  O  O6  1  0.057594  0.801159  0.197178  1
  O  O7  1  0.442203  0.802871  0.743506  1
  O  O8  1  0.442408  0.639693  0.198973  1
  O  O9  1  0.942316  0.743396  0.639620  1
  O  O10  1  0.557665  0.360299  0.801058  1
  O  O11  1  0.557748  0.197035  0.256451  1
  O  O12  1  0.057827  0.256675  0.360402  1
  O  O13  1  0.942348  0.198812  0.802721  1
