# generated using pymatgen
data_Al(FeO2)3
_symmetry_space_group_name_H-M   'P 1'
_cell_length_a   17.86587726
_cell_length_b   5.94186947
_cell_length_c   5.94186973
_cell_angle_alpha   59.99756621
_cell_angle_beta   60.09825908
_cell_angle_gamma   60.09829752
_symmetry_Int_Tables_number   1
_chemical_formula_structural   Al(FeO2)3
_chemical_formula_sum   'Al4 Fe12 O24'
_cell_volume   446.67444673
_cell_formula_units_Z   4
loop_
 _symmetry_equiv_pos_site_id
 _symmetry_equiv_pos_as_xyz
  1  'x, y, z'
loop_
 _atom_site_type_symbol
 _atom_site_label
 _atom_site_symmetry_multiplicity
 _atom_site_fract_x
 _atom_site_fract_y
 _atom_site_fract_z
 _atom_site_occupancy
  Al  Al0  1  0.546688  0.620190  0.620191  1
  Al  Al1  1  0.870089  0.629669  0.629668  1
  Al  Al2  1  0.129911  0.370331  0.370332  1
  Al  Al3  1  0.453312  0.379810  0.379809  1
  Fe  Fe4  1  0.000000  0.500000  0.000000  1
  Fe  Fe5  1  0.331658  0.508419  0.997621  1
  Fe  Fe6  1  0.668342  0.491581  0.002379  1
  Fe  Fe7  1  0.000000  0.000000  0.000000  1
  Fe  Fe8  1  0.331931  0.997469  0.997469  1
  Fe  Fe9  1  0.668069  0.002531  0.002531  1
  Fe  Fe10  1  0.172678  0.994284  0.994287  1
  Fe  Fe11  1  0.500000  0.000000  0.000000  1
  Fe  Fe12  1  0.827322  0.005716  0.005713  1
  Fe  Fe13  1  0.000000  0.000000  0.500000  1
  Fe  Fe14  1  0.331658  0.997621  0.508419  1
  Fe  Fe15  1  0.668342  0.002379  0.491581  1
  O  O16  1  0.060752  0.772688  0.772687  1
  O  O17  1  0.422619  0.743680  0.743680  1
  O  O18  1  0.744112  0.756193  0.756193  1
  O  O19  1  0.086772  0.246466  0.747551  1
  O  O20  1  0.417906  0.244034  0.757494  1
  O  O21  1  0.740360  0.244543  0.790642  1
  O  O22  1  0.086772  0.747551  0.246466  1
  O  O23  1  0.417906  0.757494  0.244034  1
  O  O24  1  0.740361  0.790643  0.244542  1
  O  O25  1  0.086765  0.246384  0.246384  1
  O  O26  1  0.417950  0.243967  0.243967  1
  O  O27  1  0.740811  0.243862  0.243861  1
  O  O28  1  0.259640  0.755457  0.209358  1
  O  O29  1  0.582094  0.755966  0.242506  1
  O  O30  1  0.913228  0.753534  0.252449  1
  O  O31  1  0.255888  0.243807  0.243807  1
  O  O32  1  0.577381  0.256320  0.256320  1
  O  O33  1  0.939248  0.227312  0.227313  1
  O  O34  1  0.259639  0.209357  0.755458  1
  O  O35  1  0.582094  0.242506  0.755966  1
  O  O36  1  0.913228  0.252449  0.753534  1
  O  O37  1  0.259189  0.756138  0.756139  1
  O  O38  1  0.582050  0.756033  0.756033  1
  O  O39  1  0.913235  0.753616  0.753616  1
