# generated using pymatgen
data_MgCu2(NiO4)2
_symmetry_space_group_name_H-M   'P 1'
_cell_length_a   6.36409994
_cell_length_b   8.28168111
_cell_length_c   11.82808326
_cell_angle_alpha   90.00543796
_cell_angle_beta   90.97685480
_cell_angle_gamma   89.99218574
_symmetry_Int_Tables_number   1
_chemical_formula_structural   MgCu2(NiO4)2
_chemical_formula_sum   'Mg4 Cu8 Ni8 O32'
_cell_volume   623.31379503
_cell_formula_units_Z   4
loop_
 _symmetry_equiv_pos_site_id
 _symmetry_equiv_pos_as_xyz
  1  'x, y, z'
loop_
 _atom_site_type_symbol
 _atom_site_label
 _atom_site_symmetry_multiplicity
 _atom_site_fract_x
 _atom_site_fract_y
 _atom_site_fract_z
 _atom_site_occupancy
  Mg  Mg0  1  0.114843  0.157284  0.042386  1
  Mg  Mg1  1  0.885157  0.842717  0.957629  1
  Mg  Mg2  1  0.885163  0.657280  0.457642  1
  Mg  Mg3  1  0.114837  0.342712  0.542343  1
  Cu  Cu4  1  0.754573  0.189856  0.876846  1
  Cu  Cu5  1  0.379652  0.062391  0.625407  1
  Cu  Cu6  1  0.620345  0.937609  0.374601  1
  Cu  Cu7  1  0.245412  0.810121  0.123145  1
  Cu  Cu8  1  0.754574  0.310110  0.376839  1
  Cu  Cu9  1  0.379697  0.437605  0.125392  1
  Cu  Cu10  1  0.245433  0.689886  0.623160  1
  Cu  Cu11  1  0.620299  0.562408  0.874602  1
  Ni  Ni12  1  0.097722  0.465009  0.838780  1
  Ni  Ni13  1  0.097722  0.034992  0.338790  1
  Ni  Ni14  1  0.613252  0.089178  0.135362  1
  Ni  Ni15  1  0.902281  0.965001  0.661197  1
  Ni  Ni16  1  0.386727  0.910795  0.864632  1
  Ni  Ni17  1  0.386738  0.589174  0.364620  1
  Ni  Ni18  1  0.613241  0.410846  0.635382  1
  Ni  Ni19  1  0.902267  0.535008  0.161229  1
  O  O20  1  0.024870  0.236312  0.394221  1
  O  O21  1  0.653800  0.016258  0.588884  1
  O  O22  1  0.192108  0.576101  0.477697  1
  O  O23  1  0.807908  0.076111  0.022303  1
  O  O24  1  0.024844  0.263667  0.894229  1
  O  O25  1  0.975165  0.763676  0.605777  1
  O  O26  1  0.096815  0.116163  0.618500  1
  O  O27  1  0.513489  0.881568  0.144400  1
  O  O28  1  0.513459  0.618418  0.644395  1
  O  O29  1  0.316825  0.876202  0.711085  1
  O  O30  1  0.683193  0.376198  0.788902  1
  O  O31  1  0.486557  0.118452  0.855603  1
  O  O32  1  0.903173  0.883825  0.381504  1
  O  O33  1  0.862737  0.528428  0.310956  1
  O  O34  1  0.415751  0.271431  0.577006  1
  O  O35  1  0.415786  0.228588  0.076995  1
  O  O36  1  0.137284  0.028420  0.189028  1
  O  O37  1  0.486531  0.381606  0.355609  1
  O  O38  1  0.137282  0.471587  0.689031  1
  O  O39  1  0.807911  0.423908  0.522310  1
  O  O40  1  0.653752  0.483755  0.088869  1
  O  O41  1  0.683169  0.123777  0.288911  1
  O  O42  1  0.975141  0.736321  0.105774  1
  O  O43  1  0.096840  0.383802  0.118495  1
  O  O44  1  0.192097  0.923893  0.977697  1
  O  O45  1  0.584208  0.771421  0.923011  1
  O  O46  1  0.346194  0.983739  0.411114  1
  O  O47  1  0.346253  0.516241  0.911122  1
  O  O48  1  0.903155  0.616210  0.881506  1
  O  O49  1  0.584224  0.728568  0.423002  1
  O  O50  1  0.316821  0.623793  0.211096  1
  O  O51  1  0.862722  0.971578  0.810986  1
