# generated using pymatgen
data_Ti3ZnO7
_symmetry_space_group_name_H-M   'P 1'
_cell_length_a   5.54077428
_cell_length_b   10.44084321
_cell_length_c   10.15839119
_cell_angle_alpha   90.00000000
_cell_angle_beta   90.00000000
_cell_angle_gamma   90.00000000
_symmetry_Int_Tables_number   1
_chemical_formula_structural   Ti3ZnO7
_chemical_formula_sum   'Ti12 Zn4 O28'
_cell_volume   587.66654185
_cell_formula_units_Z   4
loop_
 _symmetry_equiv_pos_site_id
 _symmetry_equiv_pos_as_xyz
  1  'x, y, z'
loop_
 _atom_site_type_symbol
 _atom_site_label
 _atom_site_symmetry_multiplicity
 _atom_site_fract_x
 _atom_site_fract_y
 _atom_site_fract_z
 _atom_site_occupancy
  Ti  Ti0  1  0.263632  0.034026  0.306182  1
  Ti  Ti1  1  0.763632  0.965974  0.193818  1
  Ti  Ti2  1  0.736368  0.534026  0.693818  1
  Ti  Ti3  1  0.236368  0.465974  0.806182  1
  Ti  Ti4  1  0.272873  0.750000  0.225442  1
  Ti  Ti5  1  0.772873  0.250000  0.274558  1
  Ti  Ti6  1  0.727127  0.250000  0.774558  1
  Ti  Ti7  1  0.227127  0.750000  0.725442  1
  Ti  Ti8  1  0.763632  0.534026  0.193818  1
  Ti  Ti9  1  0.263632  0.465974  0.306182  1
  Ti  Ti10  1  0.236368  0.034026  0.806182  1
  Ti  Ti11  1  0.736368  0.965974  0.693818  1
  Zn  Zn12  1  0.601664  0.750000  0.958057  1
  Zn  Zn13  1  0.101664  0.250000  0.541943  1
  Zn  Zn14  1  0.398336  0.250000  0.041943  1
  Zn  Zn15  1  0.898336  0.750000  0.458057  1
  O  O16  1  0.972526  0.121562  0.711204  1
  O  O17  1  0.472526  0.878438  0.788796  1
  O  O18  1  0.027474  0.621562  0.288796  1
  O  O19  1  0.527474  0.378438  0.211204  1
  O  O20  1  0.027474  0.878438  0.288796  1
  O  O21  1  0.527474  0.121562  0.211204  1
  O  O22  1  0.972526  0.378438  0.711204  1
  O  O23  1  0.472526  0.621562  0.788796  1
  O  O24  1  0.507225  0.114007  0.721756  1
  O  O25  1  0.007225  0.885993  0.778244  1
  O  O26  1  0.492775  0.614007  0.278244  1
  O  O27  1  0.992775  0.385993  0.221756  1
  O  O28  1  0.492775  0.885993  0.278244  1
  O  O29  1  0.992775  0.114007  0.221756  1
  O  O30  1  0.507225  0.385993  0.721756  1
  O  O31  1  0.007225  0.614007  0.778244  1
  O  O32  1  0.208074  0.750000  0.557659  1
  O  O33  1  0.708074  0.250000  0.942341  1
  O  O34  1  0.791926  0.250000  0.442341  1
  O  O35  1  0.291926  0.750000  0.057659  1
  O  O36  1  0.240927  0.401194  0.959942  1
  O  O37  1  0.740927  0.598806  0.540058  1
  O  O38  1  0.759073  0.901194  0.040058  1
  O  O39  1  0.259073  0.098806  0.459942  1
  O  O40  1  0.759073  0.598806  0.040058  1
  O  O41  1  0.259073  0.401194  0.459942  1
  O  O42  1  0.240927  0.098806  0.959942  1
  O  O43  1  0.740927  0.901194  0.540058  1
