# generated using pymatgen
data_Sr2ZnNi2(PO4)4
_symmetry_space_group_name_H-M   'P 1'
_cell_length_a   5.55054298
_cell_length_b   6.88480828
_cell_length_c   9.23982236
_cell_angle_alpha   110.26612308
_cell_angle_beta   101.49657334
_cell_angle_gamma   98.40807226
_symmetry_Int_Tables_number   1
_chemical_formula_structural   Sr2ZnNi2(PO4)4
_chemical_formula_sum   'Sr2 Zn1 Ni2 P4 O16'
_cell_volume   315.56563854
_cell_formula_units_Z   1
loop_
 _symmetry_equiv_pos_site_id
 _symmetry_equiv_pos_as_xyz
  1  'x, y, z'
loop_
 _atom_site_type_symbol
 _atom_site_label
 _atom_site_symmetry_multiplicity
 _atom_site_fract_x
 _atom_site_fract_y
 _atom_site_fract_z
 _atom_site_occupancy
  Sr  Sr0  1  0.254214  0.794878  0.059366  1
  Sr  Sr1  1  0.742472  0.205316  0.946003  1
  Zn  Zn2  1  0.994326  0.448459  0.633602  1
  Ni  Ni3  1  0.657643  0.845323  0.554115  1
  Ni  Ni4  1  0.352201  0.138348  0.444183  1
  P  P5  1  0.396076  0.423934  0.237949  1
  P  P6  1  0.594464  0.573146  0.761969  1
  P  P7  1  0.849013  0.025486  0.303406  1
  P  P8  1  0.157299  0.970429  0.701612  1
  O  O9  1  0.813073  0.560036  0.888133  1
  O  O10  1  0.634734  0.462927  0.183251  1
  O  O11  1  0.638823  0.795150  0.755064  1
  O  O12  1  0.952067  0.105149  0.691623  1
  O  O13  1  0.333314  0.517706  0.794030  1
  O  O14  1  0.004831  0.736553  0.597379  1
  O  O15  1  0.008310  0.252443  0.423813  1
  O  O16  1  0.271972  0.009630  0.877191  1
  O  O17  1  0.357727  0.200638  0.247689  1
  O  O18  1  0.738513  0.001750  0.131735  1
  O  O19  1  0.173152  0.437306  0.113863  1
  O  O20  1  0.399130  0.595000  0.399974  1
  O  O21  1  0.608263  0.401249  0.598492  1
  O  O22  1  0.626115  0.951228  0.367522  1
  O  O23  1  0.057237  0.893641  0.305106  1
  O  O24  1  0.374851  0.038417  0.630161  1
