# generated using pymatgen
data_Mg2MnNb2O8
_symmetry_space_group_name_H-M   'P 1'
_cell_length_a   5.22786369
_cell_length_b   6.06643912
_cell_length_c   10.18230930
_cell_angle_alpha   107.31746329
_cell_angle_beta   89.69465623
_cell_angle_gamma   90.00427568
_symmetry_Int_Tables_number   1
_chemical_formula_structural   Mg2MnNb2O8
_chemical_formula_sum   'Mg4 Mn2 Nb4 O16'
_cell_volume   308.28401151
_cell_formula_units_Z   2
loop_
 _symmetry_equiv_pos_site_id
 _symmetry_equiv_pos_as_xyz
  1  'x, y, z'
loop_
 _atom_site_type_symbol
 _atom_site_label
 _atom_site_symmetry_multiplicity
 _atom_site_fract_x
 _atom_site_fract_y
 _atom_site_fract_z
 _atom_site_occupancy
  Mg  Mg0  1  0.753193  0.412476  0.544119  1
  Mg  Mg1  1  0.744060  0.869931  0.459590  1
  Mg  Mg2  1  0.244712  0.588731  0.460370  1
  Mg  Mg3  1  0.252761  0.130121  0.542741  1
  Mn  Mn4  1  0.748729  0.660186  0.001752  1
  Mn  Mn5  1  0.248759  0.339187  0.001724  1
  Nb  Nb6  1  0.740076  0.285806  0.237576  1
  Nb  Nb7  1  0.757368  0.050365  0.765965  1
  Nb  Nb8  1  0.257621  0.715071  0.766632  1
  Nb  Nb9  1  0.239669  0.949673  0.236656  1
  O  O10  1  0.073863  0.181823  0.147946  1
  O  O11  1  0.423495  0.035906  0.855448  1
  O  O12  1  0.924583  0.820106  0.855922  1
  O  O13  1  0.572714  0.965722  0.147463  1
  O  O14  1  0.590610  0.434740  0.123402  1
  O  O15  1  0.906942  0.313344  0.880064  1
  O  O16  1  0.407561  0.567399  0.881347  1
  O  O17  1  0.089985  0.687169  0.122022  1
  O  O18  1  0.454612  0.293936  0.378418  1
  O  O19  1  0.042674  0.917615  0.625062  1
  O  O20  1  0.381675  0.836547  0.384343  1
  O  O21  1  0.115773  0.454100  0.619017  1
  O  O22  1  0.615209  0.162973  0.618235  1
  O  O23  1  0.882082  0.546207  0.385245  1
  O  O24  1  0.955254  0.082897  0.378442  1
  O  O25  1  0.542063  0.706556  0.624796  1
