# generated using pymatgen
data_Ba(MoO2)4
_symmetry_space_group_name_H-M   'P 1'
_cell_length_a   5.90855521
_cell_length_b   5.90855590
_cell_length_c   7.88565729
_cell_angle_alpha   90.00000000
_cell_angle_beta   90.00000000
_cell_angle_gamma   119.99999609
_symmetry_Int_Tables_number   1
_chemical_formula_structural   Ba(MoO2)4
_chemical_formula_sum   'Ba1 Mo4 O8'
_cell_volume   238.41369255
_cell_formula_units_Z   1
loop_
 _symmetry_equiv_pos_site_id
 _symmetry_equiv_pos_as_xyz
  1  'x, y, z'
loop_
 _atom_site_type_symbol
 _atom_site_label
 _atom_site_symmetry_multiplicity
 _atom_site_fract_x
 _atom_site_fract_y
 _atom_site_fract_z
 _atom_site_occupancy
  Ba  Ba0  1  0.000000  0.000000  -0.000000  1
  Mo  Mo1  1  0.333333  0.666667  0.746491  1
  Mo  Mo2  1  0.666667  0.333333  0.746491  1
  Mo  Mo3  1  0.333333  0.666667  0.253509  1
  Mo  Mo4  1  0.666667  0.333333  0.253509  1
  O  O5  1  0.337436  0.337436  0.707006  1
  O  O6  1  0.662564  0.000000  0.707006  1
  O  O7  1  0.000000  0.662564  0.707006  1
  O  O8  1  0.662564  0.662564  0.292994  1
  O  O9  1  1.000000  0.337436  0.292994  1
  O  O10  1  0.337436  0.000000  0.292994  1
  O  O11  1  0.333333  0.666667  -0.000000  1
  O  O12  1  0.666667  0.333333  -0.000000  1
