# generated using pymatgen
data_CaTiAs2O7
_symmetry_space_group_name_H-M   'P 1'
_cell_length_a   8.19591957
_cell_length_b   8.61248663
_cell_length_c   10.64550478
_cell_angle_alpha   90.00000000
_cell_angle_beta   119.37427241
_cell_angle_gamma   90.00000000
_symmetry_Int_Tables_number   1
_chemical_formula_structural   CaTiAs2O7
_chemical_formula_sum   'Ca4 Ti4 As8 O28'
_cell_volume   654.82776507
_cell_formula_units_Z   4
loop_
 _symmetry_equiv_pos_site_id
 _symmetry_equiv_pos_as_xyz
  1  'x, y, z'
loop_
 _atom_site_type_symbol
 _atom_site_label
 _atom_site_symmetry_multiplicity
 _atom_site_fract_x
 _atom_site_fract_y
 _atom_site_fract_z
 _atom_site_occupancy
  Ca  Ca0  1  0.261260  0.929796  0.904763  1
  Ca  Ca1  1  0.738740  0.429796  0.595237  1
  Ca  Ca2  1  0.738740  0.070204  0.095237  1
  Ca  Ca3  1  0.261260  0.570204  0.404763  1
  Ti  Ti4  1  0.803907  0.061129  0.717656  1
  Ti  Ti5  1  0.196093  0.561129  0.782344  1
  Ti  Ti6  1  0.196093  0.938871  0.282344  1
  Ti  Ti7  1  0.803907  0.438871  0.217656  1
  As  As8  1  0.452142  0.239480  0.754284  1
  As  As9  1  0.547858  0.739480  0.745716  1
  As  As10  1  0.547858  0.760520  0.245716  1
  As  As11  1  0.452142  0.260520  0.254283  1
  As  As12  1  0.050908  0.317361  0.959959  1
  As  As13  1  0.949092  0.817361  0.540041  1
  As  As14  1  0.949092  0.682639  0.040041  1
  As  As15  1  0.050908  0.182639  0.459959  1
  O  O16  1  0.764920  0.328895  0.072754  1
  O  O17  1  0.235080  0.828895  0.427246  1
  O  O18  1  0.235080  0.671105  0.927246  1
  O  O19  1  0.764920  0.171105  0.572754  1
  O  O20  1  0.370392  0.419300  0.765197  1
  O  O21  1  0.629608  0.919300  0.734803  1
  O  O22  1  0.629608  0.580700  0.234802  1
  O  O23  1  0.370392  0.080700  0.265197  1
  O  O24  1  0.446444  0.110115  0.872973  1
  O  O25  1  0.553556  0.610115  0.627027  1
  O  O26  1  0.553556  0.889885  0.127027  1
  O  O27  1  0.446444  0.389885  0.372973  1
  O  O28  1  0.312628  0.181886  0.572378  1
  O  O29  1  0.687372  0.681886  0.927622  1
  O  O30  1  0.687372  0.818114  0.427622  1
  O  O31  1  0.312628  0.318114  0.072378  1
  O  O32  1  0.041388  0.098810  0.301942  1
  O  O33  1  0.958612  0.598811  0.198058  1
  O  O34  1  0.958612  0.901189  0.698058  1
  O  O35  1  0.041388  0.401189  0.801942  1
  O  O36  1  0.668470  0.249500  0.266761  1
  O  O37  1  0.331529  0.749500  0.233239  1
  O  O38  1  0.331529  0.750500  0.733239  1
  O  O39  1  0.668470  0.250500  0.766761  1
  O  O40  1  0.026398  0.381349  0.395883  1
  O  O41  1  0.973602  0.881349  0.104117  1
  O  O42  1  0.973602  0.618651  0.604117  1
  O  O43  1  0.026398  0.118651  0.895883  1
