# generated using pymatgen
data_TiZnCr(PO4)3
_symmetry_space_group_name_H-M   'P 1'
_cell_length_a   8.54455853
_cell_length_b   8.54455874
_cell_length_c   8.54455876
_cell_angle_alpha   60.37306873
_cell_angle_beta   60.37306840
_cell_angle_gamma   60.37307141
_symmetry_Int_Tables_number   1
_chemical_formula_structural   TiZnCr(PO4)3
_chemical_formula_sum   'Ti2 Zn2 Cr2 P6 O24'
_cell_volume   444.83939351
_cell_formula_units_Z   2
loop_
 _symmetry_equiv_pos_site_id
 _symmetry_equiv_pos_as_xyz
  1  'x, y, z'
loop_
 _atom_site_type_symbol
 _atom_site_label
 _atom_site_symmetry_multiplicity
 _atom_site_fract_x
 _atom_site_fract_y
 _atom_site_fract_z
 _atom_site_occupancy
  Ti  Ti0  1  0.144152  0.144152  0.144152  1
  Ti  Ti1  1  0.644152  0.644152  0.644152  1
  Zn  Zn2  1  0.998271  0.998271  0.998271  1
  Zn  Zn3  1  0.498271  0.498271  0.498271  1
  Cr  Cr4  1  0.357665  0.357665  0.357665  1
  Cr  Cr5  1  0.857665  0.857665  0.857665  1
  P  P6  1  0.044513  0.457341  0.750255  1
  P  P7  1  0.457341  0.750255  0.044513  1
  P  P8  1  0.750255  0.044513  0.457341  1
  P  P9  1  0.250255  0.957341  0.544513  1
  P  P10  1  0.544513  0.250255  0.957341  1
  P  P11  1  0.957341  0.544513  0.250255  1
  O  O12  1  0.113584  0.506737  0.313092  1
  O  O13  1  0.313092  0.113584  0.506737  1
  O  O14  1  0.054308  0.259759  0.914014  1
  O  O15  1  0.506737  0.313092  0.113584  1
  O  O16  1  0.006737  0.613584  0.813092  1
  O  O17  1  0.240581  0.438698  0.587915  1
  O  O18  1  0.259759  0.914014  0.054308  1
  O  O19  1  0.438698  0.587915  0.240581  1
  O  O20  1  0.187306  0.001706  0.380101  1
  O  O21  1  0.587915  0.240581  0.438698  1
  O  O22  1  0.087915  0.938698  0.740581  1
  O  O23  1  0.380101  0.187306  0.001706  1
  O  O24  1  0.613584  0.813092  0.006737  1
  O  O25  1  0.914014  0.054308  0.259759  1
  O  O26  1  0.414014  0.759759  0.554308  1
  O  O27  1  0.813092  0.006737  0.613584  1
  O  O28  1  0.554308  0.414014  0.759759  1
  O  O29  1  0.740581  0.087915  0.938698  1
  O  O30  1  0.759759  0.554308  0.414014  1
  O  O31  1  0.001706  0.380101  0.187306  1
  O  O32  1  0.501706  0.687306  0.880101  1
  O  O33  1  0.938698  0.740581  0.087915  1
  O  O34  1  0.687306  0.880101  0.501706  1
  O  O35  1  0.880101  0.501706  0.687306  1
