# generated using pymatgen
data_CaTi2O5
_symmetry_space_group_name_H-M   'P 1'
_cell_length_a   3.81595948
_cell_length_b   5.86958779
_cell_length_c   11.50983630
_cell_angle_alpha   90.00000000
_cell_angle_beta   90.00000000
_cell_angle_gamma   108.96932914
_symmetry_Int_Tables_number   1
_chemical_formula_structural   CaTi2O5
_chemical_formula_sum   'Ca2 Ti4 O10'
_cell_volume   243.79823076
_cell_formula_units_Z   2
loop_
 _symmetry_equiv_pos_site_id
 _symmetry_equiv_pos_as_xyz
  1  'x, y, z'
loop_
 _atom_site_type_symbol
 _atom_site_label
 _atom_site_symmetry_multiplicity
 _atom_site_fract_x
 _atom_site_fract_y
 _atom_site_fract_z
 _atom_site_occupancy
  Ca  Ca0  1  0.901782  0.803562  0.750000  1
  Ca  Ca1  1  0.098219  0.196439  0.250000  1
  Ti  Ti2  1  0.204798  0.409596  0.596880  1
  Ti  Ti3  1  0.795203  0.590405  0.403119  1
  Ti  Ti4  1  0.795203  0.590405  0.096881  1
  Ti  Ti5  1  0.204798  0.409596  0.903120  1
  O  O6  1  0.714395  0.428792  0.250000  1
  O  O7  1  0.285605  0.571209  0.750000  1
  O  O8  1  0.240872  0.481743  0.075737  1
  O  O9  1  0.759130  0.518258  0.924263  1
  O  O10  1  0.759130  0.518258  0.575737  1
  O  O11  1  0.240872  0.481743  0.424262  1
  O  O12  1  0.054455  0.108910  0.620698  1
  O  O13  1  0.945545  0.891089  0.379302  1
  O  O14  1  0.054455  0.108910  0.879302  1
  O  O15  1  0.945545  0.891089  0.120699  1
