# generated using pymatgen
data_ZnCo3O7
_symmetry_space_group_name_H-M   'P 1'
_cell_length_a   5.32936911
_cell_length_b   10.07596611
_cell_length_c   9.93900828
_cell_angle_alpha   90.00000000
_cell_angle_beta   90.00000000
_cell_angle_gamma   90.00000000
_symmetry_Int_Tables_number   1
_chemical_formula_structural   ZnCo3O7
_chemical_formula_sum   'Zn4 Co12 O28'
_cell_volume   533.71025893
_cell_formula_units_Z   4
loop_
 _symmetry_equiv_pos_site_id
 _symmetry_equiv_pos_as_xyz
  1  'x, y, z'
loop_
 _atom_site_type_symbol
 _atom_site_label
 _atom_site_symmetry_multiplicity
 _atom_site_fract_x
 _atom_site_fract_y
 _atom_site_fract_z
 _atom_site_occupancy
  Zn  Zn0  1  0.614107  0.750000  0.942023  1
  Zn  Zn1  1  0.114107  0.250000  0.557977  1
  Zn  Zn2  1  0.385893  0.250000  0.057977  1
  Zn  Zn3  1  0.885893  0.750000  0.442023  1
  Co  Co4  1  0.291413  0.029347  0.313719  1
  Co  Co5  1  0.791413  0.970653  0.186281  1
  Co  Co6  1  0.708587  0.529347  0.686281  1
  Co  Co7  1  0.208587  0.470653  0.813719  1
  Co  Co8  1  0.295102  0.750000  0.234335  1
  Co  Co9  1  0.795102  0.250000  0.265665  1
  Co  Co10  1  0.704898  0.250000  0.765665  1
  Co  Co11  1  0.204898  0.750000  0.734335  1
  Co  Co12  1  0.791413  0.529347  0.186281  1
  Co  Co13  1  0.291413  0.470653  0.313719  1
  Co  Co14  1  0.208587  0.029347  0.813719  1
  Co  Co15  1  0.708587  0.970653  0.686281  1
  O  O16  1  0.946154  0.122629  0.705193  1
  O  O17  1  0.446154  0.877371  0.794807  1
  O  O18  1  0.053846  0.622629  0.294807  1
  O  O19  1  0.553846  0.377371  0.205193  1
  O  O20  1  0.053846  0.877371  0.294807  1
  O  O21  1  0.553846  0.122629  0.205193  1
  O  O22  1  0.946154  0.377371  0.705193  1
  O  O23  1  0.446154  0.622629  0.794807  1
  O  O24  1  0.479617  0.115298  0.717998  1
  O  O25  1  0.979617  0.884702  0.782002  1
  O  O26  1  0.520383  0.615298  0.282002  1
  O  O27  1  0.020383  0.384702  0.217998  1
  O  O28  1  0.520383  0.884702  0.282002  1
  O  O29  1  0.020383  0.115298  0.217998  1
  O  O30  1  0.479617  0.384702  0.717998  1
  O  O31  1  0.979617  0.615298  0.782002  1
  O  O32  1  0.197965  0.750000  0.567096  1
  O  O33  1  0.697965  0.250000  0.932904  1
  O  O34  1  0.802035  0.250000  0.432904  1
  O  O35  1  0.302035  0.750000  0.067096  1
  O  O36  1  0.223811  0.402592  0.967958  1
  O  O37  1  0.723811  0.597408  0.532042  1
  O  O38  1  0.776189  0.902592  0.032042  1
  O  O39  1  0.276189  0.097408  0.467958  1
  O  O40  1  0.776189  0.597408  0.032042  1
  O  O41  1  0.276189  0.402592  0.467958  1
  O  O42  1  0.223811  0.097408  0.967958  1
  O  O43  1  0.723811  0.902592  0.532042  1
