# generated using pymatgen
data_ZnCoBiO5
_symmetry_space_group_name_H-M   'P 1'
_cell_length_a   5.65272056
_cell_length_b   10.76354162
_cell_length_c   15.07638745
_cell_angle_alpha   90.00000000
_cell_angle_beta   90.00000000
_cell_angle_gamma   90.00000000
_symmetry_Int_Tables_number   1
_chemical_formula_structural   ZnCoBiO5
_chemical_formula_sum   'Zn8 Co8 Bi8 O40'
_cell_volume   917.29705921
_cell_formula_units_Z   8
loop_
 _symmetry_equiv_pos_site_id
 _symmetry_equiv_pos_as_xyz
  1  'x, y, z'
loop_
 _atom_site_type_symbol
 _atom_site_label
 _atom_site_symmetry_multiplicity
 _atom_site_fract_x
 _atom_site_fract_y
 _atom_site_fract_z
 _atom_site_occupancy
  Zn  Zn0  1  0.421401  0.358282  0.473982  1
  Zn  Zn1  1  0.921401  0.141718  0.473982  1
  Zn  Zn2  1  0.921401  0.641718  0.026018  1
  Zn  Zn3  1  0.078599  0.358282  0.973982  1
  Zn  Zn4  1  0.578599  0.141718  0.973982  1
  Zn  Zn5  1  0.078599  0.858282  0.526018  1
  Zn  Zn6  1  0.578599  0.641718  0.526018  1
  Zn  Zn7  1  0.421401  0.858282  0.026018  1
  Co  Co8  1  0.920978  0.388768  0.595387  1
  Co  Co9  1  0.579022  0.888768  0.404614  1
  Co  Co10  1  0.079022  0.611232  0.404614  1
  Co  Co11  1  0.420978  0.111232  0.595387  1
  Co  Co12  1  0.079022  0.111232  0.095386  1
  Co  Co13  1  0.920978  0.888768  0.904613  1
  Co  Co14  1  0.579022  0.388768  0.095386  1
  Co  Co15  1  0.420978  0.611232  0.904613  1
  Bi  Bi16  1  0.029445  0.843119  0.226408  1
  Bi  Bi17  1  0.970555  0.156881  0.773592  1
  Bi  Bi18  1  0.470555  0.343119  0.773592  1
  Bi  Bi19  1  0.970555  0.656881  0.726408  1
  Bi  Bi20  1  0.529445  0.156881  0.273592  1
  Bi  Bi21  1  0.529445  0.656881  0.226408  1
  Bi  Bi22  1  0.470555  0.843119  0.726408  1
  Bi  Bi23  1  0.029445  0.343119  0.273592  1
  O  O24  1  0.795342  0.297428  0.686444  1
  O  O25  1  0.333234  0.043049  0.046998  1
  O  O26  1  0.166766  0.543049  0.953002  1
  O  O27  1  0.357031  0.802289  0.152030  1
  O  O28  1  0.142969  0.302289  0.847970  1
  O  O29  1  0.795342  0.797428  0.813556  1
  O  O30  1  0.142969  0.802289  0.652030  1
  O  O31  1  0.704658  0.797428  0.313556  1
  O  O32  1  0.333234  0.543049  0.453002  1
  O  O33  1  0.204658  0.702572  0.313556  1
  O  O34  1  0.704658  0.297428  0.186444  1
  O  O35  1  0.585591  0.196822  0.516083  1
  O  O36  1  0.833234  0.956951  0.453002  1
  O  O37  1  0.642969  0.697711  0.652030  1
  O  O38  1  0.108545  0.993241  0.846520  1
  O  O39  1  0.833234  0.456951  0.046998  1
  O  O40  1  0.204658  0.202572  0.186444  1
  O  O41  1  0.857031  0.197711  0.347970  1
  O  O42  1  0.085591  0.803178  0.983917  1
  O  O43  1  0.166766  0.043049  0.546998  1
  O  O44  1  0.414409  0.803178  0.483917  1
  O  O45  1  0.891455  0.006759  0.153480  1
  O  O46  1  0.642969  0.197711  0.847970  1
  O  O47  1  0.608545  0.006759  0.653480  1
  O  O48  1  0.414409  0.303178  0.016083  1
  O  O49  1  0.085591  0.303178  0.516083  1
  O  O50  1  0.666766  0.456951  0.546998  1
  O  O51  1  0.666766  0.956951  0.953002  1
  O  O52  1  0.608545  0.506759  0.846520  1
  O  O53  1  0.914409  0.696822  0.483917  1
  O  O54  1  0.914409  0.196822  0.016083  1
  O  O55  1  0.585591  0.696822  0.983917  1
  O  O56  1  0.891455  0.506759  0.346520  1
  O  O57  1  0.857031  0.697711  0.152030  1
  O  O58  1  0.357031  0.302289  0.347970  1
  O  O59  1  0.108545  0.493241  0.653480  1
  O  O60  1  0.391455  0.493241  0.153480  1
  O  O61  1  0.295342  0.202572  0.686444  1
  O  O62  1  0.391455  0.993241  0.346520  1
  O  O63  1  0.295342  0.702572  0.813556  1
