# generated using pymatgen
data_Zn2CrSbO6
_symmetry_space_group_name_H-M   'P 1'
_cell_length_a   5.23149950
_cell_length_b   5.30389507
_cell_length_c   7.71114186
_cell_angle_alpha   90.00000000
_cell_angle_beta   90.00000000
_cell_angle_gamma   90.01322360
_symmetry_Int_Tables_number   1
_chemical_formula_structural   Zn2CrSbO6
_chemical_formula_sum   'Zn4 Cr2 Sb2 O12'
_cell_volume   213.96354905
_cell_formula_units_Z   2
loop_
 _symmetry_equiv_pos_site_id
 _symmetry_equiv_pos_as_xyz
  1  'x, y, z'
loop_
 _atom_site_type_symbol
 _atom_site_label
 _atom_site_symmetry_multiplicity
 _atom_site_fract_x
 _atom_site_fract_y
 _atom_site_fract_z
 _atom_site_occupancy
  Zn  Zn0  1  0.515060  0.557194  0.750000  1
  Zn  Zn1  1  0.484940  0.442806  0.250000  1
  Zn  Zn2  1  0.015482  0.021714  0.750000  1
  Zn  Zn3  1  0.984518  0.978286  0.250000  1
  Cr  Cr4  1  0.500000  0.000000  0.500000  1
  Cr  Cr5  1  0.500000  0.000000  0.000000  1
  Sb  Sb6  1  0.000000  0.500000  0.500000  1
  Sb  Sb7  1  0.000000  0.500000  0.000000  1
  O  O8  1  0.317733  0.677871  0.431666  1
  O  O9  1  0.173576  0.183738  0.068148  1
  O  O10  1  0.682267  0.322129  0.931666  1
  O  O11  1  0.826424  0.816262  0.568148  1
  O  O12  1  0.173576  0.183738  0.431852  1
  O  O13  1  0.826424  0.816262  0.931852  1
  O  O14  1  0.868543  0.574157  0.250000  1
  O  O15  1  0.317733  0.677871  0.068334  1
  O  O16  1  0.384645  0.924914  0.750000  1
  O  O17  1  0.682267  0.322129  0.568334  1
  O  O18  1  0.131457  0.425843  0.750000  1
  O  O19  1  0.615355  0.075086  0.250000  1
