# generated using pymatgen
data_Al(CoO2)3
_symmetry_space_group_name_H-M   'P 1'
_cell_length_a   17.24973454
_cell_length_b   5.85665100
_cell_length_c   5.85635895
_cell_angle_alpha   59.76474038
_cell_angle_beta   89.36172734
_cell_angle_gamma   119.63426933
_symmetry_Int_Tables_number   1
_chemical_formula_structural   Al(CoO2)3
_chemical_formula_sum   'Al4 Co12 O24'
_cell_volume   416.79186407
_cell_formula_units_Z   4
loop_
 _symmetry_equiv_pos_site_id
 _symmetry_equiv_pos_as_xyz
  1  'x, y, z'
loop_
 _atom_site_type_symbol
 _atom_site_label
 _atom_site_symmetry_multiplicity
 _atom_site_fract_x
 _atom_site_fract_y
 _atom_site_fract_z
 _atom_site_occupancy
  Al  Al0  1  0.167849  0.004867  0.501371  1
  Al  Al1  1  0.832151  0.995133  0.498629  1
  Al  Al2  1  0.335711  0.505196  0.498059  1
  Al  Al3  1  0.664289  0.494804  0.501941  1
  Co  Co4  1  0.164088  0.993253  0.010788  1
  Co  Co5  1  0.500000  0.000000  0.000000  1
  Co  Co6  1  0.835912  0.006747  0.989212  1
  Co  Co7  1  0.046479  0.256089  0.116698  1
  Co  Co8  1  0.382862  0.256253  0.107668  1
  Co  Co9  1  0.706261  0.244108  0.125273  1
  Co  Co10  1  0.164072  0.503001  0.501013  1
  Co  Co11  1  0.500000  0.500000  0.500000  1
  Co  Co12  1  0.835928  0.496999  0.498987  1
  Co  Co13  1  0.293739  0.755892  0.874727  1
  Co  Co14  1  0.617138  0.743747  0.892332  1
  Co  Co15  1  0.953521  0.743911  0.883302  1
  O  O16  1  0.251045  0.040103  0.719559  1
  O  O17  1  0.586009  0.036419  0.757764  1
  O  O18  1  0.901638  0.973027  0.746414  1
  O  O19  1  0.251042  0.472603  0.287012  1
  O  O20  1  0.586009  0.515807  0.278375  1
  O  O21  1  0.901643  0.451315  0.268100  1
  O  O22  1  0.253839  0.490189  0.728642  1
  O  O23  1  0.577251  0.473835  0.742136  1
  O  O24  1  0.901047  0.468283  0.765127  1
  O  O25  1  0.089796  0.008767  0.739400  1
  O  O26  1  0.431045  0.047038  0.753864  1
  O  O27  1  0.755483  0.002377  0.735845  1
  O  O28  1  0.244517  0.997623  0.264155  1
  O  O29  1  0.568955  0.952962  0.246136  1
  O  O30  1  0.910204  0.991233  0.260600  1
  O  O31  1  0.098953  0.531717  0.234873  1
  O  O32  1  0.422749  0.526165  0.257864  1
  O  O33  1  0.746161  0.509811  0.271358  1
  O  O34  1  0.098362  0.026973  0.253586  1
  O  O35  1  0.413991  0.963581  0.242236  1
  O  O36  1  0.748955  0.959897  0.280441  1
  O  O37  1  0.098357  0.548685  0.731900  1
  O  O38  1  0.413991  0.484192  0.721625  1
  O  O39  1  0.748958  0.527397  0.712988  1
