# generated using pymatgen
data_Mg2CoSbO6
_symmetry_space_group_name_H-M   'P 1'
_cell_length_a   5.20525365
_cell_length_b   5.37977930
_cell_length_c   7.54723250
_cell_angle_alpha   90.00000000
_cell_angle_beta   90.00000000
_cell_angle_gamma   90.75487294
_symmetry_Int_Tables_number   1
_chemical_formula_structural   Mg2CoSbO6
_chemical_formula_sum   'Mg4 Co2 Sb2 O12'
_cell_volume   211.32768347
_cell_formula_units_Z   2
loop_
 _symmetry_equiv_pos_site_id
 _symmetry_equiv_pos_as_xyz
  1  'x, y, z'
loop_
 _atom_site_type_symbol
 _atom_site_label
 _atom_site_symmetry_multiplicity
 _atom_site_fract_x
 _atom_site_fract_y
 _atom_site_fract_z
 _atom_site_occupancy
  Mg  Mg0  1  0.521420  0.569987  0.750000  1
  Mg  Mg1  1  0.478580  0.430013  0.250000  1
  Mg  Mg2  1  0.014235  0.036281  0.750000  1
  Mg  Mg3  1  0.985765  0.963719  0.250000  1
  Co  Co4  1  0.500000  0.000000  0.500000  1
  Co  Co5  1  0.500000  0.000000  0.000000  1
  Sb  Sb6  1  0.000000  0.500000  0.500000  1
  Sb  Sb7  1  0.000000  0.500000  0.000000  1
  O  O8  1  0.320170  0.676361  0.432780  1
  O  O9  1  0.171024  0.185298  0.068661  1
  O  O10  1  0.679830  0.323639  0.932780  1
  O  O11  1  0.828976  0.814702  0.568661  1
  O  O12  1  0.171024  0.185298  0.431339  1
  O  O13  1  0.828976  0.814702  0.931339  1
  O  O14  1  0.859373  0.573235  0.250000  1
  O  O15  1  0.320170  0.676361  0.067220  1
  O  O16  1  0.385861  0.930569  0.750000  1
  O  O17  1  0.679830  0.323639  0.567220  1
  O  O18  1  0.140627  0.426765  0.750000  1
  O  O19  1  0.614139  0.069431  0.250000  1
