# generated using pymatgen
data_Ca2Nb2CoO8
_symmetry_space_group_name_H-M   'P 1'
_cell_length_a   5.47682332
_cell_length_b   6.36979107
_cell_length_c   10.02414679
_cell_angle_alpha   108.53099964
_cell_angle_beta   91.36187626
_cell_angle_gamma   89.98520818
_symmetry_Int_Tables_number   1
_chemical_formula_structural   Ca2Nb2CoO8
_chemical_formula_sum   'Ca4 Nb4 Co2 O16'
_cell_volume   331.46957389
_cell_formula_units_Z   2
loop_
 _symmetry_equiv_pos_site_id
 _symmetry_equiv_pos_as_xyz
  1  'x, y, z'
loop_
 _atom_site_type_symbol
 _atom_site_label
 _atom_site_symmetry_multiplicity
 _atom_site_fract_x
 _atom_site_fract_y
 _atom_site_fract_z
 _atom_site_occupancy
  Ca  Ca0  1  0.753716  0.470271  0.583246  1
  Ca  Ca1  1  0.741290  0.887315  0.418161  1
  Ca  Ca2  1  0.241509  0.530620  0.418131  1
  Ca  Ca3  1  0.253512  0.112448  0.581455  1
  Nb  Nb4  1  0.748008  0.263988  0.221441  1
  Nb  Nb5  1  0.746582  0.042737  0.779072  1
  Nb  Nb6  1  0.247044  0.736269  0.779101  1
  Nb  Nb7  1  0.247814  0.957112  0.220832  1
  Co  Co8  1  0.747766  0.643636  0.000256  1
  Co  Co9  1  0.247626  0.355617  -0.000169  1
  O  O10  1  0.085260  0.195485  0.138522  1
  O  O11  1  0.410182  0.057234  0.861807  1
  O  O12  1  0.909463  0.803175  0.860983  1
  O  O13  1  0.585480  0.943172  0.138333  1
  O  O14  1  0.576804  0.412767  0.113670  1
  O  O15  1  0.919793  0.298186  0.886926  1
  O  O16  1  0.420004  0.588574  0.886719  1
  O  O17  1  0.076644  0.700980  0.113077  1
  O  O18  1  0.497969  0.245020  0.365055  1
  O  O19  1  0.996618  0.880286  0.635087  1
  O  O20  1  0.341298  0.835152  0.367812  1
  O  O21  1  0.154208  0.467460  0.632132  1
  O  O22  1  0.653560  0.164478  0.631998  1
  O  O23  1  0.841298  0.532548  0.368777  1
  O  O24  1  0.998071  0.119311  0.364761  1
  O  O25  1  0.496388  0.755465  0.635077  1
