# generated using pymatgen
data_LaFeTeO6
_symmetry_space_group_name_H-M   'P 1'
_cell_length_a   5.57003459
_cell_length_b   5.54041344
_cell_length_c   7.84532977
_cell_angle_alpha   89.96570959
_cell_angle_beta   90.00000000
_cell_angle_gamma   90.00000000
_symmetry_Int_Tables_number   1
_chemical_formula_structural   LaFeTeO6
_chemical_formula_sum   'La2 Fe2 Te2 O12'
_cell_volume   242.10914401
_cell_formula_units_Z   2
loop_
 _symmetry_equiv_pos_site_id
 _symmetry_equiv_pos_as_xyz
  1  'x, y, z'
loop_
 _atom_site_type_symbol
 _atom_site_label
 _atom_site_symmetry_multiplicity
 _atom_site_fract_x
 _atom_site_fract_y
 _atom_site_fract_z
 _atom_site_occupancy
  La  La0  1  0.034375  0.991171  0.248629  1
  La  La1  1  0.465625  0.491171  0.748629  1
  Fe  Fe2  1  0.507879  0.996987  0.000236  1
  Fe  Fe3  1  0.992121  0.496987  0.500236  1
  Te  Te4  1  0.506214  0.997951  0.499708  1
  Te  Te5  1  0.993786  0.497951  0.999708  1
  O  O6  1  0.011227  0.551627  0.754760  1
  O  O7  1  0.220839  0.232195  0.971489  1
  O  O8  1  0.236663  0.223093  0.529815  1
  O  O9  1  0.263337  0.723093  0.029815  1
  O  O10  1  0.279161  0.732195  0.471489  1
  O  O11  1  0.488773  0.051627  0.254760  1
  O  O12  1  0.507785  0.929090  0.744176  1
  O  O13  1  0.712696  0.276299  0.535605  1
  O  O14  1  0.717042  0.291189  0.965769  1
  O  O15  1  0.782958  0.791189  0.465769  1
  O  O16  1  0.787304  0.776299  0.035605  1
  O  O17  1  0.992215  0.429090  0.244176  1
