# generated using pymatgen
data_Zn(CoO2)4
_symmetry_space_group_name_H-M   'P 1'
_cell_length_a   2.91447667
_cell_length_b   6.58914843
_cell_length_c   7.47658081
_cell_angle_alpha   77.27233859
_cell_angle_beta   78.84552315
_cell_angle_gamma   77.08242454
_symmetry_Int_Tables_number   1
_chemical_formula_structural   Zn(CoO2)4
_chemical_formula_sum   'Zn1 Co4 O8'
_cell_volume   134.92800691
_cell_formula_units_Z   1
loop_
 _symmetry_equiv_pos_site_id
 _symmetry_equiv_pos_as_xyz
  1  'x, y, z'
loop_
 _atom_site_type_symbol
 _atom_site_label
 _atom_site_symmetry_multiplicity
 _atom_site_fract_x
 _atom_site_fract_y
 _atom_site_fract_z
 _atom_site_occupancy
  Zn  Zn0  1  0.385004  0.068187  0.164146  1
  Co  Co1  1  0.621786  0.190901  0.561721  1
  Co  Co2  1  0.131072  0.537188  0.199647  1
  Co  Co3  1  0.844069  0.456069  0.850517  1
  Co  Co4  1  0.343234  0.800809  0.512259  1
  O  O5  1  0.861325  0.639686  0.631880  1
  O  O6  1  0.458608  0.305003  0.775664  1
  O  O7  1  0.512539  0.733006  0.238050  1
  O  O8  1  0.106950  0.348764  0.432391  1
  O  O9  1  0.154074  0.022485  0.667242  1
  O  O10  1  0.809454  0.288634  0.091116  1
  O  O11  1  0.800999  0.005269  0.390770  1
  O  O12  1  0.225424  0.603674  0.938673  1
