# generated using pymatgen
data_Co(BiO3)2
_symmetry_space_group_name_H-M   'P 1'
_cell_length_a   3.77025141
_cell_length_b   3.77022333
_cell_length_c   8.60321061
_cell_angle_alpha   90.00076669
_cell_angle_beta   90.00086429
_cell_angle_gamma   90.00350926
_symmetry_Int_Tables_number   1
_chemical_formula_structural   Co(BiO3)2
_chemical_formula_sum   'Co1 Bi2 O6'
_cell_volume   122.29197020
_cell_formula_units_Z   1
loop_
 _symmetry_equiv_pos_site_id
 _symmetry_equiv_pos_as_xyz
  1  'x, y, z'
loop_
 _atom_site_type_symbol
 _atom_site_label
 _atom_site_symmetry_multiplicity
 _atom_site_fract_x
 _atom_site_fract_y
 _atom_site_fract_z
 _atom_site_occupancy
  Co  Co0  1  0.499999  0.499999  0.812338  1
  Bi  Bi1  1  0.000002  0.000000  0.468339  1
  Bi  Bi2  1  0.000043  0.000064  0.026806  1
  O  O3  1  0.499995  0.499996  0.616473  1
  O  O4  1  0.000004  0.499994  0.328138  1
  O  O5  1  0.500000  0.999987  0.857091  1
  O  O6  1  0.499994  0.000004  0.328146  1
  O  O7  1  0.499972  0.499955  0.034695  1
  O  O8  1  0.999992  0.500000  0.857092  1
