# generated using pymatgen
data_Ca3Ag2(GeO4)3
_symmetry_space_group_name_H-M   'P 1'
_cell_length_a   11.06259005
_cell_length_b   11.06258944
_cell_length_c   11.06258959
_cell_angle_alpha   109.47122089
_cell_angle_beta   109.47121977
_cell_angle_gamma   109.47121989
_symmetry_Int_Tables_number   1
_chemical_formula_structural   Ca3Ag2(GeO4)3
_chemical_formula_sum   'Ca12 Ag8 Ge12 O48'
_cell_volume   1042.19391030
_cell_formula_units_Z   4
loop_
 _symmetry_equiv_pos_site_id
 _symmetry_equiv_pos_as_xyz
  1  'x, y, z'
loop_
 _atom_site_type_symbol
 _atom_site_label
 _atom_site_symmetry_multiplicity
 _atom_site_fract_x
 _atom_site_fract_y
 _atom_site_fract_z
 _atom_site_occupancy
  Ca  Ca0  1  0.625000  0.250000  0.875000  1
  Ca  Ca1  1  0.875000  0.750000  0.625000  1
  Ca  Ca2  1  0.750000  0.625000  0.875000  1
  Ca  Ca3  1  0.250000  0.875000  0.625000  1
  Ca  Ca4  1  0.875000  0.625000  0.250000  1
  Ca  Ca5  1  0.625000  0.875000  0.750000  1
  Ca  Ca6  1  0.375000  0.750000  0.125000  1
  Ca  Ca7  1  0.125000  0.250000  0.375000  1
  Ca  Ca8  1  0.250000  0.375000  0.125000  1
  Ca  Ca9  1  0.750000  0.125000  0.375000  1
  Ca  Ca10  1  0.125000  0.375000  0.750000  1
  Ca  Ca11  1  0.375000  0.125000  0.250000  1
  Ag  Ag12  1  0.500000  0.500000  0.500000  1
  Ag  Ag13  1  0.500000  0.500000  0.000000  1
  Ag  Ag14  1  0.500000  0.000000  0.500000  1
  Ag  Ag15  1  0.000000  0.500000  0.500000  1
  Ag  Ag16  1  0.500000  0.000000  0.000000  1
  Ag  Ag17  1  0.000000  0.000000  0.500000  1
  Ag  Ag18  1  0.000000  0.500000  0.000000  1
  Ag  Ag19  1  0.000000  0.000000  0.000000  1
  Ge  Ge20  1  0.875000  0.125000  0.750000  1
  Ge  Ge21  1  0.125000  0.875000  0.250000  1
  Ge  Ge22  1  0.250000  0.625000  0.375000  1
  Ge  Ge23  1  0.125000  0.750000  0.875000  1
  Ge  Ge24  1  0.750000  0.875000  0.125000  1
  Ge  Ge25  1  0.375000  0.250000  0.625000  1
  Ge  Ge26  1  0.625000  0.750000  0.375000  1
  Ge  Ge27  1  0.875000  0.250000  0.125000  1
  Ge  Ge28  1  0.250000  0.125000  0.875000  1
  Ge  Ge29  1  0.750000  0.375000  0.625000  1
  Ge  Ge30  1  0.375000  0.625000  0.750000  1
  Ge  Ge31  1  0.625000  0.375000  0.250000  1
  O  O32  1  0.783154  0.410186  0.806472  1
  O  O33  1  0.089814  0.872969  0.396287  1
  O  O34  1  0.693528  0.103713  0.976681  1
  O  O35  1  0.716846  0.523319  0.627031  1
  O  O36  1  0.716846  0.693528  0.089814  1
  O  O37  1  0.523319  0.627031  0.716846  1
  O  O38  1  0.103713  0.627031  0.410186  1
  O  O39  1  0.627031  0.716846  0.523319  1
  O  O40  1  0.396287  0.806472  0.523319  1
  O  O41  1  0.872969  0.976681  0.783154  1
  O  O42  1  0.976681  0.783154  0.872969  1
  O  O43  1  0.089814  0.716846  0.693528  1
  O  O44  1  0.627031  0.410186  0.103713  1
  O  O45  1  0.523319  0.396287  0.806472  1
  O  O46  1  0.693528  0.089814  0.716846  1
  O  O47  1  0.410186  0.103713  0.627031  1
  O  O48  1  0.806472  0.523319  0.396287  1
  O  O49  1  0.396287  0.089814  0.872969  1
  O  O50  1  0.103713  0.976681  0.693528  1
  O  O51  1  0.603713  0.193528  0.476681  1
  O  O52  1  0.976681  0.693528  0.103713  1
  O  O53  1  0.806472  0.783154  0.410186  1
  O  O54  1  0.872969  0.396287  0.089814  1
  O  O55  1  0.783154  0.872969  0.976681  1
  O  O56  1  0.216846  0.589814  0.193528  1
  O  O57  1  0.910186  0.127031  0.603713  1
  O  O58  1  0.306472  0.896287  0.023319  1
  O  O59  1  0.283154  0.476681  0.372969  1
  O  O60  1  0.283154  0.306472  0.910186  1
  O  O61  1  0.476681  0.372969  0.283154  1
  O  O62  1  0.896287  0.372969  0.589814  1
  O  O63  1  0.372969  0.283154  0.476681  1
  O  O64  1  0.216846  0.127031  0.023319  1
  O  O65  1  0.127031  0.603713  0.910186  1
  O  O66  1  0.193528  0.216846  0.589814  1
  O  O67  1  0.589814  0.193528  0.216846  1
  O  O68  1  0.023319  0.306472  0.896287  1
  O  O69  1  0.896287  0.023319  0.306472  1
  O  O70  1  0.603713  0.910186  0.127031  1
  O  O71  1  0.193528  0.476681  0.603713  1
  O  O72  1  0.589814  0.896287  0.372969  1
  O  O73  1  0.306472  0.910186  0.283154  1
  O  O74  1  0.476681  0.603713  0.193528  1
  O  O75  1  0.372969  0.589814  0.896287  1
  O  O76  1  0.910186  0.283154  0.306472  1
  O  O77  1  0.023319  0.216846  0.127031  1
  O  O78  1  0.127031  0.023319  0.216846  1
  O  O79  1  0.410186  0.806472  0.783154  1
