# generated using pymatgen
data_Ca2VWO6
_symmetry_space_group_name_H-M   'P 1'
_cell_length_a   5.50656441
_cell_length_b   5.67973535
_cell_length_c   7.88067049
_cell_angle_alpha   90.00000000
_cell_angle_beta   90.22228644
_cell_angle_gamma   90.00000000
_symmetry_Int_Tables_number   1
_chemical_formula_structural   Ca2VWO6
_chemical_formula_sum   'Ca4 V2 W2 O12'
_cell_volume   246.47264392
_cell_formula_units_Z   2
loop_
 _symmetry_equiv_pos_site_id
 _symmetry_equiv_pos_as_xyz
  1  'x, y, z'
loop_
 _atom_site_type_symbol
 _atom_site_label
 _atom_site_symmetry_multiplicity
 _atom_site_fract_x
 _atom_site_fract_y
 _atom_site_fract_z
 _atom_site_occupancy
  Ca  Ca0  1  0.987619  0.051975  0.252153  1
  Ca  Ca1  1  0.512381  0.551976  0.247847  1
  Ca  Ca2  1  0.012382  0.948026  0.747847  1
  Ca  Ca3  1  0.487618  0.448025  0.752153  1
  V  V4  1  0.500000  0.000000  0.000000  1
  V  V5  1  0.000001  0.499999  0.500000  1
  W  W6  1  0.500000  0.000000  0.499999  1
  W  W7  1  0.000000  0.499999  0.000000  1
  O  O8  1  0.686920  0.284559  0.445854  1
  O  O9  1  0.813080  0.784560  0.054146  1
  O  O10  1  0.313079  0.715441  0.554146  1
  O  O11  1  0.186921  0.215440  0.945854  1
  O  O12  1  0.212649  0.191452  0.547203  1
  O  O13  1  0.287351  0.691451  0.952797  1
  O  O14  1  0.787352  0.808548  0.452797  1
  O  O15  1  0.712648  0.308549  0.047203  1
  O  O16  1  0.097698  0.466474  0.238569  1
  O  O17  1  0.402303  0.966475  0.261429  1
  O  O18  1  0.597698  0.033525  0.738571  1
  O  O19  1  0.902303  0.533526  0.761431  1
