# generated using pymatgen
data_EuCuO3
_symmetry_space_group_name_H-M   'P 1'
_cell_length_a   6.30416181
_cell_length_b   6.45701837
_cell_length_c   8.08977613
_cell_angle_alpha   113.52099353
_cell_angle_beta   109.59407005
_cell_angle_gamma   90.00000765
_symmetry_Int_Tables_number   1
_chemical_formula_structural   EuCuO3
_chemical_formula_sum   'Eu4 Cu4 O12'
_cell_volume   281.02289834
_cell_formula_units_Z   4
loop_
 _symmetry_equiv_pos_site_id
 _symmetry_equiv_pos_as_xyz
  1  'x, y, z'
loop_
 _atom_site_type_symbol
 _atom_site_label
 _atom_site_symmetry_multiplicity
 _atom_site_fract_x
 _atom_site_fract_y
 _atom_site_fract_z
 _atom_site_occupancy
  Eu  Eu0  1  0.794068  0.976420  0.626594  1
  Eu  Eu1  1  0.205932  0.023580  0.373406  1
  Eu  Eu2  1  0.705932  0.349826  0.373406  1
  Eu  Eu3  1  0.294068  0.650174  0.626594  1
  Cu  Cu4  1  0.004166  0.497354  0.171020  1
  Cu  Cu5  1  0.995834  0.502646  0.828980  1
  Cu  Cu6  1  0.504166  0.673666  0.171020  1
  Cu  Cu7  1  0.495834  0.326334  0.828980  1
  O  O8  1  0.493807  0.665376  0.396604  1
  O  O9  1  0.009817  0.707544  0.070036  1
  O  O10  1  0.506193  0.334624  0.603396  1
  O  O11  1  0.467276  0.012738  0.715456  1
  O  O12  1  0.532723  0.987262  0.284544  1
  O  O13  1  0.032724  0.297282  0.284544  1
  O  O14  1  0.990183  0.292456  0.929964  1
  O  O15  1  0.490183  0.637508  0.929964  1
  O  O16  1  0.967276  0.702718  0.715456  1
  O  O17  1  0.509817  0.362492  0.070036  1
  O  O18  1  0.006193  0.268773  0.603396  1
  O  O19  1  0.993807  0.731227  0.396604  1
