# generated using pymatgen
data_CaCr2O4
_symmetry_space_group_name_H-M   'P 1'
_cell_length_a   6.30440482
_cell_length_b   6.20029323
_cell_length_c   18.48649845
_cell_angle_alpha   59.91256265
_cell_angle_beta   61.67623247
_cell_angle_gamma   60.51054993
_symmetry_Int_Tables_number   1
_chemical_formula_structural   CaCr2O4
_chemical_formula_sum   'Ca6 Cr12 O24'
_cell_volume   518.79057540
_cell_formula_units_Z   6
loop_
 _symmetry_equiv_pos_site_id
 _symmetry_equiv_pos_as_xyz
  1  'x, y, z'
loop_
 _atom_site_type_symbol
 _atom_site_label
 _atom_site_symmetry_multiplicity
 _atom_site_fract_x
 _atom_site_fract_y
 _atom_site_fract_z
 _atom_site_occupancy
  Ca  Ca0  1  0.129046  0.122873  0.042274  1
  Ca  Ca1  1  0.503790  0.502636  0.330624  1
  Ca  Ca2  1  0.004228  0.502665  0.165543  1
  Ca  Ca3  1  0.501533  0.496005  0.669255  1
  Ca  Ca4  1  0.002891  0.497018  0.499914  1
  Ca  Ca5  1  0.995044  0.497289  0.833748  1
  Cr  Cr6  1  0.497089  0.011010  0.165110  1
  Cr  Cr7  1  0.135865  0.113254  0.377725  1
  Cr  Cr8  1  0.497325  0.497119  0.002985  1
  Cr  Cr9  1  0.499188  0.497353  0.165455  1
  Cr  Cr10  1  0.502073  0.997239  0.500281  1
  Cr  Cr11  1  0.135344  0.117654  0.709380  1
  Cr  Cr12  1  0.502328  0.496714  0.500569  1
  Cr  Cr13  1  0.502013  0.994135  0.834273  1
  Cr  Cr14  1  0.865567  0.882988  0.290321  1
  Cr  Cr15  1  0.496724  0.501909  0.835123  1
  Cr  Cr16  1  0.867487  0.879640  0.623352  1
  Cr  Cr17  1  0.835927  0.891798  0.960193  1
  O  O18  1  0.297764  0.258953  0.082257  1
  O  O19  1  0.289438  0.235784  0.247244  1
  O  O20  1  0.300952  0.698673  0.082327  1
  O  O21  1  0.694227  0.266991  0.090807  1
  O  O22  1  0.269824  0.225717  0.420932  1
  O  O23  1  0.263594  0.769925  0.232532  1
  O  O24  1  0.295444  0.234370  0.577951  1
  O  O25  1  0.743497  0.256133  0.241274  1
  O  O26  1  0.269277  0.738432  0.421702  1
  O  O27  1  0.711409  0.766616  0.086864  1
  O  O28  1  0.734192  0.235935  0.430066  1
  O  O29  1  0.740673  0.779701  0.241551  1
  O  O30  1  0.265052  0.219710  0.756847  1
  O  O31  1  0.269965  0.757855  0.570765  1
  O  O32  1  0.736523  0.255280  0.579362  1
  O  O33  1  0.258124  0.743668  0.758619  1
  O  O34  1  0.305678  0.249881  0.897414  1
  O  O35  1  0.709954  0.761491  0.421908  1
  O  O36  1  0.745260  0.229290  0.765043  1
  O  O37  1  0.736361  0.768301  0.579145  1
  O  O38  1  0.291738  0.735002  0.913276  1
  O  O39  1  0.711196  0.268912  0.922424  1
  O  O40  1  0.711720  0.760570  0.754389  1
  O  O41  1  0.716904  0.747896  0.921960  1
