# generated using pymatgen
data_Ba3Y4(NiO5)3
_symmetry_space_group_name_H-M   'P 1'
_cell_length_a   11.48366537
_cell_length_b   5.69306814
_cell_length_c   6.44170325
_cell_angle_alpha   116.22462542
_cell_angle_beta   106.75850665
_cell_angle_gamma   90.00000416
_symmetry_Int_Tables_number   1
_chemical_formula_structural   Ba3Y4(NiO5)3
_chemical_formula_sum   'Ba3 Y4 Ni3 O15'
_cell_volume   357.74514078
_cell_formula_units_Z   1
loop_
 _symmetry_equiv_pos_site_id
 _symmetry_equiv_pos_as_xyz
  1  'x, y, z'
loop_
 _atom_site_type_symbol
 _atom_site_label
 _atom_site_symmetry_multiplicity
 _atom_site_fract_x
 _atom_site_fract_y
 _atom_site_fract_z
 _atom_site_occupancy
  Ba  Ba0  1  0.991997  0.993551  0.987101  1
  Ba  Ba1  1  0.341336  0.006449  0.012899  1
  Ba  Ba2  1  0.666667  0.000000  0.000000  1
  Y  Y3  1  0.265668  0.291643  0.583287  1
  Y  Y4  1  0.593456  0.292333  0.584665  1
  Y  Y5  1  0.067666  0.708358  0.416713  1
  Y  Y6  1  0.739878  0.707668  0.415335  1
  Ni  Ni7  1  0.166667  0.500000  0.000001  1
  Ni  Ni8  1  0.501313  0.510630  0.021262  1
  Ni  Ni9  1  0.832021  0.489370  0.978740  1
  O  O10  1  0.142359  0.127872  0.735682  1
  O  O11  1  0.455631  0.159669  0.751581  1
  O  O12  1  0.771649  0.122524  0.719780  1
  O  O13  1  0.190975  0.872129  0.264318  1
  O  O14  1  0.561684  0.877477  0.280220  1
  O  O15  1  0.877702  0.840332  0.248419  1
  O  O16  1  0.190974  0.392188  0.264318  1
  O  O17  1  0.561684  0.402743  0.280220  1
  O  O18  1  0.877702  0.408087  0.248419  1
  O  O19  1  0.142359  0.607811  0.735681  1
  O  O20  1  0.455631  0.591912  0.751580  1
  O  O21  1  0.771650  0.597256  0.719779  1
  O  O22  1  0.998820  0.499212  0.998423  1
  O  O23  1  0.334513  0.500788  0.001577  1
  O  O24  1  0.666667  0.500000  0.000000  1
