# generated using pymatgen
data_MgCo(GeO3)2
_symmetry_space_group_name_H-M   'P 1'
_cell_length_a   5.44673353
_cell_length_b   9.06014757
_cell_length_c   9.86147514
_cell_angle_alpha   90.00000000
_cell_angle_beta   103.41134297
_cell_angle_gamma   90.00000000
_symmetry_Int_Tables_number   1
_chemical_formula_structural   MgCo(GeO3)2
_chemical_formula_sum   'Mg4 Co4 Ge8 O24'
_cell_volume   473.37529198
_cell_formula_units_Z   4
loop_
 _symmetry_equiv_pos_site_id
 _symmetry_equiv_pos_as_xyz
  1  'x, y, z'
loop_
 _atom_site_type_symbol
 _atom_site_label
 _atom_site_symmetry_multiplicity
 _atom_site_fract_x
 _atom_site_fract_y
 _atom_site_fract_z
 _atom_site_occupancy
  Mg  Mg0  1  0.440853  0.491276  0.244993  1
  Mg  Mg1  1  0.059147  0.991276  0.755007  1
  Mg  Mg2  1  0.559147  0.508724  0.755007  1
  Mg  Mg3  1  0.940853  0.008724  0.244993  1
  Co  Co4  1  0.949265  0.653868  0.244355  1
  Co  Co5  1  0.550735  0.153868  0.755645  1
  Co  Co6  1  0.050735  0.346132  0.755645  1
  Co  Co7  1  0.449265  0.846132  0.244355  1
  Ge  Ge8  1  0.825382  0.338893  0.055808  1
  Ge  Ge9  1  0.674618  0.838893  0.944192  1
  Ge  Ge10  1  0.174618  0.661107  0.944192  1
  Ge  Ge11  1  0.325382  0.161107  0.055808  1
  Ge  Ge12  1  0.237461  0.344009  0.459039  1
  Ge  Ge13  1  0.262539  0.844009  0.540961  1
  Ge  Ge14  1  0.762539  0.655991  0.540961  1
  Ge  Ge15  1  0.737461  0.155991  0.459039  1
  O  O16  1  0.500847  0.288732  0.386510  1
  O  O17  1  0.999153  0.788732  0.613490  1
  O  O18  1  0.499153  0.711268  0.613490  1
  O  O19  1  0.000847  0.211268  0.386510  1
  O  O20  1  0.168707  0.321817  0.111113  1
  O  O21  1  0.331293  0.821817  0.888888  1
  O  O22  1  0.831293  0.678183  0.888888  1
  O  O23  1  0.668707  0.178183  0.111113  1
  O  O24  1  0.691724  0.987129  0.373546  1
  O  O25  1  0.808276  0.487129  0.626454  1
  O  O26  1  0.308276  0.012871  0.626454  1
  O  O27  1  0.191724  0.512871  0.373546  1
  O  O28  1  0.222723  0.013790  0.140556  1
  O  O29  1  0.277276  0.513790  0.859444  1
  O  O30  1  0.777277  0.986210  0.859444  1
  O  O31  1  0.722723  0.486210  0.140556  1
  O  O32  1  0.760168  0.338753  0.870989  1
  O  O33  1  0.739832  0.838753  0.129011  1
  O  O34  1  0.239832  0.661247  0.129011  1
  O  O35  1  0.260168  0.161247  0.870989  1
  O  O36  1  0.328195  0.341950  0.642440  1
  O  O37  1  0.171805  0.841950  0.357560  1
  O  O38  1  0.671805  0.658050  0.357560  1
  O  O39  1  0.828195  0.158050  0.642440  1
