# generated using pymatgen
data_YCu(WO4)2
_symmetry_space_group_name_H-M   'P 1'
_cell_length_a   5.08137011
_cell_length_b   6.05157913
_cell_length_c   10.05615713
_cell_angle_alpha   90.00000000
_cell_angle_beta   92.82754940
_cell_angle_gamma   90.00000000
_symmetry_Int_Tables_number   1
_chemical_formula_structural   YCu(WO4)2
_chemical_formula_sum   'Y2 Cu2 W4 O16'
_cell_volume   308.85350506
_cell_formula_units_Z   2
loop_
 _symmetry_equiv_pos_site_id
 _symmetry_equiv_pos_as_xyz
  1  'x, y, z'
loop_
 _atom_site_type_symbol
 _atom_site_label
 _atom_site_symmetry_multiplicity
 _atom_site_fract_x
 _atom_site_fract_y
 _atom_site_fract_z
 _atom_site_occupancy
  O  O0  1  0.407760  0.354283  0.137227  1
  O  O1  1  0.092240  0.354283  0.362773  1
  O  O2  1  0.592240  0.645717  0.862773  1
  O  O3  1  0.907760  0.645717  0.637227  1
  O  O4  1  0.448528  0.912181  0.610006  1
  O  O5  1  0.051472  0.912181  0.889994  1
  O  O6  1  0.551472  0.087819  0.389994  1
  O  O7  1  0.948528  0.087819  0.110006  1
  O  O8  1  0.893246  0.636342  0.109715  1
  O  O9  1  0.606754  0.636342  0.390285  1
  O  O10  1  0.106754  0.363658  0.890285  1
  O  O11  1  0.393246  0.363658  0.609715  1
  O  O12  1  0.936930  0.114240  0.596496  1
  O  O13  1  0.563070  0.114240  0.903504  1
  O  O14  1  0.063070  0.885760  0.403504  1
  O  O15  1  0.436930  0.885760  0.096496  1
  Cu  Cu16  1  0.750000  0.273983  0.250000  1
  Cu  Cu17  1  0.250000  0.726017  0.750000  1
  Y  Y18  1  0.250000  0.661789  0.250000  1
  Y  Y19  1  0.750000  0.338211  0.750000  1
  W  W20  1  0.250522  0.166683  0.488323  1
  W  W21  1  0.249478  0.166683  0.011677  1
  W  W22  1  0.749478  0.833318  0.511677  1
  W  W23  1  0.750522  0.833318  0.988323  1
