# generated using pymatgen
data_CaP2WO7
_symmetry_space_group_name_H-M   'P 1'
_cell_length_a   6.76801180
_cell_length_b   6.64162514
_cell_length_c   7.37048427
_cell_angle_alpha   68.50495109
_cell_angle_beta   80.84562418
_cell_angle_gamma   83.07728365
_symmetry_Int_Tables_number   1
_chemical_formula_structural   CaP2WO7
_chemical_formula_sum   'Ca2 P4 W2 O14'
_cell_volume   303.63941710
_cell_formula_units_Z   2
loop_
 _symmetry_equiv_pos_site_id
 _symmetry_equiv_pos_as_xyz
  1  'x, y, z'
loop_
 _atom_site_type_symbol
 _atom_site_label
 _atom_site_symmetry_multiplicity
 _atom_site_fract_x
 _atom_site_fract_y
 _atom_site_fract_z
 _atom_site_occupancy
  Ca  Ca0  1  0.843582  0.280785  0.139221  1
  Ca  Ca1  1  0.156418  0.719214  0.860778  1
  P  P2  1  0.177515  0.236630  0.734911  1
  P  P3  1  0.822486  0.763369  0.265089  1
  P  P4  1  0.653031  0.625795  0.687611  1
  P  P5  1  0.346972  0.374204  0.312389  1
  W  W6  1  0.690732  0.096845  0.761069  1
  W  W7  1  0.309269  0.903157  0.238927  1
  O  O8  1  0.773090  0.597021  0.486084  1
  O  O9  1  0.226910  0.402980  0.513916  1
  O  O10  1  0.017375  0.086134  0.738865  1
  O  O11  1  0.982623  0.913866  0.261138  1
  O  O12  1  0.560922  0.292827  0.347064  1
  O  O13  1  0.439078  0.707173  0.652937  1
  O  O14  1  0.328269  0.608727  0.161076  1
  O  O15  1  0.671730  0.391273  0.838924  1
  O  O16  1  0.898067  0.622054  0.142418  1
  O  O17  1  0.101932  0.377948  0.857581  1
  O  O18  1  0.636190  0.916290  0.203055  1
  O  O19  1  0.363811  0.083711  0.796944  1
  O  O20  1  0.228005  0.222289  0.262954  1
  O  O21  1  0.771994  0.777708  0.737048  1
