# generated using pymatgen
data_AlAgO3
_symmetry_space_group_name_H-M   'P 1'
_cell_length_a   4.72799085
_cell_length_b   5.29331440
_cell_length_c   9.49694361
_cell_angle_alpha   89.99623697
_cell_angle_beta   89.99938246
_cell_angle_gamma   89.96190656
_symmetry_Int_Tables_number   1
_chemical_formula_structural   AlAgO3
_chemical_formula_sum   'Al4 Ag4 O12'
_cell_volume   237.67750494
_cell_formula_units_Z   4
loop_
 _symmetry_equiv_pos_site_id
 _symmetry_equiv_pos_as_xyz
  1  'x, y, z'
loop_
 _atom_site_type_symbol
 _atom_site_label
 _atom_site_symmetry_multiplicity
 _atom_site_fract_x
 _atom_site_fract_y
 _atom_site_fract_z
 _atom_site_occupancy
  Al  Al0  1  0.968760  0.072851  0.750005  1
  Al  Al1  1  0.468685  0.426982  0.250004  1
  Al  Al2  1  0.531331  0.573017  0.749995  1
  Al  Al3  1  0.031223  0.927147  0.249995  1
  Ag  Ag4  1  -0.000003  0.500002  0.500001  1
  Ag  Ag5  1  0.500001  0.000001  0.499999  1
  Ag  Ag6  1  0.500001  0.999998  0.000002  1
  Ag  Ag7  1  -0.000001  0.499997  0.000001  1
  O  O8  1  0.659057  0.320886  0.405065  1
  O  O9  1  0.159065  0.178902  0.595034  1
  O  O10  1  0.840955  0.821091  0.094999  1
  O  O11  1  0.340917  0.679157  0.905043  1
  O  O12  1  0.340948  0.679114  0.594937  1
  O  O13  1  0.840930  0.821099  0.404968  1
  O  O14  1  0.159042  0.178902  0.904999  1
  O  O15  1  0.659090  0.320836  0.094956  1
  O  O16  1  0.174901  0.228744  0.250028  1
  O  O17  1  0.675028  0.271346  0.750029  1
  O  O18  1  0.324974  0.728663  0.249969  1
  O  O19  1  0.825097  0.771264  0.749972  1
