# generated using pymatgen
data_Y2Cu3(WO4)6
_symmetry_space_group_name_H-M   'P 1'
_cell_length_a   15.16934577
_cell_length_b   6.02397300
_cell_length_c   9.91546161
_cell_angle_alpha   90.00000000
_cell_angle_beta   93.76023571
_cell_angle_gamma   90.00000000
_symmetry_Int_Tables_number   1
_chemical_formula_structural   Y2Cu3(WO4)6
_chemical_formula_sum   'Y4 Cu6 W12 O48'
_cell_volume   904.12162758
_cell_formula_units_Z   2
loop_
 _symmetry_equiv_pos_site_id
 _symmetry_equiv_pos_as_xyz
  1  'x, y, z'
loop_
 _atom_site_type_symbol
 _atom_site_label
 _atom_site_symmetry_multiplicity
 _atom_site_fract_x
 _atom_site_fract_y
 _atom_site_fract_z
 _atom_site_occupancy
  Y  Y0  1  0.081347  0.665575  0.247122  1
  Y  Y1  1  0.751986  0.665575  0.252878  1
  Y  Y2  1  0.251986  0.334424  0.752878  1
  Y  Y3  1  0.581347  0.334424  0.747122  1
  Cu  Cu4  1  0.248478  0.286959  0.248089  1
  Cu  Cu5  1  0.584855  0.286959  0.251911  1
  Cu  Cu6  1  0.916667  0.263648  0.250000  1
  Cu  Cu7  1  0.084855  0.713040  0.751911  1
  Cu  Cu8  1  0.416667  0.736351  0.750000  1
  Cu  Cu9  1  0.748478  0.713040  0.748089  1
  W  W10  1  0.080521  0.166083  0.496999  1
  W  W11  1  0.414497  0.164196  0.487243  1
  W  W12  1  0.751611  0.175780  0.501004  1
  W  W13  1  0.081722  0.175780  0.998997  1
  W  W14  1  0.418836  0.164196  0.012758  1
  W  W15  1  0.752812  0.166083  0.003002  1
  W  W16  1  0.252813  0.833917  0.503001  1
  W  W17  1  0.581722  0.824220  0.498996  1
  W  W18  1  0.918836  0.835804  0.512757  1
  W  W19  1  0.251612  0.824220  0.001003  1
  W  W20  1  0.580521  0.833917  0.996998  1
  W  W21  1  0.914497  0.835804  0.987242  1
  O  O22  1  0.139485  0.346997  0.140103  1
  O  O23  1  0.479718  0.329203  0.139903  1
  O  O24  1  0.806401  0.343821  0.142427  1
  O  O25  1  0.026932  0.343821  0.357572  1
  O  O26  1  0.353615  0.329203  0.360096  1
  O  O27  1  0.693848  0.346997  0.359896  1
  O  O28  1  0.193849  0.653002  0.859897  1
  O  O29  1  0.526932  0.656178  0.857573  1
  O  O30  1  0.853615  0.670796  0.860097  1
  O  O31  1  0.306401  0.656178  0.642428  1
  O  O32  1  0.639485  0.653002  0.640104  1
  O  O33  1  0.979718  0.670796  0.639904  1
  O  O34  1  0.148446  0.914451  0.608286  1
  O  O35  1  0.480829  0.905292  0.606269  1
  O  O36  1  0.812564  0.908626  0.604539  1
  O  O37  1  0.020769  0.908626  0.895461  1
  O  O38  1  0.352505  0.905292  0.893731  1
  O  O39  1  0.684887  0.914451  0.891714  1
  O  O40  1  0.184887  0.085549  0.391714  1
  O  O41  1  0.520769  0.091374  0.395461  1
  O  O42  1  0.852505  0.094708  0.393731  1
  O  O43  1  0.312564  0.091374  0.104539  1
  O  O44  1  0.648446  0.085549  0.108286  1
  O  O45  1  0.980829  0.094708  0.106269  1
  O  O46  1  0.294037  0.607367  0.105452  1
  O  O47  1  0.632640  0.622211  0.107484  1
  O  O48  1  0.961278  0.627557  0.108026  1
  O  O49  1  0.200693  0.622211  0.392516  1
  O  O50  1  0.539296  0.607367  0.394548  1
  O  O51  1  0.872056  0.627557  0.391974  1
  O  O52  1  0.039296  0.392634  0.894548  1
  O  O53  1  0.372056  0.372444  0.891974  1
  O  O54  1  0.700693  0.377790  0.892516  1
  O  O55  1  0.132640  0.377790  0.607484  1
  O  O56  1  0.461278  0.372444  0.608026  1
  O  O57  1  0.794037  0.392634  0.605452  1
  O  O58  1  0.149622  0.886281  0.102924  1
  O  O59  1  0.482227  0.889434  0.095462  1
  O  O60  1  0.814327  0.887627  0.104489  1
  O  O61  1  0.183711  0.113720  0.897076  1
  O  O62  1  0.519007  0.112374  0.895511  1
  O  O63  1  0.851106  0.110567  0.904538  1
  O  O64  1  0.019007  0.887627  0.395512  1
  O  O65  1  0.351106  0.889434  0.404539  1
  O  O66  1  0.683712  0.886281  0.397077  1
  O  O67  1  0.314326  0.112374  0.604488  1
  O  O68  1  0.649622  0.113720  0.602923  1
  O  O69  1  0.982227  0.110567  0.595461  1
