# generated using pymatgen
data_SbF4
_symmetry_space_group_name_H-M   'P 1'
_cell_length_a   5.25466426
_cell_length_b   5.11215372
_cell_length_c   6.36381853
_cell_angle_alpha   110.76506333
_cell_angle_beta   116.40294332
_cell_angle_gamma   89.43821457
_symmetry_Int_Tables_number   1
_chemical_formula_structural   SbF4
_chemical_formula_sum   'Sb2 F8'
_cell_volume   140.92233460
_cell_formula_units_Z   2
loop_
 _symmetry_equiv_pos_site_id
 _symmetry_equiv_pos_as_xyz
  1  'x, y, z'
loop_
 _atom_site_type_symbol
 _atom_site_label
 _atom_site_symmetry_multiplicity
 _atom_site_fract_x
 _atom_site_fract_y
 _atom_site_fract_z
 _atom_site_occupancy
  Sb  Sb0  1  0.995363  0.492850  0.998471  1
  Sb  Sb1  1  0.483409  0.981052  0.993734  1
  F  F2  1  0.974293  0.332761  0.230222  1
  F  F3  1  0.599450  0.246625  0.798194  1
  F  F4  1  0.184437  0.572384  0.789842  1
  F  F5  1  0.035432  0.113074  0.778215  1
  F  F6  1  0.266476  0.874912  0.211102  1
  F  F7  1  0.406374  0.413381  0.195832  1
  F  F8  1  0.806008  0.773353  0.206644  1
  F  F9  1  0.733403  0.692247  0.785213  1
