# generated using pymatgen
data_CaTiAg(PO4)3
_symmetry_space_group_name_H-M   'P 1'
_cell_length_a   8.90133459
_cell_length_b   8.90133398
_cell_length_c   8.90133456
_cell_angle_alpha   59.63221112
_cell_angle_beta   59.63221301
_cell_angle_gamma   59.63221202
_symmetry_Int_Tables_number   1
_chemical_formula_structural   CaTiAg(PO4)3
_chemical_formula_sum   'Ca2 Ti2 Ag2 P6 O24'
_cell_volume   494.54449616
_cell_formula_units_Z   2
loop_
 _symmetry_equiv_pos_site_id
 _symmetry_equiv_pos_as_xyz
  1  'x, y, z'
loop_
 _atom_site_type_symbol
 _atom_site_label
 _atom_site_symmetry_multiplicity
 _atom_site_fract_x
 _atom_site_fract_y
 _atom_site_fract_z
 _atom_site_occupancy
  Ca  Ca0  1  0.995086  0.995086  0.995086  1
  Ca  Ca1  1  0.495086  0.495086  0.495086  1
  Ti  Ti2  1  0.147724  0.147724  0.147724  1
  Ti  Ti3  1  0.647724  0.647724  0.647724  1
  Ag  Ag4  1  0.349409  0.349409  0.349409  1
  Ag  Ag5  1  0.849409  0.849409  0.849409  1
  P  P6  1  0.040843  0.450545  0.758245  1
  P  P7  1  0.450545  0.758245  0.040843  1
  P  P8  1  0.758245  0.040843  0.450545  1
  P  P9  1  0.258245  0.950545  0.540843  1
  P  P10  1  0.540843  0.258245  0.950545  1
  P  P11  1  0.950545  0.540843  0.258245  1
  O  O12  1  0.102584  0.534127  0.296723  1
  O  O13  1  0.296723  0.102584  0.534127  1
  O  O14  1  0.047123  0.268292  0.928849  1
  O  O15  1  0.534127  0.296723  0.102584  1
  O  O16  1  0.034127  0.602584  0.796723  1
  O  O17  1  0.226093  0.424612  0.597368  1
  O  O18  1  0.268292  0.928849  0.047123  1
  O  O19  1  0.424612  0.597368  0.226093  1
  O  O20  1  0.209490  0.003117  0.369767  1
  O  O21  1  0.597368  0.226093  0.424612  1
  O  O22  1  0.097368  0.924612  0.726093  1
  O  O23  1  0.369767  0.209490  0.003117  1
  O  O24  1  0.602584  0.796723  0.034127  1
  O  O25  1  0.928849  0.047123  0.268292  1
  O  O26  1  0.428849  0.768292  0.547123  1
  O  O27  1  0.796723  0.034127  0.602584  1
  O  O28  1  0.547123  0.428849  0.768292  1
  O  O29  1  0.726093  0.097368  0.924612  1
  O  O30  1  0.768292  0.547123  0.428849  1
  O  O31  1  0.003117  0.369767  0.209490  1
  O  O32  1  0.503117  0.709490  0.869767  1
  O  O33  1  0.924612  0.726093  0.097368  1
  O  O34  1  0.709490  0.869767  0.503117  1
  O  O35  1  0.869767  0.503117  0.709490  1
