# generated using pymatgen
data_Ca3Si3(WO6)2
_symmetry_space_group_name_H-M   'P 1'
_cell_length_a   10.81766001
_cell_length_b   10.81766033
_cell_length_c   10.81765995
_cell_angle_alpha   109.47122192
_cell_angle_beta   109.47122254
_cell_angle_gamma   109.47121816
_symmetry_Int_Tables_number   1
_chemical_formula_structural   Ca3Si3(WO6)2
_chemical_formula_sum   'Ca12 Si12 W8 O48'
_cell_volume   974.49159820
_cell_formula_units_Z   4
loop_
 _symmetry_equiv_pos_site_id
 _symmetry_equiv_pos_as_xyz
  1  'x, y, z'
loop_
 _atom_site_type_symbol
 _atom_site_label
 _atom_site_symmetry_multiplicity
 _atom_site_fract_x
 _atom_site_fract_y
 _atom_site_fract_z
 _atom_site_occupancy
  Ca  Ca0  1  0.375000  0.750000  0.125000  1
  Ca  Ca1  1  0.125000  0.250000  0.375000  1
  Ca  Ca2  1  0.375000  0.125000  0.250000  1
  Ca  Ca3  1  0.125000  0.375000  0.750000  1
  Ca  Ca4  1  0.875000  0.750000  0.625000  1
  Ca  Ca5  1  0.750000  0.125000  0.375000  1
  Ca  Ca6  1  0.750000  0.625000  0.875000  1
  Ca  Ca7  1  0.625000  0.250000  0.875000  1
  Ca  Ca8  1  0.250000  0.875000  0.625000  1
  Ca  Ca9  1  0.875000  0.625000  0.250000  1
  Ca  Ca10  1  0.625000  0.875000  0.750000  1
  Ca  Ca11  1  0.250000  0.375000  0.125000  1
  Si  Si12  1  0.250000  0.125000  0.875000  1
  Si  Si13  1  0.750000  0.875000  0.125000  1
  Si  Si14  1  0.375000  0.250000  0.625000  1
  Si  Si15  1  0.625000  0.375000  0.250000  1
  Si  Si16  1  0.125000  0.750000  0.875000  1
  Si  Si17  1  0.875000  0.125000  0.750000  1
  Si  Si18  1  0.750000  0.375000  0.625000  1
  Si  Si19  1  0.375000  0.625000  0.750000  1
  Si  Si20  1  0.125000  0.875000  0.250000  1
  Si  Si21  1  0.875000  0.250000  0.125000  1
  Si  Si22  1  0.625000  0.750000  0.375000  1
  Si  Si23  1  0.250000  0.625000  0.375000  1
  W  W24  1  0.000000  0.000000  0.000000  1
  W  W25  1  0.000000  0.500000  0.000000  1
  W  W26  1  0.000000  0.000000  0.500000  1
  W  W27  1  0.000000  0.500000  0.500000  1
  W  W28  1  0.500000  0.000000  0.500000  1
  W  W29  1  0.500000  0.500000  0.000000  1
  W  W30  1  0.500000  0.500000  0.500000  1
  W  W31  1  0.500000  0.000000  0.000000  1
  O  O32  1  0.287583  0.489120  0.379573  1
  O  O33  1  0.010880  0.298463  0.890453  1
  O  O34  1  0.120427  0.609547  0.908010  1
  O  O35  1  0.212417  0.591990  0.201537  1
  O  O36  1  0.212417  0.120427  0.010880  1
  O  O37  1  0.591990  0.201537  0.212417  1
  O  O38  1  0.609547  0.201537  0.489120  1
  O  O39  1  0.201537  0.212417  0.591990  1
  O  O40  1  0.890453  0.379573  0.591990  1
  O  O41  1  0.298463  0.908010  0.287583  1
  O  O42  1  0.908010  0.287583  0.298463  1
  O  O43  1  0.010880  0.212417  0.120427  1
  O  O44  1  0.201537  0.489120  0.609547  1
  O  O45  1  0.591990  0.890453  0.379573  1
  O  O46  1  0.120427  0.010880  0.212417  1
  O  O47  1  0.489120  0.609547  0.201537  1
  O  O48  1  0.379573  0.591990  0.890453  1
  O  O49  1  0.890453  0.010880  0.298463  1
  O  O50  1  0.609547  0.908010  0.120427  1
  O  O51  1  0.109547  0.620427  0.408010  1
  O  O52  1  0.908010  0.120427  0.609547  1
  O  O53  1  0.379573  0.287583  0.489120  1
  O  O54  1  0.298463  0.890453  0.010880  1
  O  O55  1  0.287583  0.298463  0.908010  1
  O  O56  1  0.712417  0.510880  0.620427  1
  O  O57  1  0.989120  0.701537  0.109547  1
  O  O58  1  0.879573  0.390453  0.091990  1
  O  O59  1  0.787583  0.408010  0.798463  1
  O  O60  1  0.787583  0.879573  0.989120  1
  O  O61  1  0.408010  0.798463  0.787583  1
  O  O62  1  0.390453  0.798463  0.510880  1
  O  O63  1  0.798463  0.787583  0.408010  1
  O  O64  1  0.712417  0.701537  0.091990  1
  O  O65  1  0.701537  0.109547  0.989120  1
  O  O66  1  0.620427  0.712417  0.510880  1
  O  O67  1  0.510880  0.620427  0.712417  1
  O  O68  1  0.091990  0.879573  0.390453  1
  O  O69  1  0.390453  0.091990  0.879573  1
  O  O70  1  0.109547  0.989120  0.701537  1
  O  O71  1  0.620427  0.408010  0.109547  1
  O  O72  1  0.510880  0.390453  0.798463  1
  O  O73  1  0.879573  0.989120  0.787583  1
  O  O74  1  0.408010  0.109547  0.620427  1
  O  O75  1  0.798463  0.510880  0.390453  1
  O  O76  1  0.989120  0.787583  0.879573  1
  O  O77  1  0.091990  0.712417  0.701537  1
  O  O78  1  0.701537  0.091990  0.712417  1
  O  O79  1  0.489120  0.379573  0.287583  1
