# generated using pymatgen
data_LaCrWO6
_symmetry_space_group_name_H-M   'P 1'
_cell_length_a   5.53735402
_cell_length_b   5.53915804
_cell_length_c   5.51171114
_cell_angle_alpha   59.98381634
_cell_angle_beta   119.98874558
_cell_angle_gamma   89.82971441
_symmetry_Int_Tables_number   1
_chemical_formula_structural   LaCrWO6
_chemical_formula_sum   'La1 Cr1 W1 O6'
_cell_volume   119.35338489
_cell_formula_units_Z   1
loop_
 _symmetry_equiv_pos_site_id
 _symmetry_equiv_pos_as_xyz
  1  'x, y, z'
loop_
 _atom_site_type_symbol
 _atom_site_label
 _atom_site_symmetry_multiplicity
 _atom_site_fract_x
 _atom_site_fract_y
 _atom_site_fract_z
 _atom_site_occupancy
  La  La0  1  0.760260  0.258052  0.504601  1
  Cr  Cr1  1  0.001780  0.510187  0.000464  1
  W  W2  1  0.502053  0.009494  0.002823  1
  O  O3  1  0.323000  0.251185  0.507840  1
  O  O4  1  0.221156  0.289043  0.933968  1
  O  O5  1  0.766365  0.717268  0.065980  1
  O  O6  1  0.213530  0.805040  0.941078  1
  O  O7  1  0.773394  0.230049  0.051138  1
  O  O8  1  0.698696  0.771093  0.492520  1
