# generated using pymatgen
data_Ca2W3O8
_symmetry_space_group_name_H-M   'P 1'
_cell_length_a   6.52491417
_cell_length_b   6.52490684
_cell_length_c   10.31301396
_cell_angle_alpha   90.00000000
_cell_angle_beta   90.00000000
_cell_angle_gamma   119.99996670
_symmetry_Int_Tables_number   1
_chemical_formula_structural   Ca2W3O8
_chemical_formula_sum   'Ca4 W6 O16'
_cell_volume   380.24674189
_cell_formula_units_Z   2
loop_
 _symmetry_equiv_pos_site_id
 _symmetry_equiv_pos_as_xyz
  1  'x, y, z'
loop_
 _atom_site_type_symbol
 _atom_site_label
 _atom_site_symmetry_multiplicity
 _atom_site_fract_x
 _atom_site_fract_y
 _atom_site_fract_z
 _atom_site_occupancy
  Ca  Ca0  1  0.666667  0.333334  0.030077  1
  Ca  Ca1  1  0.333333  0.666666  0.530078  1
  Ca  Ca2  1  0.666664  0.333333  0.416473  1
  Ca  Ca3  1  0.333336  0.666667  0.916474  1
  W  W4  1  0.671174  0.835588  0.244946  1
  W  W5  1  0.835587  0.164413  0.744942  1
  W  W6  1  0.164415  0.328829  0.244942  1
  W  W7  1  0.835585  0.671172  0.744942  1
  W  W8  1  0.328827  0.164413  0.744946  1
  W  W9  1  0.164415  0.835588  0.244942  1
  O  O10  1  0.840493  0.159508  0.154831  1
  O  O11  1  0.680985  0.840492  0.654832  1
  O  O12  1  0.159508  0.319015  0.654830  1
  O  O13  1  0.840492  0.680986  0.154831  1
  O  O14  1  0.319015  0.159509  0.154833  1
  O  O15  1  0.159508  0.840493  0.654830  1
  O  O16  1  0.524918  0.475084  0.854382  1
  O  O17  1  0.049834  0.524916  0.354381  1
  O  O18  1  0.475081  0.950166  0.354381  1
  O  O19  1  0.524918  0.049835  0.854382  1
  O  O20  1  0.000001  0.000001  0.346339  1
  O  O21  1  -0.000001  -0.000001  0.846339  1
  O  O22  1  0.333335  0.666667  0.138142  1
  O  O23  1  0.950165  0.475083  0.854382  1
  O  O24  1  0.475081  0.524915  0.354381  1
  O  O25  1  0.666665  0.333333  0.638142  1
