# generated using pymatgen
data_CaCoO3
_symmetry_space_group_name_H-M   'P 1'
_cell_length_a   5.30049527
_cell_length_b   5.41262402
_cell_length_c   7.48887028
_cell_angle_alpha   89.99682535
_cell_angle_beta   89.98382111
_cell_angle_gamma   89.99018983
_symmetry_Int_Tables_number   1
_chemical_formula_structural   CaCoO3
_chemical_formula_sum   'Ca4 Co4 O12'
_cell_volume   214.85259109
_cell_formula_units_Z   4
loop_
 _symmetry_equiv_pos_site_id
 _symmetry_equiv_pos_as_xyz
  1  'x, y, z'
loop_
 _atom_site_type_symbol
 _atom_site_label
 _atom_site_symmetry_multiplicity
 _atom_site_fract_x
 _atom_site_fract_y
 _atom_site_fract_z
 _atom_site_occupancy
  Ca  Ca0  1  0.991145  0.046739  0.249953  1
  Ca  Ca1  1  0.491173  0.453217  0.750079  1
  Ca  Ca2  1  0.508830  0.546785  0.249921  1
  Ca  Ca3  1  0.008852  0.953260  0.750047  1
  Co  Co4  1  0.499999  0.000000  0.999999  1
  Co  Co5  1  0.000001  0.500000  -0.000001  1
  Co  Co6  1  0.000000  0.500000  0.500000  1
  Co  Co7  1  0.500000  0.000001  0.500000  1
  O  O8  1  0.927186  0.516912  0.749940  1
  O  O9  1  0.427122  0.983077  0.249810  1
  O  O10  1  0.572877  0.016924  0.750190  1
  O  O11  1  0.072815  0.483087  0.250060  1
  O  O12  1  0.710560  0.293328  0.461078  1
  O  O13  1  0.210332  0.206913  0.538901  1
  O  O14  1  0.789532  0.793310  0.038905  1
  O  O15  1  0.289774  0.706916  0.961095  1
  O  O16  1  0.710226  0.293084  0.038904  1
  O  O17  1  0.210468  0.206690  0.961094  1
  O  O18  1  0.289440  0.706672  0.538922  1
  O  O19  1  0.789668  0.793087  0.461101  1
