# generated using pymatgen
data_MgSbAsO5
_symmetry_space_group_name_H-M   'P 1'
_cell_length_a   7.29106638
_cell_length_b   7.26701338
_cell_length_c   8.83199139
_cell_angle_alpha   90.02089802
_cell_angle_beta   89.99366225
_cell_angle_gamma   90.00234975
_symmetry_Int_Tables_number   1
_chemical_formula_structural   MgSbAsO5
_chemical_formula_sum   'Mg4 Sb4 As4 O20'
_cell_volume   467.95664371
_cell_formula_units_Z   4
loop_
 _symmetry_equiv_pos_site_id
 _symmetry_equiv_pos_as_xyz
  1  'x, y, z'
loop_
 _atom_site_type_symbol
 _atom_site_label
 _atom_site_symmetry_multiplicity
 _atom_site_fract_x
 _atom_site_fract_y
 _atom_site_fract_z
 _atom_site_occupancy
  Mg  Mg0  1  0.128831  0.769326  0.056457  1
  Mg  Mg1  1  0.371070  0.230630  0.556498  1
  Mg  Mg2  1  0.628821  0.730695  0.943491  1
  Mg  Mg3  1  0.871205  0.269315  0.443475  1
  Sb  Sb4  1  0.020763  0.498858  0.787901  1
  Sb  Sb5  1  0.479258  0.501229  0.287866  1
  Sb  Sb6  1  0.520670  0.001146  0.212067  1
  Sb  Sb7  1  0.979310  -0.001225  0.712203  1
  As  As8  1  0.603140  0.280642  0.893244  1
  As  As9  1  0.897007  0.719944  0.392976  1
  As  As10  1  0.102904  0.219413  0.106949  1
  As  As11  1  0.396891  0.780021  0.606892  1
  O  O12  1  0.804758  0.307752  0.784891  1
  O  O13  1  0.695240  0.692422  0.284905  1
  O  O14  1  0.304682  0.192210  0.215219  1
  O  O15  1  0.195446  0.807661  0.715301  1
  O  O16  1  0.425019  0.268658  0.771839  1
  O  O17  1  0.074797  0.731467  0.271925  1
  O  O18  1  0.925029  0.231550  0.227989  1
  O  O19  1  0.575009  0.768304  0.727991  1
  O  O20  1  0.628795  0.073775  0.990238  1
  O  O21  1  0.871354  0.926066  0.490288  1
  O  O22  1  0.128815  0.426250  0.009622  1
  O  O23  1  0.371072  0.573986  0.509716  1
  O  O24  1  0.593685  0.462494  0.014863  1
  O  O25  1  0.906370  0.537153  0.515128  1
  O  O26  1  0.093654  0.037482  0.985076  1
  O  O27  1  0.406247  0.962788  0.484965  1
  O  O28  1  0.908805  0.699820  0.911052  1
  O  O29  1  0.591319  0.300154  0.411240  1
  O  O30  1  0.408700  0.800183  0.088912  1
  O  O31  1  0.091334  0.199832  0.588822  1
