# generated using pymatgen
data_Ca2NiSbO6
_symmetry_space_group_name_H-M   'P 1'
_cell_length_a   5.52848291
_cell_length_b   5.62289207
_cell_length_c   7.71394766
_cell_angle_alpha   90.00000000
_cell_angle_beta   90.00000000
_cell_angle_gamma   92.60023738
_symmetry_Int_Tables_number   1
_chemical_formula_structural   Ca2NiSbO6
_chemical_formula_sum   'Ca4 Ni2 Sb2 O12'
_cell_volume   239.54936213
_cell_formula_units_Z   2
loop_
 _symmetry_equiv_pos_site_id
 _symmetry_equiv_pos_as_xyz
  1  'x, y, z'
loop_
 _atom_site_type_symbol
 _atom_site_label
 _atom_site_symmetry_multiplicity
 _atom_site_fract_x
 _atom_site_fract_y
 _atom_site_fract_z
 _atom_site_occupancy
  Ca  Ca0  1  0.520547  0.563556  0.750000  1
  Ca  Ca1  1  0.479453  0.436444  0.250000  1
  Ca  Ca2  1  0.002228  0.039503  0.750000  1
  Ca  Ca3  1  0.997772  0.960497  0.250000  1
  Ni  Ni4  1  0.500000  0.000000  0.500000  1
  Ni  Ni5  1  0.500000  0.000000  0.000000  1
  Sb  Sb6  1  0.000000  0.500000  0.500000  1
  Sb  Sb7  1  0.000000  0.500000  0.000000  1
  O  O8  1  0.301824  0.700295  0.452507  1
  O  O9  1  0.185929  0.215595  0.050218  1
  O  O10  1  0.698176  0.299705  0.952507  1
  O  O11  1  0.814071  0.784405  0.550218  1
  O  O12  1  0.185929  0.215595  0.449782  1
  O  O13  1  0.814071  0.784405  0.949782  1
  O  O14  1  0.896850  0.538500  0.250000  1
  O  O15  1  0.301824  0.700295  0.047493  1
  O  O16  1  0.414940  0.963394  0.750000  1
  O  O17  1  0.698176  0.299705  0.547493  1
  O  O18  1  0.103150  0.461500  0.750000  1
  O  O19  1  0.585060  0.036606  0.250000  1
