# generated using pymatgen
data_MgNiP2O7
_symmetry_space_group_name_H-M   'P 1'
_cell_length_a   6.35236437
_cell_length_b   6.34045292
_cell_length_c   6.63606235
_cell_angle_alpha   66.04427868
_cell_angle_beta   82.85479387
_cell_angle_gamma   80.95647776
_symmetry_Int_Tables_number   1
_chemical_formula_structural   MgNiP2O7
_chemical_formula_sum   'Mg2 Ni2 P4 O14'
_cell_volume   240.67616113
_cell_formula_units_Z   2
loop_
 _symmetry_equiv_pos_site_id
 _symmetry_equiv_pos_as_xyz
  1  'x, y, z'
loop_
 _atom_site_type_symbol
 _atom_site_label
 _atom_site_symmetry_multiplicity
 _atom_site_fract_x
 _atom_site_fract_y
 _atom_site_fract_z
 _atom_site_occupancy
  Mg  Mg0  1  0.870669  0.286551  0.159231  1
  Mg  Mg1  1  0.129331  0.713449  0.840769  1
  Ni  Ni2  1  0.662005  0.099201  0.782892  1
  Ni  Ni3  1  0.337995  0.900799  0.217108  1
  P  P4  1  0.156761  0.225546  0.756336  1
  P  P5  1  0.843239  0.774454  0.243664  1
  P  P6  1  0.614821  0.640440  0.689470  1
  P  P7  1  0.385179  0.359560  0.310530  1
  O  O8  1  0.759393  0.606803  0.480813  1
  O  O9  1  0.240607  0.393197  0.519187  1
  O  O10  1  0.997628  0.072430  0.742389  1
  O  O11  1  0.002372  0.927570  0.257611  1
  O  O12  1  0.612763  0.261041  0.387362  1
  O  O13  1  0.387237  0.738959  0.612638  1
  O  O14  1  0.369331  0.610357  0.137899  1
  O  O15  1  0.630669  0.389643  0.862100  1
  O  O16  1  0.939525  0.607834  0.134320  1
  O  O17  1  0.060475  0.392166  0.865680  1
  O  O18  1  0.652121  0.940921  0.129528  1
  O  O19  1  0.347879  0.059079  0.870472  1
  O  O20  1  0.269640  0.201255  0.254243  1
  O  O21  1  0.730360  0.798745  0.745757  1
