# generated using pymatgen
data_AlNi3Se2ClO8
_symmetry_space_group_name_H-M   'P 1'
_cell_length_a   5.58955561
_cell_length_b   8.02417111
_cell_length_c   9.64081296
_cell_angle_alpha   89.77661340
_cell_angle_beta   88.62860672
_cell_angle_gamma   89.99336486
_symmetry_Int_Tables_number   1
_chemical_formula_structural   AlNi3Se2ClO8
_chemical_formula_sum   'Al2 Ni6 Se4 Cl2 O16'
_cell_volume   432.27826794
_cell_formula_units_Z   2
loop_
 _symmetry_equiv_pos_site_id
 _symmetry_equiv_pos_as_xyz
  1  'x, y, z'
loop_
 _atom_site_type_symbol
 _atom_site_label
 _atom_site_symmetry_multiplicity
 _atom_site_fract_x
 _atom_site_fract_y
 _atom_site_fract_z
 _atom_site_occupancy
  Al  Al0  1  0.249908  0.147598  0.249496  1
  Al  Al1  1  0.749845  0.852055  0.750374  1
  Ni  Ni2  1  0.499105  0.000728  0.999336  1
  Ni  Ni3  1  0.499122  0.000916  0.500662  1
  Ni  Ni4  1  0.001206  0.000839  0.999116  1
  Ni  Ni5  1  0.749645  0.230547  0.749290  1
  Ni  Ni6  1  0.250595  0.769258  0.250768  1
  Ni  Ni7  1  0.000516  0.000742  0.500603  1
  Se  Se8  1  0.746761  0.361645  0.080789  1
  Se  Se9  1  0.253407  0.638659  0.918368  1
  Se  Se10  1  0.753124  0.361828  0.416940  1
  Se  Se11  1  0.246675  0.638659  0.584037  1
  Cl  Cl12  1  0.250307  0.180181  0.749891  1
  Cl  Cl13  1  0.749598  0.817899  0.250377  1
  O  O14  1  0.244886  0.965893  0.127436  1
  O  O15  1  0.252880  0.601265  0.091010  1
  O  O16  1  0.752442  0.397087  0.589692  1
  O  O17  1  0.500501  0.221050  0.107837  1
  O  O18  1  0.488615  0.778006  0.606543  1
  O  O19  1  0.000028  0.779272  0.609519  1
  O  O20  1  0.755171  0.034029  0.872283  1
  O  O21  1  0.988398  0.222344  0.104799  1
  O  O22  1  -0.000614  0.221135  0.390505  1
  O  O23  1  0.011421  0.777879  0.895127  1
  O  O24  1  0.255054  0.965932  0.372794  1
  O  O25  1  0.744818  0.034217  0.627418  1
  O  O26  1  0.500045  0.779193  0.892066  1
  O  O27  1  0.511695  0.222366  0.393473  1
  O  O28  1  0.747455  0.397267  0.907802  1
  O  O29  1  0.247391  0.601515  0.411648  1
