# generated using pymatgen
data_PrMg(SbO3)2
_symmetry_space_group_name_H-M   'P 1'
_cell_length_a   5.69719028
_cell_length_b   6.26363203
_cell_length_c   8.01771700
_cell_angle_alpha   89.99970244
_cell_angle_beta   90.00197799
_cell_angle_gamma   89.99938572
_symmetry_Int_Tables_number   1
_chemical_formula_structural   PrMg(SbO3)2
_chemical_formula_sum   'Pr2 Mg2 Sb4 O12'
_cell_volume   286.11306103
_cell_formula_units_Z   2
loop_
 _symmetry_equiv_pos_site_id
 _symmetry_equiv_pos_as_xyz
  1  'x, y, z'
loop_
 _atom_site_type_symbol
 _atom_site_label
 _atom_site_symmetry_multiplicity
 _atom_site_fract_x
 _atom_site_fract_y
 _atom_site_fract_z
 _atom_site_occupancy
  Pr  Pr0  1  0.016644  0.920176  0.750004  1
  Pr  Pr1  1  0.516220  0.577727  0.250002  1
  Mg  Mg2  1  0.511821  0.468231  0.749992  1
  Mg  Mg3  1  0.011485  0.033485  0.250002  1
  Sb  Sb4  1  0.016744  0.470666  0.995790  1
  Sb  Sb5  1  0.016742  0.470654  0.504196  1
  Sb  Sb6  1  0.515004  0.029820  0.495344  1
  Sb  Sb7  1  0.515079  0.029856  0.004622  1
  O  O8  1  0.144585  0.390059  0.249992  1
  O  O9  1  0.154986  0.188041  0.935178  1
  O  O10  1  0.155004  0.188011  0.564787  1
  O  O11  1  0.318257  0.634558  0.569221  1
  O  O12  1  0.318258  0.634544  0.930766  1
  O  O13  1  0.358204  0.944891  0.250075  1
  O  O14  1  0.640240  0.107729  0.750032  1
  O  O15  1  0.652794  0.310415  0.064915  1
  O  O16  1  0.652701  0.310387  0.435099  1
  O  O17  1  0.814956  0.867125  0.068809  1
  O  O18  1  0.814892  0.867151  0.431163  1
  O  O19  1  0.855379  0.556472  0.750013  1
