# generated using pymatgen
data_Ta2Bi2O9
_symmetry_space_group_name_H-M   'P 1'
_cell_length_a   3.76264793
_cell_length_b   3.76252318
_cell_length_c   14.99078748
_cell_angle_alpha   96.87272995
_cell_angle_beta   96.72177098
_cell_angle_gamma   89.95415296
_symmetry_Int_Tables_number   1
_chemical_formula_structural   Ta2Bi2O9
_chemical_formula_sum   'Ta2 Bi2 O9'
_cell_volume   209.23329117
_cell_formula_units_Z   1
loop_
 _symmetry_equiv_pos_site_id
 _symmetry_equiv_pos_as_xyz
  1  'x, y, z'
loop_
 _atom_site_type_symbol
 _atom_site_label
 _atom_site_symmetry_multiplicity
 _atom_site_fract_x
 _atom_site_fract_y
 _atom_site_fract_z
 _atom_site_occupancy
  Ta  Ta0  1  0.937362  0.936480  0.871300  1
  Ta  Ta1  1  0.062638  0.063520  0.128700  1
  Bi  Bi2  1  0.214178  0.212608  0.408494  1
  Bi  Bi3  1  0.785822  0.787392  0.591506  1
  O  O4  1  0.330630  0.330740  0.640184  1
  O  O5  1  0.669370  0.669260  0.359816  1
  O  O6  1  0.920705  0.420584  0.838990  1
  O  O7  1  0.249958  0.750048  0.500004  1
  O  O8  1  0.750042  0.249952  0.499996  1
  O  O9  1  0.421557  0.919879  0.838963  1
  O  O10  1  0.079295  0.579416  0.161010  1
  O  O11  1  0.578443  0.080121  0.161037  1
  O  O12  1  0.000000  0.000000  0.000000  1
