# generated using pymatgen
data_Ba2AlW3O7
_symmetry_space_group_name_H-M   'P 1'
_cell_length_a   3.44531964
_cell_length_b   4.16121062
_cell_length_c   13.56467381
_cell_angle_alpha   89.99992804
_cell_angle_beta   89.99831399
_cell_angle_gamma   90.00184385
_symmetry_Int_Tables_number   1
_chemical_formula_structural   Ba2AlW3O7
_chemical_formula_sum   'Ba2 Al1 W3 O7'
_cell_volume   194.47266808
_cell_formula_units_Z   1
loop_
 _symmetry_equiv_pos_site_id
 _symmetry_equiv_pos_as_xyz
  1  'x, y, z'
loop_
 _atom_site_type_symbol
 _atom_site_label
 _atom_site_symmetry_multiplicity
 _atom_site_fract_x
 _atom_site_fract_y
 _atom_site_fract_z
 _atom_site_occupancy
  Ba  Ba0  1  0.500000  0.499998  0.809915  1
  Ba  Ba1  1  0.499989  0.500004  0.190348  1
  Al  Al2  1  0.500290  0.500001  0.500190  1
  W  W3  1  0.000055  -0.000003  0.594220  1
  W  W4  1  -0.000005  -0.000000  0.000065  1
  W  W5  1  0.000001  0.000001  0.405599  1
  O  O6  1  0.999993  0.500001  -0.000019  1
  O  O7  1  0.500024  0.999995  0.675163  1
  O  O8  1  0.499986  0.000001  0.324832  1
  O  O9  1  0.999841  0.499998  0.623225  1
  O  O10  1  0.999836  0.500000  0.376342  1
  O  O11  1  -0.000002  0.000002  0.858774  1
  O  O12  1  0.999993  0.000004  0.141346  1
