# generated using pymatgen
data_BaAg4O7
_symmetry_space_group_name_H-M   'P 1'
_cell_length_a   6.88502596
_cell_length_b   6.88502568
_cell_length_c   11.65335843
_cell_angle_alpha   90.00000000
_cell_angle_beta   90.00000000
_cell_angle_gamma   120.00000505
_symmetry_Int_Tables_number   1
_chemical_formula_structural   BaAg4O7
_chemical_formula_sum   'Ba2 Ag8 O14'
_cell_volume   478.40186121
_cell_formula_units_Z   2
loop_
 _symmetry_equiv_pos_site_id
 _symmetry_equiv_pos_as_xyz
  1  'x, y, z'
loop_
 _atom_site_type_symbol
 _atom_site_label
 _atom_site_symmetry_multiplicity
 _atom_site_fract_x
 _atom_site_fract_y
 _atom_site_fract_z
 _atom_site_occupancy
  Ba  Ba0  1  0.666667  0.333333  0.459421  1
  Ba  Ba1  1  0.333333  0.666667  0.959421  1
  Ag  Ag2  1  0.824464  0.175537  0.183798  1
  Ag  Ag3  1  0.648928  0.824463  0.683799  1
  Ag  Ag4  1  0.175537  0.351072  0.683799  1
  Ag  Ag5  1  0.824464  0.648928  0.183798  1
  Ag  Ag6  1  0.351071  0.175537  0.183798  1
  Ag  Ag7  1  0.175537  0.824463  0.683799  1
  Ag  Ag8  1  -0.000000  -0.000000  0.426193  1
  Ag  Ag9  1  -0.000000  -0.000000  0.926193  1
  O  O10  1  0.847082  0.152919  0.011536  1
  O  O11  1  0.694165  0.847081  0.511535  1
  O  O12  1  0.152918  0.305834  0.511535  1
  O  O13  1  0.847083  0.694166  0.011536  1
  O  O14  1  0.305834  0.152919  0.011536  1
  O  O15  1  0.152918  0.847081  0.511535  1
  O  O16  1  -0.000000  -0.000000  0.744361  1
  O  O17  1  -0.000000  -0.000000  0.244362  1
  O  O18  1  0.533166  0.466836  0.279359  1
  O  O19  1  0.066332  0.533166  0.779359  1
  O  O20  1  0.466835  0.933668  0.779359  1
  O  O21  1  0.533166  0.066332  0.279359  1
  O  O22  1  0.466836  0.533166  0.779359  1
  O  O23  1  0.933668  0.466836  0.279359  1
