# generated using pymatgen
data_MgCuBiO5
_symmetry_space_group_name_H-M   'P 1'
_cell_length_a   5.14693905
_cell_length_b   10.06929385
_cell_length_c   15.66094375
_cell_angle_alpha   90.00000000
_cell_angle_beta   90.00000000
_cell_angle_gamma   90.00000000
_symmetry_Int_Tables_number   1
_chemical_formula_structural   MgCuBiO5
_chemical_formula_sum   'Mg8 Cu8 Bi8 O40'
_cell_volume   811.64472420
_cell_formula_units_Z   8
loop_
 _symmetry_equiv_pos_site_id
 _symmetry_equiv_pos_as_xyz
  1  'x, y, z'
loop_
 _atom_site_type_symbol
 _atom_site_label
 _atom_site_symmetry_multiplicity
 _atom_site_fract_x
 _atom_site_fract_y
 _atom_site_fract_z
 _atom_site_occupancy
  Mg  Mg0  1  0.507017  0.381367  0.416611  1
  Mg  Mg1  1  0.007017  0.118633  0.416611  1
  Mg  Mg2  1  0.007017  0.618633  0.083389  1
  Mg  Mg3  1  0.992983  0.381367  0.916611  1
  Mg  Mg4  1  0.492983  0.118633  0.916611  1
  Mg  Mg5  1  0.992983  0.881367  0.583389  1
  Mg  Mg6  1  0.492983  0.618633  0.583389  1
  Mg  Mg7  1  0.507017  0.881367  0.083389  1
  Cu  Cu8  1  0.004410  0.367253  0.519951  1
  Cu  Cu9  1  0.495590  0.867253  0.480049  1
  Cu  Cu10  1  -0.004410  0.632747  0.480049  1
  Cu  Cu11  1  0.504410  0.132747  0.519951  1
  Cu  Cu12  1  -0.004410  0.132747  0.019951  1
  Cu  Cu13  1  0.004410  0.867253  0.980049  1
  Cu  Cu14  1  0.495590  0.367253  0.019951  1
  Cu  Cu15  1  0.504410  0.632747  0.980049  1
  Bi  Bi16  1  -0.059595  0.854691  0.262736  1
  Bi  Bi17  1  0.059595  0.145309  0.737264  1
  Bi  Bi18  1  0.559595  0.354691  0.737264  1
  Bi  Bi19  1  0.059595  0.645309  0.762736  1
  Bi  Bi20  1  0.440405  0.145309  0.237264  1
  Bi  Bi21  1  0.440405  0.645309  0.262736  1
  Bi  Bi22  1  0.559595  0.854691  0.762736  1
  Bi  Bi23  1  -0.059595  0.354691  0.237264  1
  O  O24  1  0.879488  0.307041  0.659216  1
  O  O25  1  0.248220  0.001257  0.005241  1
  O  O26  1  0.251780  0.501257  0.994759  1
  O  O27  1  0.242309  0.799687  0.177971  1
  O  O28  1  0.257691  0.299687  0.822029  1
  O  O29  1  0.879488  0.807041  0.840784  1
  O  O30  1  0.257691  0.799687  0.677971  1
  O  O31  1  0.620512  0.807041  0.340784  1
  O  O32  1  0.248220  0.501257  0.494759  1
  O  O33  1  0.120512  0.692959  0.340784  1
  O  O34  1  0.620512  0.307041  0.159216  1
  O  O35  1  0.757004  0.249286  0.482484  1
  O  O36  1  0.748220  -0.001257  0.494759  1
  O  O37  1  0.757691  0.700313  0.677971  1
  O  O38  1  0.324246  0.013545  0.815533  1
  O  O39  1  0.748220  0.498743  0.005241  1
  O  O40  1  0.120512  0.192959  0.159216  1
  O  O41  1  0.742309  0.200313  0.322030  1
  O  O42  1  0.257004  0.750714  0.017516  1
  O  O43  1  0.251780  0.001257  0.505241  1
  O  O44  1  0.242996  0.750714  0.517516  1
  O  O45  1  0.675754  -0.013545  0.184467  1
  O  O46  1  0.757691  0.200313  0.822029  1
  O  O47  1  0.824246  -0.013545  0.684467  1
  O  O48  1  0.242996  0.250714  -0.017516  1
  O  O49  1  0.257004  0.250714  0.482484  1
  O  O50  1  0.751780  0.498743  0.505241  1
  O  O51  1  0.751780  -0.001257  0.994759  1
  O  O52  1  0.824246  0.486455  0.815533  1
  O  O53  1  0.742996  0.749286  0.517516  1
  O  O54  1  0.742996  0.249286  -0.017516  1
  O  O55  1  0.757004  0.749286  0.017516  1
  O  O56  1  0.675754  0.486455  0.315533  1
  O  O57  1  0.742309  0.700313  0.177971  1
  O  O58  1  0.242309  0.299687  0.322030  1
  O  O59  1  0.324246  0.513545  0.684467  1
  O  O60  1  0.175754  0.513545  0.184467  1
  O  O61  1  0.379488  0.192959  0.659216  1
  O  O62  1  0.175754  0.013545  0.315533  1
  O  O63  1  0.379488  0.692959  0.840784  1
