# generated using pymatgen
data_Sr2MnAlCu2O7
_symmetry_space_group_name_H-M   'P 1'
_cell_length_a   5.32611088
_cell_length_b   5.31989345
_cell_length_c   12.26260251
_cell_angle_alpha   102.50318129
_cell_angle_beta   102.46261429
_cell_angle_gamma   89.99584192
_symmetry_Int_Tables_number   1
_chemical_formula_structural   Sr2MnAlCu2O7
_chemical_formula_sum   'Sr4 Mn2 Al2 Cu4 O14'
_cell_volume   330.82293791
_cell_formula_units_Z   2
loop_
 _symmetry_equiv_pos_site_id
 _symmetry_equiv_pos_as_xyz
  1  'x, y, z'
loop_
 _atom_site_type_symbol
 _atom_site_label
 _atom_site_symmetry_multiplicity
 _atom_site_fract_x
 _atom_site_fract_y
 _atom_site_fract_z
 _atom_site_occupancy
  Sr  Sr0  1  0.327557  0.340549  0.702682  1
  Sr  Sr1  1  0.630517  0.650005  0.295646  1
  Sr  Sr2  1  0.827882  0.855258  0.702940  1
  Sr  Sr3  1  0.130934  0.139510  0.295913  1
  Mn  Mn4  1  0.265667  0.690841  0.499310  1
  Mn  Mn5  1  0.766332  0.305274  0.499293  1
  Al  Al6  1  0.984469  0.010992  0.999262  1
  Al  Al7  1  0.483267  0.494835  0.999133  1
  Cu  Cu8  1  0.918442  0.445032  0.882702  1
  Cu  Cu9  1  0.044366  0.560631  0.115340  1
  Cu  Cu10  1  0.419710  0.938661  0.883190  1
  Cu  Cu11  1  0.544244  0.057216  0.115670  1
  O  O12  1  0.127833  0.337303  0.499181  1
  O  O13  1  0.627301  0.658553  0.499280  1
  O  O14  1  0.244447  0.266186  0.894447  1
  O  O15  1  0.364275  0.729414  0.106875  1
  O  O16  1  0.744550  0.125165  0.891536  1
  O  O17  1  0.862297  0.877187  0.104534  1
  O  O18  1  0.595978  0.618451  0.889137  1
  O  O19  1  0.718838  0.375490  0.106341  1
  O  O20  1  0.099833  0.771561  0.891942  1
  O  O21  1  0.218374  0.233804  0.109402  1
  O  O22  1  0.299265  0.837738  0.657559  1
  O  O23  1  0.645450  0.158970  0.340621  1
  O  O24  1  0.801343  0.316759  0.657768  1
  O  O25  1  0.144296  0.680205  0.340902  1
