# generated using pymatgen
data_CaNiP2WO9
_symmetry_space_group_name_H-M   'P 1'
_cell_length_a   6.62314839
_cell_length_b   7.65522509
_cell_length_c   14.42704475
_cell_angle_alpha   89.94549665
_cell_angle_beta   90.11486327
_cell_angle_gamma   90.12159369
_symmetry_Int_Tables_number   1
_chemical_formula_structural   CaNiP2WO9
_chemical_formula_sum   'Ca4 Ni4 P8 W4 O36'
_cell_volume   731.47213014
_cell_formula_units_Z   4
loop_
 _symmetry_equiv_pos_site_id
 _symmetry_equiv_pos_as_xyz
  1  'x, y, z'
loop_
 _atom_site_type_symbol
 _atom_site_label
 _atom_site_symmetry_multiplicity
 _atom_site_fract_x
 _atom_site_fract_y
 _atom_site_fract_z
 _atom_site_occupancy
  Ca  Ca0  1  0.749783  0.904629  0.784629  1
  Ca  Ca1  1  0.749890  0.594757  0.284876  1
  Ca  Ca2  1  0.250201  0.095955  0.215457  1
  Ca  Ca3  1  0.249897  0.403639  0.715539  1
  Ni  Ni4  1  0.499942  0.000009  0.999904  1
  Ni  Ni5  1  0.499705  0.500021  0.500040  1
  Ni  Ni6  1  0.000345  0.500160  0.499745  1
  Ni  Ni7  1  0.000033  0.999824  0.999915  1
  P  P8  1  0.249660  0.345544  0.933170  1
  P  P9  1  0.750314  0.654389  0.066920  1
  P  P10  1  0.749348  0.845389  0.566850  1
  P  P11  1  0.250619  0.154446  0.433326  1
  P  P12  1  0.749831  0.385082  0.688363  1
  P  P13  1  0.250160  0.615356  0.311686  1
  P  P14  1  0.249909  0.885258  0.811577  1
  P  P15  1  0.750126  0.114671  0.188291  1
  W  W16  1  0.749836  0.350852  0.882466  1
  W  W17  1  0.250191  0.649488  0.117598  1
  W  W18  1  0.249456  0.850089  0.617751  1
  W  W19  1  0.750644  0.149403  0.382287  1
  O  O20  1  0.054387  0.607815  0.368222  1
  O  O21  1  0.553971  0.392224  0.631362  1
  O  O22  1  0.945998  0.107374  0.131753  1
  O  O23  1  0.445845  0.892892  0.868411  1
  O  O24  1  0.945518  0.392090  0.631664  1
  O  O25  1  0.445829  0.607645  0.368657  1
  O  O26  1  0.053963  0.892302  0.868113  1
  O  O27  1  0.554124  0.107106  0.131525  1
  O  O28  1  0.251056  0.333673  0.480278  1
  O  O29  1  0.748562  0.666367  0.519700  1
  O  O30  1  0.750575  0.832875  0.019232  1
  O  O31  1  0.249270  0.166843  0.980606  1
  O  O32  1  0.750019  0.126976  0.941251  1
  O  O33  1  0.250194  0.873071  0.058557  1
  O  O34  1  0.248223  0.626023  0.559479  1
  O  O35  1  0.752055  0.374826  0.439233  1
  O  O36  1  0.749441  0.215014  0.750959  1
  O  O37  1  0.250459  0.785582  0.249177  1
  O  O38  1  0.249995  0.714650  0.749341  1
  O  O39  1  0.750482  0.285022  0.250501  1
  O  O40  1  0.431979  0.133140  0.366232  1
  O  O41  1  0.931201  0.866601  0.634067  1
  O  O42  1  0.568721  0.633387  0.134072  1
  O  O43  1  0.068209  0.366711  0.865713  1
  O  O44  1  0.567976  0.866958  0.633960  1
  O  O45  1  0.069020  0.132775  0.366050  1
  O  O46  1  0.431277  0.366470  0.866084  1
  O  O47  1  0.931844  0.633268  0.134386  1
  O  O48  1  0.749909  0.969095  0.266783  1
  O  O49  1  0.249937  0.031210  0.733432  1
  O  O50  1  0.250145  0.469502  0.233516  1
  O  O51  1  0.749885  0.531068  0.766448  1
  O  O52  1  0.749757  0.987568  0.492118  1
  O  O53  1  0.250284  0.013112  0.508452  1
  O  O54  1  0.249998  0.488064  0.007701  1
  O  O55  1  0.750000  0.511744  0.992576  1
