# generated using pymatgen
data_CaTiV(PO4)3
_symmetry_space_group_name_H-M   'P 1'
_cell_length_a   8.87311799
_cell_length_b   8.87518461
_cell_length_c   8.88083479
_cell_angle_alpha   58.40880718
_cell_angle_beta   58.43189171
_cell_angle_gamma   58.50901635
_symmetry_Int_Tables_number   1
_chemical_formula_structural   CaTiV(PO4)3
_chemical_formula_sum   'Ca2 Ti2 V2 P6 O24'
_cell_volume   476.98811090
_cell_formula_units_Z   2
loop_
 _symmetry_equiv_pos_site_id
 _symmetry_equiv_pos_as_xyz
  1  'x, y, z'
loop_
 _atom_site_type_symbol
 _atom_site_label
 _atom_site_symmetry_multiplicity
 _atom_site_fract_x
 _atom_site_fract_y
 _atom_site_fract_z
 _atom_site_occupancy
  Ca  Ca0  1  0.998040  0.998441  0.998435  1
  Ca  Ca1  1  0.498339  0.498058  0.498523  1
  Ti  Ti2  1  0.147199  0.147934  0.147162  1
  Ti  Ti3  1  0.647887  0.647052  0.647359  1
  V  V4  1  0.354220  0.354202  0.354855  1
  V  V5  1  0.854141  0.854341  0.854805  1
  P  P6  1  0.040418  0.459732  0.751885  1
  P  P7  1  0.459607  0.752054  0.039866  1
  P  P8  1  0.752004  0.040361  0.459603  1
  P  P9  1  0.252017  0.959544  0.539920  1
  P  P10  1  0.540445  0.252003  0.959646  1
  P  P11  1  0.959747  0.540259  0.251909  1
  O  O12  1  0.119351  0.508752  0.296195  1
  O  O13  1  0.296496  0.119988  0.508441  1
  O  O14  1  0.056068  0.271456  0.922506  1
  O  O15  1  0.508772  0.296077  0.119661  1
  O  O16  1  0.008812  0.619352  0.796106  1
  O  O17  1  0.226631  0.434929  0.584742  1
  O  O18  1  0.271907  0.922229  0.056012  1
  O  O19  1  0.435112  0.584357  0.226602  1
  O  O20  1  0.206000  0.998742  0.372284  1
  O  O21  1  0.585050  0.226241  0.435337  1
  O  O22  1  0.084487  0.935217  0.726493  1
  O  O23  1  0.372072  0.205909  0.998908  1
  O  O24  1  0.619843  0.796483  0.008482  1
  O  O25  1  0.922702  0.055928  0.271551  1
  O  O26  1  0.422290  0.771917  0.555977  1
  O  O27  1  0.796170  0.008679  0.619816  1
  O  O28  1  0.555953  0.422757  0.771439  1
  O  O29  1  0.726261  0.085103  0.935265  1
  O  O30  1  0.771556  0.556081  0.422393  1
  O  O31  1  0.998830  0.372079  0.206069  1
  O  O32  1  0.498729  0.706031  0.872271  1
  O  O33  1  0.934908  0.726715  0.084549  1
  O  O34  1  0.705897  0.872118  0.498879  1
  O  O35  1  0.872037  0.498872  0.706050  1
