# generated using pymatgen
data_ZnNi2(PO5)2
_symmetry_space_group_name_H-M   'P 1'
_cell_length_a   6.47860581
_cell_length_b   6.47860587
_cell_length_c   9.03269177
_cell_angle_alpha   101.82966817
_cell_angle_beta   101.82966856
_cell_angle_gamma   115.36329071
_symmetry_Int_Tables_number   1
_chemical_formula_structural   ZnNi2(PO5)2
_chemical_formula_sum   'Zn2 Ni4 P4 O20'
_cell_volume   316.39278923
_cell_formula_units_Z   2
loop_
 _symmetry_equiv_pos_site_id
 _symmetry_equiv_pos_as_xyz
  1  'x, y, z'
loop_
 _atom_site_type_symbol
 _atom_site_label
 _atom_site_symmetry_multiplicity
 _atom_site_fract_x
 _atom_site_fract_y
 _atom_site_fract_z
 _atom_site_occupancy
  Zn  Zn0  1  0.495055  0.995055  0.500000  1
  Zn  Zn1  1  0.245055  0.245055  1.000000  1
  Ni  Ni2  1  0.872453  0.618742  0.251038  1
  Ni  Ni3  1  0.367705  0.621414  0.748962  1
  Ni  Ni4  1  0.871414  0.117705  0.248962  1
  Ni  Ni5  1  0.868742  0.622453  0.751038  1
  P  P6  1  0.038373  0.039135  0.587392  1
  P  P7  1  0.700982  0.201742  0.912608  1
  P  P8  1  0.451742  0.450982  0.412608  1
  P  P9  1  0.289135  0.788373  0.087392  1
  O  O10  1  0.583064  0.556942  0.299000  1
  O  O11  1  0.665916  0.669909  0.846810  1
  O  O12  1  0.313842  0.586825  0.977053  1
  O  O13  1  0.806942  0.333064  0.799000  1
  O  O14  1  0.209430  0.230938  0.294983  1
  O  O15  1  0.421628  0.650468  0.520646  1
  O  O16  1  0.069107  0.573100  0.653190  1
  O  O17  1  0.823100  0.819107  0.153190  1
  O  O18  1  0.919909  0.415916  0.346810  1
  O  O19  1  0.164446  0.685955  0.205017  1
  O  O20  1  0.257943  0.284067  0.701000  1
  O  O21  1  0.480938  0.959430  0.794983  1
  O  O22  1  0.935955  0.914446  0.705017  1
  O  O23  1  0.150983  0.879822  0.979354  1
  O  O24  1  0.129822  0.900983  0.479354  1
  O  O25  1  0.900468  0.171628  0.020646  1
  O  O26  1  0.836825  0.063842  0.477053  1
  O  O27  1  0.609772  0.336788  0.022947  1
  O  O28  1  0.534067  0.007943  0.201000  1
  O  O29  1  0.586788  0.359772  0.522947  1
