# generated using pymatgen
data_Zn4Te3W5O18
_symmetry_space_group_name_H-M   'P 1'
_cell_length_a   9.46481542
_cell_length_b   9.46481506
_cell_length_c   10.26287275
_cell_angle_alpha   87.92462133
_cell_angle_beta   87.92462144
_cell_angle_gamma   67.43510211
_symmetry_Int_Tables_number   1
_chemical_formula_structural   Zn4Te3W5O18
_chemical_formula_sum   'Zn8 Te6 W10 O36'
_cell_volume   848.18869315
_cell_formula_units_Z   2
loop_
 _symmetry_equiv_pos_site_id
 _symmetry_equiv_pos_as_xyz
  1  'x, y, z'
loop_
 _atom_site_type_symbol
 _atom_site_label
 _atom_site_symmetry_multiplicity
 _atom_site_fract_x
 _atom_site_fract_y
 _atom_site_fract_z
 _atom_site_occupancy
  Zn  Zn0  1  0.887707  0.539070  0.317296  1
  Zn  Zn1  1  0.530013  0.540939  0.232680  1
  Zn  Zn2  1  0.460930  0.112293  0.682704  1
  Zn  Zn3  1  0.459061  0.469987  0.767320  1
  Zn  Zn4  1  0.155414  0.924255  0.738348  1
  Zn  Zn5  1  0.147409  0.281004  0.819666  1
  Zn  Zn6  1  0.718996  0.852591  0.180334  1
  Zn  Zn7  1  0.075745  0.844586  0.261652  1
  Te  Te8  1  0.334255  0.831881  0.943382  1
  Te  Te9  1  0.806097  0.193199  0.247308  1
  Te  Te10  1  0.806801  0.193903  0.752692  1
  Te  Te11  1  0.427272  0.732806  0.432140  1
  Te  Te12  1  0.267194  0.572728  0.567860  1
  Te  Te13  1  0.168119  0.665745  0.056618  1
  W  W14  1  0.803457  0.519680  0.982898  1
  W  W15  1  0.129239  0.195688  0.485177  1
  W  W16  1  0.330871  0.345358  0.297452  1
  W  W17  1  0.951676  0.718074  0.794041  1
  W  W18  1  0.654642  0.669129  0.702548  1
  W  W19  1  0.923566  0.076434  0.000000  1
  W  W20  1  0.685276  0.314724  0.500000  1
  W  W21  1  0.281926  0.048325  0.205959  1
  W  W22  1  0.804312  0.870761  0.514823  1
  W  W23  1  0.480320  0.196543  0.017102  1
  O  O24  1  0.370471  0.144091  0.878101  1
  O  O25  1  0.735941  0.468555  0.816835  1
  O  O26  1  0.634726  0.541480  0.571718  1
  O  O27  1  0.706514  0.075647  0.475902  1
  O  O28  1  0.531445  0.264059  0.183165  1
  O  O29  1  0.924353  0.293486  0.524098  1
  O  O30  1  0.284423  0.841494  0.287051  1
  O  O31  1  0.036885  0.130248  0.826420  1
  O  O32  1  0.574048  0.261483  0.678178  1
  O  O33  1  0.110842  0.405227  0.366168  1
  O  O34  1  0.616129  0.558241  0.062495  1
  O  O35  1  0.501855  0.990692  0.131834  1
  O  O36  1  0.869733  0.918324  0.680862  1
  O  O37  1  0.733731  0.725436  0.868951  1
  O  O38  1  0.441759  0.383871  0.937505  1
  O  O39  1  0.315705  0.544129  0.211431  1
  O  O40  1  0.991316  0.832464  0.435236  1
  O  O41  1  0.274564  0.266269  0.131049  1
  O  O42  1  0.458520  0.365274  0.428282  1
  O  O43  1  0.167536  0.008684  0.564764  1
  O  O44  1  0.751281  0.763159  0.374066  1
  O  O45  1  0.864136  0.662709  0.624832  1
  O  O46  1  0.869752  0.963115  0.173580  1
  O  O47  1  0.455871  0.684295  0.788569  1
  O  O48  1  0.988553  0.850217  0.931823  1
  O  O49  1  0.684605  0.098808  0.977411  1
  O  O50  1  0.009308  0.498145  0.868166  1
  O  O51  1  0.158506  0.715577  0.712949  1
  O  O52  1  0.081676  0.130267  0.319138  1
  O  O53  1  0.337291  0.135864  0.375168  1
  O  O54  1  0.236841  0.248719  0.625934  1
  O  O55  1  0.901191  0.315395  0.022589  1
  O  O56  1  0.738517  0.425952  0.321822  1
  O  O57  1  0.594773  0.889158  0.633832  1
  O  O58  1  0.149783  0.011447  0.068177  1
  O  O59  1  0.855909  0.629529  0.121899  1
