# generated using pymatgen
data_AlSnO3
_symmetry_space_group_name_H-M   'P 1'
_cell_length_a   5.76870753
_cell_length_b   5.76870727
_cell_length_c   12.34694999
_cell_angle_alpha   90.00000000
_cell_angle_beta   90.00000000
_cell_angle_gamma   120.00000157
_symmetry_Int_Tables_number   1
_chemical_formula_structural   AlSnO3
_chemical_formula_sum   'Al6 Sn6 O18'
_cell_volume   355.83391271
_cell_formula_units_Z   6
loop_
 _symmetry_equiv_pos_site_id
 _symmetry_equiv_pos_as_xyz
  1  'x, y, z'
loop_
 _atom_site_type_symbol
 _atom_site_label
 _atom_site_symmetry_multiplicity
 _atom_site_fract_x
 _atom_site_fract_y
 _atom_site_fract_z
 _atom_site_occupancy
  Al  Al0  1  0.666667  0.333333  0.270610  1
  Al  Al1  1  0.333333  0.666667  0.770610  1
  Al  Al2  1  0.666667  0.333333  0.770610  1
  Al  Al3  1  0.333333  0.666667  0.270610  1
  Al  Al4  1  0.000000  0.000000  0.732006  1
  Al  Al5  1  0.000000  0.000000  0.232006  1
  Sn  Sn6  1  0.699768  0.000000  0.497467  1
  Sn  Sn7  1  0.699768  0.699768  0.997467  1
  Sn  Sn8  1  0.000000  0.300232  0.997467  1
  Sn  Sn9  1  1.000000  0.699768  0.497467  1
  Sn  Sn10  1  0.300232  0.300232  0.497467  1
  Sn  Sn11  1  0.300232  0.000000  0.997467  1
  O  O12  1  0.666667  0.333333  0.027887  1
  O  O13  1  0.333333  0.666667  0.527887  1
  O  O14  1  0.666667  0.333333  0.527887  1
  O  O15  1  0.333333  0.666667  0.027887  1
  O  O16  1  0.000000  0.000000  0.878680  1
  O  O17  1  0.000000  0.000000  0.378680  1
  O  O18  1  0.455053  0.000000  0.841513  1
  O  O19  1  0.455053  0.455053  0.341513  1
  O  O20  1  0.000000  0.544947  0.341513  1
  O  O21  1  1.000000  0.455053  0.841513  1
  O  O22  1  0.544947  0.544947  0.841513  1
  O  O23  1  0.544947  0.000000  0.341513  1
  O  O24  1  0.299388  0.000000  0.183460  1
  O  O25  1  0.299388  0.299388  0.683460  1
  O  O26  1  1.000000  0.700612  0.683460  1
  O  O27  1  0.000000  0.299388  0.183460  1
  O  O28  1  0.700612  0.700612  0.183460  1
  O  O29  1  0.700612  0.000000  0.683460  1
