# generated using pymatgen
data_Y2Mn3O9
_symmetry_space_group_name_H-M   'P 1'
_cell_length_a   5.24680814
_cell_length_b   16.08605649
_cell_length_c   7.53507248
_cell_angle_alpha   89.98999398
_cell_angle_beta   90.00295658
_cell_angle_gamma   90.01084227
_symmetry_Int_Tables_number   1
_chemical_formula_structural   Y2Mn3O9
_chemical_formula_sum   'Y8 Mn12 O36'
_cell_volume   635.96350316
_cell_formula_units_Z   4
loop_
 _symmetry_equiv_pos_site_id
 _symmetry_equiv_pos_as_xyz
  1  'x, y, z'
loop_
 _atom_site_type_symbol
 _atom_site_label
 _atom_site_symmetry_multiplicity
 _atom_site_fract_x
 _atom_site_fract_y
 _atom_site_fract_z
 _atom_site_occupancy
  Y  Y0  1  0.016598  0.312821  0.750104  1
  Y  Y1  1  0.009043  0.985756  0.749863  1
  Y  Y2  1  0.516854  0.187328  0.250079  1
  Y  Y3  1  0.509473  0.514136  0.250098  1
  Y  Y4  1  0.490580  0.485792  0.749931  1
  Y  Y5  1  0.482788  0.812571  0.750152  1
  Y  Y6  1  0.989890  0.014335  0.250129  1
  Y  Y7  1  0.983528  0.687113  0.249761  1
  Mn  Mn8  1  0.500078  0.000074  0.500253  1
  Mn  Mn9  1  0.504024  0.332984  0.495225  1
  Mn  Mn10  1  0.496216  0.667076  0.504552  1
  Mn  Mn11  1  0.004094  0.167145  0.504724  1
  Mn  Mn12  1  0.000234  0.500000  0.499960  1
  Mn  Mn13  1  0.996077  0.832946  0.495148  1
  Mn  Mn14  1  0.003866  0.166913  0.995357  1
  Mn  Mn15  1  0.000388  0.499946  0.999807  1
  Mn  Mn16  1  0.996860  0.832946  0.004850  1
  Mn  Mn17  1  0.499804  0.999904  0.000429  1
  Mn  Mn18  1  0.503949  0.332953  0.004723  1
  Mn  Mn19  1  0.497277  0.666919  0.995420  1
  O  O20  1  0.713438  0.095366  0.438312  1
  O  O21  1  0.688163  0.437067  0.472291  1
  O  O22  1  0.703704  0.763879  0.455333  1
  O  O23  1  0.188110  0.062995  0.527751  1
  O  O24  1  0.213338  0.404684  0.561457  1
  O  O25  1  0.203594  0.736093  0.544134  1
  O  O26  1  0.796201  0.263937  0.043500  1
  O  O27  1  0.786809  0.595182  0.061551  1
  O  O28  1  0.811129  0.936812  0.028454  1
  O  O29  1  0.296171  0.236022  0.956394  1
  O  O30  1  0.311766  0.563031  0.972081  1
  O  O31  1  0.286366  0.904864  0.937862  1
  O  O32  1  0.296570  0.236044  0.543491  1
  O  O33  1  0.311916  0.562936  0.527700  1
  O  O34  1  0.286207  0.904777  0.561882  1
  O  O35  1  0.796364  0.264048  0.456394  1
  O  O36  1  0.786789  0.595335  0.438578  1
  O  O37  1  0.811344  0.936931  0.471735  1
  O  O38  1  0.187692  0.062887  0.972379  1
  O  O39  1  0.213389  0.404748  0.938362  1
  O  O40  1  0.204349  0.736060  0.956899  1
  O  O41  1  0.713048  0.095210  0.061963  1
  O  O42  1  0.688081  0.437095  0.027619  1
  O  O43  1  0.704460  0.763831  0.043440  1
  O  O44  1  0.093508  0.156803  0.250074  1
  O  O45  1  0.083876  0.496438  0.249941  1
  O  O46  1  0.085229  0.827764  0.249995  1
  O  O47  1  0.583757  0.004164  0.750024  1
  O  O48  1  0.593256  0.343311  0.749971  1
  O  O49  1  0.583986  0.672090  0.749886  1
  O  O50  1  0.915696  0.172252  0.750008  1
  O  O51  1  0.916183  0.503653  0.749934  1
  O  O52  1  0.905857  0.843367  0.749844  1
  O  O53  1  0.415516  0.327953  0.249949  1
  O  O54  1  0.406841  0.656593  0.250107  1
  O  O55  1  0.415672  0.996115  0.250137  1
