# generated using pymatgen
data_Mg(FeO2)2
_symmetry_space_group_name_H-M   'P 1'
_cell_length_a   2.92711936
_cell_length_b   8.09105234
_cell_length_c   7.67172621
_cell_angle_alpha   70.87357504
_cell_angle_beta   78.84356420
_cell_angle_gamma   79.27710966
_symmetry_Int_Tables_number   1
_chemical_formula_structural   Mg(FeO2)2
_chemical_formula_sum   'Mg2 Fe4 O8'
_cell_volume   166.93818655
_cell_formula_units_Z   2
loop_
 _symmetry_equiv_pos_site_id
 _symmetry_equiv_pos_as_xyz
  1  'x, y, z'
loop_
 _atom_site_type_symbol
 _atom_site_label
 _atom_site_symmetry_multiplicity
 _atom_site_fract_x
 _atom_site_fract_y
 _atom_site_fract_z
 _atom_site_occupancy
  Mg  Mg0  1  0.313846  0.159353  0.227632  1
  Mg  Mg1  1  0.687824  0.819171  0.805873  1
  Fe  Fe2  1  0.606391  0.190293  0.611894  1
  Fe  Fe3  1  0.141859  0.509265  0.197114  1
  Fe  Fe4  1  0.861352  0.468936  0.835079  1
  Fe  Fe5  1  0.395945  0.788191  0.421543  1
  O  O6  1  0.854448  0.690982  0.601983  1
  O  O7  1  0.460774  0.331945  0.777881  1
  O  O8  1  0.541722  0.645175  0.256500  1
  O  O9  1  0.147380  0.287546  0.430970  1
  O  O10  1  0.137925  0.004869  0.722068  1
  O  O11  1  0.775106  0.346559  0.113403  1
  O  O12  1  0.864811  0.973019  0.310353  1
  O  O13  1  0.226928  0.631498  0.919149  1
