# generated using pymatgen
data_CaLa2MoO6
_symmetry_space_group_name_H-M   'P 1'
_cell_length_a   5.84165672
_cell_length_b   5.84165631
_cell_length_c   5.84165697
_cell_angle_alpha   61.75977505
_cell_angle_beta   61.75977628
_cell_angle_gamma   61.75977947
_symmetry_Int_Tables_number   1
_chemical_formula_structural   CaLa2MoO6
_chemical_formula_sum   'Ca1 La2 Mo1 O6'
_cell_volume   146.51710565
_cell_formula_units_Z   1
loop_
 _symmetry_equiv_pos_site_id
 _symmetry_equiv_pos_as_xyz
  1  'x, y, z'
loop_
 _atom_site_type_symbol
 _atom_site_label
 _atom_site_symmetry_multiplicity
 _atom_site_fract_x
 _atom_site_fract_y
 _atom_site_fract_z
 _atom_site_occupancy
  Ca  Ca0  1  0.500000  0.500000  0.500000  1
  La  La1  1  0.765732  0.765732  0.765732  1
  La  La2  1  0.234268  0.234268  0.234268  1
  Mo  Mo3  1  0.000000  0.000000  0.000000  1
  O  O4  1  0.343996  0.784838  0.127597  1
  O  O5  1  0.784838  0.127597  0.343996  1
  O  O6  1  0.127597  0.343996  0.784838  1
  O  O7  1  0.656004  0.215162  0.872403  1
  O  O8  1  0.872403  0.656004  0.215162  1
  O  O9  1  0.215162  0.872403  0.656004  1
