# generated using pymatgen
data_ZnCo4(CuO4)3
_symmetry_space_group_name_H-M   'P 1'
_cell_length_a   6.24929342
_cell_length_b   6.25040976
_cell_length_c   6.24800055
_cell_angle_alpha   109.53473070
_cell_angle_beta   109.44398983
_cell_angle_gamma   109.43616631
_symmetry_Int_Tables_number   1
_chemical_formula_structural   ZnCo4(CuO4)3
_chemical_formula_sum   'Zn1 Co4 Cu3 O12'
_cell_volume   187.86752351
_cell_formula_units_Z   1
loop_
 _symmetry_equiv_pos_site_id
 _symmetry_equiv_pos_as_xyz
  1  'x, y, z'
loop_
 _atom_site_type_symbol
 _atom_site_label
 _atom_site_symmetry_multiplicity
 _atom_site_fract_x
 _atom_site_fract_y
 _atom_site_fract_z
 _atom_site_occupancy
  Zn  Zn0  1  0.000002  0.000003  0.000003  1
  Co  Co1  1  -0.000003  0.999998  0.499999  1
  Co  Co2  1  -0.000002  0.499999  0.000002  1
  Co  Co3  1  0.500000  0.500002  0.500003  1
  Co  Co4  1  0.500001  0.999999  -0.000000  1
  Cu  Cu5  1  0.499997  0.499999  0.000001  1
  Cu  Cu6  1  -0.000004  0.499997  0.499999  1
  Cu  Cu7  1  0.499997  -0.000001  0.499998  1
  O  O8  1  0.826651  0.305068  0.131817  1
  O  O9  1  0.173350  0.694931  0.868186  1
  O  O10  1  0.826988  0.695060  0.522058  1
  O  O11  1  0.305636  0.479296  0.173576  1
  O  O12  1  0.478575  0.173312  0.305264  1
  O  O13  1  0.131968  0.826712  0.305338  1
  O  O14  1  0.694488  0.867905  0.173281  1
  O  O15  1  0.521441  0.826699  0.694742  1
  O  O16  1  0.173010  0.304939  0.477942  1
  O  O17  1  0.694357  0.520692  0.826422  1
  O  O18  1  0.868035  0.173297  0.694656  1
  O  O19  1  0.305515  0.132093  0.826715  1
