# generated using pymatgen
data_Si4SnO10
_symmetry_space_group_name_H-M   'P 1'
_cell_length_a   7.55771674
_cell_length_b   7.55771674
_cell_length_c   15.96735356
_cell_angle_alpha   90.00000000
_cell_angle_beta   90.00000000
_cell_angle_gamma   90.00000000
_symmetry_Int_Tables_number   1
_chemical_formula_structural   Si4SnO10
_chemical_formula_sum   'Si16 Sn4 O40'
_cell_volume   912.04058246
_cell_formula_units_Z   4
loop_
 _symmetry_equiv_pos_site_id
 _symmetry_equiv_pos_as_xyz
  1  'x, y, z'
loop_
 _atom_site_type_symbol
 _atom_site_label
 _atom_site_symmetry_multiplicity
 _atom_site_fract_x
 _atom_site_fract_y
 _atom_site_fract_z
 _atom_site_occupancy
  Si  Si0  1  0.924089  0.512390  0.652179  1
  Si  Si1  1  0.575911  0.987610  0.652179  1
  Si  Si2  1  0.012390  0.424089  0.847821  1
  Si  Si3  1  0.512390  0.575911  0.652179  1
  Si  Si4  1  0.987610  0.924089  0.652179  1
  Si  Si5  1  0.075911  0.012390  0.847821  1
  Si  Si6  1  0.424089  0.487610  0.847821  1
  Si  Si7  1  0.487610  0.075911  0.847821  1
  Si  Si8  1  0.075911  0.487610  0.347821  1
  Si  Si9  1  0.424089  0.012390  0.347821  1
  Si  Si10  1  0.987610  0.575911  0.152179  1
  Si  Si11  1  0.487610  0.424089  0.347821  1
  Si  Si12  1  0.012390  0.075911  0.347821  1
  Si  Si13  1  0.924089  0.987610  0.152179  1
  Si  Si14  1  0.575911  0.512390  0.152179  1
  Si  Si15  1  0.512390  0.924089  0.152179  1
  Sn  Sn16  1  0.250000  0.250000  0.593348  1
  Sn  Sn17  1  0.750000  0.750000  0.906652  1
  Sn  Sn18  1  0.750000  0.750000  0.406652  1
  Sn  Sn19  1  0.250000  0.250000  0.093348  1
  O  O20  1  0.015478  0.365566  0.591834  1
  O  O21  1  0.484522  0.134434  0.591834  1
  O  O22  1  0.865566  0.515478  0.908166  1
  O  O23  1  0.365566  0.484522  0.591834  1
  O  O24  1  0.134434  0.015478  0.591834  1
  O  O25  1  0.984522  0.865566  0.908166  1
  O  O26  1  0.515478  0.634434  0.908166  1
  O  O27  1  0.634434  0.984522  0.908166  1
  O  O28  1  0.984522  0.634434  0.408166  1
  O  O29  1  0.515478  0.865566  0.408166  1
  O  O30  1  0.134434  0.484522  0.091834  1
  O  O31  1  0.634434  0.515478  0.408166  1
  O  O32  1  0.865566  0.984522  0.408166  1
  O  O33  1  0.015478  0.134434  0.091834  1
  O  O34  1  0.484522  0.365566  0.091834  1
  O  O35  1  0.005109  0.287629  0.366248  1
  O  O36  1  0.365566  0.015478  0.091834  1
  O  O37  1  0.505109  0.787629  0.633752  1
  O  O38  1  0.212371  0.494891  0.866248  1
  O  O39  1  0.712371  0.505109  0.633752  1
  O  O40  1  0.787629  0.994891  0.633752  1
  O  O41  1  0.005109  0.212371  0.866248  1
  O  O42  1  0.494891  0.287629  0.866248  1
  O  O43  1  0.287629  0.005109  0.866248  1
  O  O44  1  0.464411  0.964410  0.250000  1
  O  O45  1  0.535589  0.464411  0.250000  1
  O  O46  1  0.964410  0.035589  0.250000  1
  O  O47  1  0.035589  0.535589  0.250000  1
  O  O48  1  0.535589  0.035589  0.750000  1
  O  O49  1  0.464411  0.535589  0.750000  1
  O  O50  1  0.035589  0.964410  0.750000  1
  O  O51  1  0.964410  0.464411  0.750000  1
  O  O52  1  0.712371  0.994891  0.133752  1
  O  O53  1  0.505109  0.712371  0.133752  1
  O  O54  1  0.994891  0.787629  0.133752  1
  O  O55  1  0.212371  0.005109  0.366248  1
  O  O56  1  0.287629  0.494891  0.366248  1
  O  O57  1  0.787629  0.505109  0.133752  1
  O  O58  1  0.494891  0.212371  0.366248  1
  O  O59  1  0.994891  0.712371  0.633752  1
