# generated using pymatgen
data_Bi3Se2ClO8
_symmetry_space_group_name_H-M   'P 1'
_cell_length_a   7.50570755
_cell_length_b   8.03295242
_cell_length_c   10.78815017
_cell_angle_alpha   89.99961710
_cell_angle_beta   89.99986768
_cell_angle_gamma   90.00000921
_symmetry_Int_Tables_number   1
_chemical_formula_structural   Bi3Se2ClO8
_chemical_formula_sum   'Bi6 Se4 Cl2 O16'
_cell_volume   650.44984787
_cell_formula_units_Z   2
loop_
 _symmetry_equiv_pos_site_id
 _symmetry_equiv_pos_as_xyz
  1  'x, y, z'
loop_
 _atom_site_type_symbol
 _atom_site_label
 _atom_site_symmetry_multiplicity
 _atom_site_fract_x
 _atom_site_fract_y
 _atom_site_fract_z
 _atom_site_occupancy
  Bi  Bi0  1  0.500036  0.999973  0.000034  1
  Bi  Bi1  1  0.500052  0.999961  0.499943  1
  Bi  Bi2  1  0.000075  0.000047  0.999925  1
  Bi  Bi3  1  0.749866  0.252453  0.749998  1
  Bi  Bi4  1  0.249840  0.747551  0.249994  1
  Bi  Bi5  1  0.000014  0.000014  0.500019  1
  Se  Se6  1  0.750001  0.387724  0.065719  1
  Se  Se7  1  0.250004  0.612271  0.934281  1
  Se  Se8  1  0.750006  0.387727  0.434279  1
  Se  Se9  1  0.250007  0.612273  0.565722  1
  Cl  Cl10  1  0.250001  0.122736  0.750061  1
  Cl  Cl11  1  0.750009  0.877263  0.250010  1
  O  O12  1  0.250005  0.962481  0.114107  1
  O  O13  1  0.250027  0.560015  0.091319  1
  O  O14  1  0.750021  0.439988  0.591313  1
  O  O15  1  0.564703  0.258906  0.079899  1
  O  O16  1  0.435289  0.741103  0.579916  1
  O  O17  1  0.064710  0.741096  0.579903  1
  O  O18  1  0.750005  0.037516  0.885892  1
  O  O19  1  0.935285  0.258897  0.079912  1
  O  O20  1  0.935291  0.258901  0.420091  1
  O  O21  1  0.064701  0.741089  0.920104  1
  O  O22  1  0.250005  0.962487  0.385896  1
  O  O23  1  0.750005  0.037520  0.614106  1
  O  O24  1  0.435287  0.741098  0.920086  1
  O  O25  1  0.564707  0.258907  0.420101  1
  O  O26  1  0.750022  0.439984  0.908682  1
  O  O27  1  0.250027  0.560020  0.408688  1
