# generated using pymatgen
data_Mn2ZnP2O9
_symmetry_space_group_name_H-M   'P 1'
_cell_length_a   6.31574945
_cell_length_b   7.33036504
_cell_length_c   14.51695985
_cell_angle_alpha   89.99796565
_cell_angle_beta   90.00021216
_cell_angle_gamma   90.00086278
_symmetry_Int_Tables_number   1
_chemical_formula_structural   Mn2ZnP2O9
_chemical_formula_sum   'Mn8 Zn4 P8 O36'
_cell_volume   672.08804574
_cell_formula_units_Z   4
loop_
 _symmetry_equiv_pos_site_id
 _symmetry_equiv_pos_as_xyz
  1  'x, y, z'
loop_
 _atom_site_type_symbol
 _atom_site_label
 _atom_site_symmetry_multiplicity
 _atom_site_fract_x
 _atom_site_fract_y
 _atom_site_fract_z
 _atom_site_occupancy
  Mn  Mn0  1  0.749989  0.352761  0.882650  1
  Mn  Mn1  1  0.249986  0.647272  0.117293  1
  Mn  Mn2  1  0.250021  0.852774  0.617366  1
  Mn  Mn3  1  0.750007  0.147227  0.382689  1
  Mn  Mn4  1  0.499968  0.000046  0.999977  1
  Mn  Mn5  1  0.500028  0.499985  0.500035  1
  Mn  Mn6  1  0.000030  0.499986  0.500035  1
  Mn  Mn7  1  0.999978  0.000050  0.999983  1
  Zn  Zn8  1  0.749990  0.914897  0.774752  1
  Zn  Zn9  1  0.750010  0.585022  0.274736  1
  Zn  Zn10  1  0.250004  0.414764  0.725254  1
  Zn  Zn11  1  0.250008  0.085014  0.225230  1
  P  P12  1  0.249982  0.367253  0.929698  1
  P  P13  1  0.749989  0.632828  0.070244  1
  P  P14  1  0.750016  0.867158  0.570278  1
  P  P15  1  0.250010  0.132811  0.429787  1
  P  P16  1  0.750008  0.384526  0.703132  1
  P  P17  1  0.750000  0.115411  0.203163  1
  P  P18  1  0.249979  0.884605  0.796868  1
  P  P19  1  0.250012  0.615436  0.296828  1
  O  O20  1  0.040879  0.610425  0.353693  1
  O  O21  1  0.540850  0.389610  0.646278  1
  O  O22  1  0.959143  0.110358  0.146305  1
  O  O23  1  0.459124  0.889642  0.853720  1
  O  O24  1  0.959172  0.389614  0.646284  1
  O  O25  1  0.459157  0.610407  0.353686  1
  O  O26  1  0.040827  0.889649  0.853715  1
  O  O27  1  0.540849  0.110365  0.146306  1
  O  O28  1  0.250022  0.323911  0.477231  1
  O  O29  1  0.750028  0.676047  0.522835  1
  O  O30  1  0.749975  0.823935  0.022809  1
  O  O31  1  0.249967  0.176183  0.977185  1
  O  O32  1  0.749982  0.133967  0.951689  1
  O  O33  1  0.249977  0.866090  0.048248  1
  O  O34  1  0.250032  0.633987  0.548301  1
  O  O35  1  0.750026  0.366033  0.451730  1
  O  O36  1  0.749997  0.205826  0.765457  1
  O  O37  1  0.250019  0.794109  0.234440  1
  O  O38  1  0.249983  0.705919  0.734510  1
  O  O39  1  0.750009  0.294088  0.265519  1
  O  O40  1  0.435981  0.121662  0.360755  1
  O  O41  1  0.935992  0.878269  0.639321  1
  O  O42  1  0.564010  0.621648  0.139273  1
  O  O43  1  0.064027  0.378363  0.860662  1
  O  O44  1  0.564049  0.878243  0.639331  1
  O  O45  1  0.064032  0.121660  0.360756  1
  O  O46  1  0.435946  0.378340  0.860664  1
  O  O47  1  0.935969  0.621688  0.139277  1
  O  O48  1  0.750014  0.484900  0.997837  1
  O  O49  1  0.250002  0.039130  0.723239  1
  O  O50  1  0.249985  0.460938  0.223196  1
  O  O51  1  0.749993  0.539039  0.776764  1
  O  O52  1  0.749980  0.015053  0.497869  1
  O  O53  1  0.250007  0.984933  0.502213  1
  O  O54  1  0.249996  0.515220  0.002099  1
  O  O55  1  0.749998  0.960915  0.276805  1
