# generated using pymatgen
data_Zn(CuO2)2
_symmetry_space_group_name_H-M   'P 1'
_cell_length_a   3.22889475
_cell_length_b   7.06125737
_cell_length_c   7.15342482
_cell_angle_alpha   82.64137229
_cell_angle_beta   78.80533032
_cell_angle_gamma   91.80606064
_symmetry_Int_Tables_number   1
_chemical_formula_structural   Zn(CuO2)2
_chemical_formula_sum   'Zn2 Cu4 O8'
_cell_volume   158.41082907
_cell_formula_units_Z   2
loop_
 _symmetry_equiv_pos_site_id
 _symmetry_equiv_pos_as_xyz
  1  'x, y, z'
loop_
 _atom_site_type_symbol
 _atom_site_label
 _atom_site_symmetry_multiplicity
 _atom_site_fract_x
 _atom_site_fract_y
 _atom_site_fract_z
 _atom_site_occupancy
  Zn  Zn0  1  0.317854  0.163577  0.190818  1
  Zn  Zn1  1  0.684647  0.814638  0.842246  1
  Cu  Cu2  1  0.643291  0.176310  0.549357  1
  Cu  Cu3  1  0.043400  0.522565  0.209509  1
  Cu  Cu4  1  0.959094  0.455637  0.823512  1
  Cu  Cu5  1  0.358842  0.801704  0.483729  1
  O  O6  1  0.908023  0.645828  0.624106  1
  O  O7  1  0.554919  0.299201  0.760831  1
  O  O8  1  0.447484  0.678864  0.272218  1
  O  O9  1  0.094053  0.332324  0.408882  1
  O  O10  1  0.300674  0.960799  0.688555  1
  O  O11  1  0.878556  0.315310  0.071681  1
  O  O12  1  0.701428  0.017236  0.344582  1
  O  O13  1  0.124045  0.662809  0.961418  1
