# generated using pymatgen
data_Mg(SnO2)4
_symmetry_space_group_name_H-M   'P 1'
_cell_length_a   3.22541540
_cell_length_b   8.07070134
_cell_length_c   8.15304341
_cell_angle_alpha   74.51834408
_cell_angle_beta   78.49562033
_cell_angle_gamma   78.42628420
_symmetry_Int_Tables_number   1
_chemical_formula_structural   Mg(SnO2)4
_chemical_formula_sum   'Mg1 Sn4 O8'
_cell_volume   197.96870243
_cell_formula_units_Z   1
loop_
 _symmetry_equiv_pos_site_id
 _symmetry_equiv_pos_as_xyz
  1  'x, y, z'
loop_
 _atom_site_type_symbol
 _atom_site_label
 _atom_site_symmetry_multiplicity
 _atom_site_fract_x
 _atom_site_fract_y
 _atom_site_fract_z
 _atom_site_occupancy
  Mg  Mg0  1  0.319289  0.169703  0.201362  1
  Sn  Sn1  1  0.639564  0.160694  0.570512  1
  Sn  Sn2  1  0.114741  0.577346  0.210058  1
  Sn  Sn3  1  0.861333  0.445557  0.842450  1
  Sn  Sn4  1  0.345845  0.812069  0.509426  1
  O  O5  1  0.875529  0.656600  0.604989  1
  O  O6  1  0.476687  0.323001  0.734765  1
  O  O7  1  0.500431  0.734550  0.280932  1
  O  O8  1  0.154709  0.282598  0.418527  1
  O  O9  1  0.174230  0.988878  0.673325  1
  O  O10  1  0.838666  0.262833  0.070154  1
  O  O11  1  0.816175  0.994800  0.386623  1
  O  O12  1  0.260962  0.582010  0.905670  1
