# generated using pymatgen
data_VZnP2O7
_symmetry_space_group_name_H-M   'P 1'
_cell_length_a   6.52636034
_cell_length_b   6.52969452
_cell_length_c   6.68472476
_cell_angle_alpha   65.61850638
_cell_angle_beta   80.56974133
_cell_angle_gamma   80.03309249
_symmetry_Int_Tables_number   1
_chemical_formula_structural   VZnP2O7
_chemical_formula_sum   'V2 Zn2 P4 O14'
_cell_volume   254.18984543
_cell_formula_units_Z   2
loop_
 _symmetry_equiv_pos_site_id
 _symmetry_equiv_pos_as_xyz
  1  'x, y, z'
loop_
 _atom_site_type_symbol
 _atom_site_label
 _atom_site_symmetry_multiplicity
 _atom_site_fract_x
 _atom_site_fract_y
 _atom_site_fract_z
 _atom_site_occupancy
  V  V0  1  0.661955  0.107154  0.769435  1
  V  V1  1  0.338045  0.892846  0.230565  1
  Zn  Zn2  1  0.861210  0.293065  0.160356  1
  Zn  Zn3  1  0.138790  0.706935  0.839644  1
  P  P4  1  0.153519  0.219329  0.761513  1
  P  P5  1  0.846481  0.780671  0.238487  1
  P  P6  1  0.613289  0.639752  0.688577  1
  P  P7  1  0.386711  0.360248  0.311423  1
  O  O8  1  0.759550  0.610663  0.475371  1
  O  O9  1  0.240450  0.389337  0.524629  1
  O  O10  1  0.003000  0.071016  0.743201  1
  O  O11  1  0.997000  0.928984  0.256799  1
  O  O12  1  0.611250  0.263307  0.390007  1
  O  O13  1  0.388750  0.736693  0.609993  1
  O  O14  1  0.378195  0.603788  0.142289  1
  O  O15  1  0.621805  0.396212  0.857710  1
  O  O16  1  0.950862  0.614815  0.129532  1
  O  O17  1  0.049138  0.385185  0.870468  1
  O  O18  1  0.660059  0.937073  0.126115  1
  O  O19  1  0.339941  0.062927  0.873885  1
  O  O20  1  0.281709  0.204505  0.257187  1
  O  O21  1  0.718291  0.795495  0.742813  1
