# generated using pymatgen
data_CaNiP2O7
_symmetry_space_group_name_H-M   'P 1'
_cell_length_a   6.22406544
_cell_length_b   6.56936308
_cell_length_c   7.17734616
_cell_angle_alpha   82.90525176
_cell_angle_beta   89.23978059
_cell_angle_gamma   68.27665302
_symmetry_Int_Tables_number   1
_chemical_formula_structural   CaNiP2O7
_chemical_formula_sum   'Ca2 Ni2 P4 O14'
_cell_volume   270.37173524
_cell_formula_units_Z   2
loop_
 _symmetry_equiv_pos_site_id
 _symmetry_equiv_pos_as_xyz
  1  'x, y, z'
loop_
 _atom_site_type_symbol
 _atom_site_label
 _atom_site_symmetry_multiplicity
 _atom_site_fract_x
 _atom_site_fract_y
 _atom_site_fract_z
 _atom_site_occupancy
  Ca  Ca0  1  0.301945  0.711965  0.639942  1
  Ca  Ca1  1  0.698046  0.288040  0.360056  1
  Ni  Ni2  1  0.253734  0.129595  0.197101  1
  Ni  Ni3  1  0.746282  0.870405  0.802877  1
  P  P4  1  0.162746  0.661197  0.119964  1
  P  P5  1  0.837280  0.338796  0.880046  1
  P  P6  1  0.244042  0.216540  0.619038  1
  P  P7  1  0.755934  0.783462  0.380954  1
  O  O8  1  0.071683  0.737663  0.914249  1
  O  O9  1  0.928370  0.262319  0.085745  1
  O  O10  1  0.251079  0.817105  0.203471  1
  O  O11  1  0.748927  0.182889  0.796549  1
  O  O12  1  0.330780  0.418595  0.146163  1
  O  O13  1  0.669252  0.581398  0.853851  1
  O  O14  1  0.637452  0.626650  0.452225  1
  O  O15  1  0.362544  0.373346  0.547777  1
  O  O16  1  0.115315  0.159460  0.462357  1
  O  O17  1  0.884651  0.840557  0.537637  1
  O  O18  1  0.061398  0.346327  0.762012  1
  O  O19  1  0.593831  0.002257  0.270609  1
  O  O20  1  0.406121  0.997741  0.729405  1
  O  O21  1  0.938593  0.653693  0.237975  1
