# generated using pymatgen
data_SbO2
_symmetry_space_group_name_H-M   'P 1'
_cell_length_a   3.23120118
_cell_length_b   8.18365802
_cell_length_c   8.45201997
_cell_angle_alpha   85.58585688
_cell_angle_beta   81.62094667
_cell_angle_gamma   81.19685818
_symmetry_Int_Tables_number   1
_chemical_formula_structural   SbO2
_chemical_formula_sum   'Sb4 O8'
_cell_volume   218.16495653
_cell_formula_units_Z   4
loop_
 _symmetry_equiv_pos_site_id
 _symmetry_equiv_pos_as_xyz
  1  'x, y, z'
loop_
 _atom_site_type_symbol
 _atom_site_label
 _atom_site_symmetry_multiplicity
 _atom_site_fract_x
 _atom_site_fract_y
 _atom_site_fract_z
 _atom_site_occupancy
  Sb  Sb0  1  0.687628  0.181855  0.482890  1
  Sb  Sb1  1  0.215336  0.435631  0.163601  1
  Sb  Sb2  1  0.788407  0.564498  0.838254  1
  Sb  Sb3  1  0.316105  0.819387  0.519428  1
  O  O4  1  0.752404  0.776472  0.719038  1
  O  O5  1  0.365140  0.472900  0.727329  1
  O  O6  1  0.638603  0.527073  0.274972  1
  O  O7  1  0.251482  0.223963  0.282869  1
  O  O8  1  0.192657  0.051962  0.606555  1
  O  O9  1  0.799716  0.367176  0.008323  1
  O  O10  1  0.811168  0.948760  0.395900  1
  O  O11  1  0.204205  0.632500  -0.006344  1
