# generated using pymatgen
data_CaCu(SiO3)2
_symmetry_space_group_name_H-M   'P 1'
_cell_length_a   5.28413807
_cell_length_b   6.71079356
_cell_length_c   6.71079378
_cell_angle_alpha   84.74330374
_cell_angle_beta   77.91029676
_cell_angle_gamma   77.91030084
_symmetry_Int_Tables_number   1
_chemical_formula_structural   CaCu(SiO3)2
_chemical_formula_sum   'Ca2 Cu2 Si4 O12'
_cell_volume   227.24705461
_cell_formula_units_Z   2
loop_
 _symmetry_equiv_pos_site_id
 _symmetry_equiv_pos_as_xyz
  1  'x, y, z'
loop_
 _atom_site_type_symbol
 _atom_site_label
 _atom_site_symmetry_multiplicity
 _atom_site_fract_x
 _atom_site_fract_y
 _atom_site_fract_z
 _atom_site_occupancy
  Ca  Ca0  1  0.750000  0.296015  0.703985  1
  Ca  Ca1  1  0.250001  0.703985  0.296016  1
  Cu  Cu2  1  0.249999  0.094254  0.905747  1
  Cu  Cu3  1  0.749999  0.905748  0.094253  1
  Si  Si4  1  0.273493  0.194455  0.379719  1
  Si  Si5  1  0.226506  0.620281  0.805545  1
  Si  Si6  1  0.773493  0.379719  0.194455  1
  Si  Si7  1  0.726507  0.805545  0.620281  1
  O  O8  1  0.507089  0.332185  0.369311  1
  O  O9  1  0.992911  0.630688  0.667816  1
  O  O10  1  0.492912  0.667816  0.630689  1
  O  O11  1  0.007088  0.369312  0.332184  1
  O  O12  1  0.179045  0.110575  0.608990  1
  O  O13  1  0.320955  0.391009  0.889424  1
  O  O14  1  0.820955  0.889425  0.391010  1
  O  O15  1  0.679044  0.608990  0.110576  1
  O  O16  1  0.860470  0.204157  0.027163  1
  O  O17  1  0.639530  0.972837  0.795842  1
  O  O18  1  0.360469  0.027163  0.204158  1
  O  O19  1  0.139531  0.795843  0.972837  1
