# generated using pymatgen
data_ZnAsWO5
_symmetry_space_group_name_H-M   'P 1'
_cell_length_a   8.95564684
_cell_length_b   6.63569667
_cell_length_c   8.29865191
_cell_angle_alpha   89.94825168
_cell_angle_beta   89.97565594
_cell_angle_gamma   89.43077549
_symmetry_Int_Tables_number   1
_chemical_formula_structural   ZnAsWO5
_chemical_formula_sum   'Zn4 As4 W4 O20'
_cell_volume   493.13903951
_cell_formula_units_Z   4
loop_
 _symmetry_equiv_pos_site_id
 _symmetry_equiv_pos_as_xyz
  1  'x, y, z'
loop_
 _atom_site_type_symbol
 _atom_site_label
 _atom_site_symmetry_multiplicity
 _atom_site_fract_x
 _atom_site_fract_y
 _atom_site_fract_z
 _atom_site_occupancy
  Zn  Zn0  1  0.823937  0.631037  0.083519  1
  Zn  Zn1  1  0.676425  0.368244  0.583894  1
  Zn  Zn2  1  0.329853  0.879065  0.917530  1
  Zn  Zn3  1  0.170699  0.121703  0.416953  1
  As  As4  1  0.640300  0.209533  0.931677  1
  As  As5  1  0.859543  0.790802  0.430951  1
  As  As6  1  0.137936  0.294649  0.068779  1
  As  As7  1  0.362469  0.704895  0.569947  1
  W  W8  1  0.014839  0.435445  0.721579  1
  W  W9  1  0.485008  0.564631  0.222242  1
  W  W10  1  0.514019  0.063503  0.278120  1
  W  W11  1  0.985836  0.936439  0.777473  1
  O  O12  1  0.878792  0.194287  0.711791  1
  O  O13  1  0.620797  0.805975  0.211895  1
  O  O14  1  0.380237  0.309425  0.287832  1
  O  O15  1  0.119501  0.690464  0.786848  1
  O  O16  1  0.552841  0.332107  0.774291  1
  O  O17  1  0.947269  0.668535  0.273660  1
  O  O18  1  0.051588  0.173044  0.226024  1
  O  O19  1  0.448896  0.827159  0.726580  1
  O  O20  1  0.475880  0.092342  0.036646  1
  O  O21  1  0.023609  0.908367  0.536000  1
  O  O22  1  0.973402  0.410440  0.962897  1
  O  O23  1  0.526764  0.589302  0.463404  1
  O  O24  1  0.644084  0.439380  0.089932  1
  O  O25  1  0.855859  0.560619  0.589170  1
  O  O26  1  0.144419  0.061818  0.908488  1
  O  O27  1  0.355468  0.937497  0.408950  1
  O  O28  1  0.843564  0.832693  0.907952  1
  O  O29  1  0.656224  0.166712  0.408732  1
  O  O30  1  0.342702  0.675399  0.093288  1
  O  O31  1  0.157238  0.324495  0.592955  1
