# generated using pymatgen
data_Mg2SbWO6
_symmetry_space_group_name_H-M   'P 1'
_cell_length_a   5.52606019
_cell_length_b   5.51430829
_cell_length_c   7.95061072
_cell_angle_alpha   90.00000000
_cell_angle_beta   90.00000000
_cell_angle_gamma   93.78097542
_symmetry_Int_Tables_number   1
_chemical_formula_structural   Mg2SbWO6
_chemical_formula_sum   'Mg4 Sb2 W2 O12'
_cell_volume   241.74685667
_cell_formula_units_Z   2
loop_
 _symmetry_equiv_pos_site_id
 _symmetry_equiv_pos_as_xyz
  1  'x, y, z'
loop_
 _atom_site_type_symbol
 _atom_site_label
 _atom_site_symmetry_multiplicity
 _atom_site_fract_x
 _atom_site_fract_y
 _atom_site_fract_z
 _atom_site_occupancy
  Mg  Mg0  1  0.497183  0.545868  0.750000  1
  Mg  Mg1  1  0.502817  0.454132  0.250000  1
  Mg  Mg2  1  0.019142  0.028652  0.750000  1
  Mg  Mg3  1  0.980858  0.971348  0.250000  1
  Sb  Sb4  1  0.000000  0.500000  0.500000  1
  Sb  Sb5  1  0.000000  0.500000  0.000000  1
  W  W6  1  0.500000  0.000000  0.500000  1
  W  W7  1  0.500000  0.000000  0.000000  1
  O  O8  1  0.368894  0.684686  0.427991  1
  O  O9  1  0.191186  0.155510  0.075175  1
  O  O10  1  0.631106  0.315314  0.927991  1
  O  O11  1  0.808814  0.844490  0.575175  1
  O  O12  1  0.191186  0.155510  0.424825  1
  O  O13  1  0.808814  0.844490  0.924825  1
  O  O14  1  0.856650  0.606993  0.250000  1
  O  O15  1  0.368894  0.684686  0.072009  1
  O  O16  1  0.367889  0.910986  0.750000  1
  O  O17  1  0.631106  0.315314  0.572009  1
  O  O18  1  0.143350  0.393007  0.750000  1
  O  O19  1  0.632111  0.089014  0.250000  1
