# generated using pymatgen
data_Mg2Sn3O8
_symmetry_space_group_name_H-M   'P 1'
_cell_length_a   6.31846850
_cell_length_b   6.31846878
_cell_length_c   9.54304584
_cell_angle_alpha   90.00000000
_cell_angle_beta   90.00000000
_cell_angle_gamma   120.00000347
_symmetry_Int_Tables_number   1
_chemical_formula_structural   Mg2Sn3O8
_chemical_formula_sum   'Mg4 Sn6 O16'
_cell_volume   329.94480527
_cell_formula_units_Z   2
loop_
 _symmetry_equiv_pos_site_id
 _symmetry_equiv_pos_as_xyz
  1  'x, y, z'
loop_
 _atom_site_type_symbol
 _atom_site_label
 _atom_site_symmetry_multiplicity
 _atom_site_fract_x
 _atom_site_fract_y
 _atom_site_fract_z
 _atom_site_occupancy
  Mg  Mg0  1  0.666667  0.333334  0.030433  1
  Mg  Mg1  1  0.333333  0.666666  0.530434  1
  Mg  Mg2  1  0.666667  0.333334  0.405414  1
  Mg  Mg3  1  0.333333  0.666666  0.905415  1
  Sn  Sn4  1  0.671015  0.835509  0.244263  1
  Sn  Sn5  1  0.835510  0.164492  0.744263  1
  Sn  Sn6  1  0.164492  0.328986  0.244263  1
  Sn  Sn7  1  0.835508  0.671015  0.744263  1
  Sn  Sn8  1  0.328986  0.164492  0.744263  1
  Sn  Sn9  1  0.164492  0.835509  0.244263  1
  O  O10  1  0.830105  0.169896  0.142879  1
  O  O11  1  0.660209  0.830105  0.642878  1
  O  O12  1  0.169896  0.339792  0.642878  1
  O  O13  1  0.830104  0.660209  0.142879  1
  O  O14  1  0.339791  0.169896  0.142879  1
  O  O15  1  0.169896  0.830105  0.642878  1
  O  O16  1  0.518239  0.481760  0.871450  1
  O  O17  1  0.036479  0.518239  0.371449  1
  O  O18  1  0.481761  0.963522  0.371449  1
  O  O19  1  0.518239  0.036479  0.871450  1
  O  O20  1  0.000000  0.000000  0.357779  1
  O  O21  1  0.000000  0.000000  0.857779  1
  O  O22  1  0.333333  0.666666  0.124101  1
  O  O23  1  0.963520  0.481760  0.871450  1
  O  O24  1  0.481760  0.518239  0.371449  1
  O  O25  1  0.666667  0.333334  0.624101  1
