# generated using pymatgen
data_Mg(SnO2)2
_symmetry_space_group_name_H-M   'P 1'
_cell_length_a   6.58701043
_cell_length_b   6.58701186
_cell_length_c   6.59080688
_cell_angle_alpha   119.98096006
_cell_angle_beta   119.98095608
_cell_angle_gamma   89.99999247
_symmetry_Int_Tables_number   1
_chemical_formula_structural   Mg(SnO2)2
_chemical_formula_sum   'Mg2 Sn4 O8'
_cell_volume   202.32531146
_cell_formula_units_Z   2
loop_
 _symmetry_equiv_pos_site_id
 _symmetry_equiv_pos_as_xyz
  1  'x, y, z'
loop_
 _atom_site_type_symbol
 _atom_site_label
 _atom_site_symmetry_multiplicity
 _atom_site_fract_x
 _atom_site_fract_y
 _atom_site_fract_z
 _atom_site_occupancy
  Mg  Mg0  1  0.375000  0.625000  0.750000  1
  Mg  Mg1  1  0.625000  0.375000  0.250000  1
  Sn  Sn2  1  -0.000000  -0.000000  0.500000  1
  Sn  Sn3  1  -0.000000  0.500000  -0.000000  1
  Sn  Sn4  1  0.500000  -0.000000  0.500000  1
  Sn  Sn5  1  -0.000000  -0.000000  -0.000000  1
  O  O6  1  0.754370  0.762386  0.508742  1
  O  O7  1  0.753645  0.245630  0.991258  1
  O  O8  1  0.237614  0.245630  0.991258  1
  O  O9  1  0.245630  0.237614  0.491258  1
  O  O10  1  0.245630  0.753645  0.491258  1
  O  O11  1  0.246355  0.754370  0.008742  1
  O  O12  1  0.754370  0.246355  0.508742  1
  O  O13  1  0.762386  0.754370  0.008742  1
