# generated using pymatgen
data_MgMn2O4
_symmetry_space_group_name_H-M   'P 1'
_cell_length_a   2.87109800
_cell_length_b   8.06328471
_cell_length_c   7.91114869
_cell_angle_alpha   73.77031531
_cell_angle_beta   79.53805347
_cell_angle_gamma   79.72988660
_symmetry_Int_Tables_number   1
_chemical_formula_structural   MgMn2O4
_chemical_formula_sum   'Mg2 Mn4 O8'
_cell_volume   171.34010052
_cell_formula_units_Z   2
loop_
 _symmetry_equiv_pos_site_id
 _symmetry_equiv_pos_as_xyz
  1  'x, y, z'
loop_
 _atom_site_type_symbol
 _atom_site_label
 _atom_site_symmetry_multiplicity
 _atom_site_fract_x
 _atom_site_fract_y
 _atom_site_fract_z
 _atom_site_occupancy
  Mg  Mg0  1  0.303934  0.159399  0.231906  1
  Mg  Mg1  1  0.691383  0.817679  0.800555  1
  Mn  Mn2  1  0.609082  0.173350  0.609126  1
  Mn  Mn3  1  0.146733  0.506871  0.197934  1
  Mn  Mn4  1  0.848726  0.470295  0.834042  1
  Mn  Mn5  1  0.386435  0.803415  0.423406  1
  O  O6  1  0.853995  0.707007  0.584931  1
  O  O7  1  0.443571  0.334984  0.780187  1
  O  O8  1  0.551866  0.642374  0.251657  1
  O  O9  1  0.141586  0.269920  0.447372  1
  O  O10  1  0.132423  0.005490  0.730773  1
  O  O11  1  0.760037  0.348401  0.130837  1
  O  O12  1  0.863075  0.971486  0.301582  1
  O  O13  1  0.235429  0.628664  0.901313  1
