# generated using pymatgen
data_BaZnSnF7
_symmetry_space_group_name_H-M   'P 1'
_cell_length_a   5.83246189
_cell_length_b   9.96938890
_cell_length_c   10.43598979
_cell_angle_alpha   90.00000000
_cell_angle_beta   90.00000000
_cell_angle_gamma   92.73677647
_symmetry_Int_Tables_number   1
_chemical_formula_structural   BaZnSnF7
_chemical_formula_sum   'Ba4 Zn4 Sn4 F28'
_cell_volume   606.11979650
_cell_formula_units_Z   4
loop_
 _symmetry_equiv_pos_site_id
 _symmetry_equiv_pos_as_xyz
  1  'x, y, z'
loop_
 _atom_site_type_symbol
 _atom_site_label
 _atom_site_symmetry_multiplicity
 _atom_site_fract_x
 _atom_site_fract_y
 _atom_site_fract_z
 _atom_site_occupancy
  Ba  Ba0  1  0.268050  0.495358  0.323966  1
  Ba  Ba1  1  0.731950  0.004642  0.823966  1
  Ba  Ba2  1  0.731950  0.504642  0.676034  1
  Ba  Ba3  1  0.268050  0.995358  0.176034  1
  Zn  Zn4  1  0.697431  0.806730  0.391762  1
  Zn  Zn5  1  0.302569  0.693270  0.891762  1
  Zn  Zn6  1  0.697431  0.306730  0.108238  1
  Zn  Zn7  1  0.302569  0.193270  0.608238  1
  Sn  Sn8  1  0.200766  0.817571  0.600889  1
  Sn  Sn9  1  0.799234  0.182429  0.399111  1
  Sn  Sn10  1  0.200766  0.317571  0.899111  1
  Sn  Sn11  1  0.799234  0.682429  0.100889  1
  F  F12  1  0.139454  0.121150  0.445986  1
  F  F13  1  0.375535  0.382696  0.073613  1
  F  F14  1  0.490056  0.756034  0.716825  1
  F  F15  1  0.509944  0.243966  0.283175  1
  F  F16  1  0.905947  0.377491  0.460625  1
  F  F17  1  0.245349  0.509665  0.796703  1
  F  F18  1  0.023460  0.755044  0.782006  1
  F  F19  1  0.094053  0.122509  0.960625  1
  F  F20  1  0.375535  0.882696  0.426387  1
  F  F21  1  0.509944  0.743966  0.216825  1
  F  F22  1  0.139454  0.621150  0.054014  1
  F  F23  1  0.860546  0.878850  0.554014  1
  F  F24  1  0.976540  0.744956  0.282006  1
  F  F25  1  0.408839  0.868507  0.963795  1
  F  F26  1  0.094053  0.622509  0.539375  1
  F  F27  1  0.905947  0.877491  0.039375  1
  F  F28  1  0.976540  0.244956  0.217994  1
  F  F29  1  0.860546  0.378850  0.945986  1
  F  F30  1  0.591161  0.631493  0.463795  1
  F  F31  1  0.624465  0.617304  0.926387  1
  F  F32  1  0.591161  0.131494  0.036205  1
  F  F33  1  0.023460  0.255044  0.717994  1
  F  F34  1  0.408839  0.368506  0.536205  1
  F  F35  1  0.754651  0.990335  0.296703  1
  F  F36  1  0.754651  0.490335  0.203297  1
  F  F37  1  0.245349  0.009665  0.703297  1
  F  F38  1  0.624465  0.117304  0.573613  1
  F  F39  1  0.490056  0.256034  0.783175  1
