# generated using pymatgen
data_Y(SnO2)2
_symmetry_space_group_name_H-M   'P 1'
_cell_length_a   7.12514349
_cell_length_b   7.12514215
_cell_length_c   7.12514346
_cell_angle_alpha   56.35946846
_cell_angle_beta   56.35948266
_cell_angle_gamma   56.35947424
_symmetry_Int_Tables_number   1
_chemical_formula_structural   Y(SnO2)2
_chemical_formula_sum   'Y2 Sn4 O8'
_cell_volume   234.24259497
_cell_formula_units_Z   2
loop_
 _symmetry_equiv_pos_site_id
 _symmetry_equiv_pos_as_xyz
  1  'x, y, z'
loop_
 _atom_site_type_symbol
 _atom_site_label
 _atom_site_symmetry_multiplicity
 _atom_site_fract_x
 _atom_site_fract_y
 _atom_site_fract_z
 _atom_site_occupancy
  Y  Y0  1  0.633628  0.633628  0.633628  1
  Y  Y1  1  0.366372  0.366372  0.366372  1
  Sn  Sn2  1  0.000000  0.500000  0.000000  1
  Sn  Sn3  1  0.000000  0.000000  0.000000  1
  Sn  Sn4  1  0.500000  0.000000  0.000000  1
  Sn  Sn5  1  0.000000  0.000000  0.500000  1
  O  O6  1  0.231801  0.780565  0.780565  1
  O  O7  1  0.219435  0.219435  0.768199  1
  O  O8  1  0.219435  0.768199  0.219435  1
  O  O9  1  0.249915  0.249915  0.249915  1
  O  O10  1  0.780565  0.780565  0.231801  1
  O  O11  1  0.768199  0.219435  0.219435  1
  O  O12  1  0.780565  0.231801  0.780565  1
  O  O13  1  0.750085  0.750085  0.750085  1
