# generated using pymatgen
data_Ba2YTi2F11
_symmetry_space_group_name_H-M   'P 1'
_cell_length_a   7.82191267
_cell_length_b   7.82191214
_cell_length_c   13.74762827
_cell_angle_alpha   90.00000000
_cell_angle_beta   90.00000000
_cell_angle_gamma   119.99999775
_symmetry_Int_Tables_number   1
_chemical_formula_structural   Ba2YTi2F11
_chemical_formula_sum   'Ba6 Y3 Ti6 F33'
_cell_volume   728.42412019
_cell_formula_units_Z   3
loop_
 _symmetry_equiv_pos_site_id
 _symmetry_equiv_pos_as_xyz
  1  'x, y, z'
loop_
 _atom_site_type_symbol
 _atom_site_label
 _atom_site_symmetry_multiplicity
 _atom_site_fract_x
 _atom_site_fract_y
 _atom_site_fract_z
 _atom_site_occupancy
  Ba  Ba0  1  0.562174  0.212995  0.662878  1
  Ba  Ba1  1  0.184166  0.529265  0.812010  1
  Ba  Ba2  1  0.650821  0.437826  0.996211  1
  Ba  Ba3  1  0.470735  0.654900  0.478676  1
  Ba  Ba4  1  0.345100  0.815834  0.145343  1
  Ba  Ba5  1  0.787005  0.349179  0.329544  1
  Y  Y6  1  0.134900  0.002437  0.888353  1
  Y  Y7  1  0.867538  0.865100  0.221686  1
  Y  Y8  1  0.997563  0.132462  0.555019  1
  Ti  Ti9  1  0.673213  0.977379  0.875060  1
  Ti  Ti10  1  0.783557  0.762739  0.740461  1
  Ti  Ti11  1  0.237261  0.020818  0.407127  1
  Ti  Ti12  1  0.304166  0.326787  0.208393  1
  Ti  Ti13  1  0.979182  0.216443  0.073794  1
  Ti  Ti14  1  0.022621  0.695834  0.541726  1
  F  F15  1  0.689877  0.089455  0.018022  1
  F  F16  1  0.500239  0.723603  0.942943  1
  F  F17  1  0.399578  0.310123  0.351355  1
  F  F18  1  0.082221  0.441305  0.495065  1
  F  F19  1  0.531060  0.278450  0.172475  1
  F  F20  1  0.936621  0.633108  0.186883  1
  F  F21  1  0.558695  0.640916  0.161732  1
  F  F22  1  0.366892  0.303514  0.853550  1
  F  F23  1  0.747389  0.468940  0.505808  1
  F  F24  1  0.276813  0.339369  0.060438  1
  F  F25  1  0.359084  0.917779  0.828399  1
  F  F26  1  0.910545  0.600422  0.684689  1
  F  F27  1  0.309649  0.019895  0.012135  1
  F  F28  1  0.032401  0.488747  0.025559  1
  F  F29  1  0.710246  0.690351  0.345468  1
  F  F30  1  0.276397  0.776637  0.609608  1
  F  F31  1  0.984092  0.178238  0.911532  1
  F  F32  1  0.062556  0.723187  0.393771  1
  F  F33  1  0.997593  0.075203  0.389685  1
  F  F34  1  0.980105  0.289754  0.678801  1
  F  F35  1  0.077609  0.002407  0.723019  1
  F  F36  1  0.511253  0.543654  0.692226  1
  F  F37  1  0.456346  0.967599  0.358892  1
  F  F38  1  0.194146  0.015908  0.244865  1
  F  F39  1  0.660631  0.937444  0.727105  1
  F  F40  1  0.721550  0.252611  0.839142  1
  F  F41  1  0.223363  0.499761  0.276276  1
  F  F42  1  0.924608  0.684519  0.864469  1
  F  F43  1  0.759911  0.075392  0.197802  1
  F  F44  1  0.924797  0.922391  0.056352  1
  F  F45  1  0.696486  0.063379  0.520216  1
  F  F46  1  0.821762  0.805854  0.578198  1
  F  F47  1  0.315481  0.240089  0.531135  1
