# generated using pymatgen
data_Bi2O3
_symmetry_space_group_name_H-M   'P 1'
_cell_length_a   3.55083198
_cell_length_b   6.15099375
_cell_length_c   19.36215555
_cell_angle_alpha   90.00000000
_cell_angle_beta   90.00000000
_cell_angle_gamma   106.77648570
_symmetry_Int_Tables_number   1
_chemical_formula_structural   Bi2O3
_chemical_formula_sum   'Bi8 O12'
_cell_volume   404.89255401
_cell_formula_units_Z   4
loop_
 _symmetry_equiv_pos_site_id
 _symmetry_equiv_pos_as_xyz
  1  'x, y, z'
loop_
 _atom_site_type_symbol
 _atom_site_label
 _atom_site_symmetry_multiplicity
 _atom_site_fract_x
 _atom_site_fract_y
 _atom_site_fract_z
 _atom_site_occupancy
  Bi  Bi0  1  0.868856  0.737716  0.044028  1
  Bi  Bi1  1  0.131142  0.262283  0.955972  1
  Bi  Bi2  1  0.868856  0.737716  0.455972  1
  Bi  Bi3  1  0.131142  0.262283  0.544028  1
  Bi  Bi4  1  0.397588  0.795174  0.644286  1
  Bi  Bi5  1  0.602412  0.204826  0.355715  1
  Bi  Bi6  1  0.602412  0.204826  0.144285  1
  Bi  Bi7  1  0.397588  0.795174  0.855714  1
  O  O8  1  0.499999  0.000000  0.500000  1
  O  O9  1  0.499999  0.000000  0.000000  1
  O  O10  1  0.015834  0.031669  0.859631  1
  O  O11  1  0.984166  0.968331  0.140370  1
  O  O12  1  0.984166  0.968331  0.359630  1
  O  O13  1  0.015834  0.031669  0.640370  1
  O  O14  1  0.754559  0.509121  0.927686  1
  O  O15  1  0.245440  0.490880  0.072314  1
  O  O16  1  0.245440  0.490880  0.427686  1
  O  O17  1  0.754559  0.509121  0.572314  1
  O  O18  1  0.359986  0.719973  0.750000  1
  O  O19  1  0.640012  0.280026  0.250000  1
