# generated using pymatgen
data_MgTiO2
_symmetry_space_group_name_H-M   'P 1'
_cell_length_a   2.83747014
_cell_length_b   8.51801931
_cell_length_c   8.73401550
_cell_angle_alpha   77.70724630
_cell_angle_beta   80.64610901
_cell_angle_gamma   80.40952797
_symmetry_Int_Tables_number   1
_chemical_formula_structural   MgTiO2
_chemical_formula_sum   'Mg4 Ti4 O8'
_cell_volume   201.59873688
_cell_formula_units_Z   4
loop_
 _symmetry_equiv_pos_site_id
 _symmetry_equiv_pos_as_xyz
  1  'x, y, z'
loop_
 _atom_site_type_symbol
 _atom_site_label
 _atom_site_symmetry_multiplicity
 _atom_site_fract_x
 _atom_site_fract_y
 _atom_site_fract_z
 _atom_site_occupancy
  Mg  Mg0  1  0.387015  0.041803  0.184023  1
  Mg  Mg1  1  0.608935  0.937992  0.844230  1
  Mg  Mg2  1  0.064766  0.739102  0.131587  1
  Mg  Mg3  1  0.931221  0.240852  0.896717  1
  Ti  Ti4  1  0.661353  0.141899  0.535267  1
  Ti  Ti5  1  0.203156  0.384174  0.209513  1
  Ti  Ti6  1  0.793086  0.595736  0.818401  1
  Ti  Ti7  1  0.334480  0.838127  0.493217  1
  O  O8  1  0.854429  0.682667  0.608877  1
  O  O9  1  0.359205  0.416242  0.865408  1
  O  O10  1  0.636800  0.563675  0.162949  1
  O  O11  1  0.142004  0.296924  0.418963  1
  O  O12  1  0.088972  0.104130  0.717705  1
  O  O13  1  0.814221  0.227868  0.143436  1
  O  O14  1  0.906685  0.876139  0.310684  1
  O  O15  1  0.181946  0.752007  0.884639  1
