# generated using pymatgen
data_CaNiF5
_symmetry_space_group_name_H-M   'P 1'
_cell_length_a   5.48546641
_cell_length_b   5.47788060
_cell_length_c   7.73575451
_cell_angle_alpha   96.77652059
_cell_angle_beta   110.76676951
_cell_angle_gamma   109.32027120
_symmetry_Int_Tables_number   1
_chemical_formula_structural   CaNiF5
_chemical_formula_sum   'Ca2 Ni2 F10'
_cell_volume   197.68006120
_cell_formula_units_Z   2
loop_
 _symmetry_equiv_pos_site_id
 _symmetry_equiv_pos_as_xyz
  1  'x, y, z'
loop_
 _atom_site_type_symbol
 _atom_site_label
 _atom_site_symmetry_multiplicity
 _atom_site_fract_x
 _atom_site_fract_y
 _atom_site_fract_z
 _atom_site_occupancy
  Ca  Ca0  1  0.297314  0.547267  0.748086  1
  Ca  Ca1  1  0.702967  0.450877  0.250092  1
  Ni  Ni2  1  0.003559  0.000958  0.001215  1
  Ni  Ni3  1  0.499982  0.998592  0.500195  1
  F  F4  1  0.337221  0.080107  0.249300  1
  F  F5  1  0.666315  0.916799  0.749962  1
  F  F6  1  0.597163  0.761345  0.389410  1
  F  F7  1  0.884852  0.210187  0.117893  1
  F  F8  1  0.748102  0.699680  0.029788  1
  F  F9  1  0.168043  0.712594  0.469140  1
  F  F10  1  0.255492  0.302699  0.970189  1
  F  F11  1  0.831498  0.285214  0.531560  1
  F  F12  1  0.127301  0.795456  0.885739  1
  F  F13  1  0.401344  0.233326  0.610797  1
