# generated using pymatgen
data_CrO2
_symmetry_space_group_name_H-M   'P 1'
_cell_length_a   2.97709445
_cell_length_b   2.98300573
_cell_length_c   10.78848885
_cell_angle_alpha   89.77703824
_cell_angle_beta   90.08661268
_cell_angle_gamma   122.56632725
_symmetry_Int_Tables_number   1
_chemical_formula_structural   CrO2
_chemical_formula_sum   'Cr2 O4'
_cell_volume   80.74440152
_cell_formula_units_Z   2
loop_
 _symmetry_equiv_pos_site_id
 _symmetry_equiv_pos_as_xyz
  1  'x, y, z'
loop_
 _atom_site_type_symbol
 _atom_site_label
 _atom_site_symmetry_multiplicity
 _atom_site_fract_x
 _atom_site_fract_y
 _atom_site_fract_z
 _atom_site_occupancy
  Cr  Cr0  1  0.997860  0.999656  0.501749  1
  Cr  Cr1  1  0.997719  0.999807  0.002407  1
  O  O2  1  0.663005  0.336607  0.412550  1
  O  O3  1  0.660730  0.332635  0.091506  1
  O  O4  1  0.332629  0.662642  0.590967  1
  O  O5  1  0.334731  0.667090  0.913279  1
