# generated using pymatgen
data_CaCoP2O7
_symmetry_space_group_name_H-M   'P 1'
_cell_length_a   7.37834817
_cell_length_b   8.77875319
_cell_length_c   8.82743786
_cell_angle_alpha   90.00000000
_cell_angle_beta   111.53199069
_cell_angle_gamma   90.00000000
_symmetry_Int_Tables_number   1
_chemical_formula_structural   CaCoP2O7
_chemical_formula_sum   'Ca4 Co4 P8 O28'
_cell_volume   531.87424321
_cell_formula_units_Z   4
loop_
 _symmetry_equiv_pos_site_id
 _symmetry_equiv_pos_as_xyz
  1  'x, y, z'
loop_
 _atom_site_type_symbol
 _atom_site_label
 _atom_site_symmetry_multiplicity
 _atom_site_fract_x
 _atom_site_fract_y
 _atom_site_fract_z
 _atom_site_occupancy
  Ca  Ca0  1  0.146859  0.949099  0.876390  1
  Ca  Ca1  1  0.353141  0.449099  0.623610  1
  Ca  Ca2  1  0.646859  0.550901  0.376390  1
  Ca  Ca3  1  0.853141  0.050901  0.123610  1
  Co  Co4  1  0.384501  0.067235  0.614243  1
  Co  Co5  1  0.615499  0.932765  0.385757  1
  Co  Co6  1  0.115499  0.567235  0.885757  1
  Co  Co7  1  0.884501  0.432765  0.114243  1
  P  P8  1  0.188957  0.726498  0.236279  1
  P  P9  1  0.435218  0.247132  0.964692  1
  P  P10  1  0.688957  0.773502  0.736279  1
  P  P11  1  0.935218  0.252868  0.464692  1
  P  P12  1  0.311043  0.226498  0.263721  1
  P  P13  1  0.064782  0.747132  0.535308  1
  P  P14  1  0.564782  0.752868  0.035308  1
  P  P15  1  0.811043  0.273502  0.763721  1
  O  O16  1  0.362097  0.181688  0.104888  1
  O  O17  1  0.586769  0.627783  0.655720  1
  O  O18  1  0.086769  0.872217  0.155720  1
  O  O19  1  0.325989  0.393102  0.890174  1
  O  O20  1  0.637903  0.818312  0.895112  1
  O  O21  1  0.386979  0.085061  0.374024  1
  O  O22  1  0.674011  0.606898  0.109826  1
  O  O23  1  0.381028  0.109333  0.848345  1
  O  O24  1  0.156076  0.232978  0.544257  1
  O  O25  1  0.613021  0.914939  0.625976  1
  O  O26  1  0.886979  0.414939  0.874024  1
  O  O27  1  0.911241  0.760829  0.804640  1
  O  O28  1  0.588759  0.260829  0.695360  1
  O  O29  1  0.862097  0.318312  0.604888  1
  O  O30  1  0.113021  0.585061  0.125976  1
  O  O31  1  0.913231  0.127783  0.844280  1
  O  O32  1  0.088759  0.239171  0.195360  1
  O  O33  1  0.618972  0.890667  0.151655  1
  O  O34  1  0.656076  0.267022  0.044257  1
  O  O35  1  0.343924  0.732978  0.955743  1
  O  O36  1  0.174011  0.893102  0.609826  1
  O  O37  1  0.881028  0.390667  0.348345  1
  O  O38  1  0.118972  0.609333  0.651655  1
  O  O39  1  0.413231  0.372217  0.344280  1
  O  O40  1  0.411241  0.739171  0.304640  1
  O  O41  1  0.825989  0.106898  0.390174  1
  O  O42  1  0.843924  0.767022  0.455743  1
  O  O43  1  0.137903  0.681688  0.395112  1
