# generated using pymatgen
data_Ba2Mo2F11
_symmetry_space_group_name_H-M   'P 1'
_cell_length_a   8.03345821
_cell_length_b   8.03345769
_cell_length_c   14.64604821
_cell_angle_alpha   90.00000000
_cell_angle_beta   90.00000000
_cell_angle_gamma   119.99999419
_symmetry_Int_Tables_number   1
_chemical_formula_structural   Ba2Mo2F11
_chemical_formula_sum   'Ba6 Mo6 F33'
_cell_volume   818.57064438
_cell_formula_units_Z   3
loop_
 _symmetry_equiv_pos_site_id
 _symmetry_equiv_pos_as_xyz
  1  'x, y, z'
loop_
 _atom_site_type_symbol
 _atom_site_label
 _atom_site_symmetry_multiplicity
 _atom_site_fract_x
 _atom_site_fract_y
 _atom_site_fract_z
 _atom_site_occupancy
  Ba  Ba0  1  0.601712  0.193018  0.649981  1
  Ba  Ba1  1  0.153927  0.409643  0.807501  1
  Ba  Ba2  1  0.591307  0.398288  0.983314  1
  Ba  Ba3  1  0.590357  0.744283  0.474167  1
  Ba  Ba4  1  0.255717  0.846073  0.140834  1
  Ba  Ba5  1  0.806982  0.408693  0.316647  1
  Mo  Mo6  1  0.602273  0.933431  0.888541  1
  Mo  Mo7  1  0.855638  0.773271  0.729415  1
  Mo  Mo8  1  0.226729  0.082367  0.396081  1
  Mo  Mo9  1  0.331159  0.397727  0.221874  1
  Mo  Mo10  1  0.917633  0.144362  0.062748  1
  Mo  Mo11  1  0.066569  0.668841  0.555207  1
  F  F12  1  0.626646  0.014273  0.033525  1
  F  F13  1  0.495625  0.662583  0.944422  1
  F  F14  1  0.387628  0.373354  0.366858  1
  F  F15  1  0.196933  0.530047  0.501166  1
  F  F16  1  0.513585  0.298995  0.177927  1
  F  F17  1  0.922833  0.584462  0.163572  1
  F  F18  1  0.469953  0.666885  0.167833  1
  F  F19  1  0.415538  0.338372  0.830239  1
  F  F20  1  0.785409  0.486415  0.511260  1
  F  F21  1  0.212293  0.315735  0.086923  1
  F  F22  1  0.333115  0.803067  0.834500  1
  F  F23  1  0.985727  0.612372  0.700192  1
  F  F24  1  0.327339  0.054685  0.004780  1
  F  F25  1  0.946762  0.382664  0.007116  1
  F  F26  1  0.727346  0.672661  0.338113  1
  F  F27  1  0.337417  0.833043  0.611088  1
  F  F28  1  0.915934  0.080174  0.924618  1
  F  F29  1  0.103442  0.787707  0.420256  1
  F  F30  1  0.988995  0.080977  0.411834  1
  F  F31  1  0.945315  0.272654  0.671446  1
  F  F32  1  0.091982  0.011005  0.745168  1
  F  F33  1  0.617336  0.564097  0.673783  1
  F  F34  1  0.435903  0.053238  0.340449  1
  F  F35  1  0.164240  0.084066  0.257951  1
  F  F36  1  0.684265  0.896558  0.753590  1
  F  F37  1  0.701004  0.214591  0.844594  1
  F  F38  1  0.166957  0.504375  0.277755  1
  F  F39  1  0.821946  0.689123  0.854748  1
  F  F40  1  0.867176  0.178054  0.188081  1
  F  F41  1  0.919023  0.908018  0.078501  1
  F  F42  1  0.661628  0.077167  0.496905  1
  F  F43  1  0.919826  0.835760  0.591284  1
  F  F44  1  0.310877  0.132824  0.521414  1
