# generated using pymatgen
data_Ba2AlCo3O8
_symmetry_space_group_name_H-M   'P 1'
_cell_length_a   3.74169544
_cell_length_b   3.74147293
_cell_length_c   12.96113169
_cell_angle_alpha   89.99425400
_cell_angle_beta   89.91455057
_cell_angle_gamma   90.30612226
_symmetry_Int_Tables_number   1
_chemical_formula_structural   Ba2AlCo3O8
_chemical_formula_sum   'Ba2 Al1 Co3 O8'
_cell_volume   181.44595109
_cell_formula_units_Z   1
loop_
 _symmetry_equiv_pos_site_id
 _symmetry_equiv_pos_as_xyz
  1  'x, y, z'
loop_
 _atom_site_type_symbol
 _atom_site_label
 _atom_site_symmetry_multiplicity
 _atom_site_fract_x
 _atom_site_fract_y
 _atom_site_fract_z
 _atom_site_occupancy
  Ba  Ba0  1  0.499923  0.500018  0.164446  1
  Ba  Ba1  1  0.500070  0.499981  0.835651  1
  Al  Al2  1  0.500047  0.499858  0.500050  1
  Co  Co3  1  0.999641  0.999987  0.357329  1
  Co  Co4  1  1.000000  0.000003  0.000035  1
  Co  Co5  1  0.000360  1.000011  0.642654  1
  O  O6  1  0.998796  0.499967  0.408163  1
  O  O7  1  0.499302  0.999976  0.408178  1
  O  O8  1  0.500000  0.000002  1.000005  1
  O  O9  1  0.999921  0.000012  0.219086  1
  O  O10  1  0.001166  0.500042  0.591749  1
  O  O11  1  0.500695  0.000147  0.591728  1
  O  O12  1  0.000081  0.999990  0.780920  1
  O  O13  1  -0.000000  0.500003  1.000004  1
