# generated using pymatgen
data_Zn2CoWO6
_symmetry_space_group_name_H-M   'P 1'
_cell_length_a   5.23053954
_cell_length_b   5.61958616
_cell_length_c   7.56919503
_cell_angle_alpha   95.03143179
_cell_angle_beta   132.68683332
_cell_angle_gamma   118.13810316
_symmetry_Int_Tables_number   1
_chemical_formula_structural   Zn2CoWO6
_chemical_formula_sum   'Zn2 Co1 W1 O6'
_cell_volume   112.16152895
_cell_formula_units_Z   1
loop_
 _symmetry_equiv_pos_site_id
 _symmetry_equiv_pos_as_xyz
  1  'x, y, z'
loop_
 _atom_site_type_symbol
 _atom_site_label
 _atom_site_symmetry_multiplicity
 _atom_site_fract_x
 _atom_site_fract_y
 _atom_site_fract_z
 _atom_site_occupancy
  Zn  Zn0  1  0.988118  0.553300  0.207781  1
  Zn  Zn1  1  0.015937  0.531042  0.738300  1
  Co  Co2  1  0.007688  -0.001600  0.504075  1
  W  W3  1  0.003938  0.986703  0.002915  1
  O  O4  1  0.737878  0.812774  0.116636  1
  O  O5  1  0.259326  0.089641  0.893481  1
  O  O6  1  0.331169  0.439148  0.246008  1
  O  O7  1  0.373734  0.815708  0.632331  1
  O  O8  1  0.595574  0.095491  0.380270  1
  O  O9  1  0.696897  0.502655  0.800544  1
