# generated using pymatgen
data_ZnW2O5
_symmetry_space_group_name_H-M   'P 1'
_cell_length_a   4.00092014
_cell_length_b   6.66823626
_cell_length_c   11.72285465
_cell_angle_alpha   90.01539358
_cell_angle_beta   90.00220745
_cell_angle_gamma   90.09479596
_symmetry_Int_Tables_number   1
_chemical_formula_structural   ZnW2O5
_chemical_formula_sum   'Zn2 W4 O10'
_cell_volume   312.75454632
_cell_formula_units_Z   2
loop_
 _symmetry_equiv_pos_site_id
 _symmetry_equiv_pos_as_xyz
  1  'x, y, z'
loop_
 _atom_site_type_symbol
 _atom_site_label
 _atom_site_symmetry_multiplicity
 _atom_site_fract_x
 _atom_site_fract_y
 _atom_site_fract_z
 _atom_site_occupancy
  Zn  Zn0  1  0.747441  0.889475  0.248782  1
  Zn  Zn1  1  0.253122  0.110702  0.748884  1
  W  W2  1  0.248998  0.383536  0.088792  1
  W  W3  1  0.749756  0.617348  0.910296  1
  W  W4  1  0.750120  0.616603  0.588816  1
  W  W5  1  0.249334  0.382462  0.409966  1
  O  O6  1  0.750275  0.538237  0.749662  1
  O  O7  1  0.248995  0.462540  0.249492  1
  O  O8  1  0.749257  0.463435  0.065011  1
  O  O9  1  0.249571  0.537317  0.934262  1
  O  O10  1  0.749533  0.462459  0.434065  1
  O  O11  1  0.249904  0.536204  0.565040  1
  O  O12  1  0.248729  0.124041  0.424859  1
  O  O13  1  0.750940  0.874539  0.573339  1
  O  O14  1  0.750390  0.876052  0.925736  1
  O  O15  1  0.248319  0.125005  0.073559  1
