# generated using pymatgen
data_Ca(SbO2)2
_symmetry_space_group_name_H-M   'P 1'
_cell_length_a   7.13489587
_cell_length_b   6.49190318
_cell_length_c   21.29852475
_cell_angle_alpha   63.80189551
_cell_angle_beta   63.85220038
_cell_angle_gamma   63.85897278
_symmetry_Int_Tables_number   1
_chemical_formula_structural   Ca(SbO2)2
_chemical_formula_sum   'Ca6 Sb12 O24'
_cell_volume   756.61806942
_cell_formula_units_Z   6
loop_
 _symmetry_equiv_pos_site_id
 _symmetry_equiv_pos_as_xyz
  1  'x, y, z'
loop_
 _atom_site_type_symbol
 _atom_site_label
 _atom_site_symmetry_multiplicity
 _atom_site_fract_x
 _atom_site_fract_y
 _atom_site_fract_z
 _atom_site_occupancy
  Ca  Ca0  1  0.120418  0.098584  0.026266  1
  Ca  Ca1  1  0.425024  0.398575  0.347834  1
  Ca  Ca2  1  -0.009318  0.498316  0.167470  1
  Ca  Ca3  1  0.535505  0.424244  0.673496  1
  Ca  Ca4  1  -0.016290  0.458100  0.509071  1
  Ca  Ca5  1  0.085218  0.432216  0.833486  1
  Sb  Sb6  1  0.528702  0.001120  0.159526  1
  Sb  Sb7  1  0.030001  0.185478  0.361862  1
  Sb  Sb8  1  0.414274  0.499504  0.015677  1
  Sb  Sb9  1  0.485355  0.497825  0.175409  1
  Sb  Sb10  1  0.431009  -0.027999  0.550668  1
  Sb  Sb11  1  0.183639  0.038486  0.728813  1
  Sb  Sb12  1  0.536618  0.619362  0.439466  1
  Sb  Sb13  1  0.630443  0.934323  0.834545  1
  Sb  Sb14  1  0.850885  0.912428  0.274439  1
  Sb  Sb15  1  0.518435  0.482827  0.840412  1
  Sb  Sb16  1  0.918053  0.826492  0.646623  1
  Sb  Sb17  1  0.817558  0.940473  0.959403  1
  O  O18  1  0.210658  0.302866  0.074879  1
  O  O19  1  0.145079  0.369511  0.259956  1
  O  O20  1  0.291503  0.680932  0.091432  1
  O  O21  1  0.674759  0.220323  0.054984  1
  O  O22  1  0.086668  0.335083  0.411465  1
  O  O23  1  0.355956  0.694310  0.242034  1
  O  O24  1  0.380177  0.124655  0.621443  1
  O  O25  1  0.746388  0.268710  0.243683  1
  O  O26  1  0.275515  0.590562  0.442817  1
  O  O27  1  0.687027  0.717813  0.118700  1
  O  O28  1  0.710097  0.404714  0.375252  1
  O  O29  1  0.802428  0.878608  0.193544  1
  O  O30  1  0.325203  0.169475  0.758500  1
  O  O31  1  0.248520  0.743603  0.618794  1
  O  O32  1  0.859653  0.172461  0.610516  1
  O  O33  1  0.343460  0.680896  0.754284  1
  O  O34  1  0.314411  0.286333  0.906603  1
  O  O35  1  0.548003  0.927167  0.354182  1
  O  O36  1  0.670744  0.263603  0.775496  1
  O  O37  1  0.691873  0.709560  0.566302  1
  O  O38  1  0.101518  0.884564  0.965539  1
  O  O39  1  0.791500  0.275983  0.887495  1
  O  O40  1  0.860550  0.775275  0.753838  1
  O  O41  1  0.892782  0.802635  0.873796  1
