# generated using pymatgen
data_MgV2(BiO5)2
_symmetry_space_group_name_H-M   'P 1'
_cell_length_a   5.44774740
_cell_length_b   8.27075378
_cell_length_c   11.11616163
_cell_angle_alpha   90.00000000
_cell_angle_beta   90.00000000
_cell_angle_gamma   108.36461866
_symmetry_Int_Tables_number   1
_chemical_formula_structural   MgV2(BiO5)2
_chemical_formula_sum   'Mg2 V4 Bi4 O20'
_cell_volume   475.35218648
_cell_formula_units_Z   2
loop_
 _symmetry_equiv_pos_site_id
 _symmetry_equiv_pos_as_xyz
  1  'x, y, z'
loop_
 _atom_site_type_symbol
 _atom_site_label
 _atom_site_symmetry_multiplicity
 _atom_site_fract_x
 _atom_site_fract_y
 _atom_site_fract_z
 _atom_site_occupancy
  Mg  Mg0  1  0.368942  0.826688  0.081990  1
  Mg  Mg1  1  0.131058  0.673312  0.581990  1
  V  V2  1  0.800452  0.955387  0.643428  1
  V  V3  1  0.204993  0.032016  0.351745  1
  V  V4  1  0.699548  0.544613  0.143428  1
  V  V5  1  0.295007  0.467984  0.851745  1
  Bi  Bi6  1  0.111509  0.164098  0.087293  1
  Bi  Bi7  1  0.868245  0.834271  0.902488  1
  Bi  Bi8  1  0.631755  0.665729  0.402488  1
  Bi  Bi9  1  0.388491  0.335902  0.587293  1
  O  O10  1  0.524237  0.348505  0.081146  1
  O  O11  1  0.055095  0.331577  0.943131  1
  O  O12  1  0.493223  0.660768  0.192081  1
  O  O13  1  0.752629  0.529234  0.541681  1
  O  O14  1  0.821180  0.511815  0.278502  1
  O  O15  1  0.333317  0.978187  0.223382  1
  O  O16  1  0.534955  0.830845  0.552654  1
  O  O17  1  0.444905  0.168423  0.443131  1
  O  O18  1  0.265605  0.503899  0.471947  1
  O  O19  1  0.975763  0.151495  0.581146  1
  O  O20  1  0.166683  0.521813  0.723382  1
  O  O21  1  0.461311  0.659113  0.934563  1
  O  O22  1  0.038689  0.840887  0.434563  1
  O  O23  1  0.678820  0.988185  0.778502  1
  O  O24  1  0.747371  0.970766  0.041681  1
  O  O25  1  0.234395  0.996101  0.971947  1
  O  O26  1  0.502952  0.366833  0.792515  1
  O  O27  1  0.965045  0.669155  0.052654  1
  O  O28  1  0.006777  0.839232  0.692081  1
  O  O29  1  0.997048  0.133167  0.292515  1
