# generated using pymatgen
data_CaMn2O4
_symmetry_space_group_name_H-M   'P 1'
_cell_length_a   3.20767099
_cell_length_b   9.83367862
_cell_length_c   10.18177209
_cell_angle_alpha   90.00000000
_cell_angle_beta   90.00000000
_cell_angle_gamma   90.00000000
_symmetry_Int_Tables_number   1
_chemical_formula_structural   CaMn2O4
_chemical_formula_sum   'Ca4 Mn8 O16'
_cell_volume   321.16573076
_cell_formula_units_Z   4
loop_
 _symmetry_equiv_pos_site_id
 _symmetry_equiv_pos_as_xyz
  1  'x, y, z'
loop_
 _atom_site_type_symbol
 _atom_site_label
 _atom_site_symmetry_multiplicity
 _atom_site_fract_x
 _atom_site_fract_y
 _atom_site_fract_z
 _atom_site_occupancy
  Ca  Ca0  1  0.321317  0.750000  0.148640  1
  Ca  Ca1  1  0.321317  0.250000  0.351360  1
  Ca  Ca2  1  0.678683  0.750000  0.648640  1
  Ca  Ca3  1  0.678683  0.250000  0.851360  1
  Mn  Mn4  1  0.795733  0.569106  0.388627  1
  Mn  Mn5  1  0.795733  0.069106  0.111373  1
  Mn  Mn6  1  0.204267  0.069106  0.611373  1
  Mn  Mn7  1  0.795733  0.430894  0.111373  1
  Mn  Mn8  1  0.204267  0.430894  0.611373  1
  Mn  Mn9  1  0.795733  0.930894  0.388627  1
  Mn  Mn10  1  0.204267  0.930894  0.888627  1
  Mn  Mn11  1  0.204267  0.569106  0.888627  1
  O  O12  1  0.199955  0.890884  0.527481  1
  O  O13  1  0.800045  0.109116  0.472519  1
  O  O14  1  0.416084  0.000000  0.250000  1
  O  O15  1  0.800045  0.890884  0.027481  1
  O  O16  1  0.800045  0.609116  0.027481  1
  O  O17  1  0.814974  0.250000  0.186737  1
  O  O18  1  0.199955  0.109116  0.972519  1
  O  O19  1  0.185026  0.250000  0.686737  1
  O  O20  1  0.416084  0.500000  0.250000  1
  O  O21  1  0.583916  0.000000  0.750000  1
  O  O22  1  0.199955  0.609116  0.527481  1
  O  O23  1  0.185026  0.750000  0.813263  1
  O  O24  1  0.814974  0.750000  0.313263  1
  O  O25  1  0.583916  0.500000  0.750000  1
  O  O26  1  0.199955  0.390884  0.972519  1
  O  O27  1  0.800045  0.390884  0.472519  1
