# generated using pymatgen
data_ZnCoO2
_symmetry_space_group_name_H-M   'P 1'
_cell_length_a   2.95969319
_cell_length_b   8.22225766
_cell_length_c   8.35668244
_cell_angle_alpha   88.07351116
_cell_angle_beta   81.19824301
_cell_angle_gamma   76.81167877
_symmetry_Int_Tables_number   1
_chemical_formula_structural   ZnCoO2
_chemical_formula_sum   'Zn4 Co4 O8'
_cell_volume   195.66738898
_cell_formula_units_Z   4
loop_
 _symmetry_equiv_pos_site_id
 _symmetry_equiv_pos_as_xyz
  1  'x, y, z'
loop_
 _atom_site_type_symbol
 _atom_site_label
 _atom_site_symmetry_multiplicity
 _atom_site_fract_x
 _atom_site_fract_y
 _atom_site_fract_z
 _atom_site_occupancy
  Zn  Zn0  1  0.299291  0.075518  0.264800  1
  Zn  Zn1  1  0.686127  0.904102  0.764565  1
  Zn  Zn2  1  0.078082  0.726352  0.111868  1
  Zn  Zn3  1  0.915682  0.254360  0.916108  1
  Co  Co4  1  0.602399  0.226444  0.598390  1
  Co  Co5  1  0.212305  0.404829  0.252091  1
  Co  Co6  1  0.784289  0.574898  0.775097  1
  Co  Co7  1  0.403295  0.753076  0.429387  1
  O  O8  1  0.857587  0.727055  0.585312  1
  O  O9  1  0.375676  0.395356  0.797413  1
  O  O10  1  0.619268  0.584767  0.230526  1
  O  O11  1  0.150394  0.252220  0.442882  1
  O  O12  1  0.084582  0.082075  0.744118  1
  O  O13  1  0.792832  0.232523  0.144364  1
  O  O14  1  0.897325  0.897467  0.284766  1
  O  O15  1  0.209141  0.748293  0.883930  1
