# generated using pymatgen
data_Sr2YV2GaO7
_symmetry_space_group_name_H-M   'P 1'
_cell_length_a   5.57570804
_cell_length_b   5.68982587
_cell_length_c   12.12535661
_cell_angle_alpha   103.63041468
_cell_angle_beta   103.26946798
_cell_angle_gamma   89.94948855
_symmetry_Int_Tables_number   1
_chemical_formula_structural   Sr2YV2GaO7
_chemical_formula_sum   'Sr4 Y2 V4 Ga2 O14'
_cell_volume   363.28344072
_cell_formula_units_Z   2
loop_
 _symmetry_equiv_pos_site_id
 _symmetry_equiv_pos_as_xyz
  1  'x, y, z'
loop_
 _atom_site_type_symbol
 _atom_site_label
 _atom_site_symmetry_multiplicity
 _atom_site_fract_x
 _atom_site_fract_y
 _atom_site_fract_z
 _atom_site_occupancy
  Sr  Sr0  1  0.144322  0.174065  0.307844  1
  Sr  Sr1  1  0.837446  0.820606  0.693238  1
  Sr  Sr2  1  0.646387  0.629232  0.307668  1
  Sr  Sr3  1  0.339840  0.364853  0.693581  1
  Y  Y4  1  0.500930  0.499913  -0.000165  1
  Y  Y5  1  0.001979  0.996154  -0.000363  1
  V  V6  1  0.431212  0.928949  0.861713  1
  V  V7  1  0.070294  0.568597  0.140535  1
  V  V8  1  0.930240  0.425741  0.859963  1
  V  V9  1  0.569734  0.066621  0.138773  1
  Ga  Ga10  1  0.210814  0.816980  0.499270  1
  Ga  Ga11  1  0.712117  0.177283  0.501751  1
  O  O12  1  0.809316  0.321769  0.132873  1
  O  O13  1  0.868898  0.874350  0.500666  1
  O  O14  1  0.309030  0.306844  0.133386  1
  O  O15  1  0.846490  0.365898  0.652892  1
  O  O16  1  0.686685  0.170999  0.860366  1
  O  O17  1  0.186522  0.183651  0.860369  1
  O  O18  1  0.368950  0.119466  0.500007  1
  O  O19  1  0.175348  0.687421  0.865924  1
  O  O20  1  0.676249  0.673112  0.866959  1
  O  O21  1  0.349716  0.770202  0.647165  1
  O  O22  1  0.194137  0.627309  0.348259  1
  O  O23  1  0.703710  0.225624  0.354125  1
  O  O24  1  0.826281  0.824429  0.141215  1
  O  O25  1  0.327243  0.812668  0.142352  1
