# generated using pymatgen
data_Ca3Co3(AsO4)4
_symmetry_space_group_name_H-M   'P 1'
_cell_length_a   5.16979987
_cell_length_b   9.24604961
_cell_length_c   15.45211128
_cell_angle_alpha   95.20826961
_cell_angle_beta   90.00000000
_cell_angle_gamma   90.00000000
_symmetry_Int_Tables_number   1
_chemical_formula_structural   Ca3Co3(AsO4)4
_chemical_formula_sum   'Ca6 Co6 As8 O32'
_cell_volume   735.56490064
_cell_formula_units_Z   2
loop_
 _symmetry_equiv_pos_site_id
 _symmetry_equiv_pos_as_xyz
  1  'x, y, z'
loop_
 _atom_site_type_symbol
 _atom_site_label
 _atom_site_symmetry_multiplicity
 _atom_site_fract_x
 _atom_site_fract_y
 _atom_site_fract_z
 _atom_site_occupancy
  Ca  Ca0  1  0.962621  0.041054  0.731464  1
  Ca  Ca1  1  0.462621  0.458946  0.768536  1
  Ca  Ca2  1  0.037379  0.958946  0.268536  1
  Ca  Ca3  1  0.537379  0.541054  0.231464  1
  Ca  Ca4  1  0.000000  0.000000  -0.000000  1
  Ca  Ca5  1  0.500000  0.500000  0.500000  1
  Co  Co6  1  0.023271  0.322578  0.121928  1
  Co  Co7  1  0.976729  0.677422  0.878072  1
  Co  Co8  1  0.523271  0.177422  0.378072  1
  Co  Co9  1  0.476729  0.822578  0.621928  1
  Co  Co10  1  0.500000  0.500000  -0.000000  1
  Co  Co11  1  0.000000  0.000000  0.500000  1
  As  As12  1  0.491126  0.880514  0.842268  1
  As  As13  1  0.009742  0.340136  0.904224  1
  As  As14  1  0.509742  0.159864  0.595776  1
  As  As15  1  0.490258  0.840136  0.404224  1
  As  As16  1  0.508874  0.119486  0.157732  1
  As  As17  1  0.990258  0.659864  0.095776  1
  As  As18  1  0.008874  0.380514  0.342268  1
  As  As19  1  0.991126  0.619486  0.657732  1
  O  O20  1  0.053812  0.574746  0.762753  1
  O  O21  1  0.552946  0.253880  0.506297  1
  O  O22  1  0.115996  0.248247  0.811482  1
  O  O23  1  0.095708  0.795852  0.648498  1
  O  O24  1  0.884004  0.751753  0.188518  1
  O  O25  1  0.446188  0.074746  0.262753  1
  O  O26  1  0.615996  0.251753  0.688518  1
  O  O27  1  0.800939  0.907444  0.396078  1
  O  O28  1  0.844761  0.507363  0.405837  1
  O  O29  1  0.946188  0.425254  0.237247  1
  O  O30  1  0.404292  0.295852  0.148498  1
  O  O31  1  0.199061  0.092556  0.603922  1
  O  O32  1  0.201226  0.497948  0.919339  1
  O  O33  1  0.155239  0.492637  0.594163  1
  O  O34  1  0.842401  0.113408  0.142057  1
  O  O35  1  0.342401  0.386592  0.357943  1
  O  O36  1  0.701226  0.002052  0.580661  1
  O  O37  1  0.384004  0.748247  0.311482  1
  O  O38  1  0.344761  0.992637  0.094163  1
  O  O39  1  0.300939  0.592556  0.103922  1
  O  O40  1  0.657599  0.613408  0.642057  1
  O  O41  1  0.157599  0.886592  0.857943  1
  O  O42  1  0.447054  0.746120  0.493703  1
  O  O43  1  0.052946  0.246120  0.993703  1
  O  O44  1  0.798774  0.502052  0.080661  1
  O  O45  1  0.553812  0.925254  0.737247  1
  O  O46  1  0.904292  0.204148  0.351502  1
  O  O47  1  0.655239  0.007363  0.905837  1
  O  O48  1  0.947054  0.753880  0.006297  1
  O  O49  1  0.699061  0.407444  0.896078  1
  O  O50  1  0.298774  0.997948  0.419339  1
  O  O51  1  0.595708  0.704148  0.851502  1
