# generated using pymatgen
data_Zn3Fe2O7
_symmetry_space_group_name_H-M   'P 1'
_cell_length_a   5.22334690
_cell_length_b   5.30609748
_cell_length_c   9.42436060
_cell_angle_alpha   106.35032307
_cell_angle_beta   90.00000000
_cell_angle_gamma   90.00000000
_symmetry_Int_Tables_number   1
_chemical_formula_structural   Zn3Fe2O7
_chemical_formula_sum   'Zn6 Fe4 O14'
_cell_volume   250.63828231
_cell_formula_units_Z   2
loop_
 _symmetry_equiv_pos_site_id
 _symmetry_equiv_pos_as_xyz
  1  'x, y, z'
loop_
 _atom_site_type_symbol
 _atom_site_label
 _atom_site_symmetry_multiplicity
 _atom_site_fract_x
 _atom_site_fract_y
 _atom_site_fract_z
 _atom_site_occupancy
  Zn  Zn0  1  0.723102  0.742349  1.000000  1
  Zn  Zn1  1  0.223102  0.257651  0.000000  1
  Zn  Zn2  1  0.799114  0.579513  0.606750  1
  Zn  Zn3  1  0.299114  0.420487  0.393250  1
  Zn  Zn4  1  0.799114  0.972762  0.393250  1
  Zn  Zn5  1  0.299114  0.027238  0.606750  1
  Fe  Fe6  1  0.753984  0.355402  0.206563  1
  Fe  Fe7  1  0.253984  0.644598  0.793437  1
  Fe  Fe8  1  0.253984  0.851161  0.206563  1
  Fe  Fe9  1  0.753984  0.148839  0.793437  1
  O  O10  1  0.683306  0.936204  0.589396  1
  O  O11  1  0.183306  0.063796  0.410604  1
  O  O12  1  0.183306  0.653191  0.589396  1
  O  O13  1  0.683306  0.346809  0.410604  1
  O  O14  1  0.057380  0.291790  0.733155  1
  O  O15  1  0.557380  0.708210  0.266845  1
  O  O16  1  0.557380  0.441365  0.733155  1
  O  O17  1  0.057380  0.558635  0.266845  1
  O  O18  1  0.936347  0.837098  0.842896  1
  O  O19  1  0.436347  0.162902  0.157104  1
  O  O20  1  0.836639  0.364264  0.000000  1
  O  O21  1  0.336639  0.635736  1.000000  1
  O  O22  1  0.936347  0.994202  0.157104  1
  O  O23  1  0.436347  0.005798  0.842896  1
