# generated using pymatgen
data_ZnSnO3
_symmetry_space_group_name_H-M   'P 1'
_cell_length_a   5.38052762
_cell_length_b   5.40772444
_cell_length_c   7.94017610
_cell_angle_alpha   90.00000000
_cell_angle_beta   90.00000000
_cell_angle_gamma   90.00000000
_symmetry_Int_Tables_number   1
_chemical_formula_structural   ZnSnO3
_chemical_formula_sum   'Zn4 Sn4 O12'
_cell_volume   231.03062492
_cell_formula_units_Z   4
loop_
 _symmetry_equiv_pos_site_id
 _symmetry_equiv_pos_as_xyz
  1  'x, y, z'
loop_
 _atom_site_type_symbol
 _atom_site_label
 _atom_site_symmetry_multiplicity
 _atom_site_fract_x
 _atom_site_fract_y
 _atom_site_fract_z
 _atom_site_occupancy
  Zn  Zn0  1  0.005834  0.030044  0.249999  1
  Zn  Zn1  1  0.505834  0.469956  0.750000  1
  Zn  Zn2  1  0.494166  0.530045  0.249999  1
  Zn  Zn3  1  0.994166  0.969957  0.750000  1
  Sn  Sn4  1  0.500000  0.000000  0.000000  1
  Sn  Sn5  1  0.000000  0.499999  0.000000  1
  Sn  Sn6  1  0.000000  0.499999  0.500000  1
  Sn  Sn7  1  0.500000  0.000000  0.500000  1
  O  O8  1  0.871613  0.595036  0.750000  1
  O  O9  1  0.371613  0.904966  0.249999  1
  O  O10  1  0.628387  0.095035  0.750000  1
  O  O11  1  0.128387  0.404965  0.249999  1
  O  O12  1  0.670055  0.325434  0.428580  1
  O  O13  1  0.170055  0.174567  0.571421  1
  O  O14  1  0.829945  0.825433  0.071421  1
  O  O15  1  0.329945  0.674566  0.928579  1
  O  O16  1  0.670055  0.325434  0.071421  1
  O  O17  1  0.170055  0.174567  0.928579  1
  O  O18  1  0.329945  0.674566  0.571421  1
  O  O19  1  0.829945  0.825433  0.428580  1
