# generated using pymatgen
data_BaTl(WO3)2
_symmetry_space_group_name_H-M   'P 1'
_cell_length_a   3.89165048
_cell_length_b   3.89057107
_cell_length_c   22.76572580
_cell_angle_alpha   94.94174746
_cell_angle_beta   94.87923177
_cell_angle_gamma   89.88545314
_symmetry_Int_Tables_number   1
_chemical_formula_structural   BaTl(WO3)2
_chemical_formula_sum   'Ba2 Tl2 W4 O12'
_cell_volume   342.15933895
_cell_formula_units_Z   2
loop_
 _symmetry_equiv_pos_site_id
 _symmetry_equiv_pos_as_xyz
  1  'x, y, z'
loop_
 _atom_site_type_symbol
 _atom_site_label
 _atom_site_symmetry_multiplicity
 _atom_site_fract_x
 _atom_site_fract_y
 _atom_site_fract_z
 _atom_site_occupancy
  Ba  Ba0  1  0.162913  0.157277  0.326751  1
  Ba  Ba1  1  0.838169  0.836394  0.672877  1
  Tl  Tl2  1  0.718226  0.726631  0.451202  1
  Tl  Tl3  1  0.265692  0.276111  0.547962  1
  W  W4  1  0.541162  0.538475  0.082204  1
  W  W5  1  0.393669  0.394133  0.784928  1
  W  W6  1  0.607698  0.601084  0.215215  1
  W  W7  1  0.460026  0.460774  0.918524  1
  O  O8  1  0.392951  0.894860  0.785778  1
  O  O9  1  0.539834  0.037717  0.079480  1
  O  O10  1  0.226954  0.229531  0.440409  1
  O  O11  1  0.961195  0.462086  0.921046  1
  O  O12  1  0.790881  0.787391  0.559072  1
  O  O13  1  0.107198  0.599979  0.214641  1
  O  O14  1  0.607166  0.100995  0.215480  1
  O  O15  1  0.349625  0.348595  0.696006  1
  O  O16  1  0.893242  0.395566  0.785048  1
  O  O17  1  0.040505  0.539104  0.080866  1
  O  O18  1  0.460575  0.961310  0.919730  1
  O  O19  1  0.651870  0.645643  0.304275  1
