# generated using pymatgen
data_MgCo3O7
_symmetry_space_group_name_H-M   'P 1'
_cell_length_a   5.24159757
_cell_length_b   10.02925908
_cell_length_c   10.00627536
_cell_angle_alpha   90.00000000
_cell_angle_beta   90.00000000
_cell_angle_gamma   90.00000000
_symmetry_Int_Tables_number   1
_chemical_formula_structural   MgCo3O7
_chemical_formula_sum   'Mg4 Co12 O28'
_cell_volume   526.02329176
_cell_formula_units_Z   4
loop_
 _symmetry_equiv_pos_site_id
 _symmetry_equiv_pos_as_xyz
  1  'x, y, z'
loop_
 _atom_site_type_symbol
 _atom_site_label
 _atom_site_symmetry_multiplicity
 _atom_site_fract_x
 _atom_site_fract_y
 _atom_site_fract_z
 _atom_site_occupancy
  Mg  Mg0  1  0.648341  0.750000  0.925776  1
  Mg  Mg1  1  0.148341  0.250000  0.574224  1
  Mg  Mg2  1  0.351659  0.250000  0.074224  1
  Mg  Mg3  1  0.851659  0.750000  0.425776  1
  Co  Co4  1  0.301922  0.025896  0.312735  1
  Co  Co5  1  0.801922  0.974104  0.187265  1
  Co  Co6  1  0.698078  0.525896  0.687265  1
  Co  Co7  1  0.198078  0.474104  0.812735  1
  Co  Co8  1  0.307888  0.750000  0.226074  1
  Co  Co9  1  0.807888  0.250000  0.273926  1
  Co  Co10  1  0.692112  0.250000  0.773926  1
  Co  Co11  1  0.192112  0.750000  0.726074  1
  Co  Co12  1  0.801922  0.525896  0.187265  1
  Co  Co13  1  0.301922  0.474104  0.312735  1
  Co  Co14  1  0.198078  0.025896  0.812735  1
  Co  Co15  1  0.698078  0.974104  0.687265  1
  O  O16  1  0.937899  0.121737  0.711961  1
  O  O17  1  0.437899  0.878263  0.788039  1
  O  O18  1  0.062101  0.621737  0.288039  1
  O  O19  1  0.562101  0.378263  0.211961  1
  O  O20  1  0.062101  0.878263  0.288039  1
  O  O21  1  0.562101  0.121737  0.211961  1
  O  O22  1  0.937899  0.378263  0.711961  1
  O  O23  1  0.437899  0.621737  0.788039  1
  O  O24  1  0.459418  0.118730  0.711445  1
  O  O25  1  0.959418  0.881270  0.788555  1
  O  O26  1  0.540582  0.618730  0.288555  1
  O  O27  1  0.040582  0.381270  0.211445  1
  O  O28  1  0.540582  0.881270  0.288555  1
  O  O29  1  0.040582  0.118730  0.211445  1
  O  O30  1  0.459418  0.381270  0.711445  1
  O  O31  1  0.959418  0.618730  0.788555  1
  O  O32  1  0.164824  0.750000  0.560037  1
  O  O33  1  0.664824  0.250000  0.939963  1
  O  O34  1  0.835176  0.250000  0.439963  1
  O  O35  1  0.335176  0.750000  0.060037  1
  O  O36  1  0.219924  0.405500  0.963968  1
  O  O37  1  0.719924  0.594500  0.536032  1
  O  O38  1  0.780076  0.905500  0.036032  1
  O  O39  1  0.280076  0.094500  0.463968  1
  O  O40  1  0.780076  0.594500  0.036032  1
  O  O41  1  0.280076  0.405500  0.463968  1
  O  O42  1  0.219924  0.094500  0.963968  1
  O  O43  1  0.719924  0.905500  0.536032  1
