# generated using pymatgen
data_MgTiAs2O7
_symmetry_space_group_name_H-M   'P 1'
_cell_length_a   8.36142201
_cell_length_b   8.56644293
_cell_length_c   10.89391772
_cell_angle_alpha   90.00000000
_cell_angle_beta   124.74301061
_cell_angle_gamma   90.00000000
_symmetry_Int_Tables_number   1
_chemical_formula_structural   MgTiAs2O7
_chemical_formula_sum   'Mg4 Ti4 As8 O28'
_cell_volume   641.19001259
_cell_formula_units_Z   4
loop_
 _symmetry_equiv_pos_site_id
 _symmetry_equiv_pos_as_xyz
  1  'x, y, z'
loop_
 _atom_site_type_symbol
 _atom_site_label
 _atom_site_symmetry_multiplicity
 _atom_site_fract_x
 _atom_site_fract_y
 _atom_site_fract_z
 _atom_site_occupancy
  Mg  Mg0  1  0.329683  0.882731  0.877555  1
  Mg  Mg1  1  0.670317  0.382731  0.622445  1
  Mg  Mg2  1  0.670317  0.117269  0.122445  1
  Mg  Mg3  1  0.329683  0.617269  0.377555  1
  Ti  Ti4  1  0.846046  0.027437  0.713036  1
  Ti  Ti5  1  0.153954  0.527437  0.786964  1
  Ti  Ti6  1  0.153954  0.972563  0.286964  1
  Ti  Ti7  1  0.846046  0.472563  0.213036  1
  As  As8  1  0.438282  0.226405  0.764972  1
  As  As9  1  0.561718  0.726405  0.735028  1
  As  As10  1  0.561718  0.773595  0.235028  1
  As  As11  1  0.438282  0.273595  0.264971  1
  As  As12  1  0.009417  0.303798  0.965529  1
  As  As13  1  0.990583  0.803798  0.534471  1
  As  As14  1  0.990583  0.696202  0.034471  1
  As  As15  1  0.009417  0.196202  0.465529  1
  O  O16  1  0.746084  0.325386  0.084672  1
  O  O17  1  0.253916  0.825386  0.415328  1
  O  O18  1  0.253916  0.674614  0.915328  1
  O  O19  1  0.746084  0.174614  0.584672  1
  O  O20  1  0.325763  0.387558  0.777845  1
  O  O21  1  0.674237  0.887558  0.722155  1
  O  O22  1  0.674237  0.612442  0.222155  1
  O  O23  1  0.325763  0.112442  0.277845  1
  O  O24  1  0.470590  0.088637  0.891916  1
  O  O25  1  0.529410  0.588637  0.608084  1
  O  O26  1  0.529410  0.911363  0.108084  1
  O  O27  1  0.470590  0.411363  0.391916  1
  O  O28  1  0.280279  0.153115  0.582353  1
  O  O29  1  0.719721  0.653115  0.917647  1
  O  O30  1  0.719721  0.846885  0.417647  1
  O  O31  1  0.280279  0.346885  0.082353  1
  O  O32  1  0.967841  0.079407  0.307994  1
  O  O33  1  0.032159  0.579407  0.192006  1
  O  O34  1  0.032159  0.920593  0.692006  1
  O  O35  1  0.967841  0.420593  0.807994  1
  O  O36  1  0.640416  0.232666  0.271140  1
  O  O37  1  0.359584  0.732666  0.228860  1
  O  O38  1  0.359584  0.767334  0.728860  1
  O  O39  1  0.640416  0.267334  0.771140  1
  O  O40  1  0.023755  0.382869  0.396657  1
  O  O41  1  0.976245  0.882869  0.103343  1
  O  O42  1  0.976245  0.617131  0.603343  1
  O  O43  1  0.023755  0.117131  0.896657  1
