# generated using pymatgen
data_Al4Co13Si2(SbO14)2
_symmetry_space_group_name_H-M   'P 1'
_cell_length_a   5.51631260
_cell_length_b   8.94328815
_cell_length_c   11.61202493
_cell_angle_alpha   87.42624179
_cell_angle_beta   76.25944213
_cell_angle_gamma   79.10236783
_symmetry_Int_Tables_number   1
_chemical_formula_structural   Al4Co13Si2(SbO14)2
_chemical_formula_sum   'Al4 Co13 Si2 Sb2 O28'
_cell_volume   546.43743189
_cell_formula_units_Z   1
loop_
 _symmetry_equiv_pos_site_id
 _symmetry_equiv_pos_as_xyz
  1  'x, y, z'
loop_
 _atom_site_type_symbol
 _atom_site_label
 _atom_site_symmetry_multiplicity
 _atom_site_fract_x
 _atom_site_fract_y
 _atom_site_fract_z
 _atom_site_occupancy
  Al  Al0  1  0.057298  0.672305  0.429148  1
  Al  Al1  1  0.513554  0.327695  0.429148  1
  Al  Al2  1  0.942702  0.327695  0.570852  1
  Al  Al3  1  0.486446  0.672305  0.570852  1
  Co  Co4  1  0.929039  0.648141  0.712326  1
  Co  Co5  1  0.651750  0.345508  0.140175  1
  Co  Co6  1  0.358633  0.351859  0.712326  1
  Co  Co7  1  0.070961  0.351859  0.287674  1
  Co  Co8  1  0.348250  0.654492  0.859825  1
  Co  Co9  1  0.287073  0.000000  0.425855  1
  Co  Co10  1  0.208075  0.654492  0.140175  1
  Co  Co11  1  0.000000  -0.000000  -0.000000  1
  Co  Co12  1  0.429082  -0.000000  0.141836  1
  Co  Co13  1  0.791925  0.345508  0.859825  1
  Co  Co14  1  0.641367  0.648141  0.287674  1
  Co  Co15  1  0.570918  0.000000  0.858164  1
  Co  Co16  1  0.712927  -0.000000  0.574145  1
  Si  Si17  1  0.233783  0.314066  0.000000  1
  Si  Si18  1  0.766217  0.685934  1.000000  1
  Sb  Sb19  1  0.858730  0.000000  0.282540  1
  Sb  Sb20  1  0.141270  1.000000  0.717460  1
  O  O21  1  0.687273  0.401035  0.298025  1
  O  O22  1  0.179742  0.363435  0.445145  1
  O  O23  1  0.932265  0.356755  1.000000  1
  O  O24  1  0.308695  0.125352  1.000000  1
  O  O25  1  0.820258  0.636565  0.554855  1
  O  O26  1  0.312727  0.598965  0.701975  1
  O  O27  1  0.014655  0.118884  0.580425  1
  O  O28  1  0.985345  0.881116  0.419575  1
  O  O29  1  0.691305  0.874648  0.000000  1
  O  O30  1  0.124921  0.884253  0.151121  1
  O  O31  1  0.289007  0.383357  0.119797  1
  O  O32  1  0.014702  0.598965  0.298025  1
  O  O33  1  0.404920  0.881116  0.580425  1
  O  O34  1  0.723957  0.115747  0.151121  1
  O  O35  1  0.591195  0.616643  0.119797  1
  O  O36  1  0.067735  0.643245  0.000000  1
  O  O37  1  0.276043  0.884253  0.848879  1
  O  O38  1  0.875079  0.115747  0.848879  1
  O  O39  1  0.595080  0.118884  0.419575  1
  O  O40  1  0.129901  0.120830  0.288606  1
  O  O41  1  0.870099  0.879170  0.711394  1
  O  O42  1  0.408805  0.383357  0.880203  1
  O  O43  1  0.418507  0.120830  0.711394  1
  O  O44  1  0.624887  0.363435  0.554855  1
  O  O45  1  0.710993  0.616643  0.880203  1
  O  O46  1  0.581493  0.879170  0.288606  1
  O  O47  1  0.985298  0.401035  0.701975  1
  O  O48  1  0.375113  0.636565  0.445145  1
