# generated using pymatgen
data_Ca2Ni2O5
_symmetry_space_group_name_H-M   'P 1'
_cell_length_a   3.78554737
_cell_length_b   5.35035579
_cell_length_c   10.31448369
_cell_angle_alpha   90.00342152
_cell_angle_beta   90.00002157
_cell_angle_gamma   90.00003276
_symmetry_Int_Tables_number   1
_chemical_formula_structural   Ca2Ni2O5
_chemical_formula_sum   'Ca4 Ni4 O10'
_cell_volume   208.90981332
_cell_formula_units_Z   2
loop_
 _symmetry_equiv_pos_site_id
 _symmetry_equiv_pos_as_xyz
  1  'x, y, z'
loop_
 _atom_site_type_symbol
 _atom_site_label
 _atom_site_symmetry_multiplicity
 _atom_site_fract_x
 _atom_site_fract_y
 _atom_site_fract_z
 _atom_site_occupancy
  Ca  Ca0  1  0.500001  0.195462  0.870500  1
  Ca  Ca1  1  0.500001  0.804600  0.129428  1
  Ca  Ca2  1  0.500001  0.695348  0.629595  1
  Ca  Ca3  1  0.500001  0.304587  0.370486  1
  Ni  Ni4  1  -0.000001  0.228527  0.625868  1
  Ni  Ni5  1  0.000002  0.771491  0.374132  1
  Ni  Ni6  1  -0.000000  0.271374  0.125917  1
  Ni  Ni7  1  -0.000000  0.728606  0.874097  1
  O  O8  1  0.000001  0.499973  0.499981  1
  O  O9  1  0.000000  0.080029  0.288161  1
  O  O10  1  0.000000  0.580032  0.211812  1
  O  O11  1  0.000000  0.419951  0.788138  1
  O  O12  1  0.500000  0.290209  0.100895  1
  O  O13  1  0.500000  0.709637  0.899134  1
  O  O14  1  0.000001  0.919952  0.711811  1
  O  O15  1  0.500000  0.209818  0.600855  1
  O  O16  1  0.000001  0.000089  0.999987  1
  O  O17  1  0.500001  0.790314  0.399203  1
