# generated using pymatgen
data_Mg(SnO2)2
_symmetry_space_group_name_H-M   'P 1'
_cell_length_a   3.24160903
_cell_length_b   9.70443346
_cell_length_c   6.86341561
_cell_angle_alpha   78.95799272
_cell_angle_beta   76.33335942
_cell_angle_gamma   80.40301038
_symmetry_Int_Tables_number   1
_chemical_formula_structural   Mg(SnO2)2
_chemical_formula_sum   'Mg2 Sn4 O8'
_cell_volume   204.23530373
_cell_formula_units_Z   2
loop_
 _symmetry_equiv_pos_site_id
 _symmetry_equiv_pos_as_xyz
  1  'x, y, z'
loop_
 _atom_site_type_symbol
 _atom_site_label
 _atom_site_symmetry_multiplicity
 _atom_site_fract_x
 _atom_site_fract_y
 _atom_site_fract_z
 _atom_site_occupancy
  Mg  Mg0  1  0.304943  0.227962  0.170980  1
  Mg  Mg1  1  0.697820  0.750100  0.862119  1
  Sn  Sn2  1  0.639301  0.113897  0.614623  1
  Sn  Sn3  1  0.100752  0.572949  0.233005  1
  Sn  Sn4  1  0.903041  0.405072  0.800036  1
  Sn  Sn5  1  0.362373  0.864287  0.418387  1
  O  O6  1  0.848397  0.754574  0.556042  1
  O  O7  1  0.465872  0.220610  0.855714  1
  O  O8  1  0.536417  0.757465  0.177387  1
  O  O9  1  0.153291  0.223611  0.477051  1
  O  O10  1  0.172233  0.960396  0.702180  1
  O  O11  1  0.771191  0.351653  0.114941  1
  O  O12  1  0.829190  0.017787  0.330862  1
  O  O13  1  0.231487  0.626438  0.918113  1
