# generated using pymatgen
data_YTi4(CuO4)3
_symmetry_space_group_name_H-M   'P 1'
_cell_length_a   6.46915275
_cell_length_b   6.46903078
_cell_length_c   6.46892747
_cell_angle_alpha   109.47020708
_cell_angle_beta   109.48492023
_cell_angle_gamma   109.46231110
_symmetry_Int_Tables_number   1
_chemical_formula_structural   YTi4(CuO4)3
_chemical_formula_sum   'Y1 Ti4 Cu3 O12'
_cell_volume   208.38994416
_cell_formula_units_Z   1
loop_
 _symmetry_equiv_pos_site_id
 _symmetry_equiv_pos_as_xyz
  1  'x, y, z'
loop_
 _atom_site_type_symbol
 _atom_site_label
 _atom_site_symmetry_multiplicity
 _atom_site_fract_x
 _atom_site_fract_y
 _atom_site_fract_z
 _atom_site_occupancy
  Y  Y0  1  0.000001  0.999999  0.999996  1
  Ti  Ti1  1  0.500001  0.000006  0.999998  1
  Ti  Ti2  1  0.999989  0.999993  0.499993  1
  Ti  Ti3  1  0.000005  0.500002  0.000002  1
  Ti  Ti4  1  0.499997  0.499993  0.500002  1
  Cu  Cu5  1  0.499998  0.999996  0.499998  1
  Cu  Cu6  1  0.499999  0.500000  0.999998  1
  Cu  Cu7  1  0.000004  0.500006  0.500004  1
  O  O8  1  0.823886  0.295643  0.119440  1
  O  O9  1  0.176119  0.704365  0.880567  1
  O  O10  1  0.823846  0.704421  0.528250  1
  O  O11  1  0.295801  0.471891  0.176104  1
  O  O12  1  0.471937  0.176216  0.295709  1
  O  O13  1  0.119478  0.823788  0.295744  1
  O  O14  1  0.704167  0.880309  0.176071  1
  O  O15  1  0.528062  0.823778  0.704297  1
  O  O16  1  0.176156  0.295582  0.471752  1
  O  O17  1  0.704207  0.528111  0.823893  1
  O  O18  1  0.880514  0.176206  0.704254  1
  O  O19  1  0.295834  0.119693  0.823929  1
