# generated using pymatgen
data_Sr2FeCu2O7
_symmetry_space_group_name_H-M   'P 1'
_cell_length_a   5.13095603
_cell_length_b   5.17158844
_cell_length_c   13.17670520
_cell_angle_alpha   101.32626668
_cell_angle_beta   101.04891892
_cell_angle_gamma   89.99895778
_symmetry_Int_Tables_number   1
_chemical_formula_structural   Sr2FeCu2O7
_chemical_formula_sum   'Sr4 Fe2 Cu4 O14'
_cell_volume   336.22489362
_cell_formula_units_Z   2
loop_
 _symmetry_equiv_pos_site_id
 _symmetry_equiv_pos_as_xyz
  1  'x, y, z'
loop_
 _atom_site_type_symbol
 _atom_site_label
 _atom_site_symmetry_multiplicity
 _atom_site_fract_x
 _atom_site_fract_y
 _atom_site_fract_z
 _atom_site_occupancy
  Sr  Sr0  1  0.329026  0.347663  0.702550  1
  Sr  Sr1  1  0.629704  0.652183  0.298100  1
  Sr  Sr2  1  0.828938  0.854416  0.702506  1
  Sr  Sr3  1  0.129791  0.145279  0.298073  1
  Fe  Fe4  1  0.277688  0.684129  0.500222  1
  Fe  Fe5  1  0.777683  0.315316  0.500198  1
  Cu  Cu6  1  0.918742  0.441323  0.880845  1
  Cu  Cu7  1  0.043940  0.558598  0.119622  1
  Cu  Cu8  1  0.418763  0.939675  0.880982  1
  Cu  Cu9  1  0.543949  0.060374  0.119724  1
  O  O10  1  0.154234  0.335707  0.500305  1
  O  O11  1  0.654331  0.663894  0.500301  1
  O  O12  1  0.153663  0.175198  0.849205  1
  O  O13  1  0.310015  0.824732  0.151207  1
  O  O14  1  0.653878  0.174155  0.849315  1
  O  O15  1  0.810084  0.825917  0.151275  1
  O  O16  1  0.651768  0.673245  0.847556  1
  O  O17  1  0.809514  0.326677  0.152889  1
  O  O18  1  0.151773  0.674202  0.847642  1
  O  O19  1  0.309637  0.325589  0.152978  1
  O  O20  1  0.290365  0.834207  0.638961  1
  O  O21  1  0.653949  0.165325  0.361735  1
  O  O22  1  0.790309  0.304053  0.638937  1
  O  O23  1  0.153962  0.695387  0.361779  1
