# generated using pymatgen
data_Sr2YCu2AgO7
_symmetry_space_group_name_H-M   'P 1'
_cell_length_a   5.37597576
_cell_length_b   5.37265407
_cell_length_c   12.60744940
_cell_angle_alpha   102.14487002
_cell_angle_beta   102.15971528
_cell_angle_gamma   89.82089470
_symmetry_Int_Tables_number   1
_chemical_formula_structural   Sr2YCu2AgO7
_chemical_formula_sum   'Sr4 Y2 Cu4 Ag2 O14'
_cell_volume   347.68385697
_cell_formula_units_Z   2
loop_
 _symmetry_equiv_pos_site_id
 _symmetry_equiv_pos_as_xyz
  1  'x, y, z'
loop_
 _atom_site_type_symbol
 _atom_site_label
 _atom_site_symmetry_multiplicity
 _atom_site_fract_x
 _atom_site_fract_y
 _atom_site_fract_z
 _atom_site_occupancy
  Sr  Sr0  1  0.327147  0.348863  0.697900  1
  Sr  Sr1  1  0.628741  0.650877  0.302674  1
  Sr  Sr2  1  0.826963  0.847854  0.697516  1
  Sr  Sr3  1  0.128741  0.151922  0.302834  1
  Y  Y4  1  0.985541  0.999188  0.000132  1
  Y  Y5  1  0.485706  0.499124  0.000183  1
  Cu  Cu6  1  0.910263  0.425409  0.853514  1
  Cu  Cu7  1  0.057362  0.573382  0.146823  1
  Cu  Cu8  1  0.410174  0.926156  0.853768  1
  Cu  Cu9  1  0.557170  0.072539  0.146374  1
  Ag  Ag10  1  0.240942  0.732580  0.500149  1
  Ag  Ag11  1  0.739763  0.264925  0.500383  1
  O  O12  1  0.164149  0.287443  0.500410  1
  O  O13  1  0.666648  0.721185  0.500269  1
  O  O14  1  0.175155  0.190938  0.879973  1
  O  O15  1  0.297025  0.808947  0.121455  1
  O  O16  1  0.674485  0.186993  0.879000  1
  O  O17  1  0.795896  0.811068  0.120493  1
  O  O18  1  0.673865  0.688310  0.879310  1
  O  O19  1  0.794859  0.311734  0.121824  1
  O  O20  1  0.172542  0.687682  0.878863  1
  O  O21  1  0.293409  0.308943  0.120832  1
  O  O22  1  0.316286  0.834802  0.674304  1
  O  O23  1  0.642556  0.165567  0.326574  1
  O  O24  1  0.816167  0.338474  0.673869  1
  O  O25  1  0.143352  0.660975  0.326296  1
