# generated using pymatgen
data_Y(VS2)2
_symmetry_space_group_name_H-M   'P 1'
_cell_length_a   7.35627201
_cell_length_b   7.35627311
_cell_length_c   7.58487896
_cell_angle_alpha   119.00789624
_cell_angle_beta   119.00790328
_cell_angle_gamma   89.99999836
_symmetry_Int_Tables_number   1
_chemical_formula_structural   Y(VS2)2
_chemical_formula_sum   'Y2 V4 S8'
_cell_volume   298.72617783
_cell_formula_units_Z   2
loop_
 _symmetry_equiv_pos_site_id
 _symmetry_equiv_pos_as_xyz
  1  'x, y, z'
loop_
 _atom_site_type_symbol
 _atom_site_label
 _atom_site_symmetry_multiplicity
 _atom_site_fract_x
 _atom_site_fract_y
 _atom_site_fract_z
 _atom_site_occupancy
  Y  Y0  1  0.375001  0.625001  0.750000  1
  Y  Y1  1  0.624999  0.375000  0.250000  1
  V  V2  1  0.000000  0.500001  0.000001  1
  V  V3  1  0.000001  0.000000  0.500000  1
  V  V4  1  0.500001  0.000000  0.500000  1
  V  V5  1  0.000000  0.000000  0.000000  1
  S  S6  1  0.773412  0.797038  0.546826  1
  S  S7  1  0.750213  0.226589  0.953176  1
  S  S8  1  0.202963  0.226589  0.953175  1
  S  S9  1  0.226588  0.202962  0.453175  1
  S  S10  1  0.226587  0.750212  0.453174  1
  S  S11  1  0.249787  0.773412  0.046826  1
  S  S12  1  0.773412  0.249787  0.546825  1
  S  S13  1  0.797037  0.773412  0.046825  1
