# generated using pymatgen
data_PrMg(AgO3)2
_symmetry_space_group_name_H-M   'P 1'
_cell_length_a   5.41545173
_cell_length_b   5.78972550
_cell_length_c   8.12346297
_cell_angle_alpha   89.97218708
_cell_angle_beta   90.00637922
_cell_angle_gamma   90.02553883
_symmetry_Int_Tables_number   1
_chemical_formula_structural   PrMg(AgO3)2
_chemical_formula_sum   'Pr2 Mg2 Ag4 O12'
_cell_volume   254.70283021
_cell_formula_units_Z   2
loop_
 _symmetry_equiv_pos_site_id
 _symmetry_equiv_pos_as_xyz
  1  'x, y, z'
loop_
 _atom_site_type_symbol
 _atom_site_label
 _atom_site_symmetry_multiplicity
 _atom_site_fract_x
 _atom_site_fract_y
 _atom_site_fract_z
 _atom_site_occupancy
  Pr  Pr0  1  0.020660  0.927508  0.749925  1
  Pr  Pr1  1  0.520797  0.572423  0.250087  1
  Mg  Mg2  1  0.465702  0.428231  0.750069  1
  Mg  Mg3  1  0.965574  0.071721  0.249965  1
  Ag  Ag4  1  0.000213  0.494559  0.997665  1
  Ag  Ag5  1  0.000651  0.494619  0.502274  1
  Ag  Ag6  1  0.500526  0.005213  0.497899  1
  Ag  Ag7  1  0.500168  0.005321  0.002158  1
  O  O8  1  0.111943  0.424226  0.249534  1
  O  O9  1  0.219530  0.222763  0.917065  1
  O  O10  1  0.219912  0.222691  0.582708  1
  O  O11  1  0.315629  0.687391  0.572758  1
  O  O12  1  0.315291  0.687578  0.927201  1
  O  O13  1  0.330562  0.950761  0.249622  1
  O  O14  1  0.612178  0.075683  0.750428  1
  O  O15  1  0.719324  0.277251  0.082688  1
  O  O16  1  0.719857  0.277490  0.417493  1
  O  O17  1  0.815273  0.812485  0.073127  1
  O  O18  1  0.815721  0.812549  0.426919  1
  O  O19  1  0.830483  0.549536  0.750413  1
