# generated using pymatgen
data_ZnCuO2
_symmetry_space_group_name_H-M   'P 1'
_cell_length_a   2.89361354
_cell_length_b   8.35233758
_cell_length_c   8.43689382
_cell_angle_alpha   85.60328333
_cell_angle_beta   79.89789377
_cell_angle_gamma   80.13889999
_symmetry_Int_Tables_number   1
_chemical_formula_structural   ZnCuO2
_chemical_formula_sum   'Zn4 Cu4 O8'
_cell_volume   197.55086693
_cell_formula_units_Z   4
loop_
 _symmetry_equiv_pos_site_id
 _symmetry_equiv_pos_as_xyz
  1  'x, y, z'
loop_
 _atom_site_type_symbol
 _atom_site_label
 _atom_site_symmetry_multiplicity
 _atom_site_fract_x
 _atom_site_fract_y
 _atom_site_fract_z
 _atom_site_occupancy
  Zn  Zn0  1  0.352957  0.061281  0.244786  1
  Zn  Zn1  1  0.642908  0.918620  0.783628  1
  Zn  Zn2  1  0.082601  0.704231  0.133576  1
  Zn  Zn3  1  0.913181  0.276269  0.894580  1
  Cu  Cu4  1  0.624218  0.178831  0.569461  1
  Cu  Cu5  1  0.206810  0.379261  0.206096  1
  Cu  Cu6  1  0.789592  0.600157  0.821032  1
  Cu  Cu7  1  0.372012  0.800677  0.459310  1
  O  O8  1  0.818930  0.758334  0.603128  1
  O  O9  1  0.374397  0.431056  0.821906  1
  O  O10  1  0.621598  0.549054  0.205617  1
  O  O11  1  0.177964  0.220271  0.425516  1
  O  O12  1  0.077546  0.101339  0.734981  1
  O  O13  1  0.841202  0.206956  0.125043  1
  O  O14  1  0.918034  0.878736  0.293541  1
  O  O15  1  0.154324  0.774264  0.903414  1
