# generated using pymatgen
data_AlV2O4
_symmetry_space_group_name_H-M   'P 1'
_cell_length_a   6.03508402
_cell_length_b   6.04478541
_cell_length_c   6.03690542
_cell_angle_alpha   121.80606815
_cell_angle_beta   121.97325999
_cell_angle_gamma   86.73321508
_symmetry_Int_Tables_number   1
_chemical_formula_structural   AlV2O4
_chemical_formula_sum   'Al2 V4 O8'
_cell_volume   151.04505492
_cell_formula_units_Z   2
loop_
 _symmetry_equiv_pos_site_id
 _symmetry_equiv_pos_as_xyz
  1  'x, y, z'
loop_
 _atom_site_type_symbol
 _atom_site_label
 _atom_site_symmetry_multiplicity
 _atom_site_fract_x
 _atom_site_fract_y
 _atom_site_fract_z
 _atom_site_occupancy
  Al  Al0  1  0.000022  0.500124  0.000096  1
  Al  Al1  1  0.000015  0.999927  0.499911  1
  V  V2  1  0.371380  0.620068  0.748454  1
  V  V3  1  0.628515  0.379821  0.251501  1
  V  V4  1  0.499960  0.000014  0.499952  1
  V  V5  1  0.000075  0.000010  0.000071  1
  O  O6  1  0.781232  0.782514  0.501227  1
  O  O7  1  0.781141  0.280685  0.999575  1
  O  O8  1  0.213914  0.241775  0.971864  1
  O  O9  1  0.218672  0.217277  0.498693  1
  O  O10  1  0.230226  0.758193  0.472079  1
  O  O11  1  0.218768  0.719315  0.000537  1
  O  O12  1  0.769893  0.241935  0.527919  1
  O  O13  1  0.786188  0.758347  0.028124  1
