# generated using pymatgen
data_Ca3Cu2(SiO4)3
_symmetry_space_group_name_H-M   'P 1'
_cell_length_a   10.52234158
_cell_length_b   10.52234187
_cell_length_c   10.52234152
_cell_angle_alpha   109.47122185
_cell_angle_beta   109.47122241
_cell_angle_gamma   109.47121833
_symmetry_Int_Tables_number   1
_chemical_formula_structural   Ca3Cu2(SiO4)3
_chemical_formula_sum   'Ca12 Cu8 Si12 O48'
_cell_volume   896.84068693
_cell_formula_units_Z   4
loop_
 _symmetry_equiv_pos_site_id
 _symmetry_equiv_pos_as_xyz
  1  'x, y, z'
loop_
 _atom_site_type_symbol
 _atom_site_label
 _atom_site_symmetry_multiplicity
 _atom_site_fract_x
 _atom_site_fract_y
 _atom_site_fract_z
 _atom_site_occupancy
  Ca  Ca0  1  0.375000  0.750000  0.125000  1
  Ca  Ca1  1  0.125000  0.250000  0.375000  1
  Ca  Ca2  1  0.375000  0.125000  0.250000  1
  Ca  Ca3  1  0.125000  0.375000  0.750000  1
  Ca  Ca4  1  0.875000  0.750000  0.625000  1
  Ca  Ca5  1  0.750000  0.125000  0.375000  1
  Ca  Ca6  1  0.750000  0.625000  0.875000  1
  Ca  Ca7  1  0.625000  0.250000  0.875000  1
  Ca  Ca8  1  0.250000  0.875000  0.625000  1
  Ca  Ca9  1  0.875000  0.625000  0.250000  1
  Ca  Ca10  1  0.625000  0.875000  0.750000  1
  Ca  Ca11  1  0.250000  0.375000  0.125000  1
  Cu  Cu12  1  0.000000  0.000000  0.000000  1
  Cu  Cu13  1  0.000000  0.500000  0.000000  1
  Cu  Cu14  1  0.000000  0.000000  0.500000  1
  Cu  Cu15  1  0.000000  0.500000  0.500000  1
  Cu  Cu16  1  0.500000  0.000000  0.500000  1
  Cu  Cu17  1  0.500000  0.500000  0.000000  1
  Cu  Cu18  1  0.500000  0.500000  0.500000  1
  Cu  Cu19  1  0.500000  0.000000  0.000000  1
  Si  Si20  1  0.250000  0.125000  0.875000  1
  Si  Si21  1  0.750000  0.875000  0.125000  1
  Si  Si22  1  0.375000  0.250000  0.625000  1
  Si  Si23  1  0.625000  0.375000  0.250000  1
  Si  Si24  1  0.125000  0.750000  0.875000  1
  Si  Si25  1  0.875000  0.125000  0.750000  1
  Si  Si26  1  0.750000  0.375000  0.625000  1
  Si  Si27  1  0.375000  0.625000  0.750000  1
  Si  Si28  1  0.125000  0.875000  0.250000  1
  Si  Si29  1  0.875000  0.250000  0.125000  1
  Si  Si30  1  0.625000  0.750000  0.375000  1
  Si  Si31  1  0.250000  0.625000  0.375000  1
  O  O32  1  0.295661  0.490200  0.383082  1
  O  O33  1  0.009800  0.305461  0.892882  1
  O  O34  1  0.116918  0.607118  0.912579  1
  O  O35  1  0.204339  0.587421  0.194539  1
  O  O36  1  0.204339  0.116918  0.009800  1
  O  O37  1  0.587421  0.194539  0.204339  1
  O  O38  1  0.607118  0.194539  0.490200  1
  O  O39  1  0.194539  0.204339  0.587421  1
  O  O40  1  0.892882  0.383082  0.587421  1
  O  O41  1  0.305461  0.912579  0.295661  1
  O  O42  1  0.912579  0.295661  0.305461  1
  O  O43  1  0.009800  0.204339  0.116918  1
  O  O44  1  0.194539  0.490200  0.607118  1
  O  O45  1  0.587421  0.892882  0.383082  1
  O  O46  1  0.116918  0.009800  0.204339  1
  O  O47  1  0.490200  0.607118  0.194539  1
  O  O48  1  0.383082  0.587421  0.892882  1
  O  O49  1  0.892882  0.009800  0.305461  1
  O  O50  1  0.607118  0.912579  0.116918  1
  O  O51  1  0.107118  0.616918  0.412579  1
  O  O52  1  0.912579  0.116918  0.607118  1
  O  O53  1  0.383082  0.295661  0.490200  1
  O  O54  1  0.305461  0.892882  0.009800  1
  O  O55  1  0.295661  0.305461  0.912579  1
  O  O56  1  0.704339  0.509800  0.616918  1
  O  O57  1  0.990200  0.694539  0.107118  1
  O  O58  1  0.883082  0.392882  0.087421  1
  O  O59  1  0.795661  0.412579  0.805461  1
  O  O60  1  0.795661  0.883082  0.990200  1
  O  O61  1  0.412579  0.805461  0.795661  1
  O  O62  1  0.392882  0.805461  0.509800  1
  O  O63  1  0.805461  0.795661  0.412579  1
  O  O64  1  0.704339  0.694539  0.087421  1
  O  O65  1  0.694539  0.107118  0.990200  1
  O  O66  1  0.616918  0.704339  0.509800  1
  O  O67  1  0.509800  0.616918  0.704339  1
  O  O68  1  0.087421  0.883082  0.392882  1
  O  O69  1  0.392882  0.087421  0.883082  1
  O  O70  1  0.107118  0.990200  0.694539  1
  O  O71  1  0.616918  0.412579  0.107118  1
  O  O72  1  0.509800  0.392882  0.805461  1
  O  O73  1  0.883082  0.990200  0.795661  1
  O  O74  1  0.412579  0.107118  0.616918  1
  O  O75  1  0.805461  0.509800  0.392882  1
  O  O76  1  0.990200  0.795661  0.883082  1
  O  O77  1  0.087421  0.704339  0.694539  1
  O  O78  1  0.694539  0.087421  0.704339  1
  O  O79  1  0.490200  0.383082  0.295661  1
