# generated using pymatgen
data_MgCoNiP2O9
_symmetry_space_group_name_H-M   'P 1'
_cell_length_a   6.23268345
_cell_length_b   7.22943123
_cell_length_c   14.22576817
_cell_angle_alpha   88.78507436
_cell_angle_beta   89.99922291
_cell_angle_gamma   89.99984414
_symmetry_Int_Tables_number   1
_chemical_formula_structural   MgCoNiP2O9
_chemical_formula_sum   'Mg4 Co4 Ni4 P8 O36'
_cell_volume   640.85132234
_cell_formula_units_Z   4
loop_
 _symmetry_equiv_pos_site_id
 _symmetry_equiv_pos_as_xyz
  1  'x, y, z'
loop_
 _atom_site_type_symbol
 _atom_site_label
 _atom_site_symmetry_multiplicity
 _atom_site_fract_x
 _atom_site_fract_y
 _atom_site_fract_z
 _atom_site_occupancy
  Mg  Mg0  1  0.749941  0.891044  0.776948  1
  Mg  Mg1  1  0.749984  0.644882  0.270412  1
  Mg  Mg2  1  0.249928  0.109132  0.223055  1
  Mg  Mg3  1  0.250056  0.355236  0.729581  1
  Co  Co4  1  0.749939  0.350767  0.880147  1
  Co  Co5  1  0.249945  0.649175  0.119870  1
  Co  Co6  1  0.250050  0.853061  0.622663  1
  Co  Co7  1  0.750050  0.146966  0.377339  1
  Ni  Ni8  1  0.499939  0.999932  -0.000005  1
  Ni  Ni9  1  0.500097  0.500024  0.499960  1
  Ni  Ni10  1  0.000142  0.500039  0.500035  1
  Ni  Ni11  1  0.999813  -0.000026  0.000002  1
  P  P12  1  0.249930  0.359386  0.934009  1
  P  P13  1  0.749949  0.640641  0.066084  1
  P  P14  1  0.750046  0.863920  0.571054  1
  P  P15  1  0.250072  0.136263  0.428834  1
  P  P16  1  0.750035  0.383220  0.697948  1
  P  P17  1  0.250012  0.616730  0.302015  1
  P  P18  1  0.249933  0.893490  0.804901  1
  P  P19  1  0.749913  0.106487  0.195151  1
  O  O20  1  0.037576  0.603967  0.358450  1
  O  O21  1  0.537581  0.396046  0.641554  1
  O  O22  1  0.962572  0.104706  0.138074  1
  O  O23  1  0.462560  0.895254  0.861906  1
  O  O24  1  0.962529  0.396043  0.641581  1
  O  O25  1  0.462551  0.603955  0.358386  1
  O  O26  1  0.037345  0.895287  0.861896  1
  O  O27  1  0.537290  0.104725  0.138106  1
  O  O28  1  0.250106  0.323197  0.479150  1
  O  O29  1  0.750078  0.676998  0.520765  1
  O  O30  1  0.749892  0.834447  0.018203  1
  O  O31  1  0.249880  0.165513  0.981815  1
  O  O32  1  0.749870  0.149094  0.947187  1
  O  O33  1  0.249890  0.850879  0.052817  1
  O  O34  1  0.250273  0.643369  0.547472  1
  O  O35  1  0.750120  0.356676  0.452493  1
  O  O36  1  0.749998  0.199893  0.758539  1
  O  O37  1  0.249954  0.800038  0.241432  1
  O  O38  1  0.249974  0.714332  0.744164  1
  O  O39  1  0.750012  0.285647  0.255841  1
  O  O40  1  0.439439  0.127865  0.357359  1
  O  O41  1  0.939516  0.872002  0.642685  1
  O  O42  1  0.561999  0.628382  0.138047  1
  O  O43  1  0.061956  0.371552  0.861927  1
  O  O44  1  0.560595  0.872072  0.642706  1
  O  O45  1  0.060649  0.127911  0.357368  1
  O  O46  1  0.437935  0.371466  0.861916  1
  O  O47  1  0.937911  0.628420  0.138051  1
  O  O48  1  0.750001  0.939738  0.268101  1
  O  O49  1  0.249991  0.060257  0.731908  1
  O  O50  1  0.249953  0.462667  0.224416  1
  O  O51  1  0.749982  0.537256  0.775589  1
  O  O52  1  0.750015  0.023957  0.501349  1
  O  O53  1  0.250055  0.976130  0.498851  1
  O  O54  1  0.250097  0.503682  0.007823  1
  O  O55  1  0.750087  0.496210  0.992075  1
