# generated using pymatgen
data_Sr2AlGaCu2O7
_symmetry_space_group_name_H-M   'P 1'
_cell_length_a   5.29360871
_cell_length_b   5.40796630
_cell_length_c   12.19095257
_cell_angle_alpha   102.79858578
_cell_angle_beta   102.69494553
_cell_angle_gamma   89.91570626
_symmetry_Int_Tables_number   1
_chemical_formula_structural   Sr2AlGaCu2O7
_chemical_formula_sum   'Sr4 Al2 Ga2 Cu4 O14'
_cell_volume   331.59872452
_cell_formula_units_Z   2
loop_
 _symmetry_equiv_pos_site_id
 _symmetry_equiv_pos_as_xyz
  1  'x, y, z'
loop_
 _atom_site_type_symbol
 _atom_site_label
 _atom_site_symmetry_multiplicity
 _atom_site_fract_x
 _atom_site_fract_y
 _atom_site_fract_z
 _atom_site_occupancy
  Sr  Sr0  1  0.151938  0.163939  0.299866  1
  Sr  Sr1  1  0.860884  0.829982  0.700099  1
  Sr  Sr2  1  0.651196  0.632852  0.300051  1
  Sr  Sr3  1  0.359847  0.364375  0.699823  1
  Al  Al4  1  0.486420  0.508641  0.999429  1
  Al  Al5  1  0.992657  0.990438  -0.000042  1
  Ga  Ga6  1  0.210257  0.818707  0.500018  1
  Ga  Ga7  1  0.710842  0.177376  0.500053  1
  Cu  Cu8  1  0.446157  0.944776  0.883913  1
  Cu  Cu9  1  0.050176  0.558161  0.115986  1
  Cu  Cu10  1  0.944235  0.432748  0.884311  1
  Cu  Cu11  1  0.551747  0.058109  0.115718  1
  O  O12  1  0.722591  0.373783  0.102471  1
  O  O13  1  0.851197  0.854041  0.500186  1
  O  O14  1  0.224319  0.230451  0.103442  1
  O  O15  1  0.850669  0.356555  0.649887  1
  O  O16  1  0.778056  0.110518  0.886513  1
  O  O17  1  0.275564  0.269453  0.887053  1
  O  O18  1  0.351764  0.141407  0.499872  1
  O  O19  1  0.137551  0.760110  0.898676  1
  O  O20  1  0.635001  0.628093  0.896770  1
  O  O21  1  0.349818  0.789704  0.650203  1
  O  O22  1  0.195242  0.639308  0.349935  1
  O  O23  1  0.696987  0.207423  0.350040  1
  O  O24  1  0.876961  0.882108  0.112854  1
  O  O25  1  0.377045  0.732026  0.114176  1
