# generated using pymatgen
data_ZnSnBiO5
_symmetry_space_group_name_H-M   'P 1'
_cell_length_a   5.34773708
_cell_length_b   10.45267108
_cell_length_c   15.43610615
_cell_angle_alpha   90.00000000
_cell_angle_beta   90.00000000
_cell_angle_gamma   90.00000000
_symmetry_Int_Tables_number   1
_chemical_formula_structural   ZnSnBiO5
_chemical_formula_sum   'Zn8 Sn8 Bi8 O40'
_cell_volume   862.84957199
_cell_formula_units_Z   8
loop_
 _symmetry_equiv_pos_site_id
 _symmetry_equiv_pos_as_xyz
  1  'x, y, z'
loop_
 _atom_site_type_symbol
 _atom_site_label
 _atom_site_symmetry_multiplicity
 _atom_site_fract_x
 _atom_site_fract_y
 _atom_site_fract_z
 _atom_site_occupancy
  Zn  Zn0  1  0.531239  0.395470  0.433370  1
  Zn  Zn1  1  0.031239  0.104530  0.433370  1
  Zn  Zn2  1  0.031239  0.604530  0.066630  1
  Zn  Zn3  1  0.968761  0.395470  0.933370  1
  Zn  Zn4  1  0.468761  0.104530  0.933370  1
  Zn  Zn5  1  0.968761  0.895470  0.566630  1
  Zn  Zn6  1  0.468761  0.604530  0.566630  1
  Zn  Zn7  1  0.531239  0.895470  0.066630  1
  Sn  Sn8  1  0.042133  0.371229  0.569591  1
  Sn  Sn9  1  0.457867  0.871229  0.430409  1
  Sn  Sn10  1  0.957867  0.628771  0.430409  1
  Sn  Sn11  1  0.542133  0.128771  0.569591  1
  Sn  Sn12  1  0.957867  0.128771  0.069591  1
  Sn  Sn13  1  0.042133  0.871229  0.930409  1
  Sn  Sn14  1  0.457867  0.371229  0.069591  1
  Sn  Sn15  1  0.542133  0.628771  0.930409  1
  Bi  Bi16  1  0.030107  0.855429  0.240730  1
  Bi  Bi17  1  0.969893  0.144571  0.759270  1
  Bi  Bi18  1  0.469893  0.355429  0.759270  1
  Bi  Bi19  1  0.969893  0.644571  0.740730  1
  Bi  Bi20  1  0.530107  0.144571  0.259270  1
  Bi  Bi21  1  0.530107  0.644571  0.240730  1
  Bi  Bi22  1  0.469893  0.855429  0.740730  1
  Bi  Bi23  1  0.030107  0.355429  0.259270  1
  O  O24  1  0.805052  0.303786  0.677852  1
  O  O25  1  0.236100  0.011482  0.021218  1
  O  O26  1  0.263900  0.511482  0.978782  1
  O  O27  1  0.366812  0.804276  0.166596  1
  O  O28  1  0.133188  0.304276  0.833404  1
  O  O29  1  0.805052  0.803786  0.822148  1
  O  O30  1  0.133188  0.804276  0.666596  1
  O  O31  1  0.694948  0.803786  0.322148  1
  O  O32  1  0.236100  0.511482  0.478782  1
  O  O33  1  0.194948  0.696214  0.322148  1
  O  O34  1  0.694948  0.303786  0.177852  1
  O  O35  1  0.852479  0.220293  0.517422  1
  O  O36  1  0.736100  0.988518  0.478782  1
  O  O37  1  0.633188  0.695724  0.666596  1
  O  O38  1  0.226863  0.991828  0.840811  1
  O  O39  1  0.736100  0.488518  0.021218  1
  O  O40  1  0.194948  0.196214  0.177852  1
  O  O41  1  0.866812  0.195724  0.333404  1
  O  O42  1  0.352479  0.779707  0.982578  1
  O  O43  1  0.263900  0.011482  0.521218  1
  O  O44  1  0.147521  0.779707  0.482578  1
  O  O45  1  0.773137  0.008172  0.159189  1
  O  O46  1  0.633188  0.195724  0.833404  1
  O  O47  1  0.726863  0.008172  0.659189  1
  O  O48  1  0.147521  0.279707  0.017422  1
  O  O49  1  0.352479  0.279707  0.517422  1
  O  O50  1  0.763900  0.488518  0.521218  1
  O  O51  1  0.763900  0.988518  0.978782  1
  O  O52  1  0.726863  0.508172  0.840811  1
  O  O53  1  0.647521  0.720293  0.482578  1
  O  O54  1  0.647521  0.220293  0.017422  1
  O  O55  1  0.852479  0.720293  0.982578  1
  O  O56  1  0.773137  0.508172  0.340811  1
  O  O57  1  0.866812  0.695724  0.166596  1
  O  O58  1  0.366812  0.304276  0.333404  1
  O  O59  1  0.226863  0.491828  0.659189  1
  O  O60  1  0.273137  0.491828  0.159189  1
  O  O61  1  0.305052  0.196214  0.677852  1
  O  O62  1  0.273137  0.991828  0.340811  1
  O  O63  1  0.305052  0.696214  0.822148  1
