# generated using pymatgen
data_ZnAg2P2O9
_symmetry_space_group_name_H-M   'P 1'
_cell_length_a   6.47710252
_cell_length_b   7.17557952
_cell_length_c   15.79103446
_cell_angle_alpha   90.25838310
_cell_angle_beta   89.99995424
_cell_angle_gamma   90.00001507
_symmetry_Int_Tables_number   1
_chemical_formula_structural   ZnAg2P2O9
_chemical_formula_sum   'Zn4 Ag8 P8 O36'
_cell_volume   733.91188001
_cell_formula_units_Z   4
loop_
 _symmetry_equiv_pos_site_id
 _symmetry_equiv_pos_as_xyz
  1  'x, y, z'
loop_
 _atom_site_type_symbol
 _atom_site_label
 _atom_site_symmetry_multiplicity
 _atom_site_fract_x
 _atom_site_fract_y
 _atom_site_fract_z
 _atom_site_occupancy
  Zn  Zn0  1  0.749999  0.907271  0.775548  1
  Zn  Zn1  1  0.749999  0.592073  0.274970  1
  Zn  Zn2  1  0.250002  0.407905  0.725012  1
  Zn  Zn3  1  0.250003  0.092745  0.224328  1
  Ag  Ag4  1  0.750002  0.367880  0.882447  1
  Ag  Ag5  1  0.250000  0.631848  0.117465  1
  Ag  Ag6  1  0.249999  0.869209  0.617805  1
  Ag  Ag7  1  0.750002  0.130202  0.382289  1
  Ag  Ag8  1  0.499997  0.000188  0.000031  1
  Ag  Ag9  1  0.500054  0.500186  0.499954  1
  Ag  Ag10  1  -0.000054  0.500187  0.499954  1
  Ag  Ag11  1  0.000004  0.000188  0.000031  1
  P  P12  1  0.250001  0.378793  0.922485  1
  P  P13  1  0.749999  0.621522  0.077678  1
  P  P14  1  0.749999  0.879300  0.578170  1
  P  P15  1  0.250002  0.120884  0.421910  1
  P  P16  1  0.750001  0.382361  0.707317  1
  P  P17  1  0.750000  0.118181  0.206863  1
  P  P18  1  0.250000  0.882042  0.793075  1
  P  P19  1  0.250000  0.617630  0.292664  1
  O  O20  1  0.044398  0.612233  0.343092  1
  O  O21  1  0.544385  0.387732  0.656941  1
  O  O22  1  0.955588  0.111580  0.156375  1
  O  O23  1  0.455581  0.888304  0.843531  1
  O  O24  1  0.955614  0.387732  0.656940  1
  O  O25  1  0.455604  0.612232  0.343092  1
  O  O26  1  0.044421  0.888304  0.843532  1
  O  O27  1  0.544410  0.111580  0.156375  1
  O  O28  1  0.250001  0.304585  0.476494  1
  O  O29  1  0.749999  0.695613  0.523465  1
  O  O30  1  0.749999  0.804108  0.023376  1
  O  O31  1  0.250001  0.196086  0.976691  1
  O  O32  1  0.750000  0.116710  0.943983  1
  O  O33  1  0.250000  0.883337  0.055935  1
  O  O34  1  0.250000  0.618372  0.555550  1
  O  O35  1  0.750000  0.381269  0.444674  1
  O  O36  1  0.750002  0.199657  0.763180  1
  O  O37  1  0.250000  0.800435  0.236959  1
  O  O38  1  0.250000  0.698443  0.737598  1
  O  O39  1  0.750000  0.302074  0.261936  1
  O  O40  1  0.427492  0.125311  0.355355  1
  O  O41  1  0.927626  0.874359  0.644805  1
  O  O42  1  0.572671  0.625056  0.144146  1
  O  O43  1  0.072473  0.374864  0.855785  1
  O  O44  1  0.572372  0.874360  0.644804  1
  O  O45  1  0.072511  0.125311  0.355354  1
  O  O46  1  0.427530  0.374863  0.855785  1
  O  O47  1  0.927328  0.625057  0.144146  1
  O  O48  1  0.750000  0.454228  0.018814  1
  O  O49  1  0.250000  0.049361  0.727421  1
  O  O50  1  0.250000  0.449907  0.226726  1
  O  O51  1  0.750000  0.550040  0.773391  1
  O  O52  1  0.750000  0.044766  0.519999  1
  O  O53  1  0.250001  0.955050  0.480342  1
  O  O54  1  0.250001  0.545589  0.980981  1
  O  O55  1  0.750001  0.950891  0.272429  1
