# generated using pymatgen
data_AlMoO3
_symmetry_space_group_name_H-M   'P 1'
_cell_length_a   5.22137183
_cell_length_b   5.19459063
_cell_length_c   8.20534585
_cell_angle_alpha   89.99456251
_cell_angle_beta   90.00040466
_cell_angle_gamma   89.99975791
_symmetry_Int_Tables_number   1
_chemical_formula_structural   AlMoO3
_chemical_formula_sum   'Al4 Mo4 O12'
_cell_volume   222.55268508
_cell_formula_units_Z   4
loop_
 _symmetry_equiv_pos_site_id
 _symmetry_equiv_pos_as_xyz
  1  'x, y, z'
loop_
 _atom_site_type_symbol
 _atom_site_label
 _atom_site_symmetry_multiplicity
 _atom_site_fract_x
 _atom_site_fract_y
 _atom_site_fract_z
 _atom_site_occupancy
  Al  Al0  1  0.973478  0.000999  0.750018  1
  Al  Al1  1  0.473476  0.498999  0.249987  1
  Al  Al2  1  0.526524  0.501001  0.750013  1
  Al  Al3  1  0.026521  0.999001  0.249982  1
  Mo  Mo4  1  0.000000  0.500000  0.500000  1
  Mo  Mo5  1  0.500000  0.000000  0.500000  1
  Mo  Mo6  1  0.500000  0.000000  0.000000  1
  Mo  Mo7  1  1.000000  0.500000  0.000000  1
  O  O8  1  0.646270  0.352585  0.411070  1
  O  O9  1  0.146272  0.147414  0.588939  1
  O  O10  1  0.853725  0.852541  0.088938  1
  O  O11  1  0.353722  0.647460  0.911052  1
  O  O12  1  0.353731  0.647415  0.588930  1
  O  O13  1  0.853728  0.852586  0.411061  1
  O  O14  1  0.146274  0.147459  0.911061  1
  O  O15  1  0.646278  0.352540  0.088948  1
  O  O16  1  0.145784  0.343266  0.249997  1
  O  O17  1  0.645787  0.156735  0.750006  1
  O  O18  1  0.354213  0.843264  0.249994  1
  O  O19  1  0.854217  0.656734  0.750003  1
