# generated using pymatgen
data_CaP4W3O14
_symmetry_space_group_name_H-M   'P 1'
_cell_length_a   8.06550316
_cell_length_b   7.36870953
_cell_length_c   10.12017578
_cell_angle_alpha   90.00000000
_cell_angle_beta   101.13219932
_cell_angle_gamma   90.00000000
_symmetry_Int_Tables_number   1
_chemical_formula_structural   CaP4W3O14
_chemical_formula_sum   'Ca2 P8 W6 O28'
_cell_volume   590.14883716
_cell_formula_units_Z   2
loop_
 _symmetry_equiv_pos_site_id
 _symmetry_equiv_pos_as_xyz
  1  'x, y, z'
loop_
 _atom_site_type_symbol
 _atom_site_label
 _atom_site_symmetry_multiplicity
 _atom_site_fract_x
 _atom_site_fract_y
 _atom_site_fract_z
 _atom_site_occupancy
  Ca  Ca0  1  0.500000  0.000000  0.000000  1
  Ca  Ca1  1  0.500000  0.500000  0.500000  1
  P  P2  1  0.571522  0.094998  0.683298  1
  P  P3  1  0.428478  0.594998  0.816702  1
  P  P4  1  0.428478  0.905002  0.316702  1
  P  P5  1  0.571522  0.405002  0.183298  1
  P  P6  1  0.842320  0.817638  0.677509  1
  P  P7  1  0.157680  0.317638  0.822491  1
  P  P8  1  0.157680  0.182362  0.322491  1
  P  P9  1  0.842320  0.682362  0.177509  1
  W  W10  1  0.188236  0.849102  0.548751  1
  W  W11  1  0.811764  0.349102  0.951249  1
  W  W12  1  0.811764  0.150898  0.451249  1
  W  W13  1  0.188236  0.650898  0.048751  1
  W  W14  1  0.000000  0.000000  0.000000  1
  W  W15  1  0.000000  0.500000  0.500000  1
  O  O16  1  0.811222  0.632225  0.606891  1
  O  O17  1  0.188778  0.132225  0.893109  1
  O  O18  1  0.188778  0.367775  0.393109  1
  O  O19  1  0.811222  0.867775  0.106891  1
  O  O20  1  0.359754  0.646883  0.668039  1
  O  O21  1  0.640246  0.146883  0.831961  1
  O  O22  1  0.640246  0.353117  0.331961  1
  O  O23  1  0.359754  0.853117  0.168039  1
  O  O24  1  0.631408  0.230038  0.584719  1
  O  O25  1  0.368592  0.730038  0.915281  1
  O  O26  1  0.368592  0.769962  0.415281  1
  O  O27  1  0.631408  0.269962  0.084719  1
  O  O28  1  0.653773  0.901791  0.655229  1
  O  O29  1  0.346227  0.401791  0.844771  1
  O  O30  1  0.346227  0.098209  0.344771  1
  O  O31  1  0.653773  0.598209  0.155229  1
  O  O32  1  0.383690  0.435477  0.157825  1
  O  O33  1  0.616310  0.935477  0.342175  1
  O  O34  1  0.616310  0.564523  0.842175  1
  O  O35  1  0.383690  0.064523  0.657825  1
  O  O36  1  0.082875  0.178569  0.173877  1
  O  O37  1  0.917125  0.678569  0.326123  1
  O  O38  1  0.917125  0.821431  0.826123  1
  O  O39  1  0.082875  0.321431  0.673877  1
  O  O40  1  0.944592  0.551844  0.100551  1
  O  O41  1  0.055408  0.051844  0.399449  1
  O  O42  1  0.055408  0.448156  0.899449  1
  O  O43  1  0.944592  0.948156  0.600551  1
