# generated using pymatgen
data_CaCo4O9
_symmetry_space_group_name_H-M   'P 1'
_cell_length_a   5.19515180
_cell_length_b   8.27551708
_cell_length_c   8.26201458
_cell_angle_alpha   90.10576829
_cell_angle_beta   89.96221824
_cell_angle_gamma   90.04044815
_symmetry_Int_Tables_number   1
_chemical_formula_structural   CaCo4O9
_chemical_formula_sum   'Ca2 Co8 O18'
_cell_volume   355.20444797
_cell_formula_units_Z   2
loop_
 _symmetry_equiv_pos_site_id
 _symmetry_equiv_pos_as_xyz
  1  'x, y, z'
loop_
 _atom_site_type_symbol
 _atom_site_label
 _atom_site_symmetry_multiplicity
 _atom_site_fract_x
 _atom_site_fract_y
 _atom_site_fract_z
 _atom_site_occupancy
  Ca  Ca0  1  0.137761  0.250216  0.250046  1
  Ca  Ca1  1  0.862334  0.750394  0.749875  1
  Co  Co2  1  0.608248  0.535830  0.338430  1
  Co  Co3  1  0.392432  0.838556  0.464014  1
  Co  Co4  1  0.608436  0.338903  0.963852  1
  Co  Co5  1  0.393296  0.036184  0.838482  1
  Co  Co6  1  0.606362  0.963621  0.161489  1
  Co  Co7  1  0.607524  0.161258  0.536228  1
  Co  Co8  1  0.390722  0.463167  0.661611  1
  Co  Co9  1  0.392606  0.661291  0.035833  1
  O  O10  1  0.504021  0.750260  0.249776  1
  O  O11  1  0.497304  0.250509  0.750313  1
  O  O12  1  0.082392  0.677929  0.993963  1
  O  O13  1  0.080384  0.505560  0.677512  1
  O  O14  1  0.082823  0.993990  0.822813  1
  O  O15  1  0.081826  0.822700  0.505683  1
  O  O16  1  0.918648  0.322500  0.005784  1
  O  O17  1  0.918663  0.493341  0.323235  1
  O  O18  1  0.916170  0.006996  0.177779  1
  O  O19  1  0.917512  0.177584  0.493763  1
  O  O20  1  0.447944  0.039987  0.355560  1
  O  O21  1  0.454716  0.144321  0.040668  1
  O  O22  1  0.453236  0.355073  0.459994  1
  O  O23  1  0.449700  0.460351  0.143753  1
  O  O24  1  0.550643  0.539535  0.855224  1
  O  O25  1  0.547573  0.855911  0.959848  1
  O  O26  1  0.544227  0.643430  0.540351  1
  O  O27  1  0.552497  0.960602  0.644120  1
