# generated using pymatgen
data_CrBiO5
_symmetry_space_group_name_H-M   'P 1'
_cell_length_a   5.85796229
_cell_length_b   8.98729635
_cell_length_c   11.16385141
_cell_angle_alpha   89.81120948
_cell_angle_beta   89.98624611
_cell_angle_gamma   109.85501937
_symmetry_Int_Tables_number   1
_chemical_formula_structural   CrBiO5
_chemical_formula_sum   'Cr4 Bi4 O20'
_cell_volume   552.80389254
_cell_formula_units_Z   4
loop_
 _symmetry_equiv_pos_site_id
 _symmetry_equiv_pos_as_xyz
  1  'x, y, z'
loop_
 _atom_site_type_symbol
 _atom_site_label
 _atom_site_symmetry_multiplicity
 _atom_site_fract_x
 _atom_site_fract_y
 _atom_site_fract_z
 _atom_site_occupancy
  Cr  Cr0  1  0.785581  0.947358  0.649171  1
  Cr  Cr1  1  0.214417  0.052687  0.350825  1
  Cr  Cr2  1  0.712983  0.551496  0.148838  1
  Cr  Cr3  1  0.287008  0.448487  0.851170  1
  Bi  Bi4  1  0.174538  0.172620  0.090566  1
  Bi  Bi5  1  0.825472  0.827358  0.909430  1
  Bi  Bi6  1  0.670015  0.673259  0.408323  1
  Bi  Bi7  1  0.329980  0.326743  0.591682  1
  O  O8  1  0.554798  0.371521  0.094366  1
  O  O9  1  0.092426  0.340311  0.956353  1
  O  O10  1  0.531016  0.646400  0.195597  1
  O  O11  1  0.682475  0.513479  0.550753  1
  O  O12  1  0.860399  0.537131  0.273161  1
  O  O13  1  0.363521  0.037303  0.227283  1
  O  O14  1  0.591741  0.839019  0.544252  1
  O  O15  1  0.408271  0.161002  0.455755  1
  O  O16  1  0.317530  0.486514  0.449243  1
  O  O17  1  0.945966  0.126856  0.593798  1
  O  O18  1  0.139588  0.462831  0.726845  1
  O  O19  1  0.445189  0.628454  0.905626  1
  O  O20  1  0.054035  0.873192  0.406198  1
  O  O21  1  0.636495  0.962723  0.772730  1
  O  O22  1  0.820216  0.986898  0.052465  1
  O  O23  1  0.179791  0.013085  0.947526  1
  O  O24  1  0.468981  0.353571  0.804400  1
  O  O25  1  0.907560  0.659653  0.043649  1
  O  O26  1  0.966044  0.852268  0.698226  1
  O  O27  1  0.033963  0.147780  0.301770  1
