# generated using pymatgen
data_Ca2AgSbO6
_symmetry_space_group_name_H-M   'P 1'
_cell_length_a   5.82081810
_cell_length_b   6.08640133
_cell_length_c   7.72052325
_cell_angle_alpha   90.00000000
_cell_angle_beta   90.00000000
_cell_angle_gamma   101.81520379
_symmetry_Int_Tables_number   1
_chemical_formula_structural   Ca2AgSbO6
_chemical_formula_sum   'Ca4 Ag2 Sb2 O12'
_cell_volume   267.72634990
_cell_formula_units_Z   2
loop_
 _symmetry_equiv_pos_site_id
 _symmetry_equiv_pos_as_xyz
  1  'x, y, z'
loop_
 _atom_site_type_symbol
 _atom_site_label
 _atom_site_symmetry_multiplicity
 _atom_site_fract_x
 _atom_site_fract_y
 _atom_site_fract_z
 _atom_site_occupancy
  Ca  Ca0  1  0.525656  0.574002  0.750000  1
  Ca  Ca1  1  0.474344  0.425998  0.250000  1
  Ca  Ca2  1  0.038443  0.041382  0.750000  1
  Ca  Ca3  1  0.961557  0.958618  0.250000  1
  Ag  Ag4  1  0.500000  0.000000  0.500000  1
  Ag  Ag5  1  0.500000  0.000000  0.000000  1
  Sb  Sb6  1  0.000000  0.500000  0.500000  1
  Sb  Sb7  1  0.000000  0.500000  0.000000  1
  O  O8  1  0.336973  0.668508  0.456952  1
  O  O9  1  0.128955  0.231643  0.054077  1
  O  O10  1  0.663027  0.331492  0.956952  1
  O  O11  1  0.871045  0.768357  0.554077  1
  O  O12  1  0.128955  0.231643  0.445923  1
  O  O13  1  0.871045  0.768357  0.945923  1
  O  O14  1  0.903230  0.557912  0.250000  1
  O  O15  1  0.336973  0.668508  0.043048  1
  O  O16  1  0.397402  0.928807  0.750000  1
  O  O17  1  0.663027  0.331492  0.543048  1
  O  O18  1  0.096770  0.442088  0.750000  1
  O  O19  1  0.602598  0.071193  0.250000  1
