# generated using pymatgen
data_CaTi2O4
_symmetry_space_group_name_H-M   'P 1'
_cell_length_a   6.28540282
_cell_length_b   6.27654225
_cell_length_c   6.28114421
_cell_angle_alpha   90.08346918
_cell_angle_beta   119.99502811
_cell_angle_gamma   119.91857016
_symmetry_Int_Tables_number   1
_chemical_formula_structural   CaTi2O4
_chemical_formula_sum   'Ca2 Ti4 O8'
_cell_volume   175.31839578
_cell_formula_units_Z   2
loop_
 _symmetry_equiv_pos_site_id
 _symmetry_equiv_pos_as_xyz
  1  'x, y, z'
loop_
 _atom_site_type_symbol
 _atom_site_label
 _atom_site_symmetry_multiplicity
 _atom_site_fract_x
 _atom_site_fract_y
 _atom_site_fract_z
 _atom_site_occupancy
  Ca  Ca0  1  0.249276  0.125009  0.875059  1
  Ca  Ca1  1  0.750699  0.874992  0.124909  1
  Ti  Ti2  1  0.500128  0.999999  0.499902  1
  Ti  Ti3  1  0.500115  0.500106  0.500209  1
  Ti  Ti4  1  0.999872  0.500103  0.000014  1
  Ti  Ti5  1  0.999897  0.499807  0.499893  1
  O  O6  1  0.035238  0.733405  0.267342  1
  O  O7  1  0.465829  0.733416  0.697975  1
  O  O8  1  0.464837  0.732169  0.266264  1
  O  O9  1  0.964682  0.698164  0.733239  1
  O  O10  1  0.535048  0.267641  0.733607  1
  O  O11  1  0.534066  0.266632  0.301998  1
  O  O12  1  0.035432  0.301826  0.266710  1
  O  O13  1  0.964882  0.266733  0.732878  1
