# generated using pymatgen
data_Te(WO4)2
_symmetry_space_group_name_H-M   'P 1'
_cell_length_a   5.27901484
_cell_length_b   5.74853518
_cell_length_c   10.21702563
_cell_angle_alpha   90.00000000
_cell_angle_beta   96.99482998
_cell_angle_gamma   90.00000000
_symmetry_Int_Tables_number   1
_chemical_formula_structural   Te(WO4)2
_chemical_formula_sum   'Te2 W4 O16'
_cell_volume   307.74434315
_cell_formula_units_Z   2
loop_
 _symmetry_equiv_pos_site_id
 _symmetry_equiv_pos_as_xyz
  1  'x, y, z'
loop_
 _atom_site_type_symbol
 _atom_site_label
 _atom_site_symmetry_multiplicity
 _atom_site_fract_x
 _atom_site_fract_y
 _atom_site_fract_z
 _atom_site_occupancy
  Te  Te0  1  0.750000  0.403818  0.250000  1
  Te  Te1  1  0.250000  0.596181  0.750000  1
  W  W2  1  0.240795  0.153187  0.490437  1
  W  W3  1  0.259204  0.153187  0.009564  1
  W  W4  1  0.759205  0.846813  0.509563  1
  W  W5  1  0.740796  0.846813  0.990436  1
  O  O6  1  0.398543  0.389894  0.117766  1
  O  O7  1  0.101456  0.389894  0.382233  1
  O  O8  1  0.601457  0.610105  0.882234  1
  O  O9  1  0.898543  0.610105  0.617767  1
  O  O10  1  0.451859  0.874934  0.590089  1
  O  O11  1  0.048141  0.874934  0.909911  1
  O  O12  1  0.548141  0.125066  0.409911  1
  O  O13  1  0.951859  0.125066  0.090089  1
  O  O14  1  0.867756  0.637328  0.134244  1
  O  O15  1  0.632244  0.637328  0.365756  1
  O  O16  1  0.132244  0.362673  0.865756  1
  O  O17  1  0.367756  0.362673  0.634244  1
  O  O18  1  0.468468  0.922810  0.107470  1
  O  O19  1  0.531532  0.077191  0.892530  1
  O  O20  1  0.031533  0.922810  0.392531  1
  O  O21  1  0.968467  0.077191  0.607469  1
