# generated using pymatgen
data_CaTi3P3O13
_symmetry_space_group_name_H-M   'P 1'
_cell_length_a   6.47357294
_cell_length_b   7.75499131
_cell_length_c   10.40547557
_cell_angle_alpha   99.77846420
_cell_angle_beta   90.00000000
_cell_angle_gamma   90.00000000
_symmetry_Int_Tables_number   1
_chemical_formula_structural   CaTi3P3O13
_chemical_formula_sum   'Ca2 Ti6 P6 O26'
_cell_volume   514.79165532
_cell_formula_units_Z   2
loop_
 _symmetry_equiv_pos_site_id
 _symmetry_equiv_pos_as_xyz
  1  'x, y, z'
loop_
 _atom_site_type_symbol
 _atom_site_label
 _atom_site_symmetry_multiplicity
 _atom_site_fract_x
 _atom_site_fract_y
 _atom_site_fract_z
 _atom_site_occupancy
  Ca  Ca0  1  0.750000  0.650322  0.191420  1
  Ca  Ca1  1  0.250000  0.349678  0.808580  1
  Ti  Ti2  1  0.250000  0.351212  0.199889  1
  Ti  Ti3  1  0.750000  0.648788  0.800111  1
  Ti  Ti4  1  0.250000  0.792608  0.436405  1
  Ti  Ti5  1  0.500000  -0.000000  -0.000000  1
  Ti  Ti6  1  0.750000  0.207392  0.563595  1
  Ti  Ti7  1  0.000000  -0.000000  -0.000000  1
  P  P8  1  0.250000  0.219280  0.490684  1
  P  P9  1  0.750000  0.780720  0.509316  1
  P  P10  1  0.250000  0.737145  0.761485  1
  P  P11  1  0.750000  0.262855  0.238515  1
  P  P12  1  0.750000  0.317831  0.884747  1
  P  P13  1  0.250000  0.682169  0.115253  1
  O  O14  1  0.750000  0.359963  0.742448  1
  O  O15  1  0.561469  0.750553  0.416315  1
  O  O16  1  0.250000  0.784906  0.624877  1
  O  O17  1  0.551088  0.213291  0.902682  1
  O  O18  1  0.750000  0.659193  0.609947  1
  O  O19  1  0.750000  0.866374  0.904904  1
  O  O20  1  0.250000  0.340807  0.390053  1
  O  O21  1  0.051088  0.786709  0.097318  1
  O  O22  1  0.250000  0.025860  0.416095  1
  O  O23  1  0.750000  0.974140  0.583905  1
  O  O24  1  0.063540  0.621058  0.785339  1
  O  O25  1  0.250000  0.133626  0.095096  1
  O  O26  1  0.563540  0.378942  0.214661  1
  O  O27  1  0.750000  0.504939  0.964982  1
  O  O28  1  0.750000  0.215094  0.375123  1
  O  O29  1  0.448912  0.786709  0.097318  1
  O  O30  1  0.938531  0.750553  0.416315  1
  O  O31  1  0.438531  0.249447  0.583685  1
  O  O32  1  0.436460  0.621058  0.785339  1
  O  O33  1  0.250000  0.640037  0.257552  1
  O  O34  1  0.750000  0.090586  0.134956  1
  O  O35  1  0.250000  0.909414  0.865044  1
  O  O36  1  0.936460  0.378942  0.214661  1
  O  O37  1  0.948912  0.213291  0.902682  1
  O  O38  1  0.061469  0.249447  0.583685  1
  O  O39  1  0.250000  0.495061  0.035018  1
