# generated using pymatgen
data_V2ZnP2O9
_symmetry_space_group_name_H-M   'P 1'
_cell_length_a   6.30484698
_cell_length_b   7.44561240
_cell_length_c   14.32497591
_cell_angle_alpha   90.00323955
_cell_angle_beta   89.99990181
_cell_angle_gamma   89.99921159
_symmetry_Int_Tables_number   1
_chemical_formula_structural   V2ZnP2O9
_chemical_formula_sum   'V8 Zn4 P8 O36'
_cell_volume   672.46374477
_cell_formula_units_Z   4
loop_
 _symmetry_equiv_pos_site_id
 _symmetry_equiv_pos_as_xyz
  1  'x, y, z'
loop_
 _atom_site_type_symbol
 _atom_site_label
 _atom_site_symmetry_multiplicity
 _atom_site_fract_x
 _atom_site_fract_y
 _atom_site_fract_z
 _atom_site_occupancy
  V  V0  1  0.750001  0.352830  0.877601  1
  V  V1  1  0.249993  0.647157  0.122401  1
  V  V2  1  0.250014  0.852845  0.622393  1
  V  V3  1  0.749986  0.147139  0.377606  1
  V  V4  1  0.500006  0.999997  0.000003  1
  V  V5  1  0.500006  0.499994  0.499994  1
  V  V6  1  0.000006  0.499998  0.499995  1
  V  V7  1  -0.000003  -0.000001  0.000002  1
  Zn  Zn8  1  0.750005  0.929482  0.768772  1
  Zn  Zn9  1  0.749992  0.570450  0.268755  1
  Zn  Zn10  1  0.250002  0.429592  0.731239  1
  Zn  Zn11  1  0.249993  0.070568  0.231229  1
  P  P12  1  0.249999  0.366387  0.929361  1
  P  P13  1  0.749997  0.633609  0.070641  1
  P  P14  1  0.750006  0.866396  0.570636  1
  P  P15  1  0.249995  0.133592  0.429363  1
  P  P16  1  0.750003  0.386413  0.694168  1
  P  P17  1  0.750001  0.113621  0.194163  1
  P  P18  1  0.249998  0.886384  0.805838  1
  P  P19  1  0.250000  0.613597  0.305832  1
  O  O20  1  0.039126  0.605115  0.363994  1
  O  O21  1  0.539136  0.394911  0.636005  1
  O  O22  1  0.960872  0.105169  0.136004  1
  O  O23  1  0.460869  0.894855  0.863997  1
  O  O24  1  0.960876  0.394917  0.636006  1
  O  O25  1  0.460875  0.605119  0.363992  1
  O  O26  1  0.039128  0.894849  0.863996  1
  O  O27  1  0.539125  0.105160  0.136005  1
  O  O28  1  0.250006  0.322925  0.474913  1
  O  O29  1  0.750000  0.677065  0.525079  1
  O  O30  1  0.750003  0.822945  0.025101  1
  O  O31  1  0.249997  0.177052  0.974907  1
  O  O32  1  0.749998  0.132304  0.952859  1
  O  O33  1  0.250004  0.867687  0.047145  1
  O  O34  1  0.250000  0.632327  0.547127  1
  O  O35  1  0.750014  0.367667  0.452863  1
  O  O36  1  0.750009  0.206846  0.752991  1
  O  O37  1  0.249988  0.793154  0.246999  1
  O  O38  1  0.250013  0.706827  0.746990  1
  O  O39  1  0.749985  0.293171  0.253016  1
  O  O40  1  0.437666  0.122131  0.358654  1
  O  O41  1  0.937681  0.877830  0.641346  1
  O  O42  1  0.562326  0.622161  0.141347  1
  O  O43  1  0.062325  0.377838  0.858655  1
  O  O44  1  0.562335  0.877839  0.641350  1
  O  O45  1  0.062319  0.122144  0.358656  1
  O  O46  1  0.437671  0.377833  0.858654  1
  O  O47  1  0.937669  0.622147  0.141345  1
  O  O48  1  0.749994  0.488401  0.998596  1
  O  O49  1  0.249989  0.038075  0.732003  1
  O  O50  1  0.250008  0.461881  0.231995  1
  O  O51  1  0.749999  0.538104  0.768018  1
  O  O52  1  0.749994  0.011603  0.498610  1
  O  O53  1  0.250002  0.988385  0.501398  1
  O  O54  1  0.250000  0.511592  0.001403  1
  O  O55  1  0.750016  0.961912  0.267989  1
