# generated using pymatgen
data_MgCoF6
_symmetry_space_group_name_H-M   'P 1'
_cell_length_a   5.39061592
_cell_length_b   5.39061538
_cell_length_c   5.39061507
_cell_angle_alpha   58.21050662
_cell_angle_beta   58.21050530
_cell_angle_gamma   58.21051012
_symmetry_Int_Tables_number   1
_chemical_formula_structural   MgCoF6
_chemical_formula_sum   'Mg1 Co1 F6'
_cell_volume   106.22280660
_cell_formula_units_Z   1
loop_
 _symmetry_equiv_pos_site_id
 _symmetry_equiv_pos_as_xyz
  1  'x, y, z'
loop_
 _atom_site_type_symbol
 _atom_site_label
 _atom_site_symmetry_multiplicity
 _atom_site_fract_x
 _atom_site_fract_y
 _atom_site_fract_z
 _atom_site_occupancy
  Mg  Mg0  1  0.500000  0.500000  0.500000  1
  Co  Co1  1  0.000000  0.000000  0.000000  1
  F  F2  1  0.326622  0.153787  0.760918  1
  F  F3  1  0.153787  0.760918  0.326622  1
  F  F4  1  0.239082  0.673378  0.846213  1
  F  F5  1  0.846213  0.239082  0.673378  1
  F  F6  1  0.673378  0.846213  0.239082  1
  F  F7  1  0.760918  0.326622  0.153787  1
