# generated using pymatgen
data_CaVF5
_symmetry_space_group_name_H-M   'P 1'
_cell_length_a   5.63313164
_cell_length_b   5.65109191
_cell_length_c   7.89291308
_cell_angle_alpha   96.68345795
_cell_angle_beta   111.56913207
_cell_angle_gamma   108.54555611
_symmetry_Int_Tables_number   1
_chemical_formula_structural   CaVF5
_chemical_formula_sum   'Ca2 V2 F10'
_cell_volume   213.63266631
_cell_formula_units_Z   2
loop_
 _symmetry_equiv_pos_site_id
 _symmetry_equiv_pos_as_xyz
  1  'x, y, z'
loop_
 _atom_site_type_symbol
 _atom_site_label
 _atom_site_symmetry_multiplicity
 _atom_site_fract_x
 _atom_site_fract_y
 _atom_site_fract_z
 _atom_site_occupancy
  Ca  Ca0  1  0.294219  0.545265  0.750331  1
  Ca  Ca1  1  0.705369  0.456886  0.251084  1
  V  V2  1  0.999206  0.000747  0.000786  1
  V  V3  1  0.500228  0.001345  0.500499  1
  F  F4  1  0.337512  0.092993  0.251727  1
  F  F5  1  0.662557  0.908473  0.748921  1
  F  F6  1  0.597378  0.756141  0.380639  1
  F  F7  1  0.864857  0.212386  0.117273  1
  F  F8  1  0.746851  0.696441  0.034565  1
  F  F9  1  0.163435  0.715876  0.469299  1
  F  F10  1  0.249669  0.305323  0.966677  1
  F  F11  1  0.836357  0.289403  0.532851  1
  F  F12  1  0.132394  0.787319  0.884072  1
  F  F13  1  0.402395  0.247854  0.619565  1
