# generated using pymatgen
data_TaTi(PO4)3
_symmetry_space_group_name_H-M   'P 1'
_cell_length_a   8.88366965
_cell_length_b   8.88366962
_cell_length_c   8.88367002
_cell_angle_alpha   58.75433899
_cell_angle_beta   58.75434384
_cell_angle_gamma   58.75435193
_symmetry_Int_Tables_number   1
_chemical_formula_structural   TaTi(PO4)3
_chemical_formula_sum   'Ta2 Ti2 P6 O24'
_cell_volume   481.64318934
_cell_formula_units_Z   2
loop_
 _symmetry_equiv_pos_site_id
 _symmetry_equiv_pos_as_xyz
  1  'x, y, z'
loop_
 _atom_site_type_symbol
 _atom_site_label
 _atom_site_symmetry_multiplicity
 _atom_site_fract_x
 _atom_site_fract_y
 _atom_site_fract_z
 _atom_site_occupancy
  Ta  Ta0  1  0.360749  0.360749  0.360749  1
  Ta  Ta1  1  0.860749  0.860749  0.860749  1
  Ti  Ti2  1  0.139841  0.139841  0.139841  1
  Ti  Ti3  1  0.639841  0.639841  0.639841  1
  P  P4  1  0.029527  0.465176  0.753442  1
  P  P5  1  0.465176  0.753442  0.029527  1
  P  P6  1  0.753442  0.029527  0.465176  1
  P  P7  1  0.253442  0.965176  0.529527  1
  P  P8  1  0.529527  0.253442  0.965176  1
  P  P9  1  0.965176  0.529527  0.253442  1
  O  O10  1  0.136846  0.502027  0.282298  1
  O  O11  1  0.282298  0.136846  0.502027  1
  O  O12  1  0.061410  0.287560  0.922539  1
  O  O13  1  0.502027  0.282298  0.136846  1
  O  O14  1  0.002027  0.636847  0.782298  1
  O  O15  1  0.211117  0.441568  0.579322  1
  O  O16  1  0.287560  0.922539  0.061410  1
  O  O17  1  0.441568  0.579322  0.211117  1
  O  O18  1  0.215510  0.998903  0.363905  1
  O  O19  1  0.579322  0.211117  0.441568  1
  O  O20  1  0.079322  0.941568  0.711117  1
  O  O21  1  0.363905  0.215510  0.998903  1
  O  O22  1  0.636847  0.782298  0.002027  1
  O  O23  1  0.922539  0.061410  0.287560  1
  O  O24  1  0.422539  0.787560  0.561410  1
  O  O25  1  0.782298  0.002027  0.636847  1
  O  O26  1  0.561410  0.422539  0.787560  1
  O  O27  1  0.711117  0.079322  0.941568  1
  O  O28  1  0.787560  0.561410  0.422539  1
  O  O29  1  0.998903  0.363905  0.215510  1
  O  O30  1  0.498903  0.715510  0.863905  1
  O  O31  1  0.941568  0.711117  0.079322  1
  O  O32  1  0.715510  0.863905  0.498903  1
  O  O33  1  0.863905  0.498903  0.715510  1
