# generated using pymatgen
data_VO2
_symmetry_space_group_name_H-M   'P 1'
_cell_length_a   5.24356685
_cell_length_b   5.87755296
_cell_length_c   10.76466582
_cell_angle_alpha   89.92293825
_cell_angle_beta   90.00183803
_cell_angle_gamma   87.14983429
_symmetry_Int_Tables_number   1
_chemical_formula_structural   VO2
_chemical_formula_sum   'V8 O16'
_cell_volume   331.34922249
_cell_formula_units_Z   8
loop_
 _symmetry_equiv_pos_site_id
 _symmetry_equiv_pos_as_xyz
  1  'x, y, z'
loop_
 _atom_site_type_symbol
 _atom_site_label
 _atom_site_symmetry_multiplicity
 _atom_site_fract_x
 _atom_site_fract_y
 _atom_site_fract_z
 _atom_site_occupancy
  V  V0  1  0.498376  0.749748  0.495290  1
  V  V1  1  0.498487  0.749720  0.004781  1
  V  V2  1  0.501571  0.250225  0.504748  1
  V  V3  1  0.501569  0.250246  0.995212  1
  V  V4  1  -0.000018  0.500038  0.499961  1
  V  V5  1  -0.000005  0.000052  0.000032  1
  V  V6  1  0.999990  0.000017  0.499990  1
  V  V7  1  0.000017  0.499969  0.999995  1
  O  O8  1  0.839076  0.743456  0.409023  1
  O  O9  1  0.839298  0.742995  0.091020  1
  O  O10  1  0.160865  0.256522  0.590965  1
  O  O11  1  0.160709  0.257018  0.908992  1
  O  O12  1  0.163881  0.755774  0.588139  1
  O  O13  1  0.164019  0.756250  0.911910  1
  O  O14  1  0.836063  0.244189  0.411839  1
  O  O15  1  0.836024  0.243772  0.088104  1
  O  O16  1  0.661887  0.508822  0.589562  1
  O  O17  1  0.662917  0.004291  0.910405  1
  O  O18  1  0.337071  0.996085  0.410394  1
  O  O19  1  0.338188  0.490653  0.089570  1
  O  O20  1  0.338063  0.491147  0.410431  1
  O  O21  1  0.337160  0.995732  0.089602  1
  O  O22  1  0.662926  0.003896  0.589618  1
  O  O23  1  0.661867  0.509383  0.910420  1
