# generated using pymatgen
data_Ba2V3O8
_symmetry_space_group_name_H-M   'P 1'
_cell_length_a   3.88261665
_cell_length_b   3.88328787
_cell_length_c   12.16584942
_cell_angle_alpha   89.99979253
_cell_angle_beta   90.00030327
_cell_angle_gamma   90.65578919
_symmetry_Int_Tables_number   1
_chemical_formula_structural   Ba2V3O8
_chemical_formula_sum   'Ba2 V3 O8'
_cell_volume   183.41636739
_cell_formula_units_Z   1
loop_
 _symmetry_equiv_pos_site_id
 _symmetry_equiv_pos_as_xyz
  1  'x, y, z'
loop_
 _atom_site_type_symbol
 _atom_site_label
 _atom_site_symmetry_multiplicity
 _atom_site_fract_x
 _atom_site_fract_y
 _atom_site_fract_z
 _atom_site_occupancy
  Ba  Ba0  1  0.500008  0.499995  0.176538  1
  Ba  Ba1  1  0.500000  0.499996  0.823453  1
  V  V2  1  0.000043  0.999992  0.333822  1
  V  V3  1  0.999996  0.999967  0.000036  1
  V  V4  1  0.000011  0.999991  0.666191  1
  O  O5  1  0.999980  0.500019  0.345282  1
  O  O6  1  0.499972  0.000013  0.345270  1
  O  O7  1  0.500002  0.999997  0.000012  1
  O  O8  1  0.000003  0.000004  0.176437  1
  O  O9  1  0.999992  0.500019  0.654730  1
  O  O10  1  0.499989  0.000014  0.654699  1
  O  O11  1  0.000004  0.000000  0.823521  1
  O  O12  1  0.000001  0.499992  0.000010  1
