# generated using pymatgen
data_Ca3Si3(SnO6)2
_symmetry_space_group_name_H-M   'P 1'
_cell_length_a   10.94771501
_cell_length_b   10.94771533
_cell_length_c   10.94771495
_cell_angle_alpha   109.47122196
_cell_angle_beta   109.47122253
_cell_angle_gamma   109.47121810
_symmetry_Int_Tables_number   1
_chemical_formula_structural   Ca3Si3(SnO6)2
_chemical_formula_sum   'Ca12 Si12 Sn8 O48'
_cell_volume   1010.06324062
_cell_formula_units_Z   4
loop_
 _symmetry_equiv_pos_site_id
 _symmetry_equiv_pos_as_xyz
  1  'x, y, z'
loop_
 _atom_site_type_symbol
 _atom_site_label
 _atom_site_symmetry_multiplicity
 _atom_site_fract_x
 _atom_site_fract_y
 _atom_site_fract_z
 _atom_site_occupancy
  Ca  Ca0  1  0.375000  0.750000  0.125000  1
  Ca  Ca1  1  0.125000  0.250000  0.375000  1
  Ca  Ca2  1  0.375000  0.125000  0.250000  1
  Ca  Ca3  1  0.125000  0.375000  0.750000  1
  Ca  Ca4  1  0.875000  0.750000  0.625000  1
  Ca  Ca5  1  0.750000  0.125000  0.375000  1
  Ca  Ca6  1  0.750000  0.625000  0.875000  1
  Ca  Ca7  1  0.625000  0.250000  0.875000  1
  Ca  Ca8  1  0.250000  0.875000  0.625000  1
  Ca  Ca9  1  0.875000  0.625000  0.250000  1
  Ca  Ca10  1  0.625000  0.875000  0.750000  1
  Ca  Ca11  1  0.250000  0.375000  0.125000  1
  Si  Si12  1  0.250000  0.125000  0.875000  1
  Si  Si13  1  0.750000  0.875000  0.125000  1
  Si  Si14  1  0.375000  0.250000  0.625000  1
  Si  Si15  1  0.625000  0.375000  0.250000  1
  Si  Si16  1  0.125000  0.750000  0.875000  1
  Si  Si17  1  0.875000  0.125000  0.750000  1
  Si  Si18  1  0.750000  0.375000  0.625000  1
  Si  Si19  1  0.375000  0.625000  0.750000  1
  Si  Si20  1  0.125000  0.875000  0.250000  1
  Si  Si21  1  0.875000  0.250000  0.125000  1
  Si  Si22  1  0.625000  0.750000  0.375000  1
  Si  Si23  1  0.250000  0.625000  0.375000  1
  Sn  Sn24  1  0.000000  0.000000  0.000000  1
  Sn  Sn25  1  0.000000  0.500000  0.000000  1
  Sn  Sn26  1  0.000000  0.000000  0.500000  1
  Sn  Sn27  1  0.000000  0.500000  0.500000  1
  Sn  Sn28  1  0.500000  0.000000  0.500000  1
  Sn  Sn29  1  0.500000  0.500000  0.000000  1
  Sn  Sn30  1  0.500000  0.500000  0.500000  1
  Sn  Sn31  1  0.500000  0.000000  0.000000  1
  O  O32  1  0.279651  0.484895  0.375988  1
  O  O33  1  0.015105  0.294756  0.891093  1
  O  O34  1  0.124012  0.608907  0.903663  1
  O  O35  1  0.220349  0.596337  0.205244  1
  O  O36  1  0.220349  0.124012  0.015105  1
  O  O37  1  0.596337  0.205244  0.220349  1
  O  O38  1  0.608907  0.205244  0.484895  1
  O  O39  1  0.205244  0.220349  0.596337  1
  O  O40  1  0.891093  0.375988  0.596337  1
  O  O41  1  0.294756  0.903663  0.279651  1
  O  O42  1  0.903663  0.279651  0.294756  1
  O  O43  1  0.015105  0.220349  0.124012  1
  O  O44  1  0.205244  0.484895  0.608907  1
  O  O45  1  0.596337  0.891093  0.375988  1
  O  O46  1  0.124012  0.015105  0.220349  1
  O  O47  1  0.484895  0.608907  0.205244  1
  O  O48  1  0.375988  0.596337  0.891093  1
  O  O49  1  0.891093  0.015105  0.294756  1
  O  O50  1  0.608907  0.903663  0.124012  1
  O  O51  1  0.108907  0.624012  0.403663  1
  O  O52  1  0.903663  0.124012  0.608907  1
  O  O53  1  0.375988  0.279651  0.484895  1
  O  O54  1  0.294756  0.891093  0.015105  1
  O  O55  1  0.279651  0.294756  0.903663  1
  O  O56  1  0.720349  0.515105  0.624012  1
  O  O57  1  0.984895  0.705244  0.108907  1
  O  O58  1  0.875988  0.391093  0.096337  1
  O  O59  1  0.779651  0.403663  0.794756  1
  O  O60  1  0.779651  0.875988  0.984895  1
  O  O61  1  0.403663  0.794756  0.779651  1
  O  O62  1  0.391093  0.794756  0.515105  1
  O  O63  1  0.794756  0.779651  0.403663  1
  O  O64  1  0.720349  0.705244  0.096337  1
  O  O65  1  0.705244  0.108907  0.984895  1
  O  O66  1  0.624012  0.720349  0.515105  1
  O  O67  1  0.515105  0.624012  0.720349  1
  O  O68  1  0.096337  0.875988  0.391093  1
  O  O69  1  0.391093  0.096337  0.875988  1
  O  O70  1  0.108907  0.984895  0.705244  1
  O  O71  1  0.624012  0.403663  0.108907  1
  O  O72  1  0.515105  0.391093  0.794756  1
  O  O73  1  0.875988  0.984895  0.779651  1
  O  O74  1  0.403663  0.108907  0.624012  1
  O  O75  1  0.794756  0.515105  0.391093  1
  O  O76  1  0.984895  0.779651  0.875988  1
  O  O77  1  0.096337  0.720349  0.705244  1
  O  O78  1  0.705244  0.096337  0.720349  1
  O  O79  1  0.484895  0.375988  0.279651  1
