# generated using pymatgen
data_Zn3Cr6(FeO6)4
_symmetry_space_group_name_H-M   'P 1'
_cell_length_a   6.79428294
_cell_length_b   8.24056023
_cell_length_c   9.96271750
_cell_angle_alpha   105.25665492
_cell_angle_beta   105.98167842
_cell_angle_gamma   100.76211489
_symmetry_Int_Tables_number   1
_chemical_formula_structural   Zn3Cr6(FeO6)4
_chemical_formula_sum   'Zn3 Cr6 Fe4 O24'
_cell_volume   496.73059091
_cell_formula_units_Z   1
loop_
 _symmetry_equiv_pos_site_id
 _symmetry_equiv_pos_as_xyz
  1  'x, y, z'
loop_
 _atom_site_type_symbol
 _atom_site_label
 _atom_site_symmetry_multiplicity
 _atom_site_fract_x
 _atom_site_fract_y
 _atom_site_fract_z
 _atom_site_occupancy
  Zn  Zn0  1  -0.000000  0.500000  0.500000  1
  Zn  Zn1  1  0.273385  0.277654  0.787885  1
  Zn  Zn2  1  0.726615  0.722346  0.212115  1
  Cr  Cr3  1  0.776595  0.343006  0.732514  1
  Cr  Cr4  1  0.223405  0.656994  0.267486  1
  Cr  Cr5  1  0.901348  0.894067  0.661788  1
  Cr  Cr6  1  0.406358  0.722572  0.872680  1
  Cr  Cr7  1  0.098652  0.105933  0.338212  1
  Cr  Cr8  1  0.593642  0.277428  0.127320  1
  Fe  Fe9  1  0.382613  0.955790  0.602865  1
  Fe  Fe10  1  0.617386  0.044210  0.397135  1
  Fe  Fe11  1  0.044470  0.198931  0.016648  1
  Fe  Fe12  1  0.955530  0.801069  0.983352  1
  O  O13  1  0.890487  0.677795  0.577991  1
  O  O14  1  0.109513  0.322205  0.422009  1
  O  O15  1  0.297778  0.511067  0.764834  1
  O  O16  1  0.702222  0.488933  0.235166  1
  O  O17  1  0.775143  0.300601  0.556104  1
  O  O18  1  0.224857  0.699399  0.443896  1
  O  O19  1  0.661614  0.955512  0.570150  1
  O  O20  1  0.338386  0.044488  0.429850  1
  O  O21  1  0.641594  0.744460  0.003970  1
  O  O22  1  0.358406  0.255540  0.996030  1
  O  O23  1  0.457811  0.769037  0.265302  1
  O  O24  1  0.542189  0.230963  0.734698  1
  O  O25  1  0.149824  0.031914  0.655139  1
  O  O26  1  0.065665  0.052789  0.147100  1
  O  O27  1  0.934335  0.947211  0.852900  1
  O  O28  1  0.562891  0.154898  0.233657  1
  O  O29  1  0.437109  0.845102  0.766343  1
  O  O30  1  0.186436  0.449581  0.188008  1
  O  O31  1  0.813564  0.550419  0.811992  1
  O  O32  1  0.980588  0.285563  0.831213  1
  O  O33  1  0.019412  0.714437  0.168787  1
  O  O34  1  0.249246  0.779480  0.963177  1
  O  O35  1  0.750754  0.220520  0.036823  1
  O  O36  1  0.850176  0.968086  0.344861  1
