# generated using pymatgen
data_CaCo3O7
_symmetry_space_group_name_H-M   'P 1'
_cell_length_a   6.73948609
_cell_length_b   10.99854840
_cell_length_c   14.25753633
_cell_angle_alpha   90.00000000
_cell_angle_beta   90.00000000
_cell_angle_gamma   102.55954690
_symmetry_Int_Tables_number   1
_chemical_formula_structural   CaCo3O7
_chemical_formula_sum   'Ca8 Co24 O56'
_cell_volume   1031.54420155
_cell_formula_units_Z   8
loop_
 _symmetry_equiv_pos_site_id
 _symmetry_equiv_pos_as_xyz
  1  'x, y, z'
loop_
 _atom_site_type_symbol
 _atom_site_label
 _atom_site_symmetry_multiplicity
 _atom_site_fract_x
 _atom_site_fract_y
 _atom_site_fract_z
 _atom_site_occupancy
  Ca  Ca0  1  0.085931  0.736246  0.507282  1
  Ca  Ca1  1  0.337620  0.976743  0.874188  1
  Ca  Ca2  1  0.662380  0.523257  0.374188  1
  Ca  Ca3  1  0.662380  0.023257  0.125812  1
  Ca  Ca4  1  0.337620  0.476743  0.625812  1
  Ca  Ca5  1  0.085931  0.236246  0.992718  1
  Ca  Ca6  1  0.914069  0.263754  0.492718  1
  Ca  Ca7  1  0.914069  0.763754  0.007282  1
  Co  Co8  1  0.840114  0.979113  0.862177  1
  Co  Co9  1  0.398421  0.681618  0.013692  1
  Co  Co10  1  0.398421  0.181618  0.486308  1
  Co  Co11  1  0.601579  0.318382  0.986308  1
  Co  Co12  1  0.497276  0.807642  0.702961  1
  Co  Co13  1  0.502724  0.692358  0.202961  1
  Co  Co14  1  0.502724  0.192358  0.297039  1
  Co  Co15  1  0.497276  0.307642  0.797039  1
  Co  Co16  1  0.601579  0.818382  0.513692  1
  Co  Co17  1  0.873080  0.479903  0.145257  1
  Co  Co18  1  0.126920  0.020097  0.645257  1
  Co  Co19  1  0.126920  0.520097  0.854743  1
  Co  Co20  1  0.159886  0.520887  0.362177  1
  Co  Co21  1  0.840114  0.479113  0.637823  1
  Co  Co22  1  0.159886  0.020887  0.137823  1
  Co  Co23  1  0.873080  0.979903  0.354743  1
  Co  Co24  1  0.631482  0.082626  0.676377  1
  Co  Co25  1  0.368518  0.417374  0.176377  1
  Co  Co26  1  0.368518  0.917374  0.323623  1
  Co  Co27  1  0.631482  0.582626  0.823623  1
  Co  Co28  1  0.988520  0.247520  0.751969  1
  Co  Co29  1  0.011480  0.252480  0.251969  1
  Co  Co30  1  0.011480  0.752480  0.248031  1
  Co  Co31  1  0.988520  0.747520  0.748031  1
  O  O32  1  0.764980  0.958787  0.978596  1
  O  O33  1  0.235020  0.541213  0.478596  1
  O  O34  1  0.235020  0.041213  0.021404  1
  O  O35  1  0.764980  0.458787  0.521404  1
  O  O36  1  0.996510  0.865373  0.845973  1
  O  O37  1  0.003490  0.634627  0.345973  1
  O  O38  1  0.003490  0.134627  0.154027  1
  O  O39  1  0.996510  0.365373  0.654027  1
  O  O40  1  0.005617  0.128240  0.846857  1
  O  O41  1  0.994383  0.371760  0.346857  1
  O  O42  1  0.994383  0.871760  0.153143  1
  O  O43  1  0.005617  0.628240  0.653143  1
  O  O44  1  0.647707  0.944327  0.287413  1
  O  O45  1  0.352293  0.555673  0.787413  1
  O  O46  1  0.352293  0.055673  0.712587  1
  O  O47  1  0.647707  0.444327  0.212587  1
  O  O48  1  0.993687  0.141081  0.351704  1
  O  O49  1  0.006313  0.358919  0.851704  1
  O  O50  1  0.006313  0.858919  0.648296  1
  O  O51  1  0.993687  0.641081  0.148296  1
  O  O52  1  0.070805  0.881632  0.336583  1
  O  O53  1  0.382739  0.834287  0.430662  1
  O  O54  1  0.929195  0.618368  0.836583  1
  O  O55  1  0.070805  0.381632  0.163417  1
  O  O56  1  0.721935  0.705919  0.478677  1
  O  O57  1  0.278065  0.794081  0.978677  1
  O  O58  1  0.278065  0.294081  0.521323  1
  O  O59  1  0.721935  0.205919  0.021323  1
  O  O60  1  0.795770  0.949230  0.470507  1
  O  O61  1  0.204230  0.550770  0.970507  1
  O  O62  1  0.204230  0.050770  0.529493  1
  O  O63  1  0.795770  0.449230  0.029493  1
  O  O64  1  0.418104  0.212022  0.900953  1
  O  O65  1  0.581896  0.287978  0.400953  1
  O  O66  1  0.581896  0.787978  0.099047  1
  O  O67  1  0.418104  0.712022  0.599047  1
  O  O68  1  0.695683  0.213141  0.755777  1
  O  O69  1  0.304317  0.286859  0.255777  1
  O  O70  1  0.304317  0.786859  0.244223  1
  O  O71  1  0.695683  0.713141  0.744223  1
  O  O72  1  0.627080  0.455917  0.716293  1
  O  O73  1  0.372920  0.044083  0.216293  1
  O  O74  1  0.372920  0.544083  0.283707  1
  O  O75  1  0.627080  0.955917  0.783707  1
  O  O76  1  0.271833  0.285374  0.732603  1
  O  O77  1  0.728167  0.214626  0.232603  1
  O  O78  1  0.728167  0.714626  0.267397  1
  O  O79  1  0.271833  0.785374  0.767397  1
  O  O80  1  0.581907  0.426263  0.885499  1
  O  O81  1  0.418093  0.073737  0.385499  1
  O  O82  1  0.418093  0.573737  0.114501  1
  O  O83  1  0.581907  0.926263  0.614501  1
  O  O84  1  0.382739  0.334287  0.069338  1
  O  O85  1  0.617261  0.165713  0.569338  1
  O  O86  1  0.617261  0.665713  0.930662  1
  O  O87  1  0.929195  0.118368  0.663417  1
