# generated using pymatgen
data_ZnCr(SiO3)2
_symmetry_space_group_name_H-M   'P 1'
_cell_length_a   5.32891021
_cell_length_b   9.17186183
_cell_length_c   18.70417155
_cell_angle_alpha   90.00000000
_cell_angle_beta   90.00000000
_cell_angle_gamma   90.00000000
_symmetry_Int_Tables_number   1
_chemical_formula_structural   ZnCr(SiO3)2
_chemical_formula_sum   'Zn8 Cr8 Si16 O48'
_cell_volume   914.18561521
_cell_formula_units_Z   8
loop_
 _symmetry_equiv_pos_site_id
 _symmetry_equiv_pos_as_xyz
  1  'x, y, z'
loop_
 _atom_site_type_symbol
 _atom_site_label
 _atom_site_symmetry_multiplicity
 _atom_site_fract_x
 _atom_site_fract_y
 _atom_site_fract_z
 _atom_site_occupancy
  Zn  Zn0  1  0.617287  0.149887  0.624409  1
  Zn  Zn1  1  0.382713  0.850113  0.375591  1
  Zn  Zn2  1  0.617287  0.649887  0.875591  1
  Zn  Zn3  1  0.117287  0.850113  0.875591  1
  Zn  Zn4  1  0.882713  0.149887  0.124409  1
  Zn  Zn5  1  0.382713  0.350113  0.124409  1
  Zn  Zn6  1  0.117287  0.350113  0.624409  1
  Zn  Zn7  1  0.882713  0.649887  0.375591  1
  Cr  Cr8  1  0.376322  0.981672  0.123829  1
  Cr  Cr9  1  0.623678  0.018328  0.876171  1
  Cr  Cr10  1  0.876322  0.018328  0.376171  1
  Cr  Cr11  1  0.123678  0.981672  0.623829  1
  Cr  Cr12  1  0.376322  0.481672  0.376171  1
  Cr  Cr13  1  0.623678  0.518328  0.623829  1
  Cr  Cr14  1  0.876322  0.518328  0.123829  1
  Cr  Cr15  1  0.123678  0.481672  0.876171  1
  Si  Si16  1  0.565067  0.662456  0.228262  1
  Si  Si17  1  0.712503  0.836135  0.524454  1
  Si  Si18  1  0.787497  0.836135  0.024454  1
  Si  Si19  1  0.934933  0.162456  0.771738  1
  Si  Si20  1  0.065067  0.337544  0.271738  1
  Si  Si21  1  0.434933  0.837544  0.728262  1
  Si  Si22  1  0.212503  0.663865  0.524454  1
  Si  Si23  1  0.712503  0.336135  0.975546  1
  Si  Si24  1  0.787497  0.336135  0.475546  1
  Si  Si25  1  0.934933  0.662456  0.728262  1
  Si  Si26  1  0.434933  0.337544  0.771738  1
  Si  Si27  1  0.565067  0.162456  0.271738  1
  Si  Si28  1  0.287497  0.163865  0.475546  1
  Si  Si29  1  0.065067  0.837544  0.228262  1
  Si  Si30  1  0.287497  0.663865  0.024454  1
  Si  Si31  1  0.212503  0.163865  0.975546  1
  O  O32  1  0.932267  0.504241  0.689604  1
  O  O33  1  0.296713  0.015797  0.934707  1
  O  O34  1  0.067733  0.495759  0.310396  1
  O  O35  1  0.711660  0.340250  0.063374  1
  O  O36  1  0.211660  0.159750  0.063374  1
  O  O37  1  0.923407  0.210742  0.949406  1
  O  O38  1  0.941336  0.665243  0.815324  1
  O  O39  1  0.058664  0.834757  0.315324  1
  O  O40  1  0.711660  0.840250  0.436626  1
  O  O41  1  0.941336  0.165243  0.684676  1
  O  O42  1  0.432267  0.495759  0.810396  1
  O  O43  1  0.788340  0.340250  0.563374  1
  O  O44  1  0.703287  0.984203  0.065293  1
  O  O45  1  0.441336  0.834757  0.815324  1
  O  O46  1  0.567733  0.004241  0.310396  1
  O  O47  1  0.296713  0.515797  0.565293  1
  O  O48  1  0.432267  0.995759  0.689604  1
  O  O49  1  0.164034  0.768212  0.697108  1
  O  O50  1  0.335966  0.768212  0.197108  1
  O  O51  1  0.576593  0.710742  0.050594  1
  O  O52  1  0.788340  0.840250  0.936626  1
  O  O53  1  0.558664  0.665243  0.315324  1
  O  O54  1  0.796713  0.484203  0.934707  1
  O  O55  1  0.164034  0.268212  0.802892  1
  O  O56  1  0.288340  0.159750  0.563374  1
  O  O57  1  0.558664  0.165243  0.184676  1
  O  O58  1  0.703287  0.484203  0.434707  1
  O  O59  1  0.211660  0.659750  0.436626  1
  O  O60  1  0.203287  0.515797  0.065293  1
  O  O61  1  0.664034  0.731788  0.697108  1
  O  O62  1  0.067733  0.995759  0.189604  1
  O  O63  1  0.835966  0.731788  0.197108  1
  O  O64  1  0.835966  0.231788  0.302892  1
  O  O65  1  0.796713  0.984203  0.565293  1
  O  O66  1  0.288340  0.659750  0.936626  1
  O  O67  1  0.203287  0.015797  0.434707  1
  O  O68  1  0.335966  0.268212  0.302892  1
  O  O69  1  0.076593  0.789258  0.050594  1
  O  O70  1  0.423407  0.789258  0.550594  1
  O  O71  1  0.664034  0.231788  0.802892  1
  O  O72  1  0.423407  0.289258  0.949406  1
  O  O73  1  0.576593  0.210742  0.449406  1
  O  O74  1  0.076593  0.289258  0.449406  1
  O  O75  1  0.441336  0.334757  0.684676  1
  O  O76  1  0.567733  0.504241  0.189604  1
  O  O77  1  0.923407  0.710742  0.550594  1
  O  O78  1  0.058664  0.334757  0.184676  1
  O  O79  1  0.932267  0.004241  0.810396  1
