# generated using pymatgen
data_Be3Si3(WO6)2
_symmetry_space_group_name_H-M   'P 1'
_cell_length_a   7.81376372
_cell_length_b   8.17371903
_cell_length_c   14.12276783
_cell_angle_alpha   89.95895357
_cell_angle_beta   90.00000000
_cell_angle_gamma   90.00000000
_symmetry_Int_Tables_number   1
_chemical_formula_structural   Be3Si3(WO6)2
_chemical_formula_sum   'Be12 Si12 W8 O48'
_cell_volume   901.98577255
_cell_formula_units_Z   4
loop_
 _symmetry_equiv_pos_site_id
 _symmetry_equiv_pos_as_xyz
  1  'x, y, z'
loop_
 _atom_site_type_symbol
 _atom_site_label
 _atom_site_symmetry_multiplicity
 _atom_site_fract_x
 _atom_site_fract_y
 _atom_site_fract_z
 _atom_site_occupancy
  Be  Be0  1  0.854866  0.932505  0.761269  1
  Be  Be1  1  0.647998  0.918774  0.400441  1
  Be  Be2  1  0.147999  0.581226  0.099559  1
  Be  Be3  1  0.352001  0.081225  0.599559  1
  Be  Be4  1  0.852001  0.418774  0.900441  1
  Be  Be5  1  0.145505  0.610781  0.411915  1
  Be  Be6  1  0.645505  0.889219  0.088085  1
  Be  Be7  1  0.854495  0.389218  0.588085  1
  Be  Be8  1  0.354494  0.110781  0.911915  1
  Be  Be9  1  0.645134  0.432505  0.261269  1
  Be  Be10  1  0.145134  0.067494  0.238731  1
  Be  Be11  1  0.354867  0.567495  0.738731  1
  Si  Si12  1  0.233704  0.932430  0.764711  1
  Si  Si13  1  0.733704  0.567570  0.735289  1
  Si  Si14  1  0.766296  0.067569  0.235289  1
  Si  Si15  1  0.266297  0.432430  0.264711  1
  Si  Si16  1  0.729414  0.111462  0.916184  1
  Si  Si17  1  0.229414  0.388539  0.583816  1
  Si  Si18  1  0.270586  0.888538  0.083816  1
  Si  Si19  1  0.770585  0.611462  0.416184  1
  Si  Si20  1  0.233248  0.432216  0.901868  1
  Si  Si21  1  0.733249  0.067783  0.598132  1
  Si  Si22  1  0.766752  0.567784  0.098132  1
  Si  Si23  1  0.266751  0.932216  0.401868  1
  W  W24  1  0.452037  0.248496  0.088660  1
  W  W25  1  0.047963  0.748497  0.588660  1
  W  W26  1  0.547964  0.751504  0.911340  1
  W  W27  1  0.952037  0.251503  0.411340  1
  W  W28  1  0.553507  0.248712  0.423291  1
  W  W29  1  0.053508  0.251287  0.076709  1
  W  W30  1  0.446493  0.751288  0.576709  1
  W  W31  1  0.946492  0.748713  0.923291  1
  O  O32  1  0.131710  0.753891  0.040881  1
  O  O33  1  0.043777  0.906483  0.813381  1
  O  O34  1  0.543777  0.593517  0.686619  1
  O  O35  1  0.956223  0.093517  0.186619  1
  O  O36  1  0.456222  0.406482  0.313381  1
  O  O37  1  0.540419  0.177091  0.951444  1
  O  O38  1  0.040419  0.322909  0.548557  1
  O  O39  1  0.459581  0.822909  0.048556  1
  O  O40  1  0.959580  0.677091  0.451443  1
  O  O41  1  0.039346  0.510414  0.889772  1
  O  O42  1  0.539346  0.989586  0.610228  1
  O  O43  1  0.960654  0.489587  0.110228  1
  O  O44  1  0.132403  0.068335  0.355109  1
  O  O45  1  0.632402  0.431666  0.144891  1
  O  O46  1  0.867598  0.931665  0.644891  1
  O  O47  1  0.367598  0.568335  0.855109  1
  O  O48  1  0.631711  0.746109  0.459119  1
  O  O49  1  0.460655  0.010414  0.389772  1
  O  O50  1  0.368290  0.253891  0.540881  1
  O  O51  1  0.868290  0.246108  0.959119  1
  O  O52  1  0.756826  0.075814  0.477756  1
  O  O53  1  0.627887  0.062971  0.146018  1
  O  O54  1  0.872113  0.562970  0.646018  1
  O  O55  1  0.372112  0.937029  0.853982  1
  O  O56  1  0.741720  0.424519  0.811185  1
  O  O57  1  0.241720  0.075480  0.688815  1
  O  O58  1  0.258280  0.575481  0.188815  1
  O  O59  1  0.758279  0.924519  0.311185  1
  O  O60  1  0.745259  0.066156  0.807334  1
  O  O61  1  0.245259  0.433845  0.692666  1
  O  O62  1  0.254740  0.933844  0.192666  1
  O  O63  1  0.754741  0.566156  0.307334  1
  O  O64  1  0.246589  0.247468  0.868300  1
  O  O65  1  0.746588  0.252532  0.631701  1
  O  O66  1  0.753412  0.752531  0.131700  1
  O  O67  1  0.253412  0.747469  0.368299  1
  O  O68  1  0.762308  0.741782  0.800733  1
  O  O69  1  0.262307  0.758218  0.699267  1
  O  O70  1  0.237692  0.258217  0.199267  1
  O  O71  1  0.737693  0.241783  0.300733  1
  O  O72  1  0.747509  0.927367  0.973027  1
  O  O73  1  0.247508  0.572633  0.526973  1
  O  O74  1  0.252491  0.072633  0.026973  1
  O  O75  1  0.752492  0.427366  0.473027  1
  O  O76  1  0.743175  0.575813  0.977756  1
  O  O77  1  0.243175  0.924186  0.522244  1
  O  O78  1  0.256825  0.424187  0.022244  1
  O  O79  1  0.127887  0.437029  0.353982  1
