# generated using pymatgen
data_Zn2Ni2O5
_symmetry_space_group_name_H-M   'P 1'
_cell_length_a   3.67722329
_cell_length_b   5.24575311
_cell_length_c   10.33747870
_cell_angle_alpha   89.98777250
_cell_angle_beta   89.97351635
_cell_angle_gamma   89.98922847
_symmetry_Int_Tables_number   1
_chemical_formula_structural   Zn2Ni2O5
_chemical_formula_sum   'Zn4 Ni4 O10'
_cell_volume   199.40792429
_cell_formula_units_Z   2
loop_
 _symmetry_equiv_pos_site_id
 _symmetry_equiv_pos_as_xyz
  1  'x, y, z'
loop_
 _atom_site_type_symbol
 _atom_site_label
 _atom_site_symmetry_multiplicity
 _atom_site_fract_x
 _atom_site_fract_y
 _atom_site_fract_z
 _atom_site_occupancy
  Zn  Zn0  1  0.500053  0.268333  0.901304  1
  Zn  Zn1  1  0.500157  0.731280  0.098878  1
  Zn  Zn2  1  0.500160  0.768626  0.598877  1
  Zn  Zn3  1  0.500025  0.231550  0.401196  1
  Ni  Ni4  1  0.999424  0.226027  0.637294  1
  Ni  Ni5  1  0.000423  0.774058  0.362717  1
  Ni  Ni6  1  0.999834  0.273848  0.137265  1
  Ni  Ni7  1  0.000193  0.726032  0.862817  1
  O  O8  1  0.000099  0.499834  0.499794  1
  O  O9  1  0.000205  0.150918  0.318847  1
  O  O10  1  0.000023  0.651048  0.181231  1
  O  O11  1  0.000134  0.349215  0.818687  1
  O  O12  1  0.499791  0.308351  0.098245  1
  O  O13  1  0.500046  0.691239  0.901966  1
  O  O14  1  -0.000086  0.848984  0.681156  1
  O  O15  1  0.499099  0.191503  0.598168  1
  O  O16  1  0.000106  0.000491  0.999609  1
  O  O17  1  0.500321  0.808662  0.401949  1
