# generated using pymatgen
data_MgCuBi2O7
_symmetry_space_group_name_H-M   'P 1'
_cell_length_a   8.44757451
_cell_length_b   10.14501962
_cell_length_c   11.61884187
_cell_angle_alpha   97.50215365
_cell_angle_beta   90.00000000
_cell_angle_gamma   90.00000000
_symmetry_Int_Tables_number   1
_chemical_formula_structural   MgCuBi2O7
_chemical_formula_sum   'Mg6 Cu6 Bi12 O42'
_cell_volume   987.22053482
_cell_formula_units_Z   6
loop_
 _symmetry_equiv_pos_site_id
 _symmetry_equiv_pos_as_xyz
  1  'x, y, z'
loop_
 _atom_site_type_symbol
 _atom_site_label
 _atom_site_symmetry_multiplicity
 _atom_site_fract_x
 _atom_site_fract_y
 _atom_site_fract_z
 _atom_site_occupancy
  Mg  Mg0  1  0.459850  0.151079  0.581571  1
  Mg  Mg1  1  0.956284  0.500000  0.750000  1
  Mg  Mg2  1  0.459850  0.848921  0.918429  1
  Mg  Mg3  1  0.043716  0.500000  0.250000  1
  Mg  Mg4  1  0.540150  0.848921  0.418429  1
  Mg  Mg5  1  0.540150  0.151079  0.081571  1
  Cu  Cu6  1  0.905887  0.787050  0.418282  1
  Cu  Cu7  1  0.094113  0.212950  0.581718  1
  Cu  Cu8  1  0.409333  0.500000  0.250000  1
  Cu  Cu9  1  0.905887  0.212950  0.081718  1
  Cu  Cu10  1  0.590667  0.500000  0.750000  1
  Cu  Cu11  1  0.094113  0.787050  0.918282  1
  Bi  Bi12  1  0.207551  0.194170  0.302624  1
  Bi  Bi13  1  0.755752  0.155930  0.368869  1
  Bi  Bi14  1  0.244248  0.155930  0.868869  1
  Bi  Bi15  1  0.792449  0.194170  0.802624  1
  Bi  Bi16  1  0.280744  0.511214  0.973493  1
  Bi  Bi17  1  0.755752  0.844070  0.131131  1
  Bi  Bi18  1  0.719256  0.511214  0.473493  1
  Bi  Bi19  1  0.244248  0.844070  0.631131  1
  Bi  Bi20  1  0.280744  0.488786  0.526507  1
  Bi  Bi21  1  0.719256  0.488786  0.026507  1
  Bi  Bi22  1  0.792449  0.805830  0.697376  1
  Bi  Bi23  1  0.207551  0.805830  0.197376  1
  O  O24  1  0.725996  0.241668  0.990768  1
  O  O25  1  0.763873  0.851000  0.314736  1
  O  O26  1  0.878084  -0.000000  0.750000  1
  O  O27  1  0.918873  0.529267  0.114427  1
  O  O28  1  0.404336  0.951070  0.549437  1
  O  O29  1  0.941238  0.284823  0.689773  1
  O  O30  1  0.358944  0.313715  0.965063  1
  O  O31  1  0.081127  0.529267  0.614427  1
  O  O32  1  0.753779  0.441679  0.843359  1
  O  O33  1  0.404336  0.048930  0.950563  1
  O  O34  1  0.753779  0.558321  0.656641  1
  O  O35  1  0.464447  0.567690  0.871956  1
  O  O36  1  0.991049  0.829814  0.062917  1
  O  O37  1  0.058762  0.284823  0.189773  1
  O  O38  1  0.641056  0.686285  0.034937  1
  O  O39  1  0.358944  0.686285  0.534937  1
  O  O40  1  0.941238  0.715177  0.810227  1
  O  O41  1  0.595664  0.048930  0.450563  1
  O  O42  1  0.274004  0.241668  0.490768  1
  O  O43  1  0.535553  0.432310  0.128044  1
  O  O44  1  0.427842  0.805591  0.267145  1
  O  O45  1  0.246221  0.558321  0.156641  1
  O  O46  1  0.008951  0.829814  0.562917  1
  O  O47  1  0.246221  0.441679  0.343359  1
  O  O48  1  0.918873  0.470733  0.385573  1
  O  O49  1  0.535553  0.567690  0.371956  1
  O  O50  1  0.081127  0.470733  0.885573  1
  O  O51  1  0.572158  0.805591  0.767145  1
  O  O52  1  0.572158  0.194409  0.732855  1
  O  O53  1  0.008951  0.170186  0.937083  1
  O  O54  1  0.058762  0.715177  0.310227  1
  O  O55  1  0.725996  0.758332  0.509232  1
  O  O56  1  0.121916  -0.000000  0.250000  1
  O  O57  1  0.236127  0.851000  0.814736  1
  O  O58  1  0.595664  0.951070  0.049437  1
  O  O59  1  0.991049  0.170186  0.437083  1
  O  O60  1  0.274004  0.758332  0.009232  1
  O  O61  1  0.763873  0.149000  0.185264  1
  O  O62  1  0.464447  0.432310  0.628044  1
  O  O63  1  0.641056  0.313715  0.465063  1
  O  O64  1  0.236127  0.149000  0.685264  1
  O  O65  1  0.427842  0.194409  0.232855  1
