# generated using pymatgen
data_Zn(Cu2O3)2
_symmetry_space_group_name_H-M   'P 1'
_cell_length_a   2.94043075
_cell_length_b   5.12866627
_cell_length_c   14.78802647
_cell_angle_alpha   90.00000000
_cell_angle_beta   90.00000000
_cell_angle_gamma   106.65846725
_symmetry_Int_Tables_number   1
_chemical_formula_structural   Zn(Cu2O3)2
_chemical_formula_sum   'Zn2 Cu8 O12'
_cell_volume   213.65102028
_cell_formula_units_Z   2
loop_
 _symmetry_equiv_pos_site_id
 _symmetry_equiv_pos_as_xyz
  1  'x, y, z'
loop_
 _atom_site_type_symbol
 _atom_site_label
 _atom_site_symmetry_multiplicity
 _atom_site_fract_x
 _atom_site_fract_y
 _atom_site_fract_z
 _atom_site_occupancy
  Zn  Zn0  1  0.659857  0.319716  0.750000  1
  Zn  Zn1  1  0.340143  0.680284  0.250000  1
  Cu  Cu2  1  0.862462  0.724927  0.044465  1
  Cu  Cu3  1  0.406140  0.812278  0.635149  1
  Cu  Cu4  1  0.137536  0.275072  0.955535  1
  Cu  Cu5  1  0.593860  0.187722  0.364853  1
  Cu  Cu6  1  0.862462  0.724927  0.455535  1
  Cu  Cu7  1  0.137536  0.275072  0.544465  1
  Cu  Cu8  1  0.593860  0.187722  0.135148  1
  Cu  Cu9  1  0.406140  0.812278  0.864851  1
  O  O10  1  0.499999  -0.000000  0.500000  1
  O  O11  1  0.499999  -0.000000  0.000000  1
  O  O12  1  0.048101  0.096202  0.841264  1
  O  O13  1  0.951899  0.903798  0.158737  1
  O  O14  1  0.951899  0.903798  0.341263  1
  O  O15  1  0.048101  0.096202  0.658737  1
  O  O16  1  0.785384  0.570770  0.922796  1
  O  O17  1  0.214615  0.429231  0.077204  1
  O  O18  1  0.214615  0.429231  0.422796  1
  O  O19  1  0.785384  0.570770  0.577204  1
  O  O20  1  0.302267  0.604535  0.750000  1
  O  O21  1  0.697731  0.395464  0.250000  1
