# generated using pymatgen
data_Ta2Zn2WO8
_symmetry_space_group_name_H-M   'P 1'
_cell_length_a   5.34439725
_cell_length_b   5.98332686
_cell_length_c   10.45088371
_cell_angle_alpha   108.53213469
_cell_angle_beta   91.39969737
_cell_angle_gamma   88.81160057
_symmetry_Int_Tables_number   1
_chemical_formula_structural   Ta2Zn2WO8
_chemical_formula_sum   'Ta4 Zn4 W2 O16'
_cell_volume   316.73727685
_cell_formula_units_Z   2
loop_
 _symmetry_equiv_pos_site_id
 _symmetry_equiv_pos_as_xyz
  1  'x, y, z'
loop_
 _atom_site_type_symbol
 _atom_site_label
 _atom_site_symmetry_multiplicity
 _atom_site_fract_x
 _atom_site_fract_y
 _atom_site_fract_z
 _atom_site_occupancy
  Ta  Ta0  1  0.735227  0.278284  0.238080  1
  Ta  Ta1  1  0.800047  0.000909  0.758239  1
  Ta  Ta2  1  0.241849  0.757467  0.771590  1
  Ta  Ta3  1  0.237689  0.965980  0.237311  1
  Zn  Zn4  1  0.777901  0.433654  0.580409  1
  Zn  Zn5  1  0.740396  0.880642  0.436054  1
  Zn  Zn6  1  0.233345  0.586059  0.449614  1
  Zn  Zn7  1  0.290940  0.143980  0.577250  1
  W  W8  1  0.732704  0.641559  0.999486  1
  W  W9  1  0.241973  0.342051  0.996797  1
  O  O10  1  0.061552  0.184961  0.139850  1
  O  O11  1  0.433859  0.037651  0.861728  1
  O  O12  1  0.912823  0.789632  0.870276  1
  O  O13  1  0.561212  0.956877  0.141582  1
  O  O14  1  0.586055  0.429347  0.118815  1
  O  O15  1  0.894891  0.306250  0.880042  1
  O  O16  1  0.389144  0.559425  0.885751  1
  O  O17  1  0.088003  0.685611  0.119818  1
  O  O18  1  0.426026  0.288761  0.347643  1
  O  O19  1  0.087426  0.913422  0.623221  1
  O  O20  1  0.366636  0.842379  0.379671  1
  O  O21  1  0.146612  0.460291  0.609574  1
  O  O22  1  0.654027  0.146539  0.605537  1
  O  O23  1  0.863061  0.551384  0.382028  1
  O  O24  1  0.927373  0.075916  0.345301  1
  O  O25  1  0.578866  0.719855  0.647064  1
