# generated using pymatgen
data_Sr2YAlFe2O7
_symmetry_space_group_name_H-M   'P 1'
_cell_length_a   11.77388410
_cell_length_b   11.77388410
_cell_length_c   11.77388410
_cell_angle_alpha   40.26642775
_cell_angle_beta   151.18048088
_cell_angle_gamma   152.48683022
_symmetry_Int_Tables_number   1
_chemical_formula_structural   Sr2YAlFe2O7
_chemical_formula_sum   'Sr4 Y2 Al2 Fe4 O14'
_cell_volume   362.73520025
_cell_formula_units_Z   2
loop_
 _symmetry_equiv_pos_site_id
 _symmetry_equiv_pos_as_xyz
  1  'x, y, z'
loop_
 _atom_site_type_symbol
 _atom_site_label
 _atom_site_symmetry_multiplicity
 _atom_site_fract_x
 _atom_site_fract_y
 _atom_site_fract_z
 _atom_site_occupancy
  Sr  Sr0  1  0.039277  0.854351  0.873597  1
  Sr  Sr1  1  0.980755  0.165679  0.126403  1
  Sr  Sr2  1  0.039277  0.665679  0.684926  1
  Sr  Sr3  1  0.980755  0.354351  0.315074  1
  Y  Y4  1  0.003107  0.503107  0.500000  1
  Y  Y5  1  0.003107  0.003107  -0.000000  1
  Al  Al6  1  0.575802  0.746957  0.328845  1
  Al  Al7  1  0.418112  0.246957  0.671155  1
  Fe  Fe8  1  0.505503  0.430052  0.911069  1
  Fe  Fe9  1  0.518982  0.594434  0.088931  1
  Fe  Fe10  1  0.505503  0.094434  0.575452  1
  Fe  Fe11  1  0.518982  0.930052  0.424548  1
  O  O12  1  0.016859  0.937482  0.579377  1
  O  O13  1  0.358105  0.437482  0.420623  1
  O  O14  1  0.435786  0.172587  0.134127  1
  O  O15  1  0.038460  0.301660  0.865873  1
  O  O16  1  0.435786  0.801660  0.763199  1
  O  O17  1  0.038460  0.672587  0.236801  1
  O  O18  1  0.608155  0.734494  0.730910  1
  O  O19  1  0.003585  0.877246  0.269090  1
  O  O20  1  0.608155  0.377246  0.373661  1
  O  O21  1  0.003585  0.234494  0.626339  1
  O  O22  1  0.487789  0.870029  0.255867  1
  O  O23  1  0.614163  0.231921  0.744133  1
  O  O24  1  0.487789  0.731921  0.117761  1
  O  O25  1  0.614163  0.370029  0.882239  1
