# generated using pymatgen
data_ZnNiBiO5
_symmetry_space_group_name_H-M   'P 1'
_cell_length_a   5.25255862
_cell_length_b   10.41087112
_cell_length_c   15.23885723
_cell_angle_alpha   90.00000000
_cell_angle_beta   90.00000000
_cell_angle_gamma   90.00000000
_symmetry_Int_Tables_number   1
_chemical_formula_structural   ZnNiBiO5
_chemical_formula_sum   'Zn8 Ni8 Bi8 O40'
_cell_volume   833.31726234
_cell_formula_units_Z   8
loop_
 _symmetry_equiv_pos_site_id
 _symmetry_equiv_pos_as_xyz
  1  'x, y, z'
loop_
 _atom_site_type_symbol
 _atom_site_label
 _atom_site_symmetry_multiplicity
 _atom_site_fract_x
 _atom_site_fract_y
 _atom_site_fract_z
 _atom_site_occupancy
  Zn  Zn0  1  0.473150  0.363202  0.463375  1
  Zn  Zn1  1  0.973151  0.136798  0.463375  1
  Zn  Zn2  1  0.973151  0.636798  0.036625  1
  Zn  Zn3  1  0.026849  0.363202  0.963375  1
  Zn  Zn4  1  0.526849  0.136798  0.963375  1
  Zn  Zn5  1  0.026849  0.863202  0.536625  1
  Zn  Zn6  1  0.526849  0.636798  0.536625  1
  Zn  Zn7  1  0.473150  0.863202  0.036625  1
  Ni  Ni8  1  0.966815  0.379370  0.592215  1
  Ni  Ni9  1  0.533185  0.879370  0.407785  1
  Ni  Ni10  1  0.033185  0.620630  0.407785  1
  Ni  Ni11  1  0.466815  0.120630  0.592215  1
  Ni  Ni12  1  0.033185  0.120630  0.092215  1
  Ni  Ni13  1  0.966815  0.879370  0.907785  1
  Ni  Ni14  1  0.533185  0.379370  0.092215  1
  Ni  Ni15  1  0.466815  0.620630  0.907785  1
  Bi  Bi16  1  0.047387  0.855966  0.235376  1
  Bi  Bi17  1  0.952613  0.144034  0.764624  1
  Bi  Bi18  1  0.452613  0.355966  0.764624  1
  Bi  Bi19  1  0.952613  0.644034  0.735376  1
  Bi  Bi20  1  0.547387  0.144034  0.264624  1
  Bi  Bi21  1  0.547387  0.644034  0.235376  1
  Bi  Bi22  1  0.452613  0.855966  0.735376  1
  Bi  Bi23  1  0.047387  0.355966  0.264624  1
  O  O24  1  0.780236  0.299160  0.686135  1
  O  O25  1  0.276233  0.026826  0.033142  1
  O  O26  1  0.223767  0.526826  0.966858  1
  O  O27  1  0.369090  0.799478  0.156943  1
  O  O28  1  0.130910  0.299478  0.843057  1
  O  O29  1  0.780236  0.799160  0.813865  1
  O  O30  1  0.130910  0.799478  0.656943  1
  O  O31  1  0.719764  0.799160  0.313865  1
  O  O32  1  0.276233  0.526826  0.466858  1
  O  O33  1  0.219764  0.700840  0.313865  1
  O  O34  1  0.719764  0.299160  0.186135  1
  O  O35  1  0.664173  0.219342  0.518644  1
  O  O36  1  0.776233  0.973174  0.466858  1
  O  O37  1  0.630910  0.700522  0.656943  1
  O  O38  1  0.177103  0.984023  0.823498  1
  O  O39  1  0.776233  0.473174  0.033142  1
  O  O40  1  0.219764  0.200840  0.186135  1
  O  O41  1  0.869090  0.200522  0.343057  1
  O  O42  1  0.164173  0.780658  0.981356  1
  O  O43  1  0.223767  0.026826  0.533142  1
  O  O44  1  0.335827  0.780658  0.481356  1
  O  O45  1  0.822897  0.015977  0.176502  1
  O  O46  1  0.630910  0.200522  0.843057  1
  O  O47  1  0.677103  0.015977  0.676502  1
  O  O48  1  0.335827  0.280658  0.018644  1
  O  O49  1  0.164173  0.280658  0.518644  1
  O  O50  1  0.723767  0.473174  0.533142  1
  O  O51  1  0.723767  0.973174  0.966858  1
  O  O52  1  0.677103  0.515977  0.823498  1
  O  O53  1  0.835827  0.719342  0.481356  1
  O  O54  1  0.835827  0.219342  0.018644  1
  O  O55  1  0.664173  0.719342  0.981356  1
  O  O56  1  0.822897  0.515977  0.323498  1
  O  O57  1  0.869090  0.700522  0.156943  1
  O  O58  1  0.369090  0.299478  0.343057  1
  O  O59  1  0.177103  0.484023  0.676502  1
  O  O60  1  0.322897  0.484023  0.176502  1
  O  O61  1  0.280236  0.200840  0.686135  1
  O  O62  1  0.322897  0.984023  0.323498  1
  O  O63  1  0.280236  0.700840  0.813865  1
