# generated using pymatgen
data_Zn2Ni3O8
_symmetry_space_group_name_H-M   'P 1'
_cell_length_a   4.83931233
_cell_length_b   5.65018117
_cell_length_c   5.66913918
_cell_angle_alpha   119.88944152
_cell_angle_beta   102.85877502
_cell_angle_gamma   89.99999732
_symmetry_Int_Tables_number   1
_chemical_formula_structural   Zn2Ni3O8
_chemical_formula_sum   'Zn2 Ni3 O8'
_cell_volume   129.88990741
_cell_formula_units_Z   1
loop_
 _symmetry_equiv_pos_site_id
 _symmetry_equiv_pos_as_xyz
  1  'x, y, z'
loop_
 _atom_site_type_symbol
 _atom_site_label
 _atom_site_symmetry_multiplicity
 _atom_site_fract_x
 _atom_site_fract_y
 _atom_site_fract_z
 _atom_site_occupancy
  Zn  Zn0  1  0.624058  0.709413  0.418825  1
  Zn  Zn1  1  0.375941  0.290588  0.581175  1
  Ni  Ni2  1  0.500000  0.999999  0.000000  1
  Ni  Ni3  1  0.999999  0.748392  1.000000  1
  Ni  Ni4  1  0.999999  0.251608  0.000000  1
  O  O5  1  0.071367  0.390336  0.780672  1
  O  O6  1  0.928633  0.609663  0.219328  1
  O  O7  1  0.114054  0.898727  0.797454  1
  O  O8  1  0.885946  0.101272  0.202545  1
  O  O9  1  0.376867  0.338524  0.226339  1
  O  O10  1  0.376867  0.887815  0.226339  1
  O  O11  1  0.623134  0.112184  0.773661  1
  O  O12  1  0.623134  0.661476  0.773661  1
