# generated using pymatgen
data_Zn2MoWO6
_symmetry_space_group_name_H-M   'P 1'
_cell_length_a   5.38146047
_cell_length_b   5.37609089
_cell_length_c   7.90294650
_cell_angle_alpha   90.00000000
_cell_angle_beta   89.24615210
_cell_angle_gamma   90.00000000
_symmetry_Int_Tables_number   1
_chemical_formula_structural   Zn2MoWO6
_chemical_formula_sum   'Zn4 Mo2 W2 O12'
_cell_volume   228.62209853
_cell_formula_units_Z   2
loop_
 _symmetry_equiv_pos_site_id
 _symmetry_equiv_pos_as_xyz
  1  'x, y, z'
loop_
 _atom_site_type_symbol
 _atom_site_label
 _atom_site_symmetry_multiplicity
 _atom_site_fract_x
 _atom_site_fract_y
 _atom_site_fract_z
 _atom_site_occupancy
  Zn  Zn0  1  0.015630  0.023190  0.250093  1
  Zn  Zn1  1  0.484370  0.523191  0.249907  1
  Zn  Zn2  1  0.984371  0.976811  0.749907  1
  Zn  Zn3  1  0.515629  0.476810  0.750093  1
  Mo  Mo4  1  0.500000  0.000000  0.000000  1
  Mo  Mo5  1  0.000001  0.499999  0.500000  1
  W  W6  1  0.500000  0.000000  0.499999  1
  W  W7  1  0.000000  0.499999  0.000000  1
  O  O8  1  0.655842  0.321387  0.427679  1
  O  O9  1  0.844158  0.821388  0.072321  1
  O  O10  1  0.344157  0.678613  0.572321  1
  O  O11  1  0.155843  0.178612  0.927679  1
  O  O12  1  0.180149  0.156887  0.564200  1
  O  O13  1  0.319851  0.656886  0.935800  1
  O  O14  1  0.819852  0.843113  0.435800  1
  O  O15  1  0.680148  0.343114  0.064200  1
  O  O16  1  0.118782  0.399423  0.240773  1
  O  O17  1  0.381219  0.899424  0.259226  1
  O  O18  1  0.618782  0.100576  0.740774  1
  O  O19  1  0.881219  0.600577  0.759227  1
