# generated using pymatgen
data_Ca(CoO2)2
_symmetry_space_group_name_H-M   'P 1'
_cell_length_a   6.15583154
_cell_length_b   6.04793784
_cell_length_c   17.99371518
_cell_angle_alpha   59.72184717
_cell_angle_beta   60.92195587
_cell_angle_gamma   60.57231107
_symmetry_Int_Tables_number   1
_chemical_formula_structural   Ca(CoO2)2
_chemical_formula_sum   'Ca6 Co12 O24'
_cell_volume   477.92945198
_cell_formula_units_Z   6
loop_
 _symmetry_equiv_pos_site_id
 _symmetry_equiv_pos_as_xyz
  1  'x, y, z'
loop_
 _atom_site_type_symbol
 _atom_site_label
 _atom_site_symmetry_multiplicity
 _atom_site_fract_x
 _atom_site_fract_y
 _atom_site_fract_z
 _atom_site_occupancy
  Ca  Ca0  1  0.132973  0.120332  0.042163  1
  Ca  Ca1  1  0.498328  0.507213  0.329077  1
  Ca  Ca2  1  0.002075  0.499142  0.166552  1
  Ca  Ca3  1  0.500151  0.494417  0.670339  1
  Ca  Ca4  1  0.000060  0.499060  0.500576  1
  Ca  Ca5  1  0.993362  0.502969  0.833607  1
  Co  Co6  1  0.496823  0.012636  0.165167  1
  Co  Co7  1  0.133446  0.112076  0.380821  1
  Co  Co8  1  0.501147  0.496940  0.001659  1
  Co  Co9  1  0.496550  0.494973  0.165288  1
  Co  Co10  1  0.499880  0.000491  0.500013  1
  Co  Co11  1  0.139525  0.112483  0.711879  1
  Co  Co12  1  0.499897  0.499714  0.499957  1
  Co  Co13  1  0.504808  0.990065  0.834235  1
  Co  Co14  1  0.860946  0.885485  0.289288  1
  Co  Co15  1  0.504833  0.502393  0.834252  1
  Co  Co16  1  0.862244  0.887244  0.621069  1
  Co  Co17  1  0.841841  0.888244  0.960525  1
  O  O18  1  0.314120  0.257921  0.079655  1
  O  O19  1  0.289349  0.235017  0.246905  1
  O  O20  1  0.314067  0.689044  0.079648  1
  O  O21  1  0.687608  0.270375  0.090522  1
  O  O22  1  0.275270  0.215685  0.423798  1
  O  O23  1  0.252064  0.776853  0.231414  1
  O  O24  1  0.295204  0.234729  0.578452  1
  O  O25  1  0.731756  0.260460  0.237900  1
  O  O26  1  0.275171  0.737680  0.423809  1
  O  O27  1  0.694847  0.761666  0.093893  1
  O  O28  1  0.736605  0.239290  0.428265  1
  O  O29  1  0.731648  0.793993  0.237974  1
  O  O30  1  0.272927  0.205068  0.761275  1
  O  O31  1  0.262578  0.761766  0.571292  1
  O  O32  1  0.724489  0.262414  0.575703  1
  O  O33  1  0.272932  0.738271  0.761276  1
  O  O34  1  0.318608  0.247132  0.895729  1
  O  O35  1  0.707170  0.765132  0.420866  1
  O  O36  1  0.756800  0.225318  0.764229  1
  O  O37  1  0.724509  0.785879  0.575716  1
  O  O38  1  0.294624  0.730605  0.914710  1
  O  O39  1  0.694364  0.288271  0.923362  1
  O  O40  1  0.710149  0.764237  0.753774  1
  O  O41  1  0.694252  0.747315  0.923366  1
