# generated using pymatgen
data_SbO2
_symmetry_space_group_name_H-M   'P 1'
_cell_length_a   6.15613526
_cell_length_b   6.15613547
_cell_length_c   6.38222820
_cell_angle_alpha   58.77746674
_cell_angle_beta   58.77747976
_cell_angle_gamma   73.21018788
_symmetry_Int_Tables_number   1
_chemical_formula_structural   SbO2
_chemical_formula_sum   'Sb4 O8'
_cell_volume   176.81488982
_cell_formula_units_Z   4
loop_
 _symmetry_equiv_pos_site_id
 _symmetry_equiv_pos_as_xyz
  1  'x, y, z'
loop_
 _atom_site_type_symbol
 _atom_site_label
 _atom_site_symmetry_multiplicity
 _atom_site_fract_x
 _atom_site_fract_y
 _atom_site_fract_z
 _atom_site_occupancy
  Sb  Sb0  1  0.058906  0.058906  0.941094  1
  Sb  Sb1  1  0.191094  0.191094  0.308906  1
  Sb  Sb2  1  0.625000  0.625000  0.125000  1
  Sb  Sb3  1  0.625000  0.625000  0.625000  1
  O  O4  1  0.360932  0.360932  0.380857  1
  O  O5  1  0.447573  0.805532  0.373448  1
  O  O6  1  0.360932  0.360932  0.897278  1
  O  O7  1  0.805532  0.447573  0.373448  1
  O  O8  1  0.444468  0.802427  0.876552  1
  O  O9  1  0.802427  0.444468  0.876552  1
  O  O10  1  0.889068  0.889068  0.352722  1
  O  O11  1  0.889068  0.889068  0.869143  1
