# generated using pymatgen
data_Ba2Tl2Zn3(CoO3)4
_symmetry_space_group_name_H-M   'P 1'
_cell_length_a   3.81837162
_cell_length_b   3.81837158
_cell_length_c   21.12073474
_cell_angle_alpha   95.18626244
_cell_angle_beta   95.18626315
_cell_angle_gamma   89.99999718
_symmetry_Int_Tables_number   1
_chemical_formula_structural   Ba2Tl2Zn3(CoO3)4
_chemical_formula_sum   'Ba2 Tl2 Zn3 Co4 O12'
_cell_volume   305.41295176
_cell_formula_units_Z   1
loop_
 _symmetry_equiv_pos_site_id
 _symmetry_equiv_pos_as_xyz
  1  'x, y, z'
loop_
 _atom_site_type_symbol
 _atom_site_label
 _atom_site_symmetry_multiplicity
 _atom_site_fract_x
 _atom_site_fract_y
 _atom_site_fract_z
 _atom_site_occupancy
  Ba  Ba0  1  0.152942  0.152942  0.305884  1
  Ba  Ba1  1  0.847058  0.847058  0.694116  1
  Tl  Tl2  1  0.722095  0.722095  0.444191  1
  Tl  Tl3  1  0.277905  0.277905  0.555809  1
  Zn  Zn4  1  0.071501  0.071501  0.143001  1
  Zn  Zn5  1  0.928499  0.928499  0.856999  1
  Zn  Zn6  1  0.000000  -0.000000  -0.000000  1
  Co  Co7  1  0.535038  0.535038  0.070075  1
  Co  Co8  1  0.402103  0.402103  0.804207  1
  Co  Co9  1  0.597897  0.597897  0.195793  1
  Co  Co10  1  0.464962  0.464962  0.929925  1
  O  O11  1  0.397082  0.897082  0.794164  1
  O  O12  1  0.533725  0.033725  0.067452  1
  O  O13  1  0.226894  0.226894  0.453789  1
  O  O14  1  0.966275  0.466275  0.932548  1
  O  O15  1  0.773106  0.773106  0.546211  1
  O  O16  1  0.102918  0.602918  0.205836  1
  O  O17  1  0.602918  0.102918  0.205836  1
  O  O18  1  0.327640  0.327640  0.655280  1
  O  O19  1  0.897082  0.397082  0.794164  1
  O  O20  1  0.033725  0.533725  0.067452  1
  O  O21  1  0.466275  0.966275  0.932548  1
  O  O22  1  0.672360  0.672360  0.344720  1
