# generated using pymatgen
data_Ca2FeSbO6
_symmetry_space_group_name_H-M   'P 1'
_cell_length_a   5.48227088
_cell_length_b   5.62047960
_cell_length_c   7.82610281
_cell_angle_alpha   90.00000000
_cell_angle_beta   90.17391380
_cell_angle_gamma   90.00000000
_symmetry_Int_Tables_number   1
_chemical_formula_structural   Ca2FeSbO6
_chemical_formula_sum   'Ca4 Fe2 Sb2 O12'
_cell_volume   241.14452963
_cell_formula_units_Z   2
loop_
 _symmetry_equiv_pos_site_id
 _symmetry_equiv_pos_as_xyz
  1  'x, y, z'
loop_
 _atom_site_type_symbol
 _atom_site_label
 _atom_site_symmetry_multiplicity
 _atom_site_fract_x
 _atom_site_fract_y
 _atom_site_fract_z
 _atom_site_occupancy
  O  O0  1  0.407391  0.969686  0.251960  1
  O  O1  1  0.092609  0.469686  0.248040  1
  O  O2  1  0.592609  0.030314  0.748040  1
  O  O3  1  0.907391  0.530314  0.751960  1
  O  O4  1  0.800904  0.793412  0.049013  1
  O  O5  1  0.699096  0.293412  0.450987  1
  O  O6  1  0.199096  0.206588  0.950987  1
  O  O7  1  0.300904  0.706588  0.549013  1
  O  O8  1  0.295763  0.701989  0.952374  1
  O  O9  1  0.204237  0.201989  0.547626  1
  O  O10  1  0.704237  0.298011  0.047626  1
  O  O11  1  0.795763  0.798011  0.452374  1
  Ca  Ca12  1  0.012398  0.949365  0.749347  1
  Ca  Ca13  1  0.487602  0.449365  0.750653  1
  Ca  Ca14  1  0.512398  0.550635  0.249347  1
  Ca  Ca15  1  0.987602  0.050635  0.250653  1
  Fe  Fe16  1  0.000000  0.500000  0.500000  1
  Fe  Fe17  1  0.500000  0.000000  0.000000  1
  Sb  Sb18  1  0.000000  0.500000  0.000000  1
  Sb  Sb19  1  0.500000  0.000000  0.500000  1
