# generated using pymatgen
data_Ca3Co2(RhO6)2
_symmetry_space_group_name_H-M   'P 1'
_cell_length_a   6.37412182
_cell_length_b   6.47592034
_cell_length_c   6.33365187
_cell_angle_alpha   93.16506535
_cell_angle_beta   93.42061945
_cell_angle_gamma   92.56162840
_symmetry_Int_Tables_number   1
_chemical_formula_structural   Ca3Co2(RhO6)2
_chemical_formula_sum   'Ca3 Co2 Rh2 O12'
_cell_volume   260.27633640
_cell_formula_units_Z   1
loop_
 _symmetry_equiv_pos_site_id
 _symmetry_equiv_pos_as_xyz
  1  'x, y, z'
loop_
 _atom_site_type_symbol
 _atom_site_label
 _atom_site_symmetry_multiplicity
 _atom_site_fract_x
 _atom_site_fract_y
 _atom_site_fract_z
 _atom_site_occupancy
  Ca  Ca0  1  0.748008  0.380625  0.122163  1
  Ca  Ca1  1  0.123014  0.745836  0.369225  1
  Ca  Ca2  1  0.368795  0.117964  0.746015  1
  Co  Co3  1  0.776430  0.764467  0.745944  1
  Co  Co4  1  0.250389  0.251269  0.251228  1
  Rh  Rh5  1  0.990791  -0.000391  0.996362  1
  Rh  Rh6  1  0.506959  0.505500  0.514221  1
  O  O7  1  0.291161  0.992583  0.100727  1
  O  O8  1  0.794959  0.591257  0.469504  1
  O  O9  1  0.036698  0.907735  0.695633  1
  O  O10  1  0.102645  0.295513  0.995879  1
  O  O11  1  0.468149  0.791741  0.596683  1
  O  O12  1  0.399961  0.508552  0.209395  1
  O  O13  1  0.899884  0.700499  0.025567  1
  O  O14  1  0.205566  0.401283  0.509778  1
  O  O15  1  0.703222  0.041493  0.907007  1
  O  O16  1  0.996517  0.105198  0.298930  1
  O  O17  1  0.578586  0.440932  0.795680  1
  O  O18  1  0.508194  0.207453  0.400645  1
