# generated using pymatgen
data_CaTiO2
_symmetry_space_group_name_H-M   'P 1'
_cell_length_a   3.42538511
_cell_length_b   9.46798775
_cell_length_c   8.62480909
_cell_angle_alpha   80.63079220
_cell_angle_beta   80.36219545
_cell_angle_gamma   69.37225750
_symmetry_Int_Tables_number   1
_chemical_formula_structural   CaTiO2
_chemical_formula_sum   'Ca4 Ti4 O8'
_cell_volume   256.44901729
_cell_formula_units_Z   4
loop_
 _symmetry_equiv_pos_site_id
 _symmetry_equiv_pos_as_xyz
  1  'x, y, z'
loop_
 _atom_site_type_symbol
 _atom_site_label
 _atom_site_symmetry_multiplicity
 _atom_site_fract_x
 _atom_site_fract_y
 _atom_site_fract_z
 _atom_site_occupancy
  Ca  Ca0  1  0.465459  0.071147  0.185384  1
  Ca  Ca1  1  0.354029  0.824801  0.867791  1
  Ca  Ca2  1  0.960192  0.216001  0.834354  1
  Ca  Ca3  1  0.299360  0.711830  0.247158  1
  Ti  Ti4  1  0.785129  0.157840  0.478620  1
  Ti  Ti5  1  0.115509  0.414721  0.208112  1
  Ti  Ti6  1  0.136084  0.521796  0.887510  1
  Ti  Ti7  1  0.114732  0.837238  0.542779  1
  O  O8  1  0.027847  0.708180  0.741957  1
  O  O9  1  0.667614  0.755806  0.454626  1
  O  O10  1  0.542662  0.456871  0.291517  1
  O  O11  1  0.232382  0.232568  0.395697  1
  O  O12  1  0.049259  0.010980  0.659777  1
  O  O13  1  0.283879  0.305933  0.012187  1
  O  O14  1  -0.022053  0.982792  0.346435  1
  O  O15  1  -0.043807  0.630832  0.071717  1
