# generated using pymatgen
data_CaTe2O7
_symmetry_space_group_name_H-M   'P 1'
_cell_length_a   7.46419397
_cell_length_b   7.61055415
_cell_length_c   8.85370677
_cell_angle_alpha   128.30190460
_cell_angle_beta   90.00000000
_cell_angle_gamma   90.00000000
_symmetry_Int_Tables_number   1
_chemical_formula_structural   CaTe2O7
_chemical_formula_sum   'Ca2 Te4 O14'
_cell_volume   394.69247603
_cell_formula_units_Z   2
loop_
 _symmetry_equiv_pos_site_id
 _symmetry_equiv_pos_as_xyz
  1  'x, y, z'
loop_
 _atom_site_type_symbol
 _atom_site_label
 _atom_site_symmetry_multiplicity
 _atom_site_fract_x
 _atom_site_fract_y
 _atom_site_fract_z
 _atom_site_occupancy
  Ca  Ca0  1  0.898327  0.620342  0.706313  1
  Ca  Ca1  1  0.398327  0.379658  0.293687  1
  Te  Te2  1  0.880348  0.236313  0.166915  1
  Te  Te3  1  0.380348  0.763687  0.833085  1
  Te  Te4  1  0.307003  0.863912  0.262118  1
  Te  Te5  1  0.807003  0.136088  0.737882  1
  O  O6  1  0.595266  0.030374  0.614052  1
  O  O7  1  0.095265  0.969626  0.385948  1
  O  O8  1  0.239531  0.597523  0.615144  1
  O  O9  1  0.739531  0.402477  0.384856  1
  O  O10  1  0.923779  0.355816  0.751774  1
  O  O11  1  0.423779  0.644184  0.248226  1
  O  O12  1  0.598585  0.631209  0.774586  1
  O  O13  1  0.098585  0.368791  0.225414  1
  O  O14  1  0.954535  0.927303  0.712972  1
  O  O15  1  0.454535  0.072697  0.287028  1
  O  O16  1  0.747809  0.299936  0.017008  1
  O  O17  1  0.247809  0.700064  0.982992  1
  O  O18  1  0.879875  0.936947  0.046053  1
  O  O19  1  0.379875  0.063053  0.953947  1
