# generated using pymatgen
data_Ba2Bi2F11
_symmetry_space_group_name_H-M   'P 1'
_cell_length_a   7.88716573
_cell_length_b   7.88716610
_cell_length_c   15.39732093
_cell_angle_alpha   90.00000000
_cell_angle_beta   90.00000000
_cell_angle_gamma   119.99999839
_symmetry_Int_Tables_number   1
_chemical_formula_structural   Ba2Bi2F11
_chemical_formula_sum   'Ba6 Bi6 F33'
_cell_volume   829.50260537
_cell_formula_units_Z   3
loop_
 _symmetry_equiv_pos_site_id
 _symmetry_equiv_pos_as_xyz
  1  'x, y, z'
loop_
 _atom_site_type_symbol
 _atom_site_label
 _atom_site_symmetry_multiplicity
 _atom_site_fract_x
 _atom_site_fract_y
 _atom_site_fract_z
 _atom_site_occupancy
  Ba  Ba0  1  0.519625  0.156826  0.651404  1
  Ba  Ba1  1  0.135012  0.410321  0.815711  1
  Ba  Ba2  1  0.637202  0.480375  0.984737  1
  Ba  Ba3  1  0.589679  0.724691  0.482377  1
  Ba  Ba4  1  0.275309  0.864988  0.149044  1
  Ba  Ba5  1  0.843174  0.362798  0.318070  1
  Bi  Bi6  1  0.528309  0.970488  0.895581  1
  Bi  Bi7  1  0.847294  0.802691  0.728852  1
  Bi  Bi8  1  0.197309  0.044602  0.395518  1
  Bi  Bi9  1  0.442180  0.471691  0.228914  1
  Bi  Bi10  1  0.955398  0.152706  0.062185  1
  Bi  Bi11  1  0.029512  0.557820  0.562247  1
  F  F12  1  0.649915  0.072142  0.043327  1
  F  F13  1  0.442117  0.671453  0.937839  1
  F  F14  1  0.422228  0.350085  0.376660  1
  F  F15  1  0.179146  0.477257  0.466716  1
  F  F16  1  0.562843  0.271723  0.187388  1
  F  F17  1  0.942799  0.597706  0.192587  1
  F  F18  1  0.522743  0.701889  0.133383  1
  F  F19  1  0.402294  0.345094  0.859254  1
  F  F20  1  0.708879  0.437157  0.520722  1
  F  F21  1  0.275510  0.307538  0.086535  1
  F  F22  1  0.298111  0.820854  0.800050  1
  F  F23  1  0.927858  0.577772  0.709994  1
  F  F24  1  0.325991  0.002900  0.979142  1
  F  F25  1  0.005518  0.434385  0.013733  1
  F  F26  1  0.676910  0.674009  0.312475  1
  F  F27  1  0.328547  0.770665  0.604505  1
  F  F28  1  0.909047  0.088179  0.921905  1
  F  F29  1  0.032028  0.724490  0.419868  1
  F  F30  1  0.929642  0.057329  0.403009  1
  F  F31  1  0.997100  0.323090  0.645808  1
  F  F32  1  0.127687  0.070358  0.736343  1
  F  F33  1  0.565615  0.571132  0.680400  1
  F  F34  1  0.428868  0.994482  0.347066  1
  F  F35  1  0.179132  0.090953  0.255238  1
  F  F36  1  0.692462  0.967972  0.753202  1
  F  F37  1  0.728276  0.291121  0.854056  1
  F  F38  1  0.229335  0.557883  0.271172  1
  F  F39  1  0.842817  0.723693  0.862336  1
  F  F40  1  0.880875  0.157183  0.195669  1
  F  F41  1  0.942671  0.872313  0.069676  1
  F  F42  1  0.654906  0.057201  0.525920  1
  F  F43  1  0.911821  0.820868  0.588571  1
  F  F44  1  0.276307  0.119125  0.529002  1
