# generated using pymatgen
data_CaCrF5
_symmetry_space_group_name_H-M   'P 1'
_cell_length_a   5.55485016
_cell_length_b   7.64830589
_cell_length_c   10.23796168
_cell_angle_alpha   90.00000000
_cell_angle_beta   90.00000000
_cell_angle_gamma   109.83926004
_symmetry_Int_Tables_number   1
_chemical_formula_structural   CaCrF5
_chemical_formula_sum   'Ca4 Cr4 F20'
_cell_volume   409.14611905
_cell_formula_units_Z   4
loop_
 _symmetry_equiv_pos_site_id
 _symmetry_equiv_pos_as_xyz
  1  'x, y, z'
loop_
 _atom_site_type_symbol
 _atom_site_label
 _atom_site_symmetry_multiplicity
 _atom_site_fract_x
 _atom_site_fract_y
 _atom_site_fract_z
 _atom_site_occupancy
  Ca  Ca0  1  0.471622  0.745896  0.019295  1
  Ca  Ca1  1  0.528378  0.754104  0.519295  1
  Ca  Ca2  1  0.528378  0.254104  0.980705  1
  Ca  Ca3  1  0.471622  0.245896  0.480705  1
  Cr  Cr4  1  0.891673  0.599117  0.753847  1
  Cr  Cr5  1  0.108327  0.900883  0.253847  1
  Cr  Cr6  1  0.108327  0.400883  0.246153  1
  Cr  Cr7  1  0.891673  0.099117  0.746153  1
  F  F8  1  0.612032  0.555949  0.881876  1
  F  F9  1  0.387968  0.944051  0.381876  1
  F  F10  1  0.387968  0.444051  0.118124  1
  F  F11  1  0.612032  0.055949  0.618124  1
  F  F12  1  0.643692  0.505601  0.612018  1
  F  F13  1  0.356308  0.994399  0.112018  1
  F  F14  1  0.356308  0.494399  0.387982  1
  F  F15  1  0.643692  0.005601  0.887982  1
  F  F16  1  0.877925  0.811299  0.395394  1
  F  F17  1  0.122075  0.688701  0.895394  1
  F  F18  1  0.122075  0.188701  0.604606  1
  F  F19  1  0.877925  0.311299  0.104606  1
  F  F20  1  0.829724  0.859140  0.136642  1
  F  F21  1  0.170276  0.640860  0.636642  1
  F  F22  1  0.170276  0.140860  0.863358  1
  F  F23  1  0.829724  0.359140  0.363358  1
  F  F24  1  0.851767  0.838372  0.703902  1
  F  F25  1  0.148233  0.661628  0.203902  1
  F  F26  1  0.148233  0.161628  0.296098  1
  F  F27  1  0.851767  0.338372  0.796098  1
