# generated using pymatgen
data_YCuO3
_symmetry_space_group_name_H-M   'P 1'
_cell_length_a   6.26946791
_cell_length_b   6.26946757
_cell_length_c   11.13304549
_cell_angle_alpha   90.00000000
_cell_angle_beta   90.00000000
_cell_angle_gamma   120.00000186
_symmetry_Int_Tables_number   1
_chemical_formula_structural   YCuO3
_chemical_formula_sum   'Y6 Cu6 O18'
_cell_volume   378.97097674
_cell_formula_units_Z   6
loop_
 _symmetry_equiv_pos_site_id
 _symmetry_equiv_pos_as_xyz
  1  'x, y, z'
loop_
 _atom_site_type_symbol
 _atom_site_label
 _atom_site_symmetry_multiplicity
 _atom_site_fract_x
 _atom_site_fract_y
 _atom_site_fract_z
 _atom_site_occupancy
  Y  Y0  1  0.666667  0.333333  0.235509  1
  Y  Y1  1  0.333333  0.666667  0.735509  1
  Y  Y2  1  0.666667  0.333333  0.735509  1
  Y  Y3  1  0.333333  0.666667  0.235509  1
  Y  Y4  1  0.000000  0.000000  0.774266  1
  Y  Y5  1  0.000000  0.000000  0.274266  1
  Cu  Cu6  1  0.666805  0.000000  0.501411  1
  Cu  Cu7  1  0.666805  0.666805  0.001411  1
  Cu  Cu8  1  1.000000  0.333195  0.001411  1
  Cu  Cu9  1  0.000000  0.666805  0.501411  1
  Cu  Cu10  1  0.333195  0.333195  0.501411  1
  Cu  Cu11  1  0.333195  0.000000  0.001411  1
  O  O12  1  0.666667  0.333333  0.016412  1
  O  O13  1  0.333333  0.666667  0.516412  1
  O  O14  1  0.666667  0.333333  0.516412  1
  O  O15  1  0.333333  0.666667  0.016412  1
  O  O16  1  0.000000  0.000000  0.984082  1
  O  O17  1  0.000000  0.000000  0.484082  1
  O  O18  1  0.353899  0.000000  0.837057  1
  O  O19  1  0.353899  0.353899  0.337057  1
  O  O20  1  0.000000  0.646101  0.337057  1
  O  O21  1  1.000000  0.353899  0.837057  1
  O  O22  1  0.646101  0.646101  0.837057  1
  O  O23  1  0.646101  0.000000  0.337057  1
  O  O24  1  0.312142  0.000000  0.165802  1
  O  O25  1  0.312142  0.312142  0.665802  1
  O  O26  1  1.000000  0.687858  0.665802  1
  O  O27  1  0.000000  0.312142  0.165802  1
  O  O28  1  0.687858  0.687858  0.165802  1
  O  O29  1  0.687858  0.000000  0.665802  1
