# generated using pymatgen
data_Ca2AlBiO5
_symmetry_space_group_name_H-M   'P 1'
_cell_length_a   5.65762759
_cell_length_b   6.04238109
_cell_length_c   8.75621393
_cell_angle_alpha   110.21352916
_cell_angle_beta   107.44153779
_cell_angle_gamma   89.95946059
_symmetry_Int_Tables_number   1
_chemical_formula_structural   Ca2AlBiO5
_chemical_formula_sum   'Ca4 Al2 Bi2 O10'
_cell_volume   266.21088595
_cell_formula_units_Z   2
loop_
 _symmetry_equiv_pos_site_id
 _symmetry_equiv_pos_as_xyz
  1  'x, y, z'
loop_
 _atom_site_type_symbol
 _atom_site_label
 _atom_site_symmetry_multiplicity
 _atom_site_fract_x
 _atom_site_fract_y
 _atom_site_fract_z
 _atom_site_occupancy
  Ca  Ca0  1  0.164248  0.627291  0.239451  1
  Ca  Ca1  1  0.413283  0.888656  0.710632  1
  Ca  Ca2  1  0.919304  0.328198  0.710845  1
  Ca  Ca3  1  0.636829  0.105013  0.238273  1
  Al  Al4  1  0.280013  0.311123  0.485793  1
  Al  Al5  1  0.780825  0.676672  0.484662  1
  Bi  Bi6  1  0.522694  0.496365  0.007822  1
  Bi  Bi7  1  0.008260  0.006211  0.008863  1
  O  O8  1  0.588559  0.442265  0.503957  1
  O  O9  1  0.092433  0.568765  0.509710  1
  O  O10  1  0.635104  0.747223  0.298112  1
  O  O11  1  0.293770  0.232096  0.665193  1
  O  O12  1  0.156959  0.046308  0.299936  1
  O  O13  1  0.793866  0.937831  0.664106  1
  O  O14  1  0.113059  0.608509  0.966019  1
  O  O15  1  0.340379  0.290878  0.114595  1
  O  O16  1  0.850501  0.330510  0.141460  1
  O  O17  1  0.603548  0.856451  0.964713  1
