# generated using pymatgen
data_MgSnBiO5
_symmetry_space_group_name_H-M   'P 1'
_cell_length_a   5.30313483
_cell_length_b   10.37084510
_cell_length_c   15.42393608
_cell_angle_alpha   90.00000000
_cell_angle_beta   90.00000000
_cell_angle_gamma   90.00000000
_symmetry_Int_Tables_number   1
_chemical_formula_structural   MgSnBiO5
_chemical_formula_sum   'Mg8 Sn8 Bi8 O40'
_cell_volume   848.28548023
_cell_formula_units_Z   8
loop_
 _symmetry_equiv_pos_site_id
 _symmetry_equiv_pos_as_xyz
  1  'x, y, z'
loop_
 _atom_site_type_symbol
 _atom_site_label
 _atom_site_symmetry_multiplicity
 _atom_site_fract_x
 _atom_site_fract_y
 _atom_site_fract_z
 _atom_site_occupancy
  Mg  Mg0  1  0.534720  0.378800  0.435677  1
  Mg  Mg1  1  0.034720  0.121200  0.435677  1
  Mg  Mg2  1  0.034720  0.621200  0.064323  1
  Mg  Mg3  1  0.965280  0.378800  0.935677  1
  Mg  Mg4  1  0.465280  0.121200  0.935677  1
  Mg  Mg5  1  0.965280  0.878800  0.564323  1
  Mg  Mg6  1  0.465280  0.621200  0.564323  1
  Mg  Mg7  1  0.534720  0.878800  0.064323  1
  Sn  Sn8  1  0.046851  0.377074  0.565765  1
  Sn  Sn9  1  0.453149  0.877074  0.434235  1
  Sn  Sn10  1  0.953149  0.622926  0.434235  1
  Sn  Sn11  1  0.546851  0.122926  0.565765  1
  Sn  Sn12  1  0.953149  0.122926  0.065765  1
  Sn  Sn13  1  0.046851  0.877074  0.934235  1
  Sn  Sn14  1  0.453149  0.377074  0.065765  1
  Sn  Sn15  1  0.546851  0.622926  0.934235  1
  Bi  Bi16  1  0.988673  0.857309  0.242876  1
  Bi  Bi17  1  0.011327  0.142691  0.757124  1
  Bi  Bi18  1  0.511327  0.357309  0.757124  1
  Bi  Bi19  1  0.011327  0.642691  0.742876  1
  Bi  Bi20  1  0.488673  0.142691  0.257124  1
  Bi  Bi21  1  0.488673  0.642691  0.242876  1
  Bi  Bi22  1  0.511327  0.857309  0.742876  1
  Bi  Bi23  1  0.988673  0.357309  0.257124  1
  O  O24  1  0.857083  0.306990  0.678659  1
  O  O25  1  0.241591  0.001947  0.025909  1
  O  O26  1  0.258409  0.501947  0.974091  1
  O  O27  1  0.316434  0.798152  0.166816  1
  O  O28  1  0.183566  0.298152  0.833184  1
  O  O29  1  0.857083  0.806990  0.821341  1
  O  O30  1  0.183566  0.798152  0.666816  1
  O  O31  1  0.642917  0.806990  0.321341  1
  O  O32  1  0.241591  0.501947  0.474091  1
  O  O33  1  0.142917  0.693010  0.321341  1
  O  O34  1  0.642917  0.306990  0.178659  1
  O  O35  1  0.814428  0.241460  0.508588  1
  O  O36  1  0.741591  0.998053  0.474091  1
  O  O37  1  0.683566  0.701848  0.666816  1
  O  O38  1  0.255653  0.995905  0.846224  1
  O  O39  1  0.741591  0.498053  0.025909  1
  O  O40  1  0.142917  0.193010  0.178659  1
  O  O41  1  0.816434  0.201848  0.333184  1
  O  O42  1  0.314428  0.758540  0.991412  1
  O  O43  1  0.258409  0.001947  0.525909  1
  O  O44  1  0.185572  0.758540  0.491412  1
  O  O45  1  0.744347  0.004095  0.153776  1
  O  O46  1  0.683566  0.201848  0.833184  1
  O  O47  1  0.755653  0.004095  0.653776  1
  O  O48  1  0.185572  0.258540  0.008588  1
  O  O49  1  0.314428  0.258540  0.508588  1
  O  O50  1  0.758409  0.498053  0.525909  1
  O  O51  1  0.758409  0.998053  0.974091  1
  O  O52  1  0.755653  0.504095  0.846224  1
  O  O53  1  0.685572  0.741460  0.491412  1
  O  O54  1  0.685572  0.241460  0.008588  1
  O  O55  1  0.814428  0.741460  0.991412  1
  O  O56  1  0.744347  0.504095  0.346224  1
  O  O57  1  0.816434  0.701848  0.166816  1
  O  O58  1  0.316434  0.298152  0.333184  1
  O  O59  1  0.255653  0.495905  0.653776  1
  O  O60  1  0.244347  0.495905  0.153776  1
  O  O61  1  0.357083  0.193010  0.678659  1
  O  O62  1  0.244347  0.995905  0.346224  1
  O  O63  1  0.357083  0.693010  0.821341  1
