# generated using pymatgen
data_Be3Cr2(SiO4)3
_symmetry_space_group_name_H-M   'P 1'
_cell_length_a   7.49015796
_cell_length_b   7.99768519
_cell_length_c   13.76178978
_cell_angle_alpha   89.87522086
_cell_angle_beta   90.00000000
_cell_angle_gamma   90.00000000
_symmetry_Int_Tables_number   1
_chemical_formula_structural   Be3Cr2(SiO4)3
_chemical_formula_sum   'Be12 Cr8 Si12 O48'
_cell_volume   824.38327347
_cell_formula_units_Z   4
loop_
 _symmetry_equiv_pos_site_id
 _symmetry_equiv_pos_as_xyz
  1  'x, y, z'
loop_
 _atom_site_type_symbol
 _atom_site_label
 _atom_site_symmetry_multiplicity
 _atom_site_fract_x
 _atom_site_fract_y
 _atom_site_fract_z
 _atom_site_occupancy
  Be  Be0  1  0.857657  0.925876  0.765106  1
  Be  Be1  1  0.649456  0.925180  0.401835  1
  Be  Be2  1  0.149457  0.574820  0.098165  1
  Be  Be3  1  0.350543  0.074819  0.598165  1
  Be  Be4  1  0.850543  0.425179  0.901835  1
  Be  Be5  1  0.142145  0.614435  0.414241  1
  Be  Be6  1  0.642145  0.885565  0.085759  1
  Be  Be7  1  0.857855  0.385564  0.585759  1
  Be  Be8  1  0.357854  0.114435  0.914241  1
  Be  Be9  1  0.642343  0.425876  0.265106  1
  Be  Be10  1  0.142343  0.074123  0.234894  1
  Be  Be11  1  0.357658  0.574124  0.734894  1
  Cr  Cr12  1  0.449033  0.245028  0.088600  1
  Cr  Cr13  1  0.050967  0.745029  0.588600  1
  Cr  Cr14  1  0.550968  0.754972  0.911400  1
  Cr  Cr15  1  0.949033  0.254971  0.411400  1
  Cr  Cr16  1  0.560546  0.244933  0.423830  1
  Cr  Cr17  1  0.060547  0.255066  0.076170  1
  Cr  Cr18  1  0.439454  0.755067  0.576170  1
  Cr  Cr19  1  0.939453  0.744934  0.923830  1
  Si  Si20  1  0.236928  0.931337  0.766587  1
  Si  Si21  1  0.736928  0.568663  0.733413  1
  Si  Si22  1  0.763072  0.068662  0.233413  1
  Si  Si23  1  0.263073  0.431337  0.266587  1
  Si  Si24  1  0.738259  0.112976  0.918594  1
  Si  Si25  1  0.238259  0.387025  0.581406  1
  Si  Si26  1  0.261741  0.887024  0.081406  1
  Si  Si27  1  0.761740  0.612976  0.418594  1
  Si  Si28  1  0.239434  0.438784  0.900880  1
  Si  Si29  1  0.739435  0.061215  0.599120  1
  Si  Si30  1  0.760566  0.561216  0.099120  1
  Si  Si31  1  0.260565  0.938784  0.400880  1
  O  O32  1  0.115417  0.751866  0.036654  1
  O  O33  1  0.046881  0.896470  0.824105  1
  O  O34  1  0.546881  0.603530  0.675895  1
  O  O35  1  0.953119  0.103530  0.175895  1
  O  O36  1  0.453118  0.396469  0.324105  1
  O  O37  1  0.545134  0.185178  0.959126  1
  O  O38  1  0.045134  0.314822  0.540875  1
  O  O39  1  0.454866  0.814822  0.040874  1
  O  O40  1  0.954865  0.685178  0.459125  1
  O  O41  1  0.039893  0.525791  0.888059  1
  O  O42  1  0.539893  0.974209  0.611941  1
  O  O43  1  0.960107  0.474210  0.111941  1
  O  O44  1  0.118222  0.079395  0.355508  1
  O  O45  1  0.618221  0.420606  0.144492  1
  O  O46  1  0.881779  0.920605  0.644492  1
  O  O47  1  0.381779  0.579395  0.855508  1
  O  O48  1  0.615418  0.748134  0.463346  1
  O  O49  1  0.460108  0.025791  0.388059  1
  O  O50  1  0.384583  0.251866  0.536654  1
  O  O51  1  0.884583  0.248133  0.963346  1
  O  O52  1  0.759998  0.079663  0.475424  1
  O  O53  1  0.610291  0.064249  0.145746  1
  O  O54  1  0.889709  0.564248  0.645746  1
  O  O55  1  0.389708  0.935751  0.854254  1
  O  O56  1  0.737013  0.419255  0.809326  1
  O  O57  1  0.237013  0.080744  0.690674  1
  O  O58  1  0.262987  0.580745  0.190674  1
  O  O59  1  0.762986  0.919255  0.309326  1
  O  O60  1  0.749657  0.071587  0.806343  1
  O  O61  1  0.249657  0.428414  0.693657  1
  O  O62  1  0.250342  0.928413  0.193657  1
  O  O63  1  0.750343  0.571587  0.306343  1
  O  O64  1  0.249473  0.251436  0.864542  1
  O  O65  1  0.749472  0.248564  0.635459  1
  O  O66  1  0.750528  0.748563  0.135458  1
  O  O67  1  0.250528  0.751437  0.364541  1
  O  O68  1  0.756943  0.742226  0.805795  1
  O  O69  1  0.256942  0.757774  0.694205  1
  O  O70  1  0.243057  0.257773  0.194205  1
  O  O71  1  0.743058  0.242227  0.305795  1
  O  O72  1  0.751265  0.919976  0.972342  1
  O  O73  1  0.251264  0.580024  0.527658  1
  O  O74  1  0.248735  0.080024  0.027658  1
  O  O75  1  0.748736  0.419975  0.472342  1
  O  O76  1  0.740003  0.579662  0.975424  1
  O  O77  1  0.240003  0.920337  0.524576  1
  O  O78  1  0.259997  0.420338  0.024576  1
  O  O79  1  0.110291  0.435751  0.354254  1
