# generated using pymatgen
data_Zn2SbWO6
_symmetry_space_group_name_H-M   'P 1'
_cell_length_a   5.47123150
_cell_length_b   5.46274711
_cell_length_c   8.18731042
_cell_angle_alpha   90.00000000
_cell_angle_beta   88.69828104
_cell_angle_gamma   90.00000000
_symmetry_Int_Tables_number   1
_chemical_formula_structural   Zn2SbWO6
_chemical_formula_sum   'Zn4 Sb2 W2 O12'
_cell_volume   244.63880680
_cell_formula_units_Z   2
loop_
 _symmetry_equiv_pos_site_id
 _symmetry_equiv_pos_as_xyz
  1  'x, y, z'
loop_
 _atom_site_type_symbol
 _atom_site_label
 _atom_site_symmetry_multiplicity
 _atom_site_fract_x
 _atom_site_fract_y
 _atom_site_fract_z
 _atom_site_occupancy
  Zn  Zn0  1  0.022216  0.017591  0.253829  1
  Zn  Zn1  1  0.477784  0.517592  0.246171  1
  Zn  Zn2  1  0.977785  0.982410  0.746171  1
  Zn  Zn3  1  0.522215  0.482409  0.753829  1
  Sb  Sb4  1  0.500000  0.000000  0.000000  1
  Sb  Sb5  1  0.000001  0.499999  0.500000  1
  W  W6  1  0.500000  0.000000  0.499999  1
  W  W7  1  0.000000  0.499999  0.000000  1
  O  O8  1  0.637622  0.317327  0.416691  1
  O  O9  1  0.862378  0.817328  0.083309  1
  O  O10  1  0.362377  0.682673  0.583309  1
  O  O11  1  0.137623  0.182672  0.916691  1
  O  O12  1  0.179379  0.144658  0.564250  1
  O  O13  1  0.320621  0.644657  0.935750  1
  O  O14  1  0.820622  0.855342  0.435750  1
  O  O15  1  0.679378  0.355343  0.064250  1
  O  O16  1  0.122306  0.381721  0.227521  1
  O  O17  1  0.377695  0.881722  0.272478  1
  O  O18  1  0.622306  0.118278  0.727522  1
  O  O19  1  0.877695  0.618279  0.772479  1
