# generated using pymatgen
data_V4ZnS8
_symmetry_space_group_name_H-M   'P 1'
_cell_length_a   6.96950712
_cell_length_b   6.88473050
_cell_length_c   6.88473123
_cell_angle_alpha   60.00000098
_cell_angle_beta   60.40156722
_cell_angle_gamma   60.40156166
_symmetry_Int_Tables_number   1
_chemical_formula_structural   V4ZnS8
_chemical_formula_sum   'V4 Zn1 S8'
_cell_volume   235.00144077
_cell_formula_units_Z   1
loop_
 _symmetry_equiv_pos_site_id
 _symmetry_equiv_pos_as_xyz
  1  'x, y, z'
loop_
 _atom_site_type_symbol
 _atom_site_label
 _atom_site_symmetry_multiplicity
 _atom_site_fract_x
 _atom_site_fract_y
 _atom_site_fract_z
 _atom_site_occupancy
  V  V0  1  0.000000  0.500000  0.500000  1
  V  V1  1  0.500000  0.500000  0.000000  1
  V  V2  1  0.500000  0.500000  0.500000  1
  V  V3  1  0.500000  0.000000  0.500000  1
  Zn  Zn4  1  0.500000  0.000000  0.000000  1
  S  S5  1  0.254008  0.253515  0.253515  1
  S  S6  1  0.254008  0.253515  0.738961  1
  S  S7  1  0.254008  0.738961  0.253515  1
  S  S8  1  0.736796  0.254401  0.254401  1
  S  S9  1  0.263204  0.745599  0.745599  1
  S  S10  1  0.745992  0.746485  0.261039  1
  S  S11  1  0.745992  0.261039  0.746485  1
  S  S12  1  0.745992  0.746485  0.746485  1
