# generated using pymatgen
data_Zn2CoSbO6
_symmetry_space_group_name_H-M   'P 1'
_cell_length_a   5.27749234
_cell_length_b   5.28007412
_cell_length_c   7.70289887
_cell_angle_alpha   90.00000000
_cell_angle_beta   90.00000000
_cell_angle_gamma   89.82436345
_symmetry_Int_Tables_number   1
_chemical_formula_structural   Zn2CoSbO6
_chemical_formula_sum   'Zn4 Co2 Sb2 O12'
_cell_volume   214.64451080
_cell_formula_units_Z   2
loop_
 _symmetry_equiv_pos_site_id
 _symmetry_equiv_pos_as_xyz
  1  'x, y, z'
loop_
 _atom_site_type_symbol
 _atom_site_label
 _atom_site_symmetry_multiplicity
 _atom_site_fract_x
 _atom_site_fract_y
 _atom_site_fract_z
 _atom_site_occupancy
  Zn  Zn0  1  0.512098  0.548785  0.750000  1
  Zn  Zn1  1  0.487902  0.451215  0.250000  1
  Zn  Zn2  1  0.022139  0.018058  0.750000  1
  Zn  Zn3  1  0.977861  0.981942  0.250000  1
  Co  Co4  1  0.500000  0.000000  0.500000  1
  Co  Co5  1  0.500000  0.000000  0.000000  1
  Sb  Sb6  1  0.000000  0.500000  0.500000  1
  Sb  Sb7  1  0.000000  0.500000  0.000000  1
  O  O8  1  0.320079  0.674554  0.434790  1
  O  O9  1  0.169583  0.175138  0.066476  1
  O  O10  1  0.679921  0.325446  0.934790  1
  O  O11  1  0.830417  0.824862  0.566476  1
  O  O12  1  0.169583  0.175138  0.433524  1
  O  O13  1  0.830417  0.824862  0.933524  1
  O  O14  1  0.869226  0.580698  0.250000  1
  O  O15  1  0.320079  0.674554  0.065210  1
  O  O16  1  0.391549  0.916575  0.750000  1
  O  O17  1  0.679921  0.325446  0.565210  1
  O  O18  1  0.130774  0.419302  0.750000  1
  O  O19  1  0.608451  0.083425  0.250000  1
