# generated using pymatgen
data_Al2FeO4
_symmetry_space_group_name_H-M   'P 1'
_cell_length_a   5.82490414
_cell_length_b   5.82490417
_cell_length_c   5.90566268
_cell_angle_alpha   59.54030789
_cell_angle_beta   59.54030766
_cell_angle_gamma   58.86455267
_symmetry_Int_Tables_number   1
_chemical_formula_structural   Al2FeO4
_chemical_formula_sum   'Al4 Fe2 O8'
_cell_volume   139.46465517
_cell_formula_units_Z   2
loop_
 _symmetry_equiv_pos_site_id
 _symmetry_equiv_pos_as_xyz
  1  'x, y, z'
loop_
 _atom_site_type_symbol
 _atom_site_label
 _atom_site_symmetry_multiplicity
 _atom_site_fract_x
 _atom_site_fract_y
 _atom_site_fract_z
 _atom_site_occupancy
  Al  Al0  1  0.135780  0.135780  0.114220  1
  Al  Al1  1  0.500000  0.500000  0.000000  1
  Al  Al2  1  0.500000  0.500000  0.500000  1
  Al  Al3  1  0.864220  0.864220  0.885780  1
  Fe  Fe4  1  0.000000  0.500000  0.500000  1
  Fe  Fe5  1  0.500000  0.000000  0.500000  1
  O  O6  1  0.268423  0.268423  0.222752  1
  O  O7  1  0.268423  0.268423  0.740403  1
  O  O8  1  0.269998  0.743071  0.243466  1
  O  O9  1  0.743071  0.269998  0.243466  1
  O  O10  1  0.256929  0.730002  0.756534  1
  O  O11  1  0.730002  0.256929  0.756534  1
  O  O12  1  0.731577  0.731577  0.259597  1
  O  O13  1  0.731577  0.731577  0.777248  1
