# generated using pymatgen
data_CaCu2(P2O7)2
_symmetry_space_group_name_H-M   'P 1'
_cell_length_a   5.41887068
_cell_length_b   7.99159944
_cell_length_c   12.87680256
_cell_angle_alpha   90.19229163
_cell_angle_beta   93.55514812
_cell_angle_gamma   90.21367155
_symmetry_Int_Tables_number   1
_chemical_formula_structural   CaCu2(P2O7)2
_chemical_formula_sum   'Ca2 Cu4 P8 O28'
_cell_volume   556.55505804
_cell_formula_units_Z   2
loop_
 _symmetry_equiv_pos_site_id
 _symmetry_equiv_pos_as_xyz
  1  'x, y, z'
loop_
 _atom_site_type_symbol
 _atom_site_label
 _atom_site_symmetry_multiplicity
 _atom_site_fract_x
 _atom_site_fract_y
 _atom_site_fract_z
 _atom_site_occupancy
  Ca  Ca0  1  0.705077  0.684415  0.730679  1
  Ca  Ca1  1  0.294923  0.315585  0.269321  1
  Cu  Cu2  1  0.274219  0.359058  0.619359  1
  Cu  Cu3  1  0.234151  0.860483  0.878804  1
  Cu  Cu4  1  0.725781  0.640942  0.380641  1
  Cu  Cu5  1  0.765849  0.139517  0.121196  1
  P  P6  1  0.814720  0.303307  0.487436  1
  P  P7  1  0.690257  0.800967  0.011584  1
  P  P8  1  0.185280  0.696693  0.512564  1
  P  P9  1  0.309743  0.199033  0.988416  1
  P  P10  1  0.264714  0.970302  0.667315  1
  P  P11  1  0.229505  0.473867  0.830147  1
  P  P12  1  0.735286  0.029698  0.332685  1
  P  P13  1  0.770495  0.526133  0.169853  1
  O  O14  1  0.700283  0.324280  0.589062  1
  O  O15  1  0.803889  0.798016  0.907835  1
  O  O16  1  0.299717  0.675720  0.410938  1
  O  O17  1  0.196111  0.201984  0.092165  1
  O  O18  1  0.594513  0.163780  0.992676  1
  O  O19  1  0.898761  0.663170  0.513376  1
  O  O20  1  0.405487  0.836220  0.007324  1
  O  O21  1  0.101239  0.336830  0.486624  1
  O  O22  1  0.962793  0.479629  0.793977  1
  O  O23  1  0.529459  0.943492  0.704293  1
  O  O24  1  0.037207  0.520371  0.206023  1
  O  O25  1  0.470541  0.056508  0.295707  1
  O  O26  1  0.272626  0.386556  0.941261  1
  O  O27  1  0.216977  0.887989  0.552539  1
  O  O28  1  0.727374  0.613444  0.058739  1
  O  O29  1  0.783023  0.112011  0.447461  1
  O  O30  1  0.645364  0.349899  0.155892  1
  O  O31  1  0.834961  0.851094  0.344361  1
  O  O32  1  0.354636  0.650101  0.844108  1
  O  O33  1  0.165039  0.148906  0.655639  1
  O  O34  1  0.683852  0.404686  0.395101  1
  O  O35  1  0.816859  0.911362  0.098358  1
  O  O36  1  0.316148  0.595314  0.604899  1
  O  O37  1  0.183141  0.088638  0.901642  1
  O  O38  1  0.918110  0.122288  0.261805  1
  O  O39  1  0.590821  0.614275  0.242591  1
  O  O40  1  0.081890  0.877712  0.738195  1
  O  O41  1  0.409179  0.385725  0.757409  1
