# generated using pymatgen
data_Be3Si3(NiO6)2
_symmetry_space_group_name_H-M   'P 1'
_cell_length_a   7.62180225
_cell_length_b   7.97779531
_cell_length_c   13.74174476
_cell_angle_alpha   90.18420089
_cell_angle_beta   89.89204641
_cell_angle_gamma   89.93785461
_symmetry_Int_Tables_number   1
_chemical_formula_structural   Be3Si3(NiO6)2
_chemical_formula_sum   'Be12 Si12 Ni8 O48'
_cell_volume   835.56294107
_cell_formula_units_Z   4
loop_
 _symmetry_equiv_pos_site_id
 _symmetry_equiv_pos_as_xyz
  1  'x, y, z'
loop_
 _atom_site_type_symbol
 _atom_site_label
 _atom_site_symmetry_multiplicity
 _atom_site_fract_x
 _atom_site_fract_y
 _atom_site_fract_z
 _atom_site_occupancy
  Be  Be0  1  0.858182  0.921419  0.765310  1
  Be  Be1  1  0.643996  0.930682  0.405046  1
  Be  Be2  1  0.144025  0.569483  0.095108  1
  Be  Be3  1  0.355949  0.069307  0.594962  1
  Be  Be4  1  0.856086  0.430548  0.904866  1
  Be  Be5  1  0.140777  0.611340  0.417651  1
  Be  Be6  1  0.640707  0.888524  0.082413  1
  Be  Be7  1  0.859177  0.388566  0.582330  1
  Be  Be8  1  0.359356  0.111365  0.917626  1
  Be  Be9  1  0.641715  0.421552  0.265299  1
  Be  Be10  1  0.141858  0.078468  0.234666  1
  Be  Be11  1  0.358241  0.578344  0.734646  1
  Si  Si12  1  0.230972  0.921571  0.770708  1
  Si  Si13  1  0.731074  0.578519  0.729375  1
  Si  Si14  1  0.768970  0.078391  0.229321  1
  Si  Si15  1  0.268965  0.421541  0.270593  1
  Si  Si16  1  0.734228  0.114400  0.925738  1
  Si  Si17  1  0.233972  0.385719  0.574285  1
  Si  Si18  1  0.265834  0.885612  0.074306  1
  Si  Si19  1  0.765973  0.614286  0.425701  1
  Si  Si20  1  0.235911  0.449508  0.903268  1
  Si  Si21  1  0.735753  0.050509  0.596744  1
  Si  Si22  1  0.764149  0.550554  0.096751  1
  Si  Si23  1  0.264184  0.949497  0.403288  1
  Ni  Ni24  1  0.449505  0.248817  0.090511  1
  Ni  Ni25  1  0.050579  0.748707  0.590375  1
  Ni  Ni26  1  0.550492  0.751218  0.909515  1
  Ni  Ni27  1  0.949364  0.251310  0.409623  1
  Ni  Ni28  1  0.561329  0.250810  0.426718  1
  Ni  Ni29  1  0.061146  0.249437  0.073075  1
  Ni  Ni30  1  0.438652  0.749149  0.573224  1
  Ni  Ni31  1  0.938809  0.750636  0.926999  1
  O  O32  1  0.116689  0.749499  0.040999  1
  O  O33  1  0.040711  0.906837  0.824560  1
  O  O34  1  0.541068  0.593092  0.675493  1
  O  O35  1  0.959262  0.093130  0.175484  1
  O  O36  1  0.458945  0.406942  0.324483  1
  O  O37  1  0.541887  0.187833  0.957154  1
  O  O38  1  0.042072  0.311874  0.542906  1
  O  O39  1  0.458191  0.812098  0.042915  1
  O  O40  1  0.957866  0.688143  0.457067  1
  O  O41  1  0.039233  0.526237  0.884476  1
  O  O42  1  0.539160  0.973638  0.615558  1
  O  O43  1  0.960829  0.473833  0.115549  1
  O  O44  1  0.119470  0.074180  0.352678  1
  O  O45  1  0.619724  0.425611  0.147439  1
  O  O46  1  0.880462  0.925828  0.647344  1
  O  O47  1  0.380369  0.574393  0.852551  1
  O  O48  1  0.616411  0.750534  0.459011  1
  O  O49  1  0.460813  0.026282  0.384432  1
  O  O50  1  0.383501  0.249439  0.540939  1
  O  O51  1  0.883345  0.250551  0.959028  1
  O  O52  1  0.756665  0.071966  0.476009  1
  O  O53  1  0.616065  0.060066  0.146262  1
  O  O54  1  0.884047  0.560069  0.646025  1
  O  O55  1  0.383838  0.939932  0.853775  1
  O  O56  1  0.739230  0.425301  0.808570  1
  O  O57  1  0.238723  0.075025  0.691558  1
  O  O58  1  0.260894  0.574686  0.191376  1
  O  O59  1  0.761290  0.924947  0.308455  1
  O  O60  1  0.744016  0.071794  0.808952  1
  O  O61  1  0.243948  0.428582  0.691029  1
  O  O62  1  0.256092  0.928356  0.191051  1
  O  O63  1  0.756146  0.571384  0.308957  1
  O  O64  1  0.250390  0.255446  0.864925  1
  O  O65  1  0.750102  0.244561  0.634984  1
  O  O66  1  0.749690  0.744592  0.135056  1
  O  O67  1  0.249806  0.755548  0.364934  1
  O  O68  1  0.750787  0.746986  0.801160  1
  O  O69  1  0.250996  0.753149  0.698725  1
  O  O70  1  0.249198  0.253019  0.198843  1
  O  O71  1  0.748900  0.246807  0.301312  1
  O  O72  1  0.754282  0.925852  0.977005  1
  O  O73  1  0.253889  0.574227  0.522942  1
  O  O74  1  0.245672  0.074162  0.022986  1
  O  O75  1  0.746012  0.425771  0.477043  1
  O  O76  1  0.743401  0.572150  0.976096  1
  O  O77  1  0.243275  0.928022  0.524019  1
  O  O78  1  0.256705  0.427848  0.023886  1
  O  O79  1  0.116006  0.439989  0.353962  1
