# generated using pymatgen
data_TiZn2WO6
_symmetry_space_group_name_H-M   'P 1'
_cell_length_a   5.27984466
_cell_length_b   5.30871337
_cell_length_c   7.76801851
_cell_angle_alpha   90.00000000
_cell_angle_beta   91.44725040
_cell_angle_gamma   90.00000000
_symmetry_Int_Tables_number   1
_chemical_formula_structural   TiZn2WO6
_chemical_formula_sum   'Ti2 Zn4 W2 O12'
_cell_volume   217.66174810
_cell_formula_units_Z   2
loop_
 _symmetry_equiv_pos_site_id
 _symmetry_equiv_pos_as_xyz
  1  'x, y, z'
loop_
 _atom_site_type_symbol
 _atom_site_label
 _atom_site_symmetry_multiplicity
 _atom_site_fract_x
 _atom_site_fract_y
 _atom_site_fract_z
 _atom_site_occupancy
  Ti  Ti0  1  0.500000  0.000000  0.000000  1
  Ti  Ti1  1  0.000001  0.499999  0.500000  1
  Zn  Zn2  1  0.006190  0.031295  0.253495  1
  Zn  Zn3  1  0.493810  0.531296  0.246505  1
  Zn  Zn4  1  0.993811  0.968706  0.746506  1
  Zn  Zn5  1  0.506189  0.468705  0.753494  1
  W  W6  1  0.500000  0.000000  0.499999  1
  W  W7  1  0.000000  0.499999  0.000000  1
  O  O8  1  0.678287  0.326016  0.434104  1
  O  O9  1  0.821713  0.826017  0.065896  1
  O  O10  1  0.321712  0.673984  0.565896  1
  O  O11  1  0.178288  0.173983  0.934104  1
  O  O12  1  0.163340  0.187143  0.568964  1
  O  O13  1  0.336660  0.687142  0.931036  1
  O  O14  1  0.836661  0.812857  0.431036  1
  O  O15  1  0.663339  0.312858  0.068964  1
  O  O16  1  0.116912  0.421985  0.255178  1
  O  O17  1  0.383089  0.921986  0.244821  1
  O  O18  1  0.616912  0.078014  0.755179  1
  O  O19  1  0.883089  0.578015  0.744822  1
