# generated using pymatgen
data_MgSn2O5
_symmetry_space_group_name_H-M   'P 1'
_cell_length_a   3.41917449
_cell_length_b   5.19845583
_cell_length_c   12.70695837
_cell_angle_alpha   89.92001181
_cell_angle_beta   90.69564684
_cell_angle_gamma   89.64460498
_symmetry_Int_Tables_number   1
_chemical_formula_structural   MgSn2O5
_chemical_formula_sum   'Mg2 Sn4 O10'
_cell_volume   225.83767512
_cell_formula_units_Z   2
loop_
 _symmetry_equiv_pos_site_id
 _symmetry_equiv_pos_as_xyz
  1  'x, y, z'
loop_
 _atom_site_type_symbol
 _atom_site_label
 _atom_site_symmetry_multiplicity
 _atom_site_fract_x
 _atom_site_fract_y
 _atom_site_fract_z
 _atom_site_occupancy
  Mg  Mg0  1  0.744896  0.895815  0.251041  1
  Mg  Mg1  1  0.253832  0.105104  0.748489  1
  Sn  Sn2  1  0.251637  0.399497  0.107062  1
  Sn  Sn3  1  0.743573  0.601978  0.893116  1
  Sn  Sn4  1  0.755864  0.601817  0.606661  1
  Sn  Sn5  1  0.248132  0.398376  0.393215  1
  O  O6  1  0.755307  0.411520  0.749811  1
  O  O7  1  0.247350  0.589355  0.250141  1
  O  O8  1  0.748820  0.590736  0.068982  1
  O  O9  1  0.246319  0.411292  0.931227  1
  O  O10  1  0.747578  0.589989  0.430707  1
  O  O11  1  0.256281  0.410497  0.568829  1
  O  O12  1  0.231071  0.039025  0.355085  1
  O  O13  1  0.774914  0.961191  0.644461  1
  O  O14  1  0.717143  0.960200  0.853263  1
  O  O15  1  0.267728  0.040635  0.146168  1
