# generated using pymatgen
data_YMo3Se2ClO8
_symmetry_space_group_name_H-M   'P 1'
_cell_length_a   6.74570887
_cell_length_b   7.20450273
_cell_length_c   10.80697104
_cell_angle_alpha   93.62742289
_cell_angle_beta   90.35021191
_cell_angle_gamma   89.15430283
_symmetry_Int_Tables_number   1
_chemical_formula_structural   YMo3Se2ClO8
_chemical_formula_sum   'Y2 Mo6 Se4 Cl2 O16'
_cell_volume   524.09676508
_cell_formula_units_Z   2
loop_
 _symmetry_equiv_pos_site_id
 _symmetry_equiv_pos_as_xyz
  1  'x, y, z'
loop_
 _atom_site_type_symbol
 _atom_site_label
 _atom_site_symmetry_multiplicity
 _atom_site_fract_x
 _atom_site_fract_y
 _atom_site_fract_z
 _atom_site_occupancy
  Y  Y0  1  0.252384  0.262373  0.262579  1
  Y  Y1  1  0.755712  0.738200  0.747512  1
  Mo  Mo2  1  0.501748  0.001936  0.999820  1
  Mo  Mo3  1  0.499356  0.988659  0.494456  1
  Mo  Mo4  1  0.004651  0.012747  0.998481  1
  Mo  Mo5  1  0.739102  0.241378  0.754116  1
  Mo  Mo6  1  0.222563  0.758038  0.234926  1
  Mo  Mo7  1  0.998125  0.994523  0.500596  1
  Se  Se8  1  0.734931  0.376393  0.143115  1
  Se  Se9  1  0.269140  0.633880  0.859338  1
  Se  Se10  1  0.751229  0.401059  0.435744  1
  Se  Se11  1  0.237886  0.584209  0.557978  1
  Cl  Cl12  1  0.183064  0.203328  0.851954  1
  Cl  Cl13  1  0.863139  0.810243  0.176870  1
  O  O14  1  0.250652  0.971224  0.120979  1
  O  O15  1  0.332965  0.537256  0.178090  1
  O  O16  1  0.783859  0.416778  0.597514  1
  O  O17  1  0.553151  0.196872  0.157594  1
  O  O18  1  0.453908  0.715427  0.564993  1
  O  O19  1  0.048959  0.744993  0.598657  1
  O  O20  1  0.752135  0.039594  0.882588  1
  O  O21  1  0.969279  0.244165  0.135273  1
  O  O22  1  0.942837  0.240057  0.398663  1
  O  O23  1  0.039332  0.775140  0.868760  1
  O  O24  1  0.246142  0.977284  0.370287  1
  O  O25  1  0.745307  0.005825  0.621262  1
  O  O26  1  0.448645  0.813317  0.839974  1
  O  O27  1  0.534067  0.265413  0.422066  1
  O  O28  1  0.693428  0.483842  0.831897  1
  O  O29  1  0.192300  0.565846  0.393919  1
