# generated using pymatgen
data_Mg(NiO2)2
_symmetry_space_group_name_H-M   'P 1'
_cell_length_a   5.91560815
_cell_length_b   5.94918119
_cell_length_c   5.94752549
_cell_angle_alpha   89.50846328
_cell_angle_beta   120.47137859
_cell_angle_gamma   120.44374060
_symmetry_Int_Tables_number   1
_chemical_formula_structural   Mg(NiO2)2
_chemical_formula_sum   'Mg2 Ni4 O8'
_cell_volume   146.58372112
_cell_formula_units_Z   2
loop_
 _symmetry_equiv_pos_site_id
 _symmetry_equiv_pos_as_xyz
  1  'x, y, z'
loop_
 _atom_site_type_symbol
 _atom_site_label
 _atom_site_symmetry_multiplicity
 _atom_site_fract_x
 _atom_site_fract_y
 _atom_site_fract_z
 _atom_site_occupancy
  Mg  Mg0  1  0.249863  0.124878  0.875765  1
  Mg  Mg1  1  0.750138  0.875125  0.124235  1
  Ni  Ni2  1  0.500000  0.999999  0.500000  1
  Ni  Ni3  1  0.500000  0.500000  0.500000  1
  Ni  Ni4  1  0.000000  0.500000  1.000000  1
  Ni  Ni5  1  1.000000  0.499999  0.499999  1
  O  O6  1  0.031970  0.744431  0.258829  1
  O  O7  1  0.480943  0.748741  0.713033  1
  O  O8  1  0.467658  0.722355  0.254335  1
  O  O9  1  0.980691  0.714402  0.728030  1
  O  O10  1  0.532343  0.277644  0.745666  1
  O  O11  1  0.519055  0.251258  0.286967  1
  O  O12  1  0.019311  0.285601  0.271971  1
  O  O13  1  0.968031  0.255569  0.741171  1
