# generated using pymatgen
data_Ca(MoO2)2
_symmetry_space_group_name_H-M   'P 1'
_cell_length_a   6.66434905
_cell_length_b   6.58554840
_cell_length_c   6.58554866
_cell_angle_alpha   59.99999510
_cell_angle_beta   60.39037864
_cell_angle_gamma   60.39037503
_symmetry_Int_Tables_number   1
_chemical_formula_structural   Ca(MoO2)2
_chemical_formula_sum   'Ca2 Mo4 O8'
_cell_volume   205.57209380
_cell_formula_units_Z   2
loop_
 _symmetry_equiv_pos_site_id
 _symmetry_equiv_pos_as_xyz
  1  'x, y, z'
loop_
 _atom_site_type_symbol
 _atom_site_label
 _atom_site_symmetry_multiplicity
 _atom_site_fract_x
 _atom_site_fract_y
 _atom_site_fract_z
 _atom_site_occupancy
  Ca  Ca0  1  0.993534  0.002155  0.002155  1
  Ca  Ca1  1  0.114376  0.628541  0.628541  1
  Mo  Mo2  1  0.335771  0.221410  0.221410  1
  Mo  Mo3  1  0.627642  0.122435  0.624961  1
  Mo  Mo4  1  0.627642  0.624961  0.122435  1
  Mo  Mo5  1  0.627642  0.624961  0.624961  1
  O  O6  1  0.394955  0.376583  0.376583  1
  O  O7  1  0.394955  0.376583  0.851877  1
  O  O8  1  0.394955  0.851877  0.376583  1
  O  O9  1  0.819292  0.393569  0.393569  1
  O  O10  1  0.417623  0.860792  0.860792  1
  O  O11  1  0.833871  0.417209  0.874460  1
  O  O12  1  0.833871  0.874460  0.417209  1
  O  O13  1  0.833871  0.874460  0.874460  1
