# generated using pymatgen
data_Cr5O7
_symmetry_space_group_name_H-M   'P 1'
_cell_length_a   3.01920558
_cell_length_b   5.30239047
_cell_length_c   18.23946789
_cell_angle_alpha   90.00000000
_cell_angle_beta   90.00000000
_cell_angle_gamma   106.54105476
_symmetry_Int_Tables_number   1
_chemical_formula_structural   Cr5O7
_chemical_formula_sum   'Cr10 O14'
_cell_volume   279.91180871
_cell_formula_units_Z   2
loop_
 _symmetry_equiv_pos_site_id
 _symmetry_equiv_pos_as_xyz
  1  'x, y, z'
loop_
 _atom_site_type_symbol
 _atom_site_label
 _atom_site_symmetry_multiplicity
 _atom_site_fract_x
 _atom_site_fract_y
 _atom_site_fract_z
 _atom_site_occupancy
  Cr  Cr0  1  0.267221  0.534439  0.574839  1
  Cr  Cr1  1  0.000000  0.000000  0.500000  1
  Cr  Cr2  1  0.000000  0.000000  -0.000000  1
  Cr  Cr3  1  0.732779  0.465560  0.425161  1
  Cr  Cr4  1  0.732779  0.465560  0.074839  1
  Cr  Cr5  1  0.267221  0.534439  0.925161  1
  Cr  Cr6  1  0.464738  0.929475  0.159658  1
  Cr  Cr7  1  0.535262  0.070524  0.840343  1
  Cr  Cr8  1  0.535262  0.070524  0.659657  1
  Cr  Cr9  1  0.464738  0.929475  0.340343  1
  O  O10  1  0.649311  0.298620  0.967904  1
  O  O11  1  0.350690  0.701381  0.032096  1
  O  O12  1  0.350690  0.701381  0.467904  1
  O  O13  1  0.649311  0.298620  0.532096  1
  O  O14  1  0.154155  0.308310  0.839496  1
  O  O15  1  0.845845  0.691690  0.160504  1
  O  O16  1  0.845845  0.691690  0.339497  1
  O  O17  1  0.154155  0.308310  0.660504  1
  O  O18  1  0.899286  0.798572  0.901035  1
  O  O19  1  0.100714  0.201428  0.098965  1
  O  O20  1  0.100714  0.201428  0.401035  1
  O  O21  1  0.899286  0.798572  0.598965  1
  O  O22  1  0.459066  0.918133  0.750000  1
  O  O23  1  0.540935  0.081869  0.250000  1
