# generated using pymatgen
data_V2Zn3(P2O9)2
_symmetry_space_group_name_H-M   'P 1'
_cell_length_a   7.81506849
_cell_length_b   7.84327134
_cell_length_c   7.84327112
_cell_angle_alpha   106.30393814
_cell_angle_beta   111.19912983
_cell_angle_gamma   111.19912079
_symmetry_Int_Tables_number   1
_chemical_formula_structural   V2Zn3(P2O9)2
_chemical_formula_sum   'V2 Zn3 P4 O18'
_cell_volume   368.10140564
_cell_formula_units_Z   1
loop_
 _symmetry_equiv_pos_site_id
 _symmetry_equiv_pos_as_xyz
  1  'x, y, z'
loop_
 _atom_site_type_symbol
 _atom_site_label
 _atom_site_symmetry_multiplicity
 _atom_site_fract_x
 _atom_site_fract_y
 _atom_site_fract_z
 _atom_site_occupancy
  V  V0  1  0.000212  0.605220  0.606795  1
  V  V1  1  0.000212  0.106795  0.105220  1
  Zn  Zn2  1  0.286587  0.172486  0.672486  1
  Zn  Zn3  1  0.500224  0.887473  0.149749  1
  Zn  Zn4  1  0.500224  0.649749  0.387473  1
  P  P5  1  0.500071  0.929487  0.807339  1
  P  P6  1  0.104070  0.421851  0.921851  1
  P  P7  1  0.882307  0.803936  0.303936  1
  P  P8  1  0.500071  0.307339  0.429487  1
  O  O9  1  0.001530  0.936011  0.937478  1
  O  O10  1  0.497280  0.342463  0.626326  1
  O  O11  1  0.968692  0.280013  0.986401  1
  O  O12  1  0.968692  0.486401  0.780013  1
  O  O13  1  0.695715  0.517151  0.480436  1
  O  O14  1  0.001530  0.437478  0.436011  1
  O  O15  1  0.034432  0.822055  0.521625  1
  O  O16  1  0.187821  0.314116  0.814116  1
  O  O17  1  0.712881  0.843419  0.343419  1
  O  O18  1  0.034432  0.021625  0.322055  1
  O  O19  1  0.500011  0.118948  0.315255  1
  O  O20  1  0.695715  0.980436  0.017151  1
  O  O21  1  0.303606  0.780753  0.819773  1
  O  O22  1  0.497280  0.126326  0.842463  1
  O  O23  1  0.303606  0.319773  0.280753  1
  O  O24  1  0.283257  0.626965  0.126965  1
  O  O25  1  0.801492  0.616467  0.116467  1
  O  O26  1  0.500011  0.815255  0.618948  1
