# generated using pymatgen
data_TiP3WO12
_symmetry_space_group_name_H-M   'P 1'
_cell_length_a   8.85153534
_cell_length_b   8.85151423
_cell_length_c   8.85155804
_cell_angle_alpha   59.07226414
_cell_angle_beta   59.07223379
_cell_angle_gamma   59.07253006
_symmetry_Int_Tables_number   1
_chemical_formula_structural   TiP3WO12
_chemical_formula_sum   'Ti2 P6 W2 O24'
_cell_volume   480.01681840
_cell_formula_units_Z   2
loop_
 _symmetry_equiv_pos_site_id
 _symmetry_equiv_pos_as_xyz
  1  'x, y, z'
loop_
 _atom_site_type_symbol
 _atom_site_label
 _atom_site_symmetry_multiplicity
 _atom_site_fract_x
 _atom_site_fract_y
 _atom_site_fract_z
 _atom_site_occupancy
  Ti  Ti0  1  0.139532  0.139534  0.139533  1
  Ti  Ti1  1  0.639536  0.639532  0.639531  1
  P  P2  1  0.032025  0.463539  0.751507  1
  P  P3  1  0.463538  0.751510  0.032024  1
  P  P4  1  0.751508  0.032024  0.463538  1
  P  P5  1  0.251508  0.963537  0.532024  1
  P  P6  1  0.532024  0.251508  0.963538  1
  P  P7  1  0.963540  0.532024  0.251507  1
  W  W8  1  0.358380  0.358380  0.358379  1
  W  W9  1  0.858380  0.858380  0.858379  1
  O  O10  1  0.133133  0.509778  0.281744  1
  O  O11  1  0.281746  0.133140  0.509773  1
  O  O12  1  0.061900  0.286915  0.921567  1
  O  O13  1  0.509777  0.281744  0.133136  1
  O  O14  1  0.009775  0.633136  0.781744  1
  O  O15  1  0.213297  0.440558  0.579242  1
  O  O16  1  0.286914  0.921566  0.061900  1
  O  O17  1  0.440559  0.579236  0.213296  1
  O  O18  1  0.214511  0.000298  0.363819  1
  O  O19  1  0.579240  0.213295  0.440562  1
  O  O20  1  0.079238  0.940559  0.713297  1
  O  O21  1  0.363818  0.214511  0.000298  1
  O  O22  1  0.633137  0.781744  0.009775  1
  O  O23  1  0.921566  0.061899  0.286916  1
  O  O24  1  0.421566  0.786916  0.561899  1
  O  O25  1  0.781744  0.009776  0.633136  1
  O  O26  1  0.561899  0.421568  0.786914  1
  O  O27  1  0.713297  0.079239  0.940560  1
  O  O28  1  0.786915  0.561898  0.421567  1
  O  O29  1  0.000298  0.363819  0.214512  1
  O  O30  1  0.500298  0.714511  0.863819  1
  O  O31  1  0.940557  0.713297  0.079240  1
  O  O32  1  0.714512  0.863819  0.500299  1
  O  O33  1  0.863819  0.500298  0.714513  1
