# generated using pymatgen
data_CaPrCr2O6
_symmetry_space_group_name_H-M   'P 1'
_cell_length_a   5.43635536
_cell_length_b   5.50389465
_cell_length_c   7.70476447
_cell_angle_alpha   90.00000000
_cell_angle_beta   90.00000000
_cell_angle_gamma   90.00000000
_symmetry_Int_Tables_number   1
_chemical_formula_structural   CaPrCr2O6
_chemical_formula_sum   'Ca2 Pr2 Cr4 O12'
_cell_volume   230.53523761
_cell_formula_units_Z   2
loop_
 _symmetry_equiv_pos_site_id
 _symmetry_equiv_pos_as_xyz
  1  'x, y, z'
loop_
 _atom_site_type_symbol
 _atom_site_label
 _atom_site_symmetry_multiplicity
 _atom_site_fract_x
 _atom_site_fract_y
 _atom_site_fract_z
 _atom_site_occupancy
  Ca  Ca0  1  0.489787  0.457548  0.750000  1
  Ca  Ca1  1  0.989787  0.042452  0.250000  1
  Pr  Pr2  1  0.009718  0.959208  0.750000  1
  Pr  Pr3  1  0.509718  0.540792  0.250000  1
  Cr  Cr4  1  0.000303  0.498461  0.999297  1
  Cr  Cr5  1  0.000303  0.498461  0.500703  1
  Cr  Cr6  1  0.500303  0.001539  0.499297  1
  Cr  Cr7  1  0.500303  0.001539  0.000703  1
  O  O8  1  0.078193  0.478495  0.250000  1
  O  O9  1  0.214824  0.214699  0.958164  1
  O  O10  1  0.214824  0.214699  0.541836  1
  O  O11  1  0.287411  0.712596  0.543566  1
  O  O12  1  0.287411  0.712596  0.956434  1
  O  O13  1  0.417223  0.980205  0.250000  1
  O  O14  1  0.578193  0.021505  0.750000  1
  O  O15  1  0.714824  0.285301  0.041836  1
  O  O16  1  0.714824  0.285301  0.458164  1
  O  O17  1  0.787411  0.787404  0.043566  1
  O  O18  1  0.787411  0.787404  0.456434  1
  O  O19  1  0.917223  0.519795  0.750000  1
