# generated using pymatgen
data_Mg2Co3O8
_symmetry_space_group_name_H-M   'P 1'
_cell_length_a   4.79969928
_cell_length_b   5.65757560
_cell_length_c   5.77893372
_cell_angle_alpha   119.30772164
_cell_angle_beta   107.43043878
_cell_angle_gamma   89.99999732
_symmetry_Int_Tables_number   1
_chemical_formula_structural   Mg2Co3O8
_chemical_formula_sum   'Mg2 Co3 O8'
_cell_volume   128.51198224
_cell_formula_units_Z   1
loop_
 _symmetry_equiv_pos_site_id
 _symmetry_equiv_pos_as_xyz
  1  'x, y, z'
loop_
 _atom_site_type_symbol
 _atom_site_label
 _atom_site_symmetry_multiplicity
 _atom_site_fract_x
 _atom_site_fract_y
 _atom_site_fract_z
 _atom_site_occupancy
  Mg  Mg0  1  0.657295  0.725399  0.450797  1
  Mg  Mg1  1  0.342704  0.274602  0.549203  1
  Co  Co2  1  0.500000  0.999999  0.000000  1
  Co  Co3  1  0.999999  0.741630  1.000000  1
  Co  Co4  1  0.999999  0.258370  0.000000  1
  O  O5  1  0.068944  0.396535  0.793070  1
  O  O6  1  0.931056  0.603464  0.206930  1
  O  O7  1  0.083808  0.894963  0.789927  1
  O  O8  1  0.916192  0.105036  0.210072  1
  O  O9  1  0.403216  0.337063  0.223987  1
  O  O10  1  0.403216  0.886924  0.223987  1
  O  O11  1  0.596785  0.113075  0.776013  1
  O  O12  1  0.596785  0.662937  0.776013  1
