# generated using pymatgen
data_CaMo4O9
_symmetry_space_group_name_H-M   'P 1'
_cell_length_a   5.07886231
_cell_length_b   8.80427655
_cell_length_c   8.80426759
_cell_angle_alpha   90.00007431
_cell_angle_beta   90.00100754
_cell_angle_gamma   90.00163181
_symmetry_Int_Tables_number   1
_chemical_formula_structural   CaMo4O9
_chemical_formula_sum   'Ca2 Mo8 O18'
_cell_volume   393.68906157
_cell_formula_units_Z   2
loop_
 _symmetry_equiv_pos_site_id
 _symmetry_equiv_pos_as_xyz
  1  'x, y, z'
loop_
 _atom_site_type_symbol
 _atom_site_label
 _atom_site_symmetry_multiplicity
 _atom_site_fract_x
 _atom_site_fract_y
 _atom_site_fract_z
 _atom_site_occupancy
  Ca  Ca0  1  0.198361  0.250003  0.250001  1
  Ca  Ca1  1  0.801640  0.749999  0.750000  1
  Mo  Mo2  1  0.671501  0.546489  0.352539  1
  Mo  Mo3  1  0.328484  0.852522  0.453518  1
  Mo  Mo4  1  0.671463  0.352543  0.953513  1
  Mo  Mo5  1  0.328521  0.046478  0.852527  1
  Mo  Mo6  1  0.671488  0.953521  0.147473  1
  Mo  Mo7  1  0.671501  0.147473  0.546480  1
  Mo  Mo8  1  0.328508  0.453515  0.647460  1
  Mo  Mo9  1  0.328530  0.647457  0.046488  1
  O  O10  1  0.500004  0.750004  0.250003  1
  O  O11  1  0.499994  0.249997  0.749997  1
  O  O12  1  0.998888  0.704920  0.994205  1
  O  O13  1  0.998889  0.505791  0.704924  1
  O  O14  1  0.998892  0.994204  0.795079  1
  O  O15  1  0.998886  0.795061  0.505792  1
  O  O16  1  0.001111  0.295084  0.005796  1
  O  O17  1  0.001119  0.494209  0.295069  1
  O  O18  1  0.001112  0.005798  0.204930  1
  O  O19  1  0.001110  0.204933  0.494206  1
  O  O20  1  0.501564  0.046900  0.359964  1
  O  O21  1  0.501562  0.140037  0.046902  1
  O  O22  1  0.501574  0.359964  0.453098  1
  O  O23  1  0.501575  0.453100  0.140041  1
  O  O24  1  0.498428  0.546901  0.859961  1
  O  O25  1  0.498439  0.859961  0.953101  1
  O  O26  1  0.498425  0.640040  0.546898  1
  O  O27  1  0.498433  0.953098  0.640033  1
