# generated using pymatgen
data_ZnCrO2
_symmetry_space_group_name_H-M   'P 1'
_cell_length_a   2.97532462
_cell_length_b   7.85841305
_cell_length_c   8.48893254
_cell_angle_alpha   96.86659983
_cell_angle_beta   80.46230951
_cell_angle_gamma   77.84965059
_symmetry_Int_Tables_number   1
_chemical_formula_structural   ZnCrO2
_chemical_formula_sum   'Zn4 Cr4 O8'
_cell_volume   188.88305507
_cell_formula_units_Z   4
loop_
 _symmetry_equiv_pos_site_id
 _symmetry_equiv_pos_as_xyz
  1  'x, y, z'
loop_
 _atom_site_type_symbol
 _atom_site_label
 _atom_site_symmetry_multiplicity
 _atom_site_fract_x
 _atom_site_fract_y
 _atom_site_fract_z
 _atom_site_occupancy
  Zn  Zn0  1  0.369296  0.017385  0.221638  1
  Zn  Zn1  1  0.628052  0.963386  0.804333  1
  Zn  Zn2  1  0.150144  0.630813  0.062077  1
  Zn  Zn3  1  0.847630  0.349304  0.964938  1
  Cr  Cr4  1  0.615989  0.204103  0.593567  1
  Cr  Cr5  1  0.185321  0.366188  0.270395  1
  Cr  Cr6  1  0.809621  0.614926  0.757774  1
  Cr  Cr7  1  0.380479  0.775878  0.432992  1
  O  O8  1  0.801631  0.782444  0.592517  1
  O  O9  1  0.425238  0.459940  0.695337  1
  O  O10  1  0.567357  0.517426  0.341965  1
  O  O11  1  0.195042  0.196885  0.434407  1
  O  O12  1  0.059536  0.147696  0.769056  1
  O  O13  1  0.838341  0.192609  0.145643  1
  O  O14  1  0.936850  0.831998  0.257761  1
  O  O15  1  0.157749  0.788352  0.881216  1
