# generated using pymatgen
data_SiWO4
_symmetry_space_group_name_H-M   'P 1'
_cell_length_a   10.02589582
_cell_length_b   10.02589536
_cell_length_c   10.02589550
_cell_angle_alpha   109.47122303
_cell_angle_beta   109.47122212
_cell_angle_gamma   109.47122012
_symmetry_Int_Tables_number   1
_chemical_formula_structural   SiWO4
_chemical_formula_sum   'Si12 W12 O48'
_cell_volume   775.79615000
_cell_formula_units_Z   12
loop_
 _symmetry_equiv_pos_site_id
 _symmetry_equiv_pos_as_xyz
  1  'x, y, z'
loop_
 _atom_site_type_symbol
 _atom_site_label
 _atom_site_symmetry_multiplicity
 _atom_site_fract_x
 _atom_site_fract_y
 _atom_site_fract_z
 _atom_site_occupancy
  Si  Si0  1  0.250000  0.125000  0.875000  1
  Si  Si1  1  0.875000  0.250000  0.125000  1
  Si  Si2  1  0.625000  0.750001  0.375000  1
  Si  Si3  1  0.250000  0.625000  0.375001  1
  Si  Si4  1  0.375000  0.625000  0.750000  1
  Si  Si5  1  0.750000  0.375000  0.625000  1
  Si  Si6  1  0.875000  0.125000  0.750000  1
  Si  Si7  1  0.125000  0.750001  0.875000  1
  Si  Si8  1  0.125000  0.875001  0.250000  1
  Si  Si9  1  0.625000  0.375000  0.250000  1
  Si  Si10  1  0.375000  0.250000  0.625000  1
  Si  Si11  1  0.750000  0.875001  0.125000  1
  W  W12  1  0.250000  0.875001  0.625000  1
  W  W13  1  0.875000  0.625000  0.250000  1
  W  W14  1  0.625001  0.875001  0.750001  1
  W  W15  1  0.875001  0.750001  0.625001  1
  W  W16  1  0.625000  0.250000  0.875000  1
  W  W17  1  0.750000  0.625000  0.875000  1
  W  W18  1  0.750000  0.125000  0.375000  1
  W  W19  1  0.125000  0.375000  0.750000  1
  W  W20  1  0.375000  0.125000  0.250000  1
  W  W21  1  0.125000  0.250000  0.375000  1
  W  W22  1  0.375000  0.750001  0.125000  1
  W  W23  1  0.250000  0.375000  0.125000  1
  O  O24  1  0.274360  0.468614  0.369647  1
  O  O25  1  0.031386  0.305746  0.901033  1
  O  O26  1  0.130353  0.598967  0.904713  1
  O  O27  1  0.225639  0.595287  0.194254  1
  O  O28  1  0.225639  0.130352  0.031385  1
  O  O29  1  0.595286  0.194253  0.225639  1
  O  O30  1  0.598966  0.194253  0.468614  1
  O  O31  1  0.194254  0.225639  0.595288  1
  O  O32  1  0.901034  0.369647  0.595287  1
  O  O33  1  0.305747  0.904713  0.274361  1
  O  O34  1  0.904713  0.274361  0.305747  1
  O  O35  1  0.031386  0.225639  0.130352  1
  O  O36  1  0.194254  0.468614  0.598967  1
  O  O37  1  0.595287  0.901034  0.369648  1
  O  O38  1  0.130352  0.031385  0.225639  1
  O  O39  1  0.468614  0.598967  0.194253  1
  O  O40  1  0.369647  0.595287  0.901033  1
  O  O41  1  0.901033  0.031385  0.305746  1
  O  O42  1  0.598966  0.904713  0.130353  1
  O  O43  1  0.098966  0.630352  0.404713  1
  O  O44  1  0.468614  0.369647  0.274360  1
  O  O45  1  0.369647  0.274361  0.468614  1
  O  O46  1  0.305747  0.901034  0.031386  1
  O  O47  1  0.274360  0.305746  0.904712  1
  O  O48  1  0.725639  0.531385  0.630352  1
  O  O49  1  0.968614  0.694253  0.098966  1
  O  O50  1  0.869648  0.401034  0.095287  1
  O  O51  1  0.774361  0.404713  0.805747  1
  O  O52  1  0.774360  0.869648  0.968615  1
  O  O53  1  0.404713  0.805746  0.774360  1
  O  O54  1  0.401034  0.805746  0.531385  1
  O  O55  1  0.805747  0.774361  0.404713  1
  O  O56  1  0.725639  0.694253  0.095287  1
  O  O57  1  0.694254  0.098967  0.968614  1
  O  O58  1  0.630352  0.725640  0.531386  1
  O  O59  1  0.531386  0.630352  0.725639  1
  O  O60  1  0.095287  0.869648  0.401033  1
  O  O61  1  0.401033  0.095286  0.869647  1
  O  O62  1  0.098967  0.968614  0.694253  1
  O  O63  1  0.630353  0.404713  0.098966  1
  O  O64  1  0.531386  0.401034  0.805747  1
  O  O65  1  0.869648  0.968614  0.774361  1
  O  O66  1  0.404713  0.098967  0.630353  1
  O  O67  1  0.805746  0.531385  0.401034  1
  O  O68  1  0.968614  0.774361  0.869648  1
  O  O69  1  0.095287  0.725640  0.694254  1
  O  O70  1  0.694253  0.095286  0.725639  1
  O  O71  1  0.904713  0.130352  0.598966  1
