# generated using pymatgen
data_Zn(MoO2)2
_symmetry_space_group_name_H-M   'P 1'
_cell_length_a   6.45084642
_cell_length_b   6.45074433
_cell_length_c   18.60280092
_cell_angle_alpha   59.99852349
_cell_angle_beta   60.45072293
_cell_angle_gamma   58.59124056
_symmetry_Int_Tables_number   1
_chemical_formula_structural   Zn(MoO2)2
_chemical_formula_sum   'Zn6 Mo12 O24'
_cell_volume   543.09222180
_cell_formula_units_Z   6
loop_
 _symmetry_equiv_pos_site_id
 _symmetry_equiv_pos_as_xyz
  1  'x, y, z'
loop_
 _atom_site_type_symbol
 _atom_site_label
 _atom_site_symmetry_multiplicity
 _atom_site_fract_x
 _atom_site_fract_y
 _atom_site_fract_z
 _atom_site_occupancy
  Zn  Zn0  1  0.124081  0.119660  0.045582  1
  Zn  Zn1  1  0.111891  0.118226  0.380050  1
  Zn  Zn2  1  0.497198  0.497323  0.335838  1
  Zn  Zn3  1  0.126340  0.128717  0.708459  1
  Zn  Zn4  1  0.501147  0.498598  0.003846  1
  Zn  Zn5  1  0.872822  0.880141  0.621977  1
  Mo  Mo6  1  0.500857  0.492646  0.167879  1
  Mo  Mo7  1  0.503528  0.001846  0.165175  1
  Mo  Mo8  1  0.487455  0.497995  0.499391  1
  Mo  Mo9  1  0.005504  0.495667  0.166305  1
  Mo  Mo10  1  0.490173  0.005909  0.497768  1
  Mo  Mo11  1  0.499242  0.504749  0.666163  1
  Mo  Mo12  1  0.886997  0.866715  0.287507  1
  Mo  Mo13  1  0.507273  0.503058  0.834683  1
  Mo  Mo14  1  0.995084  0.500667  0.497895  1
  Mo  Mo15  1  0.507148  0.002816  0.833570  1
  Mo  Mo16  1  0.005309  0.503078  0.834028  1
  Mo  Mo17  1  0.885923  0.874423  0.955510  1
  O  O18  1  0.265111  0.265014  0.081187  1
  O  O19  1  0.264605  0.257101  0.242689  1
  O  O20  1  0.246780  0.726489  0.088814  1
  O  O21  1  0.731510  0.244903  0.088366  1
  O  O22  1  0.250402  0.266040  0.414368  1
  O  O23  1  0.283444  0.761721  0.241202  1
  O  O24  1  0.253702  0.260958  0.575237  1
  O  O25  1  0.767713  0.269816  0.243202  1
  O  O26  1  0.731212  0.728705  0.092076  1
  O  O27  1  0.236111  0.727460  0.420106  1
  O  O28  1  0.719182  0.245740  0.421345  1
  O  O29  1  0.730394  0.725165  0.254125  1
  O  O30  1  0.264420  0.265489  0.750159  1
  O  O31  1  0.266756  0.751702  0.579284  1
  O  O32  1  0.742877  0.275395  0.579735  1
  O  O33  1  0.270319  0.263958  0.910086  1
  O  O34  1  0.718397  0.733966  0.424599  1
  O  O35  1  0.252470  0.731605  0.755401  1
  O  O36  1  0.731326  0.253581  0.755056  1
  O  O37  1  0.733342  0.740924  0.582576  1
  O  O38  1  0.283884  0.766935  0.909067  1
  O  O39  1  0.772712  0.275475  0.909725  1
  O  O40  1  0.741628  0.741530  0.757776  1
  O  O41  1  0.733730  0.728094  0.922191  1
