# generated using pymatgen
data_Ca3Cr6(FeO6)4
_symmetry_space_group_name_H-M   'P 1'
_cell_length_a   6.84175282
_cell_length_b   8.62299505
_cell_length_c   9.99860026
_cell_angle_alpha   104.86262353
_cell_angle_beta   106.98856620
_cell_angle_gamma   103.39723341
_symmetry_Int_Tables_number   1
_chemical_formula_structural   Ca3Cr6(FeO6)4
_chemical_formula_sum   'Ca3 Cr6 Fe4 O24'
_cell_volume   514.38942033
_cell_formula_units_Z   1
loop_
 _symmetry_equiv_pos_site_id
 _symmetry_equiv_pos_as_xyz
  1  'x, y, z'
loop_
 _atom_site_type_symbol
 _atom_site_label
 _atom_site_symmetry_multiplicity
 _atom_site_fract_x
 _atom_site_fract_y
 _atom_site_fract_z
 _atom_site_occupancy
  Ca  Ca0  1  0.000000  0.500000  0.500000  1
  Ca  Ca1  1  0.285063  0.302726  0.789770  1
  Ca  Ca2  1  0.714937  0.697274  0.210230  1
  Cr  Cr3  1  0.780672  0.342019  0.735576  1
  Cr  Cr4  1  0.219328  0.657981  0.264424  1
  Cr  Cr5  1  0.894165  0.903157  0.668926  1
  Cr  Cr6  1  0.397634  0.740945  0.865218  1
  Cr  Cr7  1  0.105835  0.096843  0.331074  1
  Cr  Cr8  1  0.602366  0.259055  0.134782  1
  Fe  Fe9  1  0.379430  0.954965  0.603173  1
  Fe  Fe10  1  0.620570  0.045035  0.396827  1
  Fe  Fe11  1  0.042208  0.211238  0.024808  1
  Fe  Fe12  1  0.957792  0.788762  0.975192  1
  O  O13  1  0.842484  0.699565  0.579531  1
  O  O14  1  0.157516  0.300435  0.420469  1
  O  O15  1  0.256807  0.537959  0.735613  1
  O  O16  1  0.743193  0.462041  0.264387  1
  O  O17  1  0.780829  0.285394  0.553311  1
  O  O18  1  0.219171  0.714606  0.446689  1
  O  O19  1  0.668947  0.961074  0.576555  1
  O  O20  1  0.331053  0.038926  0.423445  1
  O  O21  1  0.648423  0.741934  0.980815  1
  O  O22  1  0.351577  0.258066  0.019185  1
  O  O23  1  0.463987  0.786897  0.279023  1
  O  O24  1  0.536013  0.213103  0.720977  1
  O  O25  1  0.127840  0.015539  0.650317  1
  O  O26  1  0.065385  0.046426  0.140783  1
  O  O27  1  0.934615  0.953574  0.859217  1
  O  O28  1  0.562348  0.123959  0.230866  1
  O  O29  1  0.437652  0.876041  0.769134  1
  O  O30  1  0.176880  0.449627  0.182178  1
  O  O31  1  0.823120  0.550373  0.817822  1
  O  O32  1  0.985279  0.287623  0.850018  1
  O  O33  1  0.014721  0.712377  0.149982  1
  O  O34  1  0.238247  0.789792  0.962202  1
  O  O35  1  0.761753  0.210208  0.037798  1
  O  O36  1  0.872160  0.984461  0.349683  1
