# generated using pymatgen
data_Ca2TeWO6
_symmetry_space_group_name_H-M   'P 1'
_cell_length_a   6.02798011
_cell_length_b   6.78125257
_cell_length_c   8.65822103
_cell_angle_alpha   89.20022653
_cell_angle_beta   132.87810525
_cell_angle_gamma   125.30838329
_symmetry_Int_Tables_number   1
_chemical_formula_structural   Ca2TeWO6
_chemical_formula_sum   'Ca2 Te1 W1 O6'
_cell_volume   163.62134884
_cell_formula_units_Z   1
loop_
 _symmetry_equiv_pos_site_id
 _symmetry_equiv_pos_as_xyz
  1  'x, y, z'
loop_
 _atom_site_type_symbol
 _atom_site_label
 _atom_site_symmetry_multiplicity
 _atom_site_fract_x
 _atom_site_fract_y
 _atom_site_fract_z
 _atom_site_occupancy
  Ca  Ca0  1  0.016687  0.615974  0.315515  1
  Ca  Ca1  1  0.082085  0.644804  0.785736  1
  Te  Te2  1  0.990566  0.116954  0.541497  1
  W  W3  1  0.008258  0.968208  0.000544  1
  O  O4  1  0.728094  0.752715  0.061049  1
  O  O5  1  0.295314  0.080475  0.932398  1
  O  O6  1  0.562587  0.366465  0.331916  1
  O  O7  1  0.619531  0.985991  0.782289  1
  O  O8  1  0.294510  0.809258  0.152719  1
  O  O9  1  0.429430  0.509275  0.612725  1
