# generated using pymatgen
data_Ca(CuO2)2
_symmetry_space_group_name_H-M   'P 1'
_cell_length_a   6.33071886
_cell_length_b   6.16469706
_cell_length_c   6.16469672
_cell_angle_alpha   59.99999690
_cell_angle_beta   60.86378369
_cell_angle_gamma   60.86378589
_symmetry_Int_Tables_number   1
_chemical_formula_structural   Ca(CuO2)2
_chemical_formula_sum   'Ca2 Cu4 O8'
_cell_volume   172.30979453
_cell_formula_units_Z   2
loop_
 _symmetry_equiv_pos_site_id
 _symmetry_equiv_pos_as_xyz
  1  'x, y, z'
loop_
 _atom_site_type_symbol
 _atom_site_label
 _atom_site_symmetry_multiplicity
 _atom_site_fract_x
 _atom_site_fract_y
 _atom_site_fract_z
 _atom_site_occupancy
  Ca  Ca0  1  0.937769  0.020743  0.020743  1
  Ca  Ca1  1  0.129768  0.623410  0.623410  1
  Cu  Cu2  1  0.287368  0.237545  0.237545  1
  Cu  Cu3  1  0.617464  0.120806  0.630865  1
  Cu  Cu4  1  0.617464  0.630865  0.120806  1
  Cu  Cu5  1  0.617464  0.630865  0.630865  1
  O  O6  1  0.448343  0.363488  0.363488  1
  O  O7  1  0.448343  0.363488  0.824679  1
  O  O8  1  0.448343  0.824679  0.363488  1
  O  O9  1  0.931215  0.356262  0.356262  1
  O  O10  1  0.366374  0.877875  0.877875  1
  O  O11  1  0.800030  0.451459  0.874255  1
  O  O12  1  0.800030  0.874255  0.451459  1
  O  O13  1  0.800030  0.874255  0.874255  1
