# generated using pymatgen
data_Bi(WO4)2
_symmetry_space_group_name_H-M   'P 1'
_cell_length_a   5.19019077
_cell_length_b   5.99250750
_cell_length_c   10.21112847
_cell_angle_alpha   90.00000000
_cell_angle_beta   91.89369863
_cell_angle_gamma   90.00000000
_symmetry_Int_Tables_number   1
_chemical_formula_structural   Bi(WO4)2
_chemical_formula_sum   'Bi2 W4 O16'
_cell_volume   317.41569385
_cell_formula_units_Z   2
loop_
 _symmetry_equiv_pos_site_id
 _symmetry_equiv_pos_as_xyz
  1  'x, y, z'
loop_
 _atom_site_type_symbol
 _atom_site_label
 _atom_site_symmetry_multiplicity
 _atom_site_fract_x
 _atom_site_fract_y
 _atom_site_fract_z
 _atom_site_occupancy
  Bi  Bi0  1  0.750000  0.338325  0.250000  1
  Bi  Bi1  1  0.250000  0.661674  0.750000  1
  W  W2  1  0.236495  0.165630  0.508989  1
  W  W3  1  0.263504  0.165630  0.991012  1
  W  W4  1  0.763505  0.834370  0.491011  1
  W  W5  1  0.736496  0.834370  0.008988  1
  O  O6  1  0.391416  0.353870  0.121325  1
  O  O7  1  0.108583  0.353870  0.378674  1
  O  O8  1  0.608584  0.646129  0.878675  1
  O  O9  1  0.891416  0.646129  0.621326  1
  O  O10  1  0.436319  0.896741  0.593933  1
  O  O11  1  0.063681  0.896741  0.906067  1
  O  O12  1  0.563681  0.103259  0.406067  1
  O  O13  1  0.936319  0.103259  0.093933  1
  O  O14  1  0.866892  0.620380  0.121620  1
  O  O15  1  0.633108  0.620380  0.378380  1
  O  O16  1  0.133108  0.379621  0.878380  1
  O  O17  1  0.366892  0.379621  0.621620  1
  O  O18  1  0.448703  0.908068  0.105354  1
  O  O19  1  0.551297  0.091933  0.894646  1
  O  O20  1  0.051298  0.908068  0.394647  1
  O  O21  1  0.948702  0.091933  0.605353  1
