# generated using pymatgen
data_Ca2VIrO6
_symmetry_space_group_name_H-M   'P 1'
_cell_length_a   5.35795126
_cell_length_b   5.53764516
_cell_length_c   7.66450839
_cell_angle_alpha   90.00000000
_cell_angle_beta   89.63249479
_cell_angle_gamma   90.00000000
_symmetry_Int_Tables_number   1
_chemical_formula_structural   Ca2VIrO6
_chemical_formula_sum   'Ca4 V2 Ir2 O12'
_cell_volume   227.40460368
_cell_formula_units_Z   2
loop_
 _symmetry_equiv_pos_site_id
 _symmetry_equiv_pos_as_xyz
  1  'x, y, z'
loop_
 _atom_site_type_symbol
 _atom_site_label
 _atom_site_symmetry_multiplicity
 _atom_site_fract_x
 _atom_site_fract_y
 _atom_site_fract_z
 _atom_site_occupancy
  Ca  Ca0  1  0.014748  0.944479  0.250911  1
  Ca  Ca1  1  0.485252  0.444479  0.249089  1
  Ca  Ca2  1  0.514748  0.555521  0.750911  1
  Ca  Ca3  1  0.985252  0.055521  0.749089  1
  V  V4  1  0.000000  0.500000  0.000000  1
  V  V5  1  0.500000  0.000000  0.500000  1
  Ir  Ir6  1  0.000000  0.500000  0.500000  1
  Ir  Ir7  1  0.500000  0.000000  0.000000  1
  O  O8  1  0.088752  0.479170  0.758184  1
  O  O9  1  0.194159  0.214579  0.047282  1
  O  O10  1  0.209263  0.196108  0.456942  1
  O  O11  1  0.290737  0.696108  0.043058  1
  O  O12  1  0.305841  0.714579  0.452718  1
  O  O13  1  0.411248  0.979170  0.741816  1
  O  O14  1  0.588752  0.020830  0.258184  1
  O  O15  1  0.694159  0.285421  0.547282  1
  O  O16  1  0.709263  0.303892  0.956942  1
  O  O17  1  0.805841  0.785421  0.952718  1
  O  O18  1  0.790737  0.803892  0.543058  1
  O  O19  1  0.911248  0.520830  0.241816  1
