# generated using pymatgen
data_BaMg(SnO2)4
_symmetry_space_group_name_H-M   'P 1'
_cell_length_a   5.98835162
_cell_length_b   5.98835210
_cell_length_c   6.93578319
_cell_angle_alpha   90.00000000
_cell_angle_beta   90.00000000
_cell_angle_gamma   120.00000254
_symmetry_Int_Tables_number   1
_chemical_formula_structural   BaMg(SnO2)4
_chemical_formula_sum   'Ba1 Mg1 Sn4 O8'
_cell_volume   215.39754566
_cell_formula_units_Z   1
loop_
 _symmetry_equiv_pos_site_id
 _symmetry_equiv_pos_as_xyz
  1  'x, y, z'
loop_
 _atom_site_type_symbol
 _atom_site_label
 _atom_site_symmetry_multiplicity
 _atom_site_fract_x
 _atom_site_fract_y
 _atom_site_fract_z
 _atom_site_occupancy
  Ba  Ba0  1  -0.000000  -0.000000  -0.000000  1
  Mg  Mg1  1  -0.000000  -0.000000  0.500000  1
  Sn  Sn2  1  0.333333  0.666667  0.708371  1
  Sn  Sn3  1  0.666667  0.333333  0.708371  1
  Sn  Sn4  1  0.333333  0.666667  0.291629  1
  Sn  Sn5  1  0.666667  0.333333  0.291629  1
  O  O6  1  0.290153  0.290153  0.695127  1
  O  O7  1  0.709847  1.000000  0.695127  1
  O  O8  1  0.000000  0.709847  0.695127  1
  O  O9  1  0.709847  0.709847  0.304873  1
  O  O10  1  1.000000  0.290153  0.304873  1
  O  O11  1  0.290153  0.000000  0.304873  1
  O  O12  1  0.333333  0.666667  -0.000000  1
  O  O13  1  0.666667  0.333333  -0.000000  1
