# generated using pymatgen
data_MgCr4(CuO4)3
_symmetry_space_group_name_H-M   'P 1'
_cell_length_a   6.34356155
_cell_length_b   6.35495101
_cell_length_c   6.35483154
_cell_angle_alpha   109.50437977
_cell_angle_beta   109.43267753
_cell_angle_gamma   109.43538718
_symmetry_Int_Tables_number   1
_chemical_formula_structural   MgCr4(CuO4)3
_chemical_formula_sum   'Mg1 Cr4 Cu3 O12'
_cell_volume   197.30953460
_cell_formula_units_Z   1
loop_
 _symmetry_equiv_pos_site_id
 _symmetry_equiv_pos_as_xyz
  1  'x, y, z'
loop_
 _atom_site_type_symbol
 _atom_site_label
 _atom_site_symmetry_multiplicity
 _atom_site_fract_x
 _atom_site_fract_y
 _atom_site_fract_z
 _atom_site_occupancy
  Mg  Mg0  1  0.000007  0.000000  0.000001  1
  Cr  Cr1  1  -0.000001  -0.000000  0.500001  1
  Cr  Cr2  1  0.999995  0.500003  0.999998  1
  Cr  Cr3  1  0.499994  0.499999  0.499999  1
  Cr  Cr4  1  0.500002  -0.000001  0.999994  1
  Cu  Cu5  1  0.499997  0.499995  0.000003  1
  Cu  Cu6  1  0.000004  0.500004  0.500003  1
  Cu  Cu7  1  0.499999  0.999997  0.499997  1
  O  O8  1  0.832260  0.308956  0.139929  1
  O  O9  1  0.167740  0.691049  0.860075  1
  O  O10  1  0.831252  0.691214  0.522343  1
  O  O11  1  0.308837  0.477679  0.168814  1
  O  O12  1  0.476691  0.169017  0.308937  1
  O  O13  1  0.140056  0.831238  0.308884  1
  O  O14  1  0.692346  0.860030  0.169018  1
  O  O15  1  0.523314  0.830985  0.691067  1
  O  O16  1  0.168747  0.308780  0.477658  1
  O  O17  1  0.691162  0.522322  0.831186  1
  O  O18  1  0.859944  0.168763  0.691114  1
  O  O19  1  0.307655  0.139970  0.830979  1
