# generated using pymatgen
data_ZnCuNiP2O9
_symmetry_space_group_name_H-M   'P 1'
_cell_length_a   6.21301503
_cell_length_b   7.15267220
_cell_length_c   14.23760163
_cell_angle_alpha   90.02292876
_cell_angle_beta   89.99280765
_cell_angle_gamma   90.00845179
_symmetry_Int_Tables_number   1
_chemical_formula_structural   ZnCuNiP2O9
_chemical_formula_sum   'Zn4 Cu4 Ni4 P8 O36'
_cell_volume   632.71411155
_cell_formula_units_Z   4
loop_
 _symmetry_equiv_pos_site_id
 _symmetry_equiv_pos_as_xyz
  1  'x, y, z'
loop_
 _atom_site_type_symbol
 _atom_site_label
 _atom_site_symmetry_multiplicity
 _atom_site_fract_x
 _atom_site_fract_y
 _atom_site_fract_z
 _atom_site_occupancy
  Zn  Zn0  1  0.750015  0.883561  0.777927  1
  Zn  Zn1  1  0.749993  0.615998  0.276815  1
  Zn  Zn2  1  0.249959  0.116552  0.222082  1
  Zn  Zn3  1  0.250004  0.383154  0.722889  1
  Cu  Cu4  1  0.750086  0.354823  0.878989  1
  Cu  Cu5  1  0.249946  0.645559  0.121164  1
  Cu  Cu6  1  0.250161  0.855445  0.621685  1
  Cu  Cu7  1  0.749828  0.144770  0.378366  1
  Ni  Ni8  1  0.500003  0.000209  0.000280  1
  Ni  Ni9  1  0.499994  0.499937  0.500076  1
  Ni  Ni10  1  0.000056  0.499939  0.500105  1
  Ni  Ni11  1  -0.000039  0.000169  0.000292  1
  P  P12  1  0.250047  0.363790  0.930608  1
  P  P13  1  0.749973  0.636301  0.069590  1
  P  P14  1  0.750056  0.864349  0.569701  1
  P  P15  1  0.249937  0.135636  0.430203  1
  P  P16  1  0.750027  0.385904  0.698086  1
  P  P17  1  0.249957  0.614093  0.301898  1
  P  P18  1  0.249971  0.885183  0.802201  1
  P  P19  1  0.749999  0.115112  0.197869  1
  O  O20  1  0.037901  0.607820  0.359905  1
  O  O21  1  0.537738  0.391825  0.639968  1
  O  O22  1  0.962199  0.108168  0.140046  1
  O  O23  1  0.462113  0.892076  0.860034  1
  O  O24  1  0.962313  0.391889  0.639936  1
  O  O25  1  0.462039  0.607860  0.359861  1
  O  O26  1  0.037823  0.891999  0.860049  1
  O  O27  1  0.537804  0.108143  0.140061  1
  O  O28  1  0.250084  0.328075  0.480358  1
  O  O29  1  0.749949  0.671649  0.519676  1
  O  O30  1  0.749967  0.828570  0.019946  1
  O  O31  1  0.249942  0.171637  0.980453  1
  O  O32  1  0.750053  0.134109  0.948390  1
  O  O33  1  0.249963  0.864285  0.051181  1
  O  O34  1  0.250276  0.637405  0.549056  1
  O  O35  1  0.749758  0.362386  0.451011  1
  O  O36  1  0.750095  0.204042  0.759390  1
  O  O37  1  0.249916  0.795742  0.240104  1
  O  O38  1  0.250008  0.702793  0.740792  1
  O  O39  1  0.749975  0.297563  0.259233  1
  O  O40  1  0.435633  0.128200  0.356578  1
  O  O41  1  0.935999  0.871679  0.643193  1
  O  O42  1  0.564312  0.628508  0.143095  1
  O  O43  1  0.064368  0.371777  0.857076  1
  O  O44  1  0.564269  0.871834  0.643300  1
  O  O45  1  0.064095  0.128366  0.356678  1
  O  O46  1  0.435859  0.371622  0.857133  1
  O  O47  1  0.935531  0.628544  0.143140  1
  O  O48  1  0.750055  0.954312  0.273480  1
  O  O49  1  0.249915  0.046171  0.726613  1
  O  O50  1  0.249944  0.453646  0.225906  1
  O  O51  1  0.750005  0.547139  0.773451  1
  O  O52  1  0.749936  0.021391  0.500247  1
  O  O53  1  0.249998  0.978187  0.499549  1
  O  O54  1  0.250060  0.521851  0.000022  1
  O  O55  1  0.750131  0.478253  0.000262  1
