# generated using pymatgen
data_Ba2Tl2Zn3(FeO3)4
_symmetry_space_group_name_H-M   'P 1'
_cell_length_a   3.90904123
_cell_length_b   3.90904116
_cell_length_c   21.18840828
_cell_angle_alpha   95.29276218
_cell_angle_beta   95.29276198
_cell_angle_gamma   89.99999443
_symmetry_Int_Tables_number   1
_chemical_formula_structural   Ba2Tl2Zn3(FeO3)4
_chemical_formula_sum   'Ba2 Tl2 Zn3 Fe4 O12'
_cell_volume   321.00482837
_cell_formula_units_Z   1
loop_
 _symmetry_equiv_pos_site_id
 _symmetry_equiv_pos_as_xyz
  1  'x, y, z'
loop_
 _atom_site_type_symbol
 _atom_site_label
 _atom_site_symmetry_multiplicity
 _atom_site_fract_x
 _atom_site_fract_y
 _atom_site_fract_z
 _atom_site_occupancy
  Ba  Ba0  1  0.157757  0.157757  0.315513  1
  Ba  Ba1  1  0.842243  0.842243  0.684487  1
  Tl  Tl2  1  0.722865  0.722865  0.445729  1
  Tl  Tl3  1  0.277135  0.277135  0.554271  1
  Zn  Zn4  1  0.076784  0.076784  0.153567  1
  Zn  Zn5  1  0.923216  0.923216  0.846433  1
  Zn  Zn6  1  0.000000  -0.000000  -0.000000  1
  Fe  Fe7  1  0.535043  0.535043  0.070086  1
  Fe  Fe8  1  0.395110  0.395110  0.790220  1
  Fe  Fe9  1  0.604890  0.604890  0.209780  1
  Fe  Fe10  1  0.464957  0.464957  0.929914  1
  O  O11  1  0.396475  0.896475  0.792950  1
  O  O12  1  0.533778  0.033778  0.067557  1
  O  O13  1  0.225397  0.225397  0.450795  1
  O  O14  1  0.966222  0.466222  0.932443  1
  O  O15  1  0.774603  0.774603  0.549205  1
  O  O16  1  0.103525  0.603525  0.207050  1
  O  O17  1  0.603525  0.103525  0.207050  1
  O  O18  1  0.328453  0.328453  0.656905  1
  O  O19  1  0.896475  0.396475  0.792950  1
  O  O20  1  0.033778  0.533778  0.067557  1
  O  O21  1  0.466222  0.966222  0.932443  1
  O  O22  1  0.671547  0.671547  0.343095  1
