# generated using pymatgen
data_Co(SiO3)2
_symmetry_space_group_name_H-M   'P 1'
_cell_length_a   5.28560575
_cell_length_b   6.25942034
_cell_length_c   6.25942643
_cell_angle_alpha   83.69793789
_cell_angle_beta   75.67490492
_cell_angle_gamma   75.67496460
_symmetry_Int_Tables_number   1
_chemical_formula_structural   Co(SiO3)2
_chemical_formula_sum   'Co2 Si4 O12'
_cell_volume   194.15408770
_cell_formula_units_Z   2
loop_
 _symmetry_equiv_pos_site_id
 _symmetry_equiv_pos_as_xyz
  1  'x, y, z'
loop_
 _atom_site_type_symbol
 _atom_site_label
 _atom_site_symmetry_multiplicity
 _atom_site_fract_x
 _atom_site_fract_y
 _atom_site_fract_z
 _atom_site_occupancy
  Co  Co0  1  0.250000  0.088622  0.911380  1
  Co  Co1  1  0.749998  0.911360  0.088640  1
  Si  Si2  1  0.262591  0.208337  0.390719  1
  Si  Si3  1  0.237401  0.609283  0.791666  1
  Si  Si4  1  0.762583  0.390742  0.208352  1
  Si  Si5  1  0.737410  0.791643  0.609260  1
  O  O6  1  0.488134  0.346876  0.369839  1
  O  O7  1  0.011865  0.630162  0.653121  1
  O  O8  1  0.511850  0.653149  0.630144  1
  O  O9  1  0.988150  0.369862  0.346841  1
  O  O10  1  0.193547  0.088860  0.635811  1
  O  O11  1  0.306463  0.364190  0.911137  1
  O  O12  1  0.806445  0.911146  0.364251  1
  O  O13  1  0.693561  0.635749  0.088851  1
  O  O14  1  0.866773  0.194159  0.023388  1
  O  O15  1  0.633227  0.976612  0.805844  1
  O  O16  1  0.366755  0.023378  0.194132  1
  O  O17  1  0.133247  0.805870  0.976623  1
