# generated using pymatgen
data_Ca2MoWO6
_symmetry_space_group_name_H-M   'P 1'
_cell_length_a   5.53560897
_cell_length_b   5.75698472
_cell_length_c   7.99318185
_cell_angle_alpha   90.00000000
_cell_angle_beta   89.82608729
_cell_angle_gamma   90.00000000
_symmetry_Int_Tables_number   1
_chemical_formula_structural   Ca2MoWO6
_chemical_formula_sum   'Ca4 Mo2 W2 O12'
_cell_volume   254.72887276
_cell_formula_units_Z   2
loop_
 _symmetry_equiv_pos_site_id
 _symmetry_equiv_pos_as_xyz
  1  'x, y, z'
loop_
 _atom_site_type_symbol
 _atom_site_label
 _atom_site_symmetry_multiplicity
 _atom_site_fract_x
 _atom_site_fract_y
 _atom_site_fract_z
 _atom_site_occupancy
  Ca  Ca0  1  0.985307  0.054618  0.251082  1
  Ca  Ca1  1  0.514693  0.554619  0.248918  1
  Ca  Ca2  1  0.014694  0.945383  0.748918  1
  Ca  Ca3  1  0.485306  0.445382  0.751082  1
  Mo  Mo4  1  0.500000  0.000000  0.000000  1
  Mo  Mo5  1  0.000001  0.499999  0.500000  1
  W  W6  1  0.500000  0.000000  0.499999  1
  W  W7  1  0.000000  0.499999  0.000000  1
  O  O8  1  0.682603  0.288879  0.447160  1
  O  O9  1  0.817397  0.788880  0.052840  1
  O  O10  1  0.317396  0.711121  0.552840  1
  O  O11  1  0.182604  0.211120  0.947160  1
  O  O12  1  0.208538  0.195444  0.556326  1
  O  O13  1  0.291462  0.695443  0.943674  1
  O  O14  1  0.791463  0.804556  0.443674  1
  O  O15  1  0.708537  0.304557  0.056326  1
  O  O16  1  0.107599  0.459622  0.242262  1
  O  O17  1  0.392402  0.959623  0.257737  1
  O  O18  1  0.607599  0.040377  0.742263  1
  O  O19  1  0.892402  0.540378  0.757738  1
