# generated using pymatgen
data_La2ZnCoO6
_symmetry_space_group_name_H-M   'P 1'
_cell_length_a   5.46368596
_cell_length_b   5.46368562
_cell_length_c   5.46368616
_cell_angle_alpha   61.48739048
_cell_angle_beta   61.48739162
_cell_angle_gamma   61.48739436
_symmetry_Int_Tables_number   1
_chemical_formula_structural   La2ZnCoO6
_chemical_formula_sum   'La2 Zn1 Co1 O6'
_cell_volume   119.18096299
_cell_formula_units_Z   1
loop_
 _symmetry_equiv_pos_site_id
 _symmetry_equiv_pos_as_xyz
  1  'x, y, z'
loop_
 _atom_site_type_symbol
 _atom_site_label
 _atom_site_symmetry_multiplicity
 _atom_site_fract_x
 _atom_site_fract_y
 _atom_site_fract_z
 _atom_site_occupancy
  La  La0  1  0.751391  0.751391  0.751391  1
  La  La1  1  0.248609  0.248609  0.248609  1
  Zn  Zn2  1  0.500000  0.500000  0.500000  1
  Co  Co3  1  0.000000  0.000000  0.000000  1
  O  O4  1  0.307336  0.766193  0.170932  1
  O  O5  1  0.766193  0.170932  0.307336  1
  O  O6  1  0.170932  0.307336  0.766193  1
  O  O7  1  0.692664  0.233807  0.829068  1
  O  O8  1  0.829068  0.692664  0.233807  1
  O  O9  1  0.233807  0.829068  0.692664  1
