# generated using pymatgen
data_Zn(AgO2)2
_symmetry_space_group_name_H-M   'P 1'
_cell_length_a   3.18641446
_cell_length_b   9.89801669
_cell_length_c   10.81725891
_cell_angle_alpha   90.00048408
_cell_angle_beta   89.96020900
_cell_angle_gamma   89.99795603
_symmetry_Int_Tables_number   1
_chemical_formula_structural   Zn(AgO2)2
_chemical_formula_sum   'Zn4 Ag8 O16'
_cell_volume   341.16743120
_cell_formula_units_Z   4
loop_
 _symmetry_equiv_pos_site_id
 _symmetry_equiv_pos_as_xyz
  1  'x, y, z'
loop_
 _atom_site_type_symbol
 _atom_site_label
 _atom_site_symmetry_multiplicity
 _atom_site_fract_x
 _atom_site_fract_y
 _atom_site_fract_z
 _atom_site_occupancy
  Zn  Zn0  1  0.314915  0.749994  0.151191  1
  Zn  Zn1  1  0.313997  0.249992  0.348718  1
  Zn  Zn2  1  0.685999  0.750005  0.651277  1
  Zn  Zn3  1  0.685110  0.250003  0.848808  1
  Ag  Ag4  1  0.823216  0.570593  0.384514  1
  Ag  Ag5  1  0.823215  0.070589  0.115520  1
  Ag  Ag6  1  0.176794  0.070592  0.615485  1
  Ag  Ag7  1  0.823214  0.429412  0.115519  1
  Ag  Ag8  1  0.176770  0.429406  0.615488  1
  Ag  Ag9  1  0.823238  0.929407  0.384513  1
  Ag  Ag10  1  0.176784  0.929410  0.884480  1
  Ag  Ag11  1  0.176767  0.570593  0.884480  1
  O  O12  1  0.125241  0.876158  0.548544  1
  O  O13  1  0.874784  0.123841  0.451460  1
  O  O14  1  0.454082  0.000019  0.250086  1
  O  O15  1  0.874794  0.876137  0.048635  1
  O  O16  1  0.874745  0.623865  0.048639  1
  O  O17  1  0.802744  0.250000  0.215305  1
  O  O18  1  0.125192  0.123862  0.951361  1
  O  O19  1  0.196909  0.249999  0.715280  1
  O  O20  1  0.454074  0.499989  0.250083  1
  O  O21  1  0.545929  0.999982  0.749919  1
  O  O22  1  0.125200  0.623840  0.548542  1
  O  O23  1  0.197272  0.750002  0.784691  1
  O  O24  1  0.803119  0.749999  0.284721  1
  O  O25  1  0.545914  0.500013  0.749919  1
  O  O26  1  0.125219  0.376142  0.951362  1
  O  O27  1  0.874759  0.376157  0.451461  1
