# generated using pymatgen
data_Ca(BiO2)2
_symmetry_space_group_name_H-M   'P 1'
_cell_length_a   7.01303934
_cell_length_b   6.99642819
_cell_length_c   21.02229494
_cell_angle_alpha   60.05181975
_cell_angle_beta   60.23215216
_cell_angle_gamma   60.07461371
_symmetry_Int_Tables_number   1
_chemical_formula_structural   Ca(BiO2)2
_chemical_formula_sum   'Ca6 Bi12 O24'
_cell_volume   731.34062986
_cell_formula_units_Z   6
loop_
 _symmetry_equiv_pos_site_id
 _symmetry_equiv_pos_as_xyz
  1  'x, y, z'
loop_
 _atom_site_type_symbol
 _atom_site_label
 _atom_site_symmetry_multiplicity
 _atom_site_fract_x
 _atom_site_fract_y
 _atom_site_fract_z
 _atom_site_occupancy
  Ca  Ca0  1  0.131436  0.123113  0.040790  1
  Ca  Ca1  1  0.499665  0.499891  0.333519  1
  Ca  Ca2  1  0.000417  0.498611  0.167456  1
  Ca  Ca3  1  0.501166  0.501317  0.665387  1
  Ca  Ca4  1  0.000086  0.500125  0.499885  1
  Ca  Ca5  1  0.001042  0.500491  0.832655  1
  Bi  Bi6  1  0.499879  0.997394  0.168084  1
  Bi  Bi7  1  0.128391  0.120115  0.377140  1
  Bi  Bi8  1  0.492079  0.496734  0.004822  1
  Bi  Bi9  1  0.499903  0.498488  0.168075  1
  Bi  Bi10  1  0.500696  0.999819  0.499711  1
  Bi  Bi11  1  0.129518  0.121510  0.709163  1
  Bi  Bi12  1  0.500697  0.500336  0.499718  1
  Bi  Bi13  1  0.496219  0.007562  0.832240  1
  Bi  Bi14  1  0.870897  0.879465  0.290060  1
  Bi  Bi15  1  0.496172  0.499528  0.832246  1
  Bi  Bi16  1  0.871044  0.878728  0.623812  1
  Bi  Bi17  1  0.868247  0.877912  0.958643  1
  O  O18  1  0.259910  0.261912  0.086347  1
  O  O19  1  0.254778  0.256506  0.244073  1
  O  O20  1  0.259879  0.719140  0.086354  1
  O  O21  1  0.727751  0.257213  0.085940  1
  O  O22  1  0.259860  0.258146  0.419634  1
  O  O23  1  0.270141  0.742234  0.248479  1
  O  O24  1  0.255447  0.258000  0.576188  1
  O  O25  1  0.740811  0.275443  0.247347  1
  O  O26  1  0.259816  0.723116  0.419645  1
  O  O27  1  0.741972  0.740319  0.092452  1
  O  O28  1  0.726907  0.258751  0.418523  1
  O  O29  1  0.740794  0.741721  0.247359  1
  O  O30  1  0.261051  0.257347  0.752401  1
  O  O31  1  0.272556  0.741454  0.581519  1
  O  O32  1  0.740467  0.277053  0.580331  1
  O  O33  1  0.261012  0.724372  0.752406  1
  O  O34  1  0.262575  0.259807  0.905958  1
  O  O35  1  0.744502  0.741992  0.423827  1
  O  O36  1  0.725977  0.258994  0.751992  1
  O  O37  1  0.740433  0.741442  0.580343  1
  O  O38  1  0.262203  0.747190  0.914472  1
  O  O39  1  0.747790  0.271423  0.912592  1
  O  O40  1  0.748057  0.742252  0.755809  1
  O  O41  1  0.747754  0.743034  0.912604  1
