# generated using pymatgen
data_SrCaCo(PO4)2
_symmetry_space_group_name_H-M   'P 1'
_cell_length_a   5.72087962
_cell_length_b   6.94597066
_cell_length_c   9.50959864
_cell_angle_alpha   109.49885302
_cell_angle_beta   101.68869857
_cell_angle_gamma   98.64513314
_symmetry_Int_Tables_number   1
_chemical_formula_structural   SrCaCo(PO4)2
_chemical_formula_sum   'Sr2 Ca2 Co2 P4 O16'
_cell_volume   338.96325876
_cell_formula_units_Z   2
loop_
 _symmetry_equiv_pos_site_id
 _symmetry_equiv_pos_as_xyz
  1  'x, y, z'
loop_
 _atom_site_type_symbol
 _atom_site_label
 _atom_site_symmetry_multiplicity
 _atom_site_fract_x
 _atom_site_fract_y
 _atom_site_fract_z
 _atom_site_occupancy
  Sr  Sr0  1  0.265026  0.808240  0.058875  1
  Sr  Sr1  1  0.734974  0.191760  0.941125  1
  Ca  Ca2  1  0.997867  0.415788  0.659670  1
  Ca  Ca3  1  0.002133  0.584212  0.340330  1
  Co  Co4  1  0.644872  0.850908  0.561766  1
  Co  Co5  1  0.355128  0.149092  0.438234  1
  P  P6  1  0.393952  0.417718  0.225726  1
  P  P7  1  0.606048  0.582282  0.774274  1
  P  P8  1  0.839496  0.034348  0.298971  1
  P  P9  1  0.160504  0.965652  0.701029  1
  O  O10  1  0.840331  0.559068  0.878865  1
  O  O11  1  0.621627  0.452138  0.166303  1
  O  O12  1  0.652446  0.800446  0.760944  1
  O  O13  1  0.958117  0.096754  0.690750  1
  O  O14  1  0.378373  0.547862  0.833697  1
  O  O15  1  0.017999  0.732236  0.598309  1
  O  O16  1  0.982001  0.267764  0.401691  1
  O  O17  1  0.271048  0.000749  0.870273  1
  O  O18  1  0.347554  0.199554  0.239056  1
  O  O19  1  0.728952  0.999251  0.129727  1
  O  O20  1  0.159669  0.440932  0.121135  1
  O  O21  1  0.426864  0.590555  0.389088  1
  O  O22  1  0.573136  0.409445  0.610912  1
  O  O23  1  0.635596  0.967435  0.373503  1
  O  O24  1  0.041883  0.903246  0.309250  1
  O  O25  1  0.364404  0.032565  0.626497  1
