# generated using pymatgen
data_CaVBiO5
_symmetry_space_group_name_H-M   'P 1'
_cell_length_a   5.85914698
_cell_length_b   8.33601173
_cell_length_c   11.88269148
_cell_angle_alpha   90.00000000
_cell_angle_beta   90.00000000
_cell_angle_gamma   111.01067783
_symmetry_Int_Tables_number   1
_chemical_formula_structural   CaVBiO5
_chemical_formula_sum   'Ca4 V4 Bi4 O20'
_cell_volume   541.78651468
_cell_formula_units_Z   4
loop_
 _symmetry_equiv_pos_site_id
 _symmetry_equiv_pos_as_xyz
  1  'x, y, z'
loop_
 _atom_site_type_symbol
 _atom_site_label
 _atom_site_symmetry_multiplicity
 _atom_site_fract_x
 _atom_site_fract_y
 _atom_site_fract_z
 _atom_site_occupancy
  Ca  Ca0  1  0.641010  0.187867  0.914310  1
  Ca  Ca1  1  0.358990  0.812133  0.085690  1
  Ca  Ca2  1  0.858990  0.312133  0.414310  1
  Ca  Ca3  1  0.141010  0.687867  0.585690  1
  V  V4  1  0.801643  0.970643  0.646030  1
  V  V5  1  0.198357  0.029358  0.353970  1
  V  V6  1  0.698357  0.529357  0.146030  1
  V  V7  1  0.301643  0.470642  0.853970  1
  Bi  Bi8  1  0.132303  0.167350  0.092093  1
  Bi  Bi9  1  0.867697  0.832650  0.907907  1
  Bi  Bi10  1  0.632303  0.667350  0.407907  1
  Bi  Bi11  1  0.367697  0.332650  0.592093  1
  O  O12  1  0.557930  0.332914  0.075992  1
  O  O13  1  0.071167  0.327788  0.941079  1
  O  O14  1  0.485657  0.618428  0.181716  1
  O  O15  1  0.741161  0.512774  0.526064  1
  O  O16  1  0.811738  0.499912  0.277023  1
  O  O17  1  0.311738  0.999912  0.222977  1
  O  O18  1  0.571167  0.827788  0.558921  1
  O  O19  1  0.428833  0.172212  0.441079  1
  O  O20  1  0.258839  0.487226  0.473936  1
  O  O21  1  0.942070  0.167086  0.575992  1
  O  O22  1  0.188262  0.500088  0.722977  1
  O  O23  1  0.442070  0.667086  0.924008  1
  O  O24  1  0.057930  0.832914  0.424008  1
  O  O25  1  0.688262  0.000088  0.777023  1
  O  O26  1  0.758839  0.987226  0.026064  1
  O  O27  1  0.241161  0.012774  0.973936  1
  O  O28  1  0.514343  0.381572  0.818284  1
  O  O29  1  0.928833  0.672212  0.058921  1
  O  O30  1  0.014343  0.881572  0.681716  1
  O  O31  1  0.985657  0.118428  0.318284  1
