# generated using pymatgen
data_Mg(CrS2)2
_symmetry_space_group_name_H-M   'P 1'
_cell_length_a   7.16336118
_cell_length_b   7.16336236
_cell_length_c   7.24494338
_cell_angle_alpha   119.62819793
_cell_angle_beta   119.62820167
_cell_angle_gamma   89.99999350
_symmetry_Int_Tables_number   1
_chemical_formula_structural   Mg(CrS2)2
_chemical_formula_sum   'Mg2 Cr4 S8'
_cell_volume   265.80489618
_cell_formula_units_Z   2
loop_
 _symmetry_equiv_pos_site_id
 _symmetry_equiv_pos_as_xyz
  1  'x, y, z'
loop_
 _atom_site_type_symbol
 _atom_site_label
 _atom_site_symmetry_multiplicity
 _atom_site_fract_x
 _atom_site_fract_y
 _atom_site_fract_z
 _atom_site_occupancy
  Mg  Mg0  1  0.375000  0.625000  0.750000  1
  Mg  Mg1  1  0.625000  0.375000  0.250000  1
  Cr  Cr2  1  0.000000  0.000000  0.500000  1
  Cr  Cr3  1  0.000000  0.500000  0.000000  1
  Cr  Cr4  1  0.500000  0.000000  0.500000  1
  Cr  Cr5  1  0.000000  0.000000  0.000000  1
  S  S6  1  0.766647  0.789743  0.533294  1
  S  S7  1  0.756450  0.233353  0.966706  1
  S  S8  1  0.210257  0.233353  0.966706  1
  S  S9  1  0.233353  0.210257  0.466706  1
  S  S10  1  0.233353  0.756450  0.466706  1
  S  S11  1  0.243550  0.766647  0.033294  1
  S  S12  1  0.766647  0.243550  0.533294  1
  S  S13  1  0.789743  0.766647  0.033294  1
