# generated using pymatgen
data_BaZnCoF7
_symmetry_space_group_name_H-M   'P 1'
_cell_length_a   5.67169944
_cell_length_b   9.61559711
_cell_length_c   10.01192434
_cell_angle_alpha   90.00000000
_cell_angle_beta   90.00000000
_cell_angle_gamma   93.07232649
_symmetry_Int_Tables_number   1
_chemical_formula_structural   BaZnCoF7
_chemical_formula_sum   'Ba4 Zn4 Co4 F28'
_cell_volume   545.23327696
_cell_formula_units_Z   4
loop_
 _symmetry_equiv_pos_site_id
 _symmetry_equiv_pos_as_xyz
  1  'x, y, z'
loop_
 _atom_site_type_symbol
 _atom_site_label
 _atom_site_symmetry_multiplicity
 _atom_site_fract_x
 _atom_site_fract_y
 _atom_site_fract_z
 _atom_site_occupancy
  Ba  Ba0  1  0.264241  0.499943  0.312928  1
  Ba  Ba1  1  0.735759  0.000057  0.812928  1
  Ba  Ba2  1  0.735759  0.500057  0.687072  1
  Ba  Ba3  1  0.264241  0.999943  0.187072  1
  Zn  Zn4  1  0.698234  0.809530  0.399732  1
  Zn  Zn5  1  0.301766  0.690470  0.899732  1
  Zn  Zn6  1  0.698234  0.309530  0.100268  1
  Zn  Zn7  1  0.301766  0.190470  0.600268  1
  Co  Co8  1  0.194979  0.810109  0.611717  1
  Co  Co9  1  0.805021  0.189891  0.388283  1
  Co  Co10  1  0.194979  0.310109  0.888283  1
  Co  Co11  1  0.805021  0.689891  0.111717  1
  F  F12  1  0.111436  0.120744  0.442483  1
  F  F13  1  0.364130  0.371084  0.050446  1
  F  F14  1  0.478279  0.750876  0.709145  1
  F  F15  1  0.521721  0.249124  0.290855  1
  F  F16  1  0.885904  0.363964  0.456187  1
  F  F17  1  0.257733  0.491551  0.808570  1
  F  F18  1  0.020563  0.750252  0.779002  1
  F  F19  1  0.114096  0.136036  0.956187  1
  F  F20  1  0.364130  0.871084  0.449554  1
  F  F21  1  0.521721  0.749124  0.209145  1
  F  F22  1  0.111436  0.620744  0.057517  1
  F  F23  1  0.888564  0.879256  0.557517  1
  F  F24  1  0.979437  0.749748  0.279002  1
  F  F25  1  0.383731  0.880009  0.958693  1
  F  F26  1  0.114096  0.636036  0.543813  1
  F  F27  1  0.885904  0.863964  0.043813  1
  F  F28  1  0.979437  0.249748  0.220998  1
  F  F29  1  0.888564  0.379256  0.942483  1
  F  F30  1  0.616269  0.619991  0.458693  1
  F  F31  1  0.635870  0.628916  0.949554  1
  F  F32  1  0.616269  0.119991  0.041307  1
  F  F33  1  0.020563  0.250252  0.720998  1
  F  F34  1  0.383731  0.380009  0.541307  1
  F  F35  1  0.742267  0.008449  0.308570  1
  F  F36  1  0.742267  0.508449  0.191430  1
  F  F37  1  0.257733  0.991551  0.691430  1
  F  F38  1  0.635870  0.128916  0.550446  1
  F  F39  1  0.478279  0.250876  0.790855  1
