# generated using pymatgen
data_Mg2TaMnO6
_symmetry_space_group_name_H-M   'P 1'
_cell_length_a   5.22094012
_cell_length_b   5.50242656
_cell_length_c   7.51492708
_cell_angle_alpha   90.00000000
_cell_angle_beta   90.00000000
_cell_angle_gamma   85.48529561
_symmetry_Int_Tables_number   1
_chemical_formula_structural   Mg2TaMnO6
_chemical_formula_sum   'Mg4 Ta2 Mn2 O12'
_cell_volume   215.21775606
_cell_formula_units_Z   2
loop_
 _symmetry_equiv_pos_site_id
 _symmetry_equiv_pos_as_xyz
  1  'x, y, z'
loop_
 _atom_site_type_symbol
 _atom_site_label
 _atom_site_symmetry_multiplicity
 _atom_site_fract_x
 _atom_site_fract_y
 _atom_site_fract_z
 _atom_site_occupancy
  Mg  Mg0  1  0.021677  0.949597  0.250000  1
  Mg  Mg1  1  0.496144  0.434998  0.250000  1
  Mg  Mg2  1  0.503856  0.565002  0.750000  1
  Mg  Mg3  1  0.978323  0.050403  0.750000  1
  Ta  Ta4  1  0.000000  0.500000  0.000000  1
  Ta  Ta5  1  0.000000  0.500000  0.500000  1
  Mn  Mn6  1  0.500000  0.000000  0.000000  1
  Mn  Mn7  1  0.500000  0.000000  0.500000  1
  O  O8  1  0.821830  0.820523  0.566153  1
  O  O9  1  0.301429  0.668356  0.428124  1
  O  O10  1  0.178170  0.179477  0.433847  1
  O  O11  1  0.698571  0.331644  0.928124  1
  O  O12  1  0.138901  0.448908  0.750000  1
  O  O13  1  0.698571  0.331644  0.571876  1
  O  O14  1  0.301429  0.668356  0.071876  1
  O  O15  1  0.821830  0.820523  0.933847  1
  O  O16  1  0.632467  0.066750  0.250000  1
  O  O17  1  0.178170  0.179477  0.066153  1
  O  O18  1  0.367533  0.933250  0.750000  1
  O  O19  1  0.861099  0.551092  0.250000  1
