# generated using pymatgen
data_ZnCu3(MoO3)4
_symmetry_space_group_name_H-M   'P 1'
_cell_length_a   6.63180954
_cell_length_b   6.63180984
_cell_length_c   6.63180957
_cell_angle_alpha   109.47121366
_cell_angle_beta   109.47121459
_cell_angle_gamma   109.47122139
_symmetry_Int_Tables_number   1
_chemical_formula_structural   ZnCu3(MoO3)4
_chemical_formula_sum   'Zn1 Cu3 Mo4 O12'
_cell_volume   224.52997721
_cell_formula_units_Z   1
loop_
 _symmetry_equiv_pos_site_id
 _symmetry_equiv_pos_as_xyz
  1  'x, y, z'
loop_
 _atom_site_type_symbol
 _atom_site_label
 _atom_site_symmetry_multiplicity
 _atom_site_fract_x
 _atom_site_fract_y
 _atom_site_fract_z
 _atom_site_occupancy
  Zn  Zn0  1  0.000000  -0.000000  0.000000  1
  Cu  Cu1  1  0.500000  0.500000  0.000000  1
  Cu  Cu2  1  0.000000  0.500000  0.500000  1
  Cu  Cu3  1  0.500000  -0.000000  0.500000  1
  Mo  Mo4  1  0.000000  -0.000000  0.500000  1
  Mo  Mo5  1  0.000000  0.500000  0.000000  1
  Mo  Mo6  1  0.500000  0.500000  0.500000  1
  Mo  Mo7  1  0.500000  -0.000000  0.000000  1
  O  O8  1  0.829555  0.305515  0.135070  1
  O  O9  1  0.170445  0.694484  0.864930  1
  O  O10  1  0.829555  0.694484  0.524040  1
  O  O11  1  0.305515  0.475960  0.170445  1
  O  O12  1  0.475960  0.170445  0.305515  1
  O  O13  1  0.135070  0.829555  0.305515  1
  O  O14  1  0.694484  0.864930  0.170445  1
  O  O15  1  0.524040  0.829555  0.694484  1
  O  O16  1  0.170445  0.305515  0.475960  1
  O  O17  1  0.694484  0.524040  0.829555  1
  O  O18  1  0.864930  0.170445  0.694484  1
  O  O19  1  0.305515  0.135070  0.829555  1
