# generated using pymatgen
data_Ca2MoWO6
_symmetry_space_group_name_H-M   'P 1'
_cell_length_a   5.72156617
_cell_length_b   5.71474229
_cell_length_c   7.97279876
_cell_angle_alpha   88.52265216
_cell_angle_beta   135.32600704
_cell_angle_gamma   121.04583691
_symmetry_Int_Tables_number   1
_chemical_formula_structural   Ca2MoWO6
_chemical_formula_sum   'Ca2 Mo1 W1 O6'
_cell_volume   129.45110528
_cell_formula_units_Z   1
loop_
 _symmetry_equiv_pos_site_id
 _symmetry_equiv_pos_as_xyz
  1  'x, y, z'
loop_
 _atom_site_type_symbol
 _atom_site_label
 _atom_site_symmetry_multiplicity
 _atom_site_fract_x
 _atom_site_fract_y
 _atom_site_fract_z
 _atom_site_occupancy
  Ca  Ca0  1  0.028553  0.505424  0.255174  1
  Ca  Ca1  1  0.968196  0.454735  0.738220  1
  Mo  Mo2  1  0.003591  0.983189  0.501033  1
  W  W3  1  0.003500  0.983052  0.000981  1
  O  O4  1  0.097010  0.954402  0.288755  1
  O  O5  1  0.910431  0.010813  0.713739  1
  O  O6  1  0.367482  0.466053  0.207535  1
  O  O7  1  0.405262  0.867012  0.754055  1
  O  O8  1  0.606523  0.103669  0.252726  1
  O  O9  1  0.642163  0.500278  0.796459  1
