# generated using pymatgen
data_Sr3MgCo2S2O5
_symmetry_space_group_name_H-M   'P 1'
_cell_length_a   3.87099475
_cell_length_b   3.87099475
_cell_length_c   14.28573183
_cell_angle_alpha   97.78664765
_cell_angle_beta   97.78664765
_cell_angle_gamma   90.00000000
_symmetry_Int_Tables_number   1
_chemical_formula_structural   Sr3MgCo2S2O5
_chemical_formula_sum   'Sr3 Mg1 Co2 S2 O5'
_cell_volume   210.09982391
_cell_formula_units_Z   1
loop_
 _symmetry_equiv_pos_site_id
 _symmetry_equiv_pos_as_xyz
  1  'x, y, z'
loop_
 _atom_site_type_symbol
 _atom_site_label
 _atom_site_symmetry_multiplicity
 _atom_site_fract_x
 _atom_site_fract_y
 _atom_site_fract_z
 _atom_site_occupancy
  Sr  Sr0  1  0.500000  0.500000  0.000000  1
  Sr  Sr1  1  0.637041  0.637041  0.274081  1
  Sr  Sr2  1  0.362959  0.362959  0.725919  1
  Mg  Mg3  1  0.750000  0.250000  0.500000  1
  Co  Co4  1  0.069189  0.069189  0.138378  1
  Co  Co5  1  0.930811  0.930811  0.861622  1
  S  S6  1  0.193475  0.193475  0.386950  1
  S  S7  1  0.806525  0.806525  0.613050  1
  O  O8  1  0.077176  0.577176  0.154351  1
  O  O9  1  0.578078  0.078078  0.156157  1
  O  O10  1  0.921922  0.421922  0.843843  1
  O  O11  1  0.422824  0.922824  0.845649  1
  O  O12  1  0.000000  0.000000  0.000000  1
