# generated using pymatgen
data_Ge3(MoO6)2
_symmetry_space_group_name_H-M   'P 1'
_cell_length_a   10.72749556
_cell_length_b   10.72749518
_cell_length_c   10.72749488
_cell_angle_alpha   109.47121817
_cell_angle_beta   109.47121744
_cell_angle_gamma   109.47122186
_symmetry_Int_Tables_number   1
_chemical_formula_structural   Ge3(MoO6)2
_chemical_formula_sum   'Ge12 Mo8 O48'
_cell_volume   950.32711411
_cell_formula_units_Z   4
loop_
 _symmetry_equiv_pos_site_id
 _symmetry_equiv_pos_as_xyz
  1  'x, y, z'
loop_
 _atom_site_type_symbol
 _atom_site_label
 _atom_site_symmetry_multiplicity
 _atom_site_fract_x
 _atom_site_fract_y
 _atom_site_fract_z
 _atom_site_occupancy
  Ge  Ge0  1  0.875000  0.125000  0.750000  1
  Ge  Ge1  1  0.125000  0.875000  0.250000  1
  Ge  Ge2  1  0.250000  0.625000  0.375000  1
  Ge  Ge3  1  0.125000  0.750000  0.875000  1
  Ge  Ge4  1  0.750000  0.875000  0.125000  1
  Ge  Ge5  1  0.375000  0.250000  0.625000  1
  Ge  Ge6  1  0.625000  0.750000  0.375000  1
  Ge  Ge7  1  0.875000  0.250000  0.125000  1
  Ge  Ge8  1  0.250000  0.125000  0.875000  1
  Ge  Ge9  1  0.750000  0.375000  0.625000  1
  Ge  Ge10  1  0.375000  0.625000  0.750000  1
  Ge  Ge11  1  0.625000  0.375000  0.250000  1
  Mo  Mo12  1  0.500000  0.500000  0.500000  1
  Mo  Mo13  1  0.500000  0.500000  0.000000  1
  Mo  Mo14  1  0.500000  0.000000  0.500000  1
  Mo  Mo15  1  0.000000  0.500000  0.500000  1
  Mo  Mo16  1  0.500000  0.000000  0.000000  1
  Mo  Mo17  1  0.000000  0.000000  0.500000  1
  Mo  Mo18  1  0.000000  0.500000  0.000000  1
  Mo  Mo19  1  0.000000  0.000000  0.000000  1
  O  O20  1  0.811155  0.420033  0.817223  1
  O  O21  1  0.079967  0.891122  0.397190  1
  O  O22  1  0.682777  0.102810  0.993930  1
  O  O23  1  0.688845  0.506070  0.608878  1
  O  O24  1  0.688845  0.682777  0.079967  1
  O  O25  1  0.506070  0.608878  0.688845  1
  O  O26  1  0.102810  0.608878  0.420033  1
  O  O27  1  0.608878  0.688845  0.506070  1
  O  O28  1  0.397190  0.817223  0.506070  1
  O  O29  1  0.891122  0.993930  0.811155  1
  O  O30  1  0.993930  0.811155  0.891122  1
  O  O31  1  0.079967  0.688845  0.682777  1
  O  O32  1  0.608878  0.420033  0.102810  1
  O  O33  1  0.506070  0.397190  0.817223  1
  O  O34  1  0.682777  0.079967  0.688845  1
  O  O35  1  0.420033  0.102810  0.608878  1
  O  O36  1  0.817223  0.506070  0.397190  1
  O  O37  1  0.397190  0.079967  0.891122  1
  O  O38  1  0.102810  0.993930  0.682777  1
  O  O39  1  0.602810  0.182777  0.493930  1
  O  O40  1  0.993930  0.682777  0.102810  1
  O  O41  1  0.817223  0.811155  0.420033  1
  O  O42  1  0.891122  0.397190  0.079967  1
  O  O43  1  0.811155  0.891122  0.993930  1
  O  O44  1  0.188845  0.579967  0.182777  1
  O  O45  1  0.920033  0.108878  0.602810  1
  O  O46  1  0.317223  0.897190  0.006070  1
  O  O47  1  0.311155  0.493930  0.391122  1
  O  O48  1  0.311155  0.317223  0.920033  1
  O  O49  1  0.493930  0.391122  0.311155  1
  O  O50  1  0.897190  0.391122  0.579967  1
  O  O51  1  0.391122  0.311155  0.493930  1
  O  O52  1  0.188845  0.108878  0.006070  1
  O  O53  1  0.108878  0.602810  0.920033  1
  O  O54  1  0.182777  0.188845  0.579967  1
  O  O55  1  0.579967  0.182777  0.188845  1
  O  O56  1  0.006070  0.317223  0.897190  1
  O  O57  1  0.897190  0.006070  0.317223  1
  O  O58  1  0.602810  0.920033  0.108878  1
  O  O59  1  0.182777  0.493930  0.602810  1
  O  O60  1  0.579967  0.897190  0.391122  1
  O  O61  1  0.317223  0.920033  0.311155  1
  O  O62  1  0.493930  0.602810  0.182777  1
  O  O63  1  0.391122  0.579967  0.897190  1
  O  O64  1  0.920033  0.311155  0.317223  1
  O  O65  1  0.006070  0.188845  0.108878  1
  O  O66  1  0.108878  0.006070  0.188845  1
  O  O67  1  0.420033  0.817223  0.811155  1
