# generated using pymatgen
data_WO2
_symmetry_space_group_name_H-M   'P 1'
_cell_length_a   3.31464277
_cell_length_b   9.18138534
_cell_length_c   11.20331814
_cell_angle_alpha   89.93900776
_cell_angle_beta   90.00003069
_cell_angle_gamma   90.00004015
_symmetry_Int_Tables_number   1
_chemical_formula_structural   WO2
_chemical_formula_sum   'W8 O16'
_cell_volume   340.95052831
_cell_formula_units_Z   8
loop_
 _symmetry_equiv_pos_site_id
 _symmetry_equiv_pos_as_xyz
  1  'x, y, z'
loop_
 _atom_site_type_symbol
 _atom_site_label
 _atom_site_symmetry_multiplicity
 _atom_site_fract_x
 _atom_site_fract_y
 _atom_site_fract_z
 _atom_site_occupancy
  W  W0  1  0.249999  0.433900  0.112424  1
  W  W1  1  0.750000  0.066382  0.614227  1
  W  W2  1  0.250000  0.933914  0.387653  1
  W  W3  1  0.750000  0.566417  0.885682  1
  W  W4  1  0.749999  0.574841  0.389389  1
  W  W5  1  0.250000  0.424401  0.609353  1
  W  W6  1  0.750000  0.074808  0.110477  1
  W  W7  1  0.250000  0.924453  0.890795  1
  O  O8  1  0.249999  0.936403  0.072958  1
  O  O9  1  0.750000  0.062475  0.928559  1
  O  O10  1  0.249999  0.436425  0.427138  1
  O  O11  1  0.750000  0.562461  0.571355  1
  O  O12  1  0.250000  0.007796  0.721493  1
  O  O13  1  0.749999  0.992916  0.280359  1
  O  O14  1  0.249999  0.507801  0.778428  1
  O  O15  1  0.749999  0.492960  0.219716  1
  O  O16  1  0.250000  0.609951  0.000581  1
  O  O17  1  0.749999  0.390644  0.997540  1
  O  O18  1  0.250000  0.109962  0.499204  1
  O  O19  1  0.749999  0.890583  0.502651  1
  O  O20  1  0.749999  0.785564  0.856246  1
  O  O21  1  0.250000  0.214706  0.142681  1
  O  O22  1  0.250000  0.714832  0.357302  1
  O  O23  1  0.749999  0.285407  0.643785  1
