# generated using pymatgen
data_Mg2TiWO6
_symmetry_space_group_name_H-M   'P 1'
_cell_length_a   5.20612760
_cell_length_b   5.57323248
_cell_length_c   7.59546826
_cell_angle_alpha   95.33646187
_cell_angle_beta   133.10482569
_cell_angle_gamma   117.62872377
_symmetry_Int_Tables_number   1
_chemical_formula_structural   Mg2TiWO6
_chemical_formula_sum   'Mg2 Ti1 W1 O6'
_cell_volume   110.28007171
_cell_formula_units_Z   1
loop_
 _symmetry_equiv_pos_site_id
 _symmetry_equiv_pos_as_xyz
  1  'x, y, z'
loop_
 _atom_site_type_symbol
 _atom_site_label
 _atom_site_symmetry_multiplicity
 _atom_site_fract_x
 _atom_site_fract_y
 _atom_site_fract_z
 _atom_site_occupancy
  Mg  Mg0  1  0.991940  0.560325  0.206626  1
  Mg  Mg1  1  0.993637  0.569837  0.698108  1
  Ti  Ti2  1  0.991045  0.984872  0.491477  1
  W  W3  1  0.989497  0.979733  0.995842  1
  O  O4  1  0.265749  0.082754  0.391137  1
  O  O5  1  0.725606  0.809845  0.612888  1
  O  O6  1  0.686741  0.497905  0.294817  1
  O  O7  1  0.599314  0.084241  0.889159  1
  O  O8  1  0.351016  0.819095  0.126180  1
  O  O9  1  0.366161  0.453000  0.767476  1
