# generated using pymatgen
data_Al2Mo2O7
_symmetry_space_group_name_H-M   'P 1'
_cell_length_a   7.37332699
_cell_length_b   6.75080061
_cell_length_c   7.25025303
_cell_angle_alpha   56.87352428
_cell_angle_beta   60.08620670
_cell_angle_gamma   57.05239965
_symmetry_Int_Tables_number   1
_chemical_formula_structural   Al2Mo2O7
_chemical_formula_sum   'Al4 Mo4 O14'
_cell_volume   242.97684030
_cell_formula_units_Z   2
loop_
 _symmetry_equiv_pos_site_id
 _symmetry_equiv_pos_as_xyz
  1  'x, y, z'
loop_
 _atom_site_type_symbol
 _atom_site_label
 _atom_site_symmetry_multiplicity
 _atom_site_fract_x
 _atom_site_fract_y
 _atom_site_fract_z
 _atom_site_occupancy
  Al  Al0  1  0.497180  0.000510  0.500909  1
  Al  Al1  1  -0.000101  0.500617  0.499711  1
  Al  Al2  1  0.499913  0.499555  0.001122  1
  Al  Al3  1  0.500148  0.500104  0.499923  1
  Mo  Mo4  1  0.000073  0.499770  0.000354  1
  Mo  Mo5  1  0.500139  -0.000058  0.000136  1
  Mo  Mo6  1  0.000294  -0.000325  0.499521  1
  Mo  Mo7  1  0.000972  0.999734  0.999625  1
  O  O8  1  0.606875  0.629301  0.610950  1
  O  O9  1  0.392829  0.371705  0.388470  1
  O  O10  1  0.405181  0.868501  0.882546  1
  O  O11  1  0.988074  0.647831  0.679844  1
  O  O12  1  0.821113  0.350980  0.991314  1
  O  O13  1  0.895750  0.875620  0.345926  1
  O  O14  1  0.317588  0.347795  0.828854  1
  O  O15  1  0.319599  0.846372  0.355883  1
  O  O16  1  0.010255  0.353205  0.321110  1
  O  O17  1  0.682248  0.652434  0.170135  1
  O  O18  1  0.107821  0.122811  0.652617  1
  O  O19  1  0.593936  0.131706  0.118109  1
  O  O20  1  0.680254  0.153983  0.644160  1
  O  O21  1  0.179862  0.647848  0.008782  1
