# generated using pymatgen
data_Zn(WO2)2
_symmetry_space_group_name_H-M   'P 1'
_cell_length_a   6.39755590
_cell_length_b   6.24280522
_cell_length_c   25.27973815
_cell_angle_alpha   60.40289286
_cell_angle_beta   60.26075547
_cell_angle_gamma   60.79699227
_symmetry_Int_Tables_number   1
_chemical_formula_structural   Zn(WO2)2
_chemical_formula_sum   'Zn8 W16 O32'
_cell_volume   721.74588400
_cell_formula_units_Z   8
loop_
 _symmetry_equiv_pos_site_id
 _symmetry_equiv_pos_as_xyz
  1  'x, y, z'
loop_
 _atom_site_type_symbol
 _atom_site_label
 _atom_site_symmetry_multiplicity
 _atom_site_fract_x
 _atom_site_fract_y
 _atom_site_fract_z
 _atom_site_occupancy
  Zn  Zn0  1  0.156901  0.113942  0.028804  1
  Zn  Zn1  1  0.009839  0.497218  0.123931  1
  Zn  Zn2  1  0.122264  0.130675  0.279096  1
  Zn  Zn3  1  0.962276  0.523538  0.372662  1
  Zn  Zn4  1  0.029253  0.474683  0.630345  1
  Zn  Zn5  1  0.469568  0.536114  0.489551  1
  Zn  Zn6  1  0.003612  0.488599  0.879797  1
  Zn  Zn7  1  0.511610  0.491956  0.751119  1
  W  W8  1  0.518413  0.490995  0.123916  1
  W  W9  1  0.485084  0.497724  0.254867  1
  W  W10  1  0.518413  0.994926  0.123916  1
  W  W11  1  0.155800  0.071556  0.550272  1
  W  W12  1  0.458494  0.511676  0.373255  1
  W  W13  1  0.893436  0.878501  0.212390  1
  W  W14  1  0.096520  0.060498  0.820621  1
  W  W15  1  0.458494  0.036811  0.373255  1
  W  W16  1  0.525881  0.532649  0.611933  1
  W  W17  1  0.772646  0.910015  0.476831  1
  W  W18  1  0.525881  0.993739  0.611933  1
  W  W19  1  0.488047  0.961306  0.876372  1
  W  W20  1  0.488047  0.545159  0.876372  1
  W  W21  1  0.923815  0.912266  0.687913  1
  W  W22  1  0.502449  0.470773  0.014002  1
  W  W23  1  0.904196  0.883796  0.957053  1
  O  O24  1  0.253964  0.234040  0.072166  1
  O  O25  1  0.265306  0.251721  0.182813  1
  O  O26  1  0.253964  0.723332  0.072166  1
  O  O27  1  0.769313  0.228966  0.068189  1
  O  O28  1  0.285349  0.737350  0.184987  1
  O  O29  1  0.214644  0.283568  0.314989  1
  O  O30  1  0.741090  0.271765  0.190845  1
  O  O31  1  0.220603  0.273955  0.432871  1
  O  O32  1  0.214644  0.741834  0.314989  1
  O  O33  1  0.759580  0.732115  0.069047  1
  O  O34  1  0.724635  0.256652  0.315516  1
  O  O35  1  0.741090  0.723765  0.190845  1
  O  O36  1  0.274023  0.289739  0.559720  1
  O  O37  1  0.248685  0.769751  0.427953  1
  O  O38  1  0.712798  0.294051  0.430845  1
  O  O39  1  0.332001  0.257714  0.663143  1
  O  O40  1  0.274023  0.697358  0.559720  1
  O  O41  1  0.673011  0.771788  0.320853  1
  O  O42  1  0.765910  0.252382  0.557332  1
  O  O43  1  0.712798  0.769772  0.430845  1
  O  O44  1  0.293097  0.733221  0.685115  1
  O  O45  1  0.278171  0.265052  0.814481  1
  O  O46  1  0.743725  0.291986  0.679177  1
  O  O47  1  0.264745  0.258672  0.929477  1
  O  O48  1  0.278171  0.698852  0.814481  1
  O  O49  1  0.821873  0.711001  0.564031  1
  O  O50  1  0.722153  0.250170  0.819377  1
  O  O51  1  0.743725  0.747584  0.679177  1
  O  O52  1  0.267008  0.703862  0.956317  1
  O  O53  1  0.696619  0.292802  0.940095  1
  O  O54  1  0.775729  0.725868  0.818134  1
  O  O55  1  0.696619  0.750197  0.940095  1
