# generated using pymatgen
data_MgTi2O4
_symmetry_space_group_name_H-M   'P 1'
_cell_length_a   6.05796901
_cell_length_b   6.05796814
_cell_length_c   5.89036813
_cell_angle_alpha   60.91103705
_cell_angle_beta   60.91104522
_cell_angle_gamma   60.59008893
_symmetry_Int_Tables_number   1
_chemical_formula_structural   MgTi2O4
_chemical_formula_sum   'Mg2 Ti4 O8'
_cell_volume   155.62453086
_cell_formula_units_Z   2
loop_
 _symmetry_equiv_pos_site_id
 _symmetry_equiv_pos_as_xyz
  1  'x, y, z'
loop_
 _atom_site_type_symbol
 _atom_site_label
 _atom_site_symmetry_multiplicity
 _atom_site_fract_x
 _atom_site_fract_y
 _atom_site_fract_z
 _atom_site_occupancy
  Mg  Mg0  1  0.125000  0.625000  0.625000  1
  Mg  Mg1  1  0.625000  0.125000  0.625000  1
  Ti  Ti2  1  0.995948  0.995948  0.004052  1
  Ti  Ti3  1  0.254052  0.254052  0.245948  1
  Ti  Ti4  1  0.625000  0.625000  0.125000  1
  Ti  Ti5  1  0.625000  0.625000  0.625000  1
  O  O6  1  0.385453  0.385453  0.373352  1
  O  O7  1  0.374852  0.869946  0.377602  1
  O  O8  1  0.385453  0.385453  0.855744  1
  O  O9  1  0.869946  0.374852  0.377602  1
  O  O10  1  0.380054  0.875148  0.872398  1
  O  O11  1  0.875148  0.380054  0.872398  1
  O  O12  1  0.864547  0.864547  0.394256  1
  O  O13  1  0.864547  0.864547  0.876648  1
