# generated using pymatgen
data_Ca(CuO2)2
_symmetry_space_group_name_H-M   'P 1'
_cell_length_a   3.38200251
_cell_length_b   5.45568475
_cell_length_c   10.34740694
_cell_angle_alpha   90.00000000
_cell_angle_beta   90.00000000
_cell_angle_gamma   89.89054169
_symmetry_Int_Tables_number   1
_chemical_formula_structural   Ca(CuO2)2
_chemical_formula_sum   'Ca2 Cu4 O8'
_cell_volume   190.92110086
_cell_formula_units_Z   2
loop_
 _symmetry_equiv_pos_site_id
 _symmetry_equiv_pos_as_xyz
  1  'x, y, z'
loop_
 _atom_site_type_symbol
 _atom_site_label
 _atom_site_symmetry_multiplicity
 _atom_site_fract_x
 _atom_site_fract_y
 _atom_site_fract_z
 _atom_site_occupancy
  Ca  Ca0  1  0.507458  0.240183  0.148973  1
  Ca  Ca1  1  0.492542  0.759817  0.648973  1
  Cu  Cu2  1  0.006561  0.739163  0.100557  1
  Cu  Cu3  1  0.993439  0.260837  0.600557  1
  Cu  Cu4  1  0.995540  0.245384  0.870336  1
  Cu  Cu5  1  0.004460  0.754616  0.370336  1
  O  O6  1  0.999961  0.979322  0.505774  1
  O  O7  1  0.009907  0.967790  0.234652  1
  O  O8  1  0.994022  0.550231  0.512996  1
  O  O9  1  0.005978  0.449769  0.012996  1
  O  O10  1  0.000039  0.020678  0.005774  1
  O  O11  1  0.990093  0.032210  0.734652  1
  O  O12  1  0.009784  0.522616  0.241144  1
  O  O13  1  0.990216  0.477384  0.741144  1
