# generated using pymatgen
data_Ca3Mn2O7
_symmetry_space_group_name_H-M   'P 1'
_cell_length_a   5.14527086
_cell_length_b   6.65560573
_cell_length_c   10.20098194
_cell_angle_alpha   89.99365270
_cell_angle_beta   90.01864977
_cell_angle_gamma   112.42665690
_symmetry_Int_Tables_number   1
_chemical_formula_structural   Ca3Mn2O7
_chemical_formula_sum   'Ca6 Mn4 O14'
_cell_volume   322.91111060
_cell_formula_units_Z   2
loop_
 _symmetry_equiv_pos_site_id
 _symmetry_equiv_pos_as_xyz
  1  'x, y, z'
loop_
 _atom_site_type_symbol
 _atom_site_label
 _atom_site_symmetry_multiplicity
 _atom_site_fract_x
 _atom_site_fract_y
 _atom_site_fract_z
 _atom_site_occupancy
  Ca  Ca0  1  0.398512  0.320726  0.129909  1
  Ca  Ca1  1  0.581262  0.679624  0.396026  1
  Ca  Ca2  1  0.101498  0.679718  0.630133  1
  Ca  Ca3  1  0.919778  0.321439  0.895937  1
  Ca  Ca4  1  0.888339  0.318653  0.373548  1
  Ca  Ca5  1  0.612570  0.682370  0.873929  1
  Mn  Mn6  1  0.748147  0.974597  0.136832  1
  Mn  Mn7  1  0.257736  0.996493  0.363162  1
  Mn  Mn8  1  0.752750  0.026173  0.636938  1
  Mn  Mn9  1  0.243690  0.004437  0.863240  1
  O  O10  1  0.546648  0.006365  0.479184  1
  O  O11  1  0.955398  0.994895  0.979444  1
  O  O12  1  0.097780  0.024814  0.701440  1
  O  O13  1  0.590935  0.011119  0.799224  1
  O  O14  1  0.403110  0.975429  0.201369  1
  O  O15  1  0.910505  0.989861  0.299012  1
  O  O16  1  0.583899  0.679234  0.117060  1
  O  O17  1  0.396861  0.310031  0.357595  1
  O  O18  1  0.916704  0.321544  0.617497  1
  O  O19  1  0.105093  0.691010  0.857941  1
  O  O20  1  0.428190  0.307073  0.905256  1
  O  O21  1  0.619061  0.717118  0.628232  1
  O  O22  1  0.881541  0.283652  0.128191  1
  O  O23  1  0.073119  0.693936  0.405391  1
