# generated using pymatgen
data_Nb2Zn2BiO8
_symmetry_space_group_name_H-M   'P 1'
_cell_length_a   5.45280330
_cell_length_b   5.99635948
_cell_length_c   10.82011911
_cell_angle_alpha   106.04039840
_cell_angle_beta   91.77648128
_cell_angle_gamma   90.00678275
_symmetry_Int_Tables_number   1
_chemical_formula_structural   Nb2Zn2BiO8
_chemical_formula_sum   'Nb4 Zn4 Bi2 O16'
_cell_volume   339.83391197
_cell_formula_units_Z   2
loop_
 _symmetry_equiv_pos_site_id
 _symmetry_equiv_pos_as_xyz
  1  'x, y, z'
loop_
 _atom_site_type_symbol
 _atom_site_label
 _atom_site_symmetry_multiplicity
 _atom_site_fract_x
 _atom_site_fract_y
 _atom_site_fract_z
 _atom_site_occupancy
  Nb  Nb0  1  0.724941  0.284191  0.248485  1
  Nb  Nb1  1  0.772436  0.036922  0.751935  1
  Nb  Nb2  1  0.271835  0.715838  0.751215  1
  Nb  Nb3  1  0.225043  0.963796  0.249039  1
  Zn  Zn4  1  0.771417  0.437745  0.560182  1
  Zn  Zn5  1  0.727870  0.876876  0.441068  1
  Zn  Zn6  1  0.226783  0.562964  0.439203  1
  Zn  Zn7  1  0.272231  0.123725  0.561269  1
  Bi  Bi8  1  0.748309  0.691946  0.000613  1
  Bi  Bi9  1  0.248702  0.308351  0.000406  1
  O  O10  1  0.035563  0.165524  0.151660  1
  O  O11  1  0.460382  0.016060  0.847387  1
  O  O12  1  0.962353  0.834634  0.848392  1
  O  O13  1  0.534220  0.986076  0.151291  1
  O  O14  1  0.614075  0.446418  0.125447  1
  O  O15  1  0.883639  0.320856  0.875083  1
  O  O16  1  0.383979  0.556078  0.875122  1
  O  O17  1  0.113758  0.678908  0.126890  1
  O  O18  1  0.421865  0.288838  0.357447  1
  O  O19  1  0.074664  0.931092  0.642063  1
  O  O20  1  0.359030  0.844732  0.398719  1
  O  O21  1  0.140096  0.446014  0.602171  1
  O  O22  1  0.639995  0.157521  0.602525  1
  O  O23  1  0.858590  0.553869  0.397953  1
  O  O24  1  0.920911  0.067868  0.357055  1
  O  O25  1  0.576414  0.711903  0.643084  1
