# generated using pymatgen
data_BaTi4ZnO8
_symmetry_space_group_name_H-M   'P 1'
_cell_length_a   5.87482400
_cell_length_b   5.87482355
_cell_length_c   8.65760157
_cell_angle_alpha   90.00000000
_cell_angle_beta   90.00000000
_cell_angle_gamma   119.99999734
_symmetry_Int_Tables_number   1
_chemical_formula_structural   BaTi4ZnO8
_chemical_formula_sum   'Ba1 Ti4 Zn1 O8'
_cell_volume   258.77238342
_cell_formula_units_Z   1
loop_
 _symmetry_equiv_pos_site_id
 _symmetry_equiv_pos_as_xyz
  1  'x, y, z'
loop_
 _atom_site_type_symbol
 _atom_site_label
 _atom_site_symmetry_multiplicity
 _atom_site_fract_x
 _atom_site_fract_y
 _atom_site_fract_z
 _atom_site_occupancy
  Ba  Ba0  1  -0.000000  -0.000000  -0.000000  1
  Ti  Ti1  1  0.333333  0.666667  0.785649  1
  Ti  Ti2  1  0.666667  0.333333  0.785649  1
  Ti  Ti3  1  0.333333  0.666667  0.214351  1
  Ti  Ti4  1  0.666667  0.333333  0.214351  1
  Zn  Zn5  1  -0.000000  -0.000000  0.500000  1
  O  O6  1  0.377804  0.377804  0.749883  1
  O  O7  1  0.622196  0.000000  0.749883  1
  O  O8  1  0.000000  0.622196  0.749883  1
  O  O9  1  0.622196  0.622196  0.250117  1
  O  O10  1  1.000000  0.377804  0.250117  1
  O  O11  1  0.377804  1.000000  0.250117  1
  O  O12  1  0.333333  0.666667  -0.000000  1
  O  O13  1  0.666667  0.333333  -0.000000  1
