# generated using pymatgen
data_Ba4CaV4Cu2F28
_symmetry_space_group_name_H-M   'P 1'
_cell_length_a   5.44258533
_cell_length_b   7.62143409
_cell_length_c   15.18423680
_cell_angle_alpha   91.29820691
_cell_angle_beta   90.00954987
_cell_angle_gamma   110.93520863
_symmetry_Int_Tables_number   1
_chemical_formula_structural   Ba4CaV4Cu2F28
_chemical_formula_sum   'Ba4 Ca1 V4 Cu2 F28'
_cell_volume   588.09347446
_cell_formula_units_Z   1
loop_
 _symmetry_equiv_pos_site_id
 _symmetry_equiv_pos_as_xyz
  1  'x, y, z'
loop_
 _atom_site_type_symbol
 _atom_site_label
 _atom_site_symmetry_multiplicity
 _atom_site_fract_x
 _atom_site_fract_y
 _atom_site_fract_z
 _atom_site_occupancy
  Ba  Ba0  1  0.737774  0.641468  0.873258  1
  Ba  Ba1  1  0.894733  0.629456  0.375155  1
  Ba  Ba2  1  0.094784  0.356835  0.626545  1
  Ba  Ba3  1  0.264136  0.371554  0.124193  1
  Ca  Ca4  1  0.581279  0.002198  0.249981  1
  V  V5  1  0.901940  0.754581  0.125382  1
  V  V6  1  0.145818  0.246403  0.374296  1
  V  V7  1  0.857785  0.755239  0.627922  1
  V  V8  1  0.099547  0.245294  0.872552  1
  Cu  Cu9  1  0.500369  0.997732  -0.000264  1
  Cu  Cu10  1  0.502670  0.003104  0.500908  1
  F  F11  1  0.104201  0.706259  0.546753  1
  F  F12  1  0.411909  0.233043  0.287482  1
  F  F13  1  0.841238  0.251961  0.793923  1
  F  F14  1  0.292656  0.166266  0.483908  1
  F  F15  1  0.962288  0.320872  0.275622  1
  F  F16  1  0.915380  0.988505  0.346331  1
  F  F17  1  0.386704  0.895234  0.386831  1
  F  F18  1  0.624870  0.115448  0.608445  1
  F  F19  1  0.069768  0.005704  0.851981  1
  F  F20  1  0.125752  0.831085  0.017384  1
  F  F21  1  0.510912  0.885035  0.892276  1
  F  F22  1  0.072082  0.994014  0.647261  1
  F  F23  1  0.011061  0.659157  0.719087  1
  F  F24  1  0.364643  0.505245  0.397961  1
  F  F25  1  0.926276  0.014659  0.153515  1
  F  F26  1  0.858797  0.492669  0.103594  1
  F  F27  1  0.644547  0.507787  0.599095  1
  F  F28  1  0.179976  0.769290  0.213254  1
  F  F29  1  0.888693  0.294221  0.453787  1
  F  F30  1  0.598989  0.755788  0.707513  1
  F  F31  1  0.394721  0.288325  0.953079  1
  F  F32  1  0.490036  0.105674  0.113331  1
  F  F33  1  0.875777  0.173875  0.977611  1
  F  F34  1  0.141953  0.493768  0.902925  1
  F  F35  1  0.347721  0.340165  0.781088  1
  F  F36  1  0.643311  0.680440  0.223582  1
  F  F37  1  0.595671  0.705441  0.045850  1
  F  F38  1  0.705824  0.828483  0.522773  1
