# generated using pymatgen
data_NiO2
_symmetry_space_group_name_H-M   'P 1'
_cell_length_a   5.54665706
_cell_length_b   5.54665740
_cell_length_c   5.89450214
_cell_angle_alpha   57.90285850
_cell_angle_beta   57.90286236
_cell_angle_gamma   60.18201833
_symmetry_Int_Tables_number   1
_chemical_formula_structural   NiO2
_chemical_formula_sum   'Ni4 O8'
_cell_volume   124.17309859
_cell_formula_units_Z   4
loop_
 _symmetry_equiv_pos_site_id
 _symmetry_equiv_pos_as_xyz
  1  'x, y, z'
loop_
 _atom_site_type_symbol
 _atom_site_label
 _atom_site_symmetry_multiplicity
 _atom_site_fract_x
 _atom_site_fract_y
 _atom_site_fract_z
 _atom_site_occupancy
  Ni  Ni0  1  0.002165  0.002165  0.997835  1
  Ni  Ni1  1  0.247835  0.247835  0.252165  1
  Ni  Ni2  1  0.625000  0.625000  0.125000  1
  Ni  Ni3  1  0.625000  0.625000  0.625000  1
  O  O4  1  0.380909  0.380909  0.373412  1
  O  O5  1  0.405761  0.838120  0.378060  1
  O  O6  1  0.380909  0.380909  0.864772  1
  O  O7  1  0.838120  0.405761  0.378060  1
  O  O8  1  0.411880  0.844239  0.871940  1
  O  O9  1  0.844239  0.411880  0.871940  1
  O  O10  1  0.869091  0.869091  0.385228  1
  O  O11  1  0.869091  0.869091  0.876588  1
