# generated using pymatgen
data_MgFeO3
_symmetry_space_group_name_H-M   'P 1'
_cell_length_a   5.06412050
_cell_length_b   5.27674876
_cell_length_c   7.45073286
_cell_angle_alpha   89.99976007
_cell_angle_beta   89.99873631
_cell_angle_gamma   90.00070712
_symmetry_Int_Tables_number   1
_chemical_formula_structural   MgFeO3
_chemical_formula_sum   'Mg4 Fe4 O12'
_cell_volume   199.09916571
_cell_formula_units_Z   4
loop_
 _symmetry_equiv_pos_site_id
 _symmetry_equiv_pos_as_xyz
  1  'x, y, z'
loop_
 _atom_site_type_symbol
 _atom_site_label
 _atom_site_symmetry_multiplicity
 _atom_site_fract_x
 _atom_site_fract_y
 _atom_site_fract_z
 _atom_site_occupancy
  Mg  Mg0  1  0.985165  0.063833  0.250032  1
  Mg  Mg1  1  0.485154  0.436170  0.749984  1
  Mg  Mg2  1  0.514848  0.563831  0.250016  1
  Mg  Mg3  1  0.014833  0.936161  0.749967  1
  Fe  Fe4  1  0.500004  0.999996  0.999997  1
  Fe  Fe5  1  -0.000000  0.500000  0.000001  1
  Fe  Fe6  1  -0.000001  0.500000  0.500001  1
  Fe  Fe7  1  0.500001  0.000003  0.500000  1
  O  O8  1  0.873331  0.557874  0.750060  1
  O  O9  1  0.373325  0.942123  0.250090  1
  O  O10  1  0.626675  0.057879  0.749910  1
  O  O11  1  0.126669  0.442126  0.249941  1
  O  O12  1  0.688386  0.310051  0.433106  1
  O  O13  1  0.188534  0.189813  0.566863  1
  O  O14  1  0.811635  0.810028  0.067013  1
  O  O15  1  0.311501  0.689847  0.933022  1
  O  O16  1  0.688498  0.310152  0.066977  1
  O  O17  1  0.188365  0.189972  0.932985  1
  O  O18  1  0.311614  0.689954  0.566894  1
  O  O19  1  0.811465  0.810188  0.433139  1
