# generated using pymatgen
data_Ba2YSn3O7
_symmetry_space_group_name_H-M   'P 1'
_cell_length_a   4.19073596
_cell_length_b   4.38340895
_cell_length_c   11.99730214
_cell_angle_alpha   89.99999031
_cell_angle_beta   89.99991442
_cell_angle_gamma   90.00004062
_symmetry_Int_Tables_number   1
_chemical_formula_structural   Ba2YSn3O7
_chemical_formula_sum   'Ba2 Y1 Sn3 O7'
_cell_volume   220.38695527
_cell_formula_units_Z   1
loop_
 _symmetry_equiv_pos_site_id
 _symmetry_equiv_pos_as_xyz
  1  'x, y, z'
loop_
 _atom_site_type_symbol
 _atom_site_label
 _atom_site_symmetry_multiplicity
 _atom_site_fract_x
 _atom_site_fract_y
 _atom_site_fract_z
 _atom_site_occupancy
  Ba  Ba0  1  0.500000  0.500000  0.827222  1
  Ba  Ba1  1  0.499997  0.499998  0.172777  1
  Y  Y2  1  0.500003  0.500001  0.499999  1
  Sn  Sn3  1  0.000002  1.000000  0.632355  1
  Sn  Sn4  1  0.000000  0.999999  0.367645  1
  Sn  Sn5  1  0.000000  0.999999  -0.000000  1
  O  O6  1  0.999998  0.499999  -0.000000  1
  O  O7  1  0.500001  0.000002  0.621615  1
  O  O8  1  0.500000  0.000001  0.378385  1
  O  O9  1  0.000003  0.500000  0.623255  1
  O  O10  1  0.999999  0.500000  0.376747  1
  O  O11  1  0.000001  0.000001  0.805426  1
  O  O12  1  0.999998  0.999998  0.194574  1
