# generated using pymatgen
data_BaYMnCuO5
_symmetry_space_group_name_H-M   'P 1'
_cell_length_a   3.90156595
_cell_length_b   3.90159814
_cell_length_c   7.85550630
_cell_angle_alpha   89.99883723
_cell_angle_beta   89.99765790
_cell_angle_gamma   89.98651289
_symmetry_Int_Tables_number   1
_chemical_formula_structural   BaYMnCuO5
_chemical_formula_sum   'Ba1 Y1 Mn1 Cu1 O5'
_cell_volume   119.57920349
_cell_formula_units_Z   1
loop_
 _symmetry_equiv_pos_site_id
 _symmetry_equiv_pos_as_xyz
  1  'x, y, z'
loop_
 _atom_site_type_symbol
 _atom_site_label
 _atom_site_symmetry_multiplicity
 _atom_site_fract_x
 _atom_site_fract_y
 _atom_site_fract_z
 _atom_site_occupancy
  Ba  Ba0  1  0.999996  0.999988  0.990510  1
  Y  Y1  1  0.000010  0.000004  0.460096  1
  Mn  Mn2  1  0.499976  0.499981  0.698665  1
  Cu  Cu3  1  0.499999  0.500003  0.244326  1
  O  O4  1  0.000017  0.500005  0.642059  1
  O  O5  1  0.500000  0.000009  0.642063  1
  O  O6  1  0.999995  0.500005  0.279269  1
  O  O7  1  0.499997  -0.000003  0.279265  1
  O  O8  1  0.500005  0.500003  0.951665  1
