# generated using pymatgen
data_Sr6YGa3(Cu2O7)3
_symmetry_space_group_name_H-M   'P 1'
_cell_length_a   15.69706023
_cell_length_b   5.37230601
_cell_length_c   12.60544896
_cell_angle_alpha   102.31313833
_cell_angle_beta   101.96845804
_cell_angle_gamma   90.00038350
_symmetry_Int_Tables_number   1
_chemical_formula_structural   Sr6YGa3(Cu2O7)3
_chemical_formula_sum   'Sr12 Y2 Ga6 Cu12 O42'
_cell_volume   1014.89260232
_cell_formula_units_Z   2
loop_
 _symmetry_equiv_pos_site_id
 _symmetry_equiv_pos_as_xyz
  1  'x, y, z'
loop_
 _atom_site_type_symbol
 _atom_site_label
 _atom_site_symmetry_multiplicity
 _atom_site_fract_x
 _atom_site_fract_y
 _atom_site_fract_z
 _atom_site_occupancy
  Sr  Sr0  1  0.052952  0.160746  0.298731  1
  Sr  Sr1  1  0.382798  0.162478  0.300868  1
  Sr  Sr2  1  0.718961  0.164856  0.305708  1
  Sr  Sr3  1  0.282022  0.839077  0.700245  1
  Sr  Sr4  1  0.617384  0.835303  0.694491  1
  Sr  Sr5  1  0.953231  0.837942  0.700230  1
  Sr  Sr6  1  0.218879  0.640861  0.305543  1
  Sr  Sr7  1  0.552953  0.638078  0.298783  1
  Sr  Sr8  1  0.882792  0.638511  0.300928  1
  Sr  Sr9  1  0.117380  0.358981  0.694269  1
  Sr  Sr10  1  0.453199  0.362290  0.700269  1
  Sr  Sr11  1  0.781965  0.361210  0.700427  1
  Y  Y12  1  0.166915  0.499991  0.000176  1
  Y  Y13  1  0.666838  0.999859  0.999616  1
  Ga  Ga14  1  0.068755  0.817132  0.499550  1
  Ga  Ga15  1  0.403326  0.819251  0.500903  1
  Ga  Ga16  1  0.736622  0.818243  0.499301  1
  Ga  Ga17  1  0.236673  0.181089  0.499566  1
  Ga  Ga18  1  0.568771  0.182425  0.499732  1
  Ga  Ga19  1  0.903337  0.181729  0.500942  1
  Cu  Cu20  1  0.146309  0.939269  0.873629  1
  Cu  Cu21  1  0.473426  0.941062  0.876397  1
  Cu  Cu22  1  0.819838  0.940654  0.876480  1
  Cu  Cu23  1  0.014374  0.564434  0.123417  1
  Cu  Cu24  1  0.361175  0.564494  0.123781  1
  Cu  Cu25  1  0.688670  0.565704  0.126608  1
  Cu  Cu26  1  0.320053  0.435824  0.876376  1
  Cu  Cu27  1  0.646163  0.433932  0.873522  1
  Cu  Cu28  1  0.973264  0.435226  0.876328  1
  Cu  Cu29  1  0.188648  0.061112  0.126601  1
  Cu  Cu30  1  0.514366  0.058844  0.123320  1
  Cu  Cu31  1  0.861175  0.059426  0.123571  1
  O  O32  1  0.267956  0.333989  0.129739  1
  O  O33  1  0.609211  0.298167  0.129173  1
  O  O34  1  0.941986  0.327090  0.151610  1
  O  O35  1  0.281540  0.854069  0.502925  1
  O  O36  1  0.613996  0.852946  0.497263  1
  O  O37  1  0.946756  0.850619  0.499794  1
  O  O38  1  0.109169  0.331190  0.129190  1
  O  O39  1  0.441992  0.324533  0.151562  1
  O  O40  1  0.767858  0.295469  0.129784  1
  O  O41  1  0.279511  0.360141  0.642173  1
  O  O42  1  0.613943  0.352613  0.645511  1
  O  O43  1  0.950764  0.358702  0.643685  1
  O  O44  1  0.223097  0.203665  0.864170  1
  O  O45  1  0.566086  0.160674  0.863943  1
  O  O46  1  0.890575  0.169087  0.838291  1
  O  O47  1  0.066238  0.203290  0.863924  1
  O  O48  1  0.390365  0.169778  0.838187  1
  O  O49  1  0.723200  0.160647  0.864240  1
  O  O50  1  0.113946  0.144306  0.497237  1
  O  O51  1  0.446808  0.149241  0.499739  1
  O  O52  1  0.781567  0.149176  0.503034  1
  O  O53  1  0.066113  0.668553  0.870679  1
  O  O54  1  0.391534  0.675030  0.848367  1
  O  O55  1  0.724698  0.703728  0.870314  1
  O  O56  1  0.224651  0.666219  0.870224  1
  O  O57  1  0.565947  0.701889  0.870745  1
  O  O58  1  0.891759  0.672531  0.848282  1
  O  O59  1  0.113978  0.792684  0.645530  1
  O  O60  1  0.450775  0.784892  0.643614  1
  O  O61  1  0.779525  0.781911  0.642330  1
  O  O62  1  0.068252  0.639430  0.357586  1
  O  O63  1  0.398991  0.642339  0.357311  1
  O  O64  1  0.733123  0.646802  0.353859  1
  O  O65  1  0.233103  0.207295  0.353694  1
  O  O66  1  0.568335  0.218251  0.357537  1
  O  O67  1  0.898903  0.214927  0.357409  1
  O  O68  1  0.268387  0.796186  0.135873  1
  O  O69  1  0.611482  0.839277  0.136038  1
  O  O70  1  0.944085  0.830834  0.161640  1
  O  O71  1  0.111470  0.796883  0.136052  1
  O  O72  1  0.444035  0.830883  0.161571  1
  O  O73  1  0.768303  0.840020  0.135879  1
