# generated using pymatgen
data_SbP2O7
_symmetry_space_group_name_H-M   'P 1'
_cell_length_a   7.20029521
_cell_length_b   8.99775883
_cell_length_c   9.55873615
_cell_angle_alpha   90.00000000
_cell_angle_beta   69.56452769
_cell_angle_gamma   90.00000000
_symmetry_Int_Tables_number   1
_chemical_formula_structural   SbP2O7
_chemical_formula_sum   'Sb4 P8 O28'
_cell_volume   580.30365837
_cell_formula_units_Z   4
loop_
 _symmetry_equiv_pos_site_id
 _symmetry_equiv_pos_as_xyz
  1  'x, y, z'
loop_
 _atom_site_type_symbol
 _atom_site_label
 _atom_site_symmetry_multiplicity
 _atom_site_fract_x
 _atom_site_fract_y
 _atom_site_fract_z
 _atom_site_occupancy
  Sb  Sb0  1  0.710629  0.068305  0.181492  1
  Sb  Sb1  1  0.710629  0.431695  0.681492  1
  Sb  Sb2  1  0.289371  0.568305  0.318508  1
  Sb  Sb3  1  0.289371  0.931695  0.818508  1
  P  P4  1  0.526574  0.719914  0.540168  1
  P  P5  1  0.091804  0.244631  0.235292  1
  P  P6  1  0.908196  0.744631  0.264708  1
  P  P7  1  0.091804  0.255369  0.735292  1
  P  P8  1  0.526574  0.780086  0.040168  1
  P  P9  1  0.908196  0.755369  0.764708  1
  P  P10  1  0.473426  0.219914  0.959832  1
  P  P11  1  0.473426  0.280086  0.459832  1
  O  O12  1  0.508620  0.125003  0.380426  1
  O  O13  1  0.251510  0.211465  0.066149  1
  O  O14  1  0.892248  0.262756  0.703888  1
  O  O15  1  0.108378  0.083658  0.759983  1
  O  O16  1  0.491380  0.874997  0.619574  1
  O  O17  1  0.748490  0.788535  0.933851  1
  O  O18  1  0.613742  0.215489  0.050438  1
  O  O19  1  0.498721  0.908778  0.151531  1
  O  O20  1  0.891622  0.583658  0.740017  1
  O  O21  1  0.386258  0.715489  0.449562  1
  O  O22  1  0.508620  0.374997  0.880426  1
  O  O23  1  0.875222  0.857081  0.655456  1
  O  O24  1  0.491380  0.625003  0.119574  1
  O  O25  1  0.107752  0.737244  0.296112  1
  O  O26  1  0.501279  0.408778  0.348469  1
  O  O27  1  0.386258  0.784511  0.949562  1
  O  O28  1  0.891622  0.916342  0.240017  1
  O  O29  1  0.892248  0.237244  0.203888  1
  O  O30  1  0.124778  0.142919  0.344544  1
  O  O31  1  0.498721  0.591222  0.651531  1
  O  O32  1  0.251510  0.288535  0.566149  1
  O  O33  1  0.613742  0.284511  0.550438  1
  O  O34  1  0.501279  0.091222  0.848469  1
  O  O35  1  0.108378  0.416342  0.259983  1
  O  O36  1  0.748490  0.711465  0.433851  1
  O  O37  1  0.875222  0.642919  0.155456  1
  O  O38  1  0.107752  0.762756  0.796112  1
  O  O39  1  0.124778  0.357081  0.844544  1
