# generated using pymatgen
data_Mg2Ag2O5
_symmetry_space_group_name_H-M   'P 1'
_cell_length_a   3.99941411
_cell_length_b   5.18964120
_cell_length_c   10.90236819
_cell_angle_alpha   90.12004439
_cell_angle_beta   90.00185461
_cell_angle_gamma   89.99765010
_symmetry_Int_Tables_number   1
_chemical_formula_structural   Mg2Ag2O5
_chemical_formula_sum   'Mg4 Ag4 O10'
_cell_volume   226.28387009
_cell_formula_units_Z   2
loop_
 _symmetry_equiv_pos_site_id
 _symmetry_equiv_pos_as_xyz
  1  'x, y, z'
loop_
 _atom_site_type_symbol
 _atom_site_label
 _atom_site_symmetry_multiplicity
 _atom_site_fract_x
 _atom_site_fract_y
 _atom_site_fract_z
 _atom_site_occupancy
  Mg  Mg0  1  0.500028  0.178098  0.905559  1
  Mg  Mg1  1  0.500021  0.821815  0.094358  1
  Mg  Mg2  1  0.500021  0.678356  0.594636  1
  Mg  Mg3  1  0.500012  0.321569  0.405420  1
  Ag  Ag4  1  -0.000786  0.191669  0.633132  1
  Ag  Ag5  1  -0.000556  0.808426  0.366922  1
  Ag  Ag6  1  -0.000547  0.309034  0.133291  1
  Ag  Ag7  1  -0.000601  0.691120  0.866650  1
  O  O8  1  -0.000122  0.499922  0.499942  1
  O  O9  1  0.000027  0.234670  0.348187  1
  O  O10  1  0.000036  0.735159  0.151773  1
  O  O11  1  0.000050  0.264808  0.848231  1
  O  O12  1  0.500526  0.243321  0.099891  1
  O  O13  1  0.500594  0.756825  0.900054  1
  O  O14  1  0.000046  0.765276  0.651809  1
  O  O15  1  0.500800  0.257451  0.599814  1
  O  O16  1  -0.000083  0.999852  0.000108  1
  O  O17  1  0.500542  0.742629  0.400223  1
