# generated using pymatgen
data_Sb3Se2ClO8
_symmetry_space_group_name_H-M   'P 1'
_cell_length_a   7.25222796
_cell_length_b   7.94417422
_cell_length_c   10.64922590
_cell_angle_alpha   90.00000000
_cell_angle_beta   90.00000000
_cell_angle_gamma   90.00000000
_symmetry_Int_Tables_number   1
_chemical_formula_structural   Sb3Se2ClO8
_chemical_formula_sum   'Sb6 Se4 Cl2 O16'
_cell_volume   613.53345134
_cell_formula_units_Z   2
loop_
 _symmetry_equiv_pos_site_id
 _symmetry_equiv_pos_as_xyz
  1  'x, y, z'
loop_
 _atom_site_type_symbol
 _atom_site_label
 _atom_site_symmetry_multiplicity
 _atom_site_fract_x
 _atom_site_fract_y
 _atom_site_fract_z
 _atom_site_occupancy
  Sb  Sb0  1  0.500000  0.000000  -0.000000  1
  Sb  Sb1  1  0.500000  0.000000  0.500000  1
  Sb  Sb2  1  -0.000000  0.000000  -0.000000  1
  Sb  Sb3  1  0.750000  0.233416  0.750000  1
  Sb  Sb4  1  0.250000  0.766584  0.250000  1
  Sb  Sb5  1  -0.000000  0.000000  0.500000  1
  Se  Se6  1  0.750000  0.381940  0.058334  1
  Se  Se7  1  0.250000  0.618060  0.941666  1
  Se  Se8  1  0.750000  0.381940  0.441666  1
  Se  Se9  1  0.250000  0.618060  0.558334  1
  Cl  Cl10  1  0.250000  0.125306  0.750000  1
  Cl  Cl11  1  0.750000  0.874694  0.250000  1
  O  O12  1  0.250000  0.966479  0.108981  1
  O  O13  1  0.250000  0.577768  0.103393  1
  O  O14  1  0.750000  0.422232  0.603393  1
  O  O15  1  0.559384  0.250630  0.076927  1
  O  O16  1  0.440616  0.749370  0.576927  1
  O  O17  1  0.059384  0.749370  0.576927  1
  O  O18  1  0.750000  0.033521  0.891019  1
  O  O19  1  0.940616  0.250630  0.076927  1
  O  O20  1  0.940616  0.250630  0.423073  1
  O  O21  1  0.059384  0.749370  0.923073  1
  O  O22  1  0.250000  0.966479  0.391019  1
  O  O23  1  0.750000  0.033521  0.608981  1
  O  O24  1  0.440616  0.749370  0.923073  1
  O  O25  1  0.559384  0.250630  0.423073  1
  O  O26  1  0.750000  0.422232  0.896607  1
  O  O27  1  0.250000  0.577768  0.396607  1
