# generated using pymatgen
data_CoO2
_symmetry_space_group_name_H-M   'P 1'
_cell_length_a   2.82734939
_cell_length_b   2.82689000
_cell_length_c   10.25925718
_cell_angle_alpha   89.79468584
_cell_angle_beta   90.10240982
_cell_angle_gamma   119.96441385
_symmetry_Int_Tables_number   1
_chemical_formula_structural   CoO2
_chemical_formula_sum   'Co2 O4'
_cell_volume   71.03751670
_cell_formula_units_Z   2
loop_
 _symmetry_equiv_pos_site_id
 _symmetry_equiv_pos_as_xyz
  1  'x, y, z'
loop_
 _atom_site_type_symbol
 _atom_site_label
 _atom_site_symmetry_multiplicity
 _atom_site_fract_x
 _atom_site_fract_y
 _atom_site_fract_z
 _atom_site_occupancy
  Co  Co0  1  0.997799  0.999726  0.501753  1
  Co  Co1  1  0.997749  0.999687  0.002441  1
  O  O2  1  0.664728  0.334162  0.409901  1
  O  O3  1  0.664703  0.332225  0.094454  1
  O  O4  1  0.330888  0.665316  0.593749  1
  O  O5  1  0.330808  0.667323  0.910159  1
