# generated using pymatgen
data_MnZnO2
_symmetry_space_group_name_H-M   'P 1'
_cell_length_a   3.05016618
_cell_length_b   8.36202934
_cell_length_c   8.47384453
_cell_angle_alpha   89.80058414
_cell_angle_beta   79.99276939
_cell_angle_gamma   78.67837197
_symmetry_Int_Tables_number   1
_chemical_formula_structural   MnZnO2
_chemical_formula_sum   'Mn4 Zn4 O8'
_cell_volume   208.59524581
_cell_formula_units_Z   4
loop_
 _symmetry_equiv_pos_site_id
 _symmetry_equiv_pos_as_xyz
  1  'x, y, z'
loop_
 _atom_site_type_symbol
 _atom_site_label
 _atom_site_symmetry_multiplicity
 _atom_site_fract_x
 _atom_site_fract_y
 _atom_site_fract_z
 _atom_site_occupancy
  Mn  Mn0  1  0.591751  0.213195  0.597458  1
  Mn  Mn1  1  0.180822  0.401680  0.244675  1
  Mn  Mn2  1  0.813745  0.578309  0.783588  1
  Mn  Mn3  1  0.403553  0.766930  0.430755  1
  Zn  Zn4  1  0.317760  0.076181  0.253482  1
  Zn  Zn5  1  0.681012  0.903829  0.774567  1
  Zn  Zn6  1  0.075971  0.727364  0.116627  1
  Zn  Zn7  1  0.920671  0.252520  0.911591  1
  O  O8  1  0.845571  0.731618  0.591214  1
  O  O9  1  0.401603  0.388068  0.805299  1
  O  O10  1  0.594627  0.591767  0.222955  1
  O  O11  1  0.149368  0.248366  0.436957  1
  O  O12  1  0.108033  0.071605  0.744959  1
  O  O13  1  0.813730  0.228281  0.136881  1
  O  O14  1  0.891858  0.908287  0.283263  1
  O  O15  1  0.178201  0.751334  0.891346  1
