# generated using pymatgen
data_Si2BiO6
_symmetry_space_group_name_H-M   'P 1'
_cell_length_a   5.24026607
_cell_length_b   10.77169248
_cell_length_c   19.79802042
_cell_angle_alpha   90.00240024
_cell_angle_beta   90.01284583
_cell_angle_gamma   90.00710135
_symmetry_Int_Tables_number   1
_chemical_formula_structural   Si2BiO6
_chemical_formula_sum   'Si16 Bi8 O48'
_cell_volume   1117.52960762
_cell_formula_units_Z   8
loop_
 _symmetry_equiv_pos_site_id
 _symmetry_equiv_pos_as_xyz
  1  'x, y, z'
loop_
 _atom_site_type_symbol
 _atom_site_label
 _atom_site_symmetry_multiplicity
 _atom_site_fract_x
 _atom_site_fract_y
 _atom_site_fract_z
 _atom_site_occupancy
  Si  Si0  1  0.616321  0.672774  0.228200  1
  Si  Si1  1  0.742176  0.827002  0.521009  1
  Si  Si2  1  0.758151  0.827018  0.020978  1
  Si  Si3  1  0.883499  0.172743  0.771765  1
  Si  Si4  1  0.116248  0.327262  0.271794  1
  Si  Si5  1  0.383599  0.827282  0.728240  1
  Si  Si6  1  0.242151  0.672981  0.521006  1
  Si  Si7  1  0.742097  0.326993  0.978986  1
  Si  Si8  1  0.757894  0.327011  0.479022  1
  Si  Si9  1  0.883572  0.672720  0.728235  1
  Si  Si10  1  0.383513  0.327252  0.771774  1
  Si  Si11  1  0.616233  0.172737  0.271798  1
  Si  Si12  1  0.257871  0.172973  0.479024  1
  Si  Si13  1  0.116337  0.827230  0.228209  1
  Si  Si14  1  0.258122  0.673007  0.020971  1
  Si  Si15  1  0.242071  0.173012  0.978983  1
  Bi  Bi16  1  0.437962  0.037958  0.123184  1
  Bi  Bi17  1  0.562119  0.962054  0.876806  1
  Bi  Bi18  1  0.937919  0.961978  0.376778  1
  Bi  Bi19  1  0.062085  0.037984  0.623236  1
  Bi  Bi20  1  0.438031  0.538039  0.376784  1
  Bi  Bi21  1  0.561978  0.461984  0.623220  1
  Bi  Bi22  1  0.937943  0.462075  0.123201  1
  Bi  Bi23  1  0.062138  0.537934  0.876790  1
  O  O24  1  0.848274  0.537301  0.691686  1
  O  O25  1  0.269487  0.033059  0.947102  1
  O  O26  1  0.151847  0.462725  0.308279  1
  O  O27  1  0.733809  0.334472  0.061755  1
  O  O28  1  0.233794  0.165547  0.061750  1
  O  O29  1  0.975731  0.237785  0.952725  1
  O  O30  1  0.872032  0.660917  0.810723  1
  O  O31  1  0.127767  0.838899  0.310708  1
  O  O32  1  0.733621  0.834510  0.438236  1
  O  O33  1  0.871940  0.161000  0.689273  1
  O  O34  1  0.348292  0.462703  0.808295  1
  O  O35  1  0.766512  0.334563  0.561795  1
  O  O36  1  0.730610  0.966949  0.052871  1
  O  O37  1  0.371971  0.839079  0.810727  1
  O  O38  1  0.651669  0.037285  0.308300  1
  O  O39  1  0.269442  0.533034  0.552893  1
  O  O40  1  0.348423  0.962712  0.691693  1
  O  O41  1  0.160724  0.729836  0.704296  1
  O  O42  1  0.338957  0.729701  0.204247  1
  O  O43  1  0.524512  0.737754  0.047227  1
  O  O44  1  0.766515  0.834511  0.938213  1
  O  O45  1  0.627886  0.661103  0.310695  1
  O  O46  1  0.769552  0.466942  0.947105  1
  O  O47  1  0.160755  0.229795  0.795731  1
  O  O48  1  0.266492  0.165440  0.561799  1
  O  O49  1  0.627739  0.160995  0.189308  1
  O  O50  1  0.730552  0.466951  0.447123  1
  O  O51  1  0.233608  0.665469  0.438234  1
  O  O52  1  0.230494  0.533068  0.052850  1
  O  O53  1  0.660739  0.770175  0.704314  1
  O  O54  1  0.152082  0.962717  0.191777  1
  O  O55  1  0.838979  0.770289  0.204224  1
  O  O56  1  0.839046  0.270223  0.295765  1
  O  O57  1  0.769514  0.966951  0.552904  1
  O  O58  1  0.266495  0.665506  0.938205  1
  O  O59  1  0.230468  0.033031  0.447127  1
  O  O60  1  0.339026  0.229778  0.295739  1
  O  O61  1  0.024538  0.762268  0.047222  1
  O  O62  1  0.476025  0.762097  0.547260  1
  O  O63  1  0.660781  0.270208  0.795706  1
  O  O64  1  0.475750  0.262222  0.952718  1
  O  O65  1  0.524046  0.237873  0.452785  1
  O  O66  1  0.024061  0.262101  0.452789  1
  O  O67  1  0.371819  0.338998  0.689286  1
  O  O68  1  0.651865  0.537291  0.191738  1
  O  O69  1  0.976011  0.737894  0.547254  1
  O  O70  1  0.127618  0.338989  0.189301  1
  O  O71  1  0.848099  0.037283  0.808254  1
