# generated using pymatgen
data_Sr2YCu2BiO7
_symmetry_space_group_name_H-M   'P 1'
_cell_length_a   5.41561243
_cell_length_b   5.43367157
_cell_length_c   13.19092378
_cell_angle_alpha   101.90018786
_cell_angle_beta   101.86450041
_cell_angle_gamma   90.18137850
_symmetry_Int_Tables_number   1
_chemical_formula_structural   Sr2YCu2BiO7
_chemical_formula_sum   'Sr4 Y2 Cu4 Bi2 O14'
_cell_volume   371.28722494
_cell_formula_units_Z   2
loop_
 _symmetry_equiv_pos_site_id
 _symmetry_equiv_pos_as_xyz
  1  'x, y, z'
loop_
 _atom_site_type_symbol
 _atom_site_label
 _atom_site_symmetry_multiplicity
 _atom_site_fract_x
 _atom_site_fract_y
 _atom_site_fract_z
 _atom_site_occupancy
  Sr  Sr0  1  0.340877  0.362874  0.721835  1
  Sr  Sr1  1  0.618076  0.635610  0.277051  1
  Sr  Sr2  1  0.840067  0.857265  0.721807  1
  Sr  Sr3  1  0.118847  0.140594  0.277121  1
  Y  Y4  1  0.982392  0.998938  0.999422  1
  Y  Y5  1  0.482501  0.499023  0.999474  1
  Cu  Cu6  1  0.914371  0.432189  0.867011  1
  Cu  Cu7  1  0.046885  0.565555  0.131697  1
  Cu  Cu8  1  0.414701  0.933541  0.867908  1
  Cu  Cu9  1  0.546872  0.064578  0.131398  1
  Bi  Bi10  1  0.260302  0.739042  0.499410  1
  Bi  Bi11  1  0.759077  0.259111  0.499267  1
  O  O12  1  0.166738  0.341447  0.499101  1
  O  O13  1  0.667346  0.656538  0.499279  1
  O  O14  1  0.179412  0.197128  0.885097  1
  O  O15  1  0.294258  0.799676  0.113819  1
  O  O16  1  0.678863  0.185465  0.884793  1
  O  O17  1  0.794812  0.812970  0.114284  1
  O  O18  1  0.666098  0.685147  0.881909  1
  O  O19  1  0.783974  0.313923  0.117414  1
  O  O20  1  0.166393  0.695407  0.881254  1
  O  O21  1  0.284170  0.302490  0.117666  1
  O  O22  1  0.309770  0.842328  0.679602  1
  O  O23  1  0.628632  0.154509  0.319198  1
  O  O24  1  0.808150  0.335236  0.679700  1
  O  O25  1  0.129934  0.663210  0.319001  1
