# generated using pymatgen
data_BaMoF7
_symmetry_space_group_name_H-M   'P 1'
_cell_length_a   5.69711922
_cell_length_b   10.64108012
_cell_length_c   10.13988002
_cell_angle_alpha   90.00000000
_cell_angle_beta   90.00000000
_cell_angle_gamma   92.61814803
_symmetry_Int_Tables_number   1
_chemical_formula_structural   BaMoF7
_chemical_formula_sum   'Ba4 Mo4 F28'
_cell_volume   614.07336732
_cell_formula_units_Z   4
loop_
 _symmetry_equiv_pos_site_id
 _symmetry_equiv_pos_as_xyz
  1  'x, y, z'
loop_
 _atom_site_type_symbol
 _atom_site_label
 _atom_site_symmetry_multiplicity
 _atom_site_fract_x
 _atom_site_fract_y
 _atom_site_fract_z
 _atom_site_occupancy
  Ba  Ba0  1  0.301859  0.493496  0.333215  1
  Ba  Ba1  1  0.698141  0.006504  0.833215  1
  Ba  Ba2  1  0.698141  0.506504  0.666785  1
  Ba  Ba3  1  0.301859  0.993496  0.166785  1
  Mo  Mo4  1  0.184773  0.813223  0.610449  1
  Mo  Mo5  1  0.815227  0.186777  0.389551  1
  Mo  Mo6  1  0.184773  0.313223  0.889551  1
  Mo  Mo7  1  0.815227  0.686777  0.110449  1
  F  F8  1  0.098870  0.124082  0.455591  1
  F  F9  1  0.326180  0.368289  0.051294  1
  F  F10  1  0.462697  0.757623  0.694515  1
  F  F11  1  0.537303  0.242377  0.305485  1
  F  F12  1  0.883660  0.358415  0.454307  1
  F  F13  1  0.257043  0.475212  0.805479  1
  F  F14  1  0.000870  0.760205  0.763004  1
  F  F15  1  0.116340  0.141585  0.954307  1
  F  F16  1  0.326180  0.868289  0.448706  1
  F  F17  1  0.537303  0.742377  0.194515  1
  F  F18  1  0.098870  0.624082  0.044409  1
  F  F19  1  0.901130  0.875918  0.544409  1
  F  F20  1  0.999130  0.739795  0.263004  1
  F  F21  1  0.387130  0.887316  0.958192  1
  F  F22  1  0.116340  0.641585  0.545693  1
  F  F23  1  0.883660  0.858415  0.045693  1
  F  F24  1  0.999130  0.239795  0.236996  1
  F  F25  1  0.901130  0.375918  0.955591  1
  F  F26  1  0.612870  0.612684  0.458192  1
  F  F27  1  0.673820  0.631711  0.948706  1
  F  F28  1  0.612870  0.112684  0.041808  1
  F  F29  1  0.000870  0.260205  0.736996  1
  F  F30  1  0.387130  0.387316  0.541808  1
  F  F31  1  0.742957  0.024788  0.305479  1
  F  F32  1  0.742957  0.524788  0.194521  1
  F  F33  1  0.257043  0.975212  0.694521  1
  F  F34  1  0.673820  0.131711  0.551294  1
  F  F35  1  0.462697  0.257623  0.805485  1
