# generated using pymatgen
data_HoMg(SbO3)2
_symmetry_space_group_name_H-M   'P 1'
_cell_length_a   5.59560011
_cell_length_b   5.86017437
_cell_length_c   8.29065702
_cell_angle_alpha   89.94371930
_cell_angle_beta   89.99793127
_cell_angle_gamma   90.05857403
_symmetry_Int_Tables_number   1
_chemical_formula_structural   HoMg(SbO3)2
_chemical_formula_sum   'Ho2 Mg2 Sb4 O12'
_cell_volume   271.86025603
_cell_formula_units_Z   2
loop_
 _symmetry_equiv_pos_site_id
 _symmetry_equiv_pos_as_xyz
  1  'x, y, z'
loop_
 _atom_site_type_symbol
 _atom_site_label
 _atom_site_symmetry_multiplicity
 _atom_site_fract_x
 _atom_site_fract_y
 _atom_site_fract_z
 _atom_site_occupancy
  Ho  Ho0  1  0.023377  0.929871  0.749836  1
  Ho  Ho1  1  0.522959  0.569099  0.250091  1
  Mg  Mg2  1  0.505598  0.483801  0.749907  1
  Mg  Mg3  1  0.005506  0.016605  0.250074  1
  Sb  Sb4  1  0.009170  0.484688  0.998401  1
  Sb  Sb5  1  0.009290  0.484968  0.501744  1
  Sb  Sb6  1  0.508910  0.015078  0.498163  1
  Sb  Sb7  1  0.508653  0.014901  0.001545  1
  O  O8  1  0.150133  0.405276  0.249601  1
  O  O9  1  0.165421  0.176004  0.929028  1
  O  O10  1  0.164330  0.176381  0.571205  1
  O  O11  1  0.313498  0.677458  0.917451  1
  O  O12  1  0.313075  0.675882  0.583272  1
  O  O13  1  0.351861  0.923321  0.249204  1
  O  O14  1  0.649069  0.094458  0.750905  1
  O  O15  1  0.662574  0.322661  0.428672  1
  O  O16  1  0.662681  0.322109  0.071101  1
  O  O17  1  0.811235  0.824756  0.082476  1
  O  O18  1  0.812120  0.824814  0.417072  1
  O  O19  1  0.850536  0.577872  0.750252  1
