# generated using pymatgen
data_Mg2VSbO6
_symmetry_space_group_name_H-M   'P 1'
_cell_length_a   5.22777702
_cell_length_b   5.38285731
_cell_length_c   7.63927842
_cell_angle_alpha   90.00000000
_cell_angle_beta   90.00000000
_cell_angle_gamma   91.29205165
_symmetry_Int_Tables_number   1
_chemical_formula_structural   Mg2VSbO6
_chemical_formula_sum   'Mg4 V2 Sb2 O12'
_cell_volume   214.91752297
_cell_formula_units_Z   2
loop_
 _symmetry_equiv_pos_site_id
 _symmetry_equiv_pos_as_xyz
  1  'x, y, z'
loop_
 _atom_site_type_symbol
 _atom_site_label
 _atom_site_symmetry_multiplicity
 _atom_site_fract_x
 _atom_site_fract_y
 _atom_site_fract_z
 _atom_site_occupancy
  Mg  Mg0  1  0.520418  0.569215  0.750000  1
  Mg  Mg1  1  0.479582  0.430785  0.250000  1
  Mg  Mg2  1  0.013144  0.034246  0.750000  1
  Mg  Mg3  1  0.986856  0.965754  0.250000  1
  V  V4  1  0.500000  0.000000  0.500000  1
  V  V5  1  0.500000  0.000000  0.000000  1
  Sb  Sb6  1  0.000000  0.500000  0.500000  1
  Sb  Sb7  1  0.000000  0.500000  0.000000  1
  O  O8  1  0.321045  0.677331  0.431435  1
  O  O9  1  0.169013  0.190434  0.069816  1
  O  O10  1  0.678955  0.322669  0.931435  1
  O  O11  1  0.830987  0.809566  0.569816  1
  O  O12  1  0.169013  0.190434  0.430184  1
  O  O13  1  0.830987  0.809566  0.930184  1
  O  O14  1  0.861245  0.571918  0.250000  1
  O  O15  1  0.321045  0.677331  0.068565  1
  O  O16  1  0.380775  0.930304  0.750000  1
  O  O17  1  0.678955  0.322669  0.568565  1
  O  O18  1  0.138755  0.428082  0.750000  1
  O  O19  1  0.619225  0.069696  0.250000  1
