# generated using pymatgen
data_MgCr3O7
_symmetry_space_group_name_H-M   'P 1'
_cell_length_a   5.34047167
_cell_length_b   10.26146298
_cell_length_c   10.00771221
_cell_angle_alpha   90.00000000
_cell_angle_beta   90.00000000
_cell_angle_gamma   90.00000000
_symmetry_Int_Tables_number   1
_chemical_formula_structural   MgCr3O7
_chemical_formula_sum   'Mg4 Cr12 O28'
_cell_volume   548.43316060
_cell_formula_units_Z   4
loop_
 _symmetry_equiv_pos_site_id
 _symmetry_equiv_pos_as_xyz
  1  'x, y, z'
loop_
 _atom_site_type_symbol
 _atom_site_label
 _atom_site_symmetry_multiplicity
 _atom_site_fract_x
 _atom_site_fract_y
 _atom_site_fract_z
 _atom_site_occupancy
  Mg  Mg0  1  0.652493  0.750000  0.933194  1
  Mg  Mg1  1  0.152493  0.250000  0.566806  1
  Mg  Mg2  1  0.347507  0.250000  0.066806  1
  Mg  Mg3  1  0.847507  0.750000  0.433194  1
  Cr  Cr4  1  0.298441  0.022940  0.309528  1
  Cr  Cr5  1  0.798441  0.977060  0.190472  1
  Cr  Cr6  1  0.701559  0.522940  0.690472  1
  Cr  Cr7  1  0.201559  0.477060  0.809528  1
  Cr  Cr8  1  0.307377  0.750000  0.224748  1
  Cr  Cr9  1  0.807377  0.250000  0.275252  1
  Cr  Cr10  1  0.692623  0.250000  0.775252  1
  Cr  Cr11  1  0.192623  0.750000  0.724748  1
  Cr  Cr12  1  0.798441  0.522940  0.190472  1
  Cr  Cr13  1  0.298441  0.477060  0.309528  1
  Cr  Cr14  1  0.201559  0.022940  0.809528  1
  Cr  Cr15  1  0.701559  0.977060  0.690472  1
  O  O16  1  0.942878  0.120021  0.714850  1
  O  O17  1  0.442878  0.879979  0.785150  1
  O  O18  1  0.057122  0.620021  0.285150  1
  O  O19  1  0.557122  0.379979  0.214850  1
  O  O20  1  0.057122  0.879979  0.285150  1
  O  O21  1  0.557122  0.120021  0.214850  1
  O  O22  1  0.942878  0.379979  0.714850  1
  O  O23  1  0.442878  0.620021  0.785150  1
  O  O24  1  0.459422  0.118775  0.713445  1
  O  O25  1  0.959422  0.881225  0.786555  1
  O  O26  1  0.540578  0.618775  0.286555  1
  O  O27  1  0.040578  0.381225  0.213445  1
  O  O28  1  0.540578  0.881225  0.286555  1
  O  O29  1  0.040578  0.118775  0.213445  1
  O  O30  1  0.459422  0.381225  0.713445  1
  O  O31  1  0.959422  0.618775  0.786555  1
  O  O32  1  0.155772  0.750000  0.555193  1
  O  O33  1  0.655772  0.250000  0.944807  1
  O  O34  1  0.844228  0.250000  0.444807  1
  O  O35  1  0.344228  0.750000  0.055193  1
  O  O36  1  0.226590  0.407420  0.960828  1
  O  O37  1  0.726590  0.592580  0.539172  1
  O  O38  1  0.773410  0.907420  0.039172  1
  O  O39  1  0.273410  0.092580  0.460828  1
  O  O40  1  0.773410  0.592580  0.039172  1
  O  O41  1  0.273410  0.407420  0.460828  1
  O  O42  1  0.226590  0.092580  0.960828  1
  O  O43  1  0.726590  0.907420  0.539172  1
