# generated using pymatgen
data_Ca(NiO2)2
_symmetry_space_group_name_H-M   'P 1'
_cell_length_a   6.17965898
_cell_length_b   6.14279342
_cell_length_c   24.05012345
_cell_angle_alpha   59.28069402
_cell_angle_beta   61.37730689
_cell_angle_gamma   60.19714623
_symmetry_Int_Tables_number   1
_chemical_formula_structural   Ca(NiO2)2
_chemical_formula_sum   'Ca8 Ni16 O32'
_cell_volume   649.28395545
_cell_formula_units_Z   8
loop_
 _symmetry_equiv_pos_site_id
 _symmetry_equiv_pos_as_xyz
  1  'x, y, z'
loop_
 _atom_site_type_symbol
 _atom_site_label
 _atom_site_symmetry_multiplicity
 _atom_site_fract_x
 _atom_site_fract_y
 _atom_site_fract_z
 _atom_site_occupancy
  Ca  Ca0  1  0.164253  0.117986  0.024944  1
  Ca  Ca1  1  0.994524  0.501732  0.125503  1
  Ca  Ca2  1  0.144928  0.107897  0.284819  1
  Ca  Ca3  1  0.007036  0.495533  0.375474  1
  Ca  Ca4  1  0.997809  0.498636  0.626230  1
  Ca  Ca5  1  0.497840  0.506785  0.497148  1
  Ca  Ca6  1  0.986812  0.505023  0.875785  1
  Ca  Ca7  1  0.501477  0.492880  0.753190  1
  Ni  Ni8  1  0.501428  0.495658  0.124421  1
  Ni  Ni9  1  0.500869  0.501544  0.249011  1
  Ni  Ni10  1  0.501428  0.005230  0.124421  1
  Ni  Ni11  1  0.133140  0.110795  0.536317  1
  Ni  Ni12  1  0.505920  0.491222  0.372903  1
  Ni  Ni13  1  0.843256  0.889200  0.219586  1
  Ni  Ni14  1  0.149676  0.111237  0.781963  1
  Ni  Ni15  1  0.505920  0.011247  0.372903  1
  Ni  Ni16  1  0.499352  0.501595  0.625138  1
  Ni  Ni17  1  0.857084  0.888019  0.466719  1
  Ni  Ni18  1  0.499352  0.998499  0.625138  1
  Ni  Ni19  1  0.499736  0.989253  0.875535  1
  Ni  Ni20  1  0.499736  0.508870  0.875535  1
  Ni  Ni21  1  0.865347  0.886929  0.715199  1
  Ni  Ni22  1  0.499216  0.493935  0.003229  1
  Ni  Ni23  1  0.830780  0.890132  0.972239  1
  O  O24  1  0.314227  0.256731  0.061617  1
  O  O25  1  0.323780  0.241632  0.173239  1
  O  O26  1  0.314227  0.682575  0.061617  1
  O  O27  1  0.722804  0.271422  0.058588  1
  O  O28  1  0.236395  0.758120  0.186841  1
  O  O29  1  0.319469  0.258451  0.310117  1
  O  O30  1  0.695948  0.288540  0.189518  1
  O  O31  1  0.276337  0.229091  0.441369  1
  O  O32  1  0.319469  0.681613  0.310117  1
  O  O33  1  0.680441  0.763565  0.073107  1
  O  O34  1  0.702326  0.257011  0.320913  1
  O  O35  1  0.695948  0.757440  0.189518  1
  O  O36  1  0.272423  0.220352  0.568011  1
  O  O37  1  0.260688  0.781181  0.419237  1
  O  O38  1  0.730365  0.269422  0.428095  1
  O  O39  1  0.295556  0.231787  0.685218  1
  O  O40  1  0.272423  0.735178  0.568011  1
  O  O41  1  0.708659  0.764537  0.315567  1
  O  O42  1  0.761817  0.234975  0.567058  1
  O  O43  1  0.730365  0.787835  0.428095  1
  O  O44  1  0.245502  0.765000  0.681124  1
  O  O45  1  0.266861  0.212551  0.820628  1
  O  O46  1  0.722249  0.266886  0.682374  1
  O  O47  1  0.331297  0.251457  0.916447  1
  O  O48  1  0.266861  0.738073  0.820628  1
  O  O49  1  0.705551  0.767368  0.564928  1
  O  O50  1  0.789761  0.223036  0.816042  1
  O  O51  1  0.722249  0.781372  0.682374  1
  O  O52  1  0.261702  0.721545  0.948802  1
  O  O53  1  0.690043  0.288814  0.944009  1
  O  O54  1  0.687295  0.767497  0.819428  1
  O  O55  1  0.690043  0.745105  0.944009  1
