# generated using pymatgen
data_Ca2Cr9O13
_symmetry_space_group_name_H-M   'P 1'
_cell_length_a   3.12156922
_cell_length_b   5.50835695
_cell_length_c   16.69026341
_cell_angle_alpha   99.80173594
_cell_angle_beta   89.81505380
_cell_angle_gamma   109.05558858
_symmetry_Int_Tables_number   1
_chemical_formula_structural   Ca2Cr9O13
_chemical_formula_sum   'Ca2 Cr9 O13'
_cell_volume   266.87606046
_cell_formula_units_Z   1
loop_
 _symmetry_equiv_pos_site_id
 _symmetry_equiv_pos_as_xyz
  1  'x, y, z'
loop_
 _atom_site_type_symbol
 _atom_site_label
 _atom_site_symmetry_multiplicity
 _atom_site_fract_x
 _atom_site_fract_y
 _atom_site_fract_z
 _atom_site_occupancy
  Ca  Ca0  1  0.215521  0.463950  0.230324  1
  Ca  Ca1  1  0.784479  0.536050  0.769676  1
  Cr  Cr2  1  0.500000  -0.000000  0.500000  1
  Cr  Cr3  1  0.649883  0.297326  0.039553  1
  Cr  Cr4  1  0.350117  0.702674  0.960447  1
  Cr  Cr5  1  0.763027  0.515694  0.420765  1
  Cr  Cr6  1  0.236973  0.484306  0.579235  1
  Cr  Cr7  1  0.939860  0.894044  0.122238  1
  Cr  Cr8  1  0.060140  0.105956  0.877762  1
  Cr  Cr9  1  0.008982  0.014720  0.338082  1
  Cr  Cr10  1  0.991018  0.985280  0.661918  1
  O  O11  1  0.000000  -0.000000  -0.000000  1
  O  O12  1  0.889144  0.786816  0.229909  1
  O  O13  1  0.110856  0.213184  0.770091  1
  O  O14  1  0.286735  0.626128  0.079360  1
  O  O15  1  0.713265  0.373872  0.920640  1
  O  O16  1  0.578622  0.158387  0.144467  1
  O  O17  1  0.421378  0.841613  0.855533  1
  O  O18  1  0.636326  0.252091  0.316370  1
  O  O19  1  0.363674  0.747909  0.683630  1
  O  O20  1  0.357647  0.793995  0.379317  1
  O  O21  1  0.642353  0.206005  0.620683  1
  O  O22  1  0.200227  0.251416  0.460654  1
  O  O23  1  0.799773  0.748584  0.539346  1
