# generated using pymatgen
data_Zn3Si4(BiO7)2
_symmetry_space_group_name_H-M   'P 1'
_cell_length_a   8.48182056
_cell_length_b   10.02650417
_cell_length_c   9.49637815
_cell_angle_alpha   65.37457353
_cell_angle_beta   63.47540873
_cell_angle_gamma   64.97776063
_symmetry_Int_Tables_number   1
_chemical_formula_structural   Zn3Si4(BiO7)2
_chemical_formula_sum   'Zn6 Si8 Bi4 O28'
_cell_volume   628.39982744
_cell_formula_units_Z   2
loop_
 _symmetry_equiv_pos_site_id
 _symmetry_equiv_pos_as_xyz
  1  'x, y, z'
loop_
 _atom_site_type_symbol
 _atom_site_label
 _atom_site_symmetry_multiplicity
 _atom_site_fract_x
 _atom_site_fract_y
 _atom_site_fract_z
 _atom_site_occupancy
  Zn  Zn0  1  0.927918  0.931295  0.435789  1
  Zn  Zn1  1  0.295002  0.568705  0.064211  1
  Zn  Zn2  1  0.704998  0.431295  0.935789  1
  Zn  Zn3  1  0.614644  0.250000  0.750000  1
  Zn  Zn4  1  0.072082  0.068705  0.564211  1
  Zn  Zn5  1  0.385356  0.750000  0.250000  1
  Si  Si6  1  0.488947  0.286555  0.320694  1
  Si  Si7  1  0.903804  0.786555  0.820694  1
  Si  Si8  1  0.503568  0.888130  0.871188  1
  Si  Si9  1  0.737116  0.388130  0.371188  1
  Si  Si10  1  0.096196  0.213445  0.179306  1
  Si  Si11  1  0.496432  0.111870  0.128812  1
  Si  Si12  1  0.262884  0.611870  0.628812  1
  Si  Si13  1  0.511053  0.713445  0.679306  1
  Bi  Bi14  1  0.231987  0.250000  0.750000  1
  Bi  Bi15  1  0.768013  0.750000  0.250000  1
  Bi  Bi16  1  0.000000  0.000000  0.000000  1
  Bi  Bi17  1  0.000000  0.500000  0.500000  1
  O  O18  1  0.204366  0.667462  0.461994  1
  O  O19  1  0.063482  0.595036  0.223382  1
  O  O20  1  0.497890  0.933494  0.179983  1
  O  O21  1  0.118100  0.095036  0.723382  1
  O  O22  1  0.711992  0.675200  0.540072  1
  O  O23  1  0.933595  0.369707  0.216376  1
  O  O24  1  0.388632  0.433494  0.679983  1
  O  O25  1  0.927264  0.824800  0.959928  1
  O  O26  1  0.066405  0.630293  0.783624  1
  O  O27  1  0.353241  0.742119  0.604361  1
  O  O28  1  0.936518  0.404964  0.776618  1
  O  O29  1  0.288008  0.324800  0.459928  1
  O  O30  1  0.519679  0.130293  0.283624  1
  O  O31  1  0.666177  0.167462  0.961994  1
  O  O32  1  0.300278  0.242119  0.104361  1
  O  O33  1  0.072736  0.175200  0.040072  1
  O  O34  1  0.086415  0.072397  0.351266  1
  O  O35  1  0.646759  0.257881  0.395639  1
  O  O36  1  0.510077  0.427603  0.148734  1
  O  O37  1  0.699722  0.757881  0.895639  1
  O  O38  1  0.480321  0.869707  0.716376  1
  O  O39  1  0.881900  0.904964  0.276618  1
  O  O40  1  0.489923  0.572397  0.851266  1
  O  O41  1  0.502110  0.066506  0.820017  1
  O  O42  1  0.913585  0.927603  0.648734  1
  O  O43  1  0.611368  0.566506  0.320017  1
  O  O44  1  0.333823  0.832538  0.038006  1
  O  O45  1  0.795634  0.332538  0.538006  1
