# generated using pymatgen
data_CaCu3(NiO3)4
_symmetry_space_group_name_H-M   'P 1'
_cell_length_a   6.29812709
_cell_length_b   6.29805763
_cell_length_c   6.29764850
_cell_angle_alpha   109.49119512
_cell_angle_beta   109.45851524
_cell_angle_gamma   109.46747939
_symmetry_Int_Tables_number   1
_chemical_formula_structural   CaCu3(NiO3)4
_chemical_formula_sum   'Ca1 Cu3 Ni4 O12'
_cell_volume   192.28953025
_cell_formula_units_Z   1
loop_
 _symmetry_equiv_pos_site_id
 _symmetry_equiv_pos_as_xyz
  1  'x, y, z'
loop_
 _atom_site_type_symbol
 _atom_site_label
 _atom_site_symmetry_multiplicity
 _atom_site_fract_x
 _atom_site_fract_y
 _atom_site_fract_z
 _atom_site_occupancy
  Ca  Ca0  1  0.000051  0.000060  0.000103  1
  Cu  Cu1  1  0.499980  0.499997  0.999990  1
  Cu  Cu2  1  0.000019  0.499980  0.499970  1
  Cu  Cu3  1  0.499959  0.999989  0.499953  1
  Ni  Ni4  1  0.999949  0.999916  0.499978  1
  Ni  Ni5  1  0.999954  0.500023  0.999996  1
  Ni  Ni6  1  0.500092  0.500027  0.500013  1
  Ni  Ni7  1  0.499999  0.000022  0.000025  1
  O  O8  1  0.828909  0.310631  0.139458  1
  O  O9  1  0.171073  0.689365  0.860521  1
  O  O10  1  0.828893  0.689402  0.518337  1
  O  O11  1  0.310700  0.481836  0.171287  1
  O  O12  1  0.481806  0.171216  0.310620  1
  O  O13  1  0.139378  0.828835  0.310593  1
  O  O14  1  0.689445  0.860601  0.171209  1
  O  O15  1  0.518235  0.828839  0.689357  1
  O  O16  1  0.171169  0.310575  0.481697  1
  O  O17  1  0.689303  0.518193  0.828731  1
  O  O18  1  0.860529  0.171096  0.689377  1
  O  O19  1  0.310555  0.139394  0.828784  1
