# generated using pymatgen
data_Mo3O7
_symmetry_space_group_name_H-M   'P 1'
_cell_length_a   5.69766229
_cell_length_b   11.49472993
_cell_length_c   11.02914048
_cell_angle_alpha   90.00000000
_cell_angle_beta   90.00000000
_cell_angle_gamma   90.00000000
_symmetry_Int_Tables_number   1
_chemical_formula_structural   Mo3O7
_chemical_formula_sum   'Mo12 O28'
_cell_volume   722.33248187
_cell_formula_units_Z   4
loop_
 _symmetry_equiv_pos_site_id
 _symmetry_equiv_pos_as_xyz
  1  'x, y, z'
loop_
 _atom_site_type_symbol
 _atom_site_label
 _atom_site_symmetry_multiplicity
 _atom_site_fract_x
 _atom_site_fract_y
 _atom_site_fract_z
 _atom_site_occupancy
  Mo  Mo0  1  0.289211  0.021610  0.311686  1
  Mo  Mo1  1  0.789211  0.978390  0.188314  1
  Mo  Mo2  1  0.710789  0.521610  0.688314  1
  Mo  Mo3  1  0.210789  0.478390  0.811686  1
  Mo  Mo4  1  0.292833  0.750000  0.231307  1
  Mo  Mo5  1  0.792833  0.250000  0.268693  1
  Mo  Mo6  1  0.707167  0.250000  0.768693  1
  Mo  Mo7  1  0.207167  0.750000  0.731307  1
  Mo  Mo8  1  0.789211  0.521610  0.188314  1
  Mo  Mo9  1  0.289211  0.478390  0.311686  1
  Mo  Mo10  1  0.210789  0.021610  0.811686  1
  Mo  Mo11  1  0.710789  0.978390  0.688314  1
  O  O12  1  0.939629  0.109059  0.732898  1
  O  O13  1  0.439629  0.890941  0.767102  1
  O  O14  1  0.060371  0.609059  0.267102  1
  O  O15  1  0.560371  0.390941  0.232898  1
  O  O16  1  0.060371  0.890941  0.267102  1
  O  O17  1  0.560371  0.109059  0.232898  1
  O  O18  1  0.939629  0.390941  0.732898  1
  O  O19  1  0.439629  0.609059  0.767102  1
  O  O20  1  0.477078  0.109014  0.729002  1
  O  O21  1  0.977078  0.890986  0.770998  1
  O  O22  1  0.522922  0.609014  0.270998  1
  O  O23  1  0.022922  0.390986  0.229002  1
  O  O24  1  0.522922  0.890986  0.270998  1
  O  O25  1  0.022922  0.109014  0.229002  1
  O  O26  1  0.477078  0.390986  0.729002  1
  O  O27  1  0.977078  0.609014  0.770998  1
  O  O28  1  0.203442  0.750000  0.571680  1
  O  O29  1  0.703442  0.250000  0.928320  1
  O  O30  1  0.796558  0.250000  0.428320  1
  O  O31  1  0.296558  0.750000  0.071680  1
  O  O32  1  0.221598  0.444182  0.961551  1
  O  O33  1  0.721598  0.555818  0.538449  1
  O  O34  1  0.778402  0.944182  0.038449  1
  O  O35  1  0.278402  0.055818  0.461551  1
  O  O36  1  0.778402  0.555818  0.038449  1
  O  O37  1  0.278402  0.444182  0.461551  1
  O  O38  1  0.221598  0.055818  0.961551  1
  O  O39  1  0.721598  0.944182  0.538449  1
