# generated using pymatgen
data_Ba2Ca2Tl2Ni3O10
_symmetry_space_group_name_H-M   'P 1'
_cell_length_a   3.90897744
_cell_length_b   3.85180006
_cell_length_c   18.86846182
_cell_angle_alpha   95.66330457
_cell_angle_beta   95.77984427
_cell_angle_gamma   89.97653588
_symmetry_Int_Tables_number   1
_chemical_formula_structural   Ba2Ca2Tl2Ni3O10
_chemical_formula_sum   'Ba2 Ca2 Tl2 Ni3 O10'
_cell_volume   281.25794108
_cell_formula_units_Z   1
loop_
 _symmetry_equiv_pos_site_id
 _symmetry_equiv_pos_as_xyz
  1  'x, y, z'
loop_
 _atom_site_type_symbol
 _atom_site_label
 _atom_site_symmetry_multiplicity
 _atom_site_fract_x
 _atom_site_fract_y
 _atom_site_fract_z
 _atom_site_occupancy
  Ba  Ba0  1  0.094929  0.164062  0.281198  1
  Ba  Ba1  1  0.795356  0.833208  0.718148  1
  Ca  Ca2  1  0.880186  0.936878  0.912209  1
  Ca  Ca3  1  0.986228  0.064226  0.087109  1
  Tl  Tl4  1  0.641714  0.722012  0.437127  1
  Tl  Tl5  1  0.200125  0.271716  0.562193  1
  Ni  Ni6  1  0.343027  0.387406  0.827673  1
  Ni  Ni7  1  0.533843  0.612381  0.171112  1
  Ni  Ni8  1  0.424437  0.508958  -0.001851  1
  O  O9  1  0.341317  0.884814  0.822622  1
  O  O10  1  0.283567  0.313055  0.672856  1
  O  O11  1  0.844968  0.390547  0.831305  1
  O  O12  1  0.819513  0.766677  0.548387  1
  O  O13  1  0.927741  0.518752  0.006432  1
  O  O14  1  0.036718  0.616506  0.177599  1
  O  O15  1  0.624570  0.681521  0.326582  1
  O  O16  1  0.529349  0.110408  0.165753  1
  O  O17  1  0.274252  0.227195  0.451101  1
  O  O18  1  0.419247  0.007641  0.993407  1
