# generated using pymatgen
data_SrMgCo(PO4)2
_symmetry_space_group_name_H-M   'P 1'
_cell_length_a   5.54386240
_cell_length_b   6.95546862
_cell_length_c   9.37522494
_cell_angle_alpha   110.72573762
_cell_angle_beta   101.76663084
_cell_angle_gamma   98.31715430
_symmetry_Int_Tables_number   1
_chemical_formula_structural   SrMgCo(PO4)2
_chemical_formula_sum   'Sr2 Mg2 Co2 P4 O16'
_cell_volume   321.59567468
_cell_formula_units_Z   2
loop_
 _symmetry_equiv_pos_site_id
 _symmetry_equiv_pos_as_xyz
  1  'x, y, z'
loop_
 _atom_site_type_symbol
 _atom_site_label
 _atom_site_symmetry_multiplicity
 _atom_site_fract_x
 _atom_site_fract_y
 _atom_site_fract_z
 _atom_site_occupancy
  Sr  Sr0  1  0.251827  0.802595  0.051777  1
  Sr  Sr1  1  0.748173  0.197405  0.948223  1
  Mg  Mg2  1  0.987155  0.382056  0.649841  1
  Mg  Mg3  1  0.012845  0.617944  0.350159  1
  Co  Co4  1  0.635794  0.848222  0.558598  1
  Co  Co5  1  0.364206  0.151778  0.441402  1
  P  P6  1  0.396388  0.425861  0.237346  1
  P  P7  1  0.603612  0.574139  0.762654  1
  P  P8  1  0.844320  0.025080  0.303582  1
  P  P9  1  0.155680  0.974920  0.696418  1
  O  O10  1  0.817494  0.552022  0.887409  1
  O  O11  1  0.662025  0.474510  0.211337  1
  O  O12  1  0.659209  0.797576  0.761159  1
  O  O13  1  0.953974  0.115101  0.694259  1
  O  O14  1  0.337975  0.525490  0.788663  1
  O  O15  1  0.002514  0.746371  0.576092  1
  O  O16  1  0.997486  0.253629  0.423908  1
  O  O17  1  0.259855  0.995884  0.865957  1
  O  O18  1  0.340791  0.202424  0.238841  1
  O  O19  1  0.740145  0.004116  0.134043  1
  O  O20  1  0.182506  0.447978  0.112591  1
  O  O21  1  0.377547  0.592732  0.398325  1
  O  O22  1  0.622453  0.407268  0.601675  1
  O  O23  1  0.624403  0.951274  0.367858  1
  O  O24  1  0.046026  0.884899  0.305741  1
  O  O25  1  0.375597  0.048726  0.632142  1
