# generated using pymatgen
data_Mg(CuO2)2
_symmetry_space_group_name_H-M   'P 1'
_cell_length_a   3.09475630
_cell_length_b   9.15890224
_cell_length_c   9.94971032
_cell_angle_alpha   90.00080608
_cell_angle_beta   90.00402284
_cell_angle_gamma   89.98531674
_symmetry_Int_Tables_number   1
_chemical_formula_structural   Mg(CuO2)2
_chemical_formula_sum   'Mg4 Cu8 O16'
_cell_volume   282.02025424
_cell_formula_units_Z   4
loop_
 _symmetry_equiv_pos_site_id
 _symmetry_equiv_pos_as_xyz
  1  'x, y, z'
loop_
 _atom_site_type_symbol
 _atom_site_label
 _atom_site_symmetry_multiplicity
 _atom_site_fract_x
 _atom_site_fract_y
 _atom_site_fract_z
 _atom_site_occupancy
  Mg  Mg0  1  0.362266  0.749921  0.153037  1
  Mg  Mg1  1  0.362312  0.249952  0.346947  1
  Mg  Mg2  1  0.637779  0.750112  0.653047  1
  Mg  Mg3  1  0.637656  0.250057  0.846950  1
  Cu  Cu4  1  0.842551  0.569912  0.385413  1
  Cu  Cu5  1  0.842737  0.069916  0.114606  1
  Cu  Cu6  1  0.157401  0.069879  0.614593  1
  Cu  Cu7  1  0.842702  0.430150  0.114599  1
  Cu  Cu8  1  0.157190  0.430091  0.614622  1
  Cu  Cu9  1  0.842778  0.930114  0.385378  1
  Cu  Cu10  1  0.157502  0.930088  0.885404  1
  Cu  Cu11  1  0.157151  0.569845  0.885421  1
  O  O12  1  0.128669  0.882492  0.544921  1
  O  O13  1  0.871672  0.117542  0.455068  1
  O  O14  1  0.494528  0.000083  0.250000  1
  O  O15  1  0.871871  0.882509  0.044985  1
  O  O16  1  0.871492  0.617524  0.044943  1
  O  O17  1  0.855748  0.250033  0.201365  1
  O  O18  1  0.128390  0.117532  0.955044  1
  O  O19  1  0.144215  0.249960  0.701363  1
  O  O20  1  0.494375  0.500068  0.249976  1
  O  O21  1  0.505654  0.999935  0.749928  1
  O  O22  1  0.128026  0.617518  0.545003  1
  O  O23  1  0.144374  0.749965  0.798614  1
  O  O24  1  0.855665  0.749998  0.298606  1
  O  O25  1  0.505431  0.499881  0.750027  1
  O  O26  1  0.128267  0.382461  0.955080  1
  O  O27  1  0.871599  0.382462  0.455062  1
