# generated using pymatgen
data_CaLa2FeO6
_symmetry_space_group_name_H-M   'P 1'
_cell_length_a   5.61658867
_cell_length_b   5.61658830
_cell_length_c   5.61658890
_cell_angle_alpha   62.66468576
_cell_angle_beta   62.66468699
_cell_angle_gamma   62.66468995
_symmetry_Int_Tables_number   1
_chemical_formula_structural   CaLa2FeO6
_chemical_formula_sum   'Ca1 La2 Fe1 O6'
_cell_volume   132.71675786
_cell_formula_units_Z   1
loop_
 _symmetry_equiv_pos_site_id
 _symmetry_equiv_pos_as_xyz
  1  'x, y, z'
loop_
 _atom_site_type_symbol
 _atom_site_label
 _atom_site_symmetry_multiplicity
 _atom_site_fract_x
 _atom_site_fract_y
 _atom_site_fract_z
 _atom_site_occupancy
  Ca  Ca0  1  0.500000  0.500000  0.500000  1
  La  La1  1  0.760440  0.760440  0.760440  1
  La  La2  1  0.239560  0.239560  0.239560  1
  Fe  Fe3  1  0.000000  0.000000  0.000000  1
  O  O4  1  0.319685  0.786659  0.138068  1
  O  O5  1  0.786659  0.138068  0.319685  1
  O  O6  1  0.138068  0.319685  0.786659  1
  O  O7  1  0.680315  0.213341  0.861932  1
  O  O8  1  0.861932  0.680315  0.213341  1
  O  O9  1  0.213341  0.861932  0.680315  1
