# generated using pymatgen
data_CaBiMoO5
_symmetry_space_group_name_H-M   'P 1'
_cell_length_a   5.53641223
_cell_length_b   10.94363302
_cell_length_c   16.52744452
_cell_angle_alpha   90.00000000
_cell_angle_beta   90.00000000
_cell_angle_gamma   90.00000000
_symmetry_Int_Tables_number   1
_chemical_formula_structural   CaBiMoO5
_chemical_formula_sum   'Ca8 Bi8 Mo8 O40'
_cell_volume   1001.37247223
_cell_formula_units_Z   8
loop_
 _symmetry_equiv_pos_site_id
 _symmetry_equiv_pos_as_xyz
  1  'x, y, z'
loop_
 _atom_site_type_symbol
 _atom_site_label
 _atom_site_symmetry_multiplicity
 _atom_site_fract_x
 _atom_site_fract_y
 _atom_site_fract_z
 _atom_site_occupancy
  Ca  Ca0  1  0.521781  0.362276  0.441962  1
  Ca  Ca1  1  0.021781  0.137724  0.441962  1
  Ca  Ca2  1  0.021781  0.637724  0.058038  1
  Ca  Ca3  1  0.978219  0.362276  0.941962  1
  Ca  Ca4  1  0.478219  0.137724  0.941962  1
  Ca  Ca5  1  0.978219  0.862276  0.558038  1
  Ca  Ca6  1  0.478219  0.637724  0.558038  1
  Ca  Ca7  1  0.521781  0.862276  0.058038  1
  Bi  Bi8  1  0.949609  0.852690  0.225342  1
  Bi  Bi9  1  0.050391  0.147310  0.774658  1
  Bi  Bi10  1  0.550391  0.352690  0.774658  1
  Bi  Bi11  1  0.050391  0.647310  0.725342  1
  Bi  Bi12  1  0.449609  0.147310  0.274658  1
  Bi  Bi13  1  0.449609  0.647310  0.225342  1
  Bi  Bi14  1  0.550391  0.852690  0.725342  1
  Bi  Bi15  1  0.949609  0.352690  0.274658  1
  Mo  Mo16  1  0.986541  0.377932  0.591045  1
  Mo  Mo17  1  0.513459  0.877932  0.408955  1
  Mo  Mo18  1  0.013459  0.622068  0.408955  1
  Mo  Mo19  1  0.486541  0.122068  0.591045  1
  Mo  Mo20  1  0.013459  0.122068  0.091045  1
  Mo  Mo21  1  0.986541  0.877932  0.908955  1
  Mo  Mo22  1  0.513459  0.377932  0.091045  1
  Mo  Mo23  1  0.486541  0.622068  0.908955  1
  O  O24  1  0.925858  0.324106  0.699583  1
  O  O25  1  0.277161  0.037570  0.054903  1
  O  O26  1  0.222839  0.537570  0.945097  1
  O  O27  1  0.244043  0.771218  0.150989  1
  O  O28  1  0.255957  0.271218  0.849011  1
  O  O29  1  0.925858  0.824106  0.800417  1
  O  O30  1  0.255957  0.771218  0.650989  1
  O  O31  1  0.574142  0.824106  0.300417  1
  O  O32  1  0.277161  0.537570  0.445097  1
  O  O33  1  0.074142  0.675894  0.300417  1
  O  O34  1  0.574142  0.324106  0.199583  1
  O  O35  1  0.724283  0.216073  0.537806  1
  O  O36  1  0.777161  0.962430  0.445097  1
  O  O37  1  0.755957  0.728782  0.650989  1
  O  O38  1  0.176378  0.017793  0.876441  1
  O  O39  1  0.777161  0.462430  0.054903  1
  O  O40  1  0.074142  0.175894  0.199583  1
  O  O41  1  0.744043  0.228782  0.349011  1
  O  O42  1  0.224283  0.783927  0.962194  1
  O  O43  1  0.222839  0.037570  0.554903  1
  O  O44  1  0.275717  0.783927  0.462194  1
  O  O45  1  0.823622  0.982207  0.123559  1
  O  O46  1  0.755957  0.228782  0.849011  1
  O  O47  1  0.676378  0.982207  0.623559  1
  O  O48  1  0.275717  0.283927  0.037806  1
  O  O49  1  0.224283  0.283927  0.537806  1
  O  O50  1  0.722839  0.462430  0.554903  1
  O  O51  1  0.722839  0.962430  0.945097  1
  O  O52  1  0.676378  0.482207  0.876441  1
  O  O53  1  0.775717  0.716073  0.462194  1
  O  O54  1  0.775717  0.216073  0.037806  1
  O  O55  1  0.724283  0.716073  0.962194  1
  O  O56  1  0.823622  0.482207  0.376441  1
  O  O57  1  0.744043  0.728782  0.150989  1
  O  O58  1  0.244043  0.271218  0.349011  1
  O  O59  1  0.176378  0.517793  0.623559  1
  O  O60  1  0.323622  0.517793  0.123559  1
  O  O61  1  0.425858  0.175894  0.699583  1
  O  O62  1  0.323622  0.017793  0.376441  1
  O  O63  1  0.425858  0.675894  0.800417  1
