# generated using pymatgen
data_Mg2Ti9O13
_symmetry_space_group_name_H-M   'P 1'
_cell_length_a   2.95076423
_cell_length_b   5.15235837
_cell_length_c   16.56438502
_cell_angle_alpha   98.94544510
_cell_angle_beta   89.96878280
_cell_angle_gamma   106.70029279
_symmetry_Int_Tables_number   1
_chemical_formula_structural   Mg2Ti9O13
_chemical_formula_sum   'Mg2 Ti9 O13'
_cell_volume   238.01942614
_cell_formula_units_Z   1
loop_
 _symmetry_equiv_pos_site_id
 _symmetry_equiv_pos_as_xyz
  1  'x, y, z'
loop_
 _atom_site_type_symbol
 _atom_site_label
 _atom_site_symmetry_multiplicity
 _atom_site_fract_x
 _atom_site_fract_y
 _atom_site_fract_z
 _atom_site_occupancy
  Mg  Mg0  1  0.216496  0.434228  0.226794  1
  Mg  Mg1  1  0.783504  0.565772  0.773206  1
  Ti  Ti2  1  0.500000  -0.000000  0.500000  1
  Ti  Ti3  1  0.655976  0.311275  0.036162  1
  Ti  Ti4  1  0.344024  0.688725  0.963838  1
  Ti  Ti5  1  0.764052  0.529010  0.425127  1
  Ti  Ti6  1  0.235948  0.470990  0.574873  1
  Ti  Ti7  1  0.934179  0.867492  0.117276  1
  Ti  Ti8  1  0.065821  0.132508  0.882724  1
  Ti  Ti9  1  0.992896  0.983007  0.335454  1
  Ti  Ti10  1  0.007104  0.016993  0.664546  1
  O  O11  1  -0.000000  -0.000000  0.000000  1
  O  O12  1  0.871930  0.743169  0.229686  1
  O  O13  1  0.128070  0.256831  0.770314  1
  O  O14  1  0.287334  0.573349  0.088192  1
  O  O15  1  0.712666  0.426651  0.911808  1
  O  O16  1  0.584947  0.167447  0.148277  1
  O  O17  1  0.415053  0.832553  0.851723  1
  O  O18  1  0.630864  0.258964  0.311367  1
  O  O19  1  0.369136  0.741036  0.688633  1
  O  O20  1  0.374077  0.746909  0.376742  1
  O  O21  1  0.625923  0.253091  0.623258  1
  O  O22  1  0.122973  0.246762  0.450557  1
  O  O23  1  0.877027  0.753238  0.549443  1
