# generated using pymatgen
data_MgTi3O7
_symmetry_space_group_name_H-M   'P 1'
_cell_length_a   5.43926330
_cell_length_b   10.40194061
_cell_length_c   10.14529944
_cell_angle_alpha   90.00000000
_cell_angle_beta   90.00000000
_cell_angle_gamma   90.00000000
_symmetry_Int_Tables_number   1
_chemical_formula_structural   MgTi3O7
_chemical_formula_sum   'Mg4 Ti12 O28'
_cell_volume   574.00981967
_cell_formula_units_Z   4
loop_
 _symmetry_equiv_pos_site_id
 _symmetry_equiv_pos_as_xyz
  1  'x, y, z'
loop_
 _atom_site_type_symbol
 _atom_site_label
 _atom_site_symmetry_multiplicity
 _atom_site_fract_x
 _atom_site_fract_y
 _atom_site_fract_z
 _atom_site_occupancy
  Mg  Mg0  1  0.626863  0.750000  0.939210  1
  Mg  Mg1  1  0.126863  0.250000  0.560790  1
  Mg  Mg2  1  0.373137  0.250000  0.060790  1
  Mg  Mg3  1  0.873137  0.750000  0.439210  1
  Ti  Ti4  1  0.289229  0.030607  0.312633  1
  Ti  Ti5  1  0.789229  0.969393  0.187367  1
  Ti  Ti6  1  0.710771  0.530607  0.687367  1
  Ti  Ti7  1  0.210771  0.469393  0.812633  1
  Ti  Ti8  1  0.300417  0.750000  0.220593  1
  Ti  Ti9  1  0.800417  0.250000  0.279407  1
  Ti  Ti10  1  0.699583  0.250000  0.779407  1
  Ti  Ti11  1  0.199583  0.750000  0.720593  1
  Ti  Ti12  1  0.789229  0.530607  0.187367  1
  Ti  Ti13  1  0.289229  0.469393  0.312633  1
  Ti  Ti14  1  0.210771  0.030607  0.812633  1
  Ti  Ti15  1  0.710771  0.969393  0.687367  1
  O  O16  1  0.949845  0.121564  0.713117  1
  O  O17  1  0.449845  0.878436  0.786883  1
  O  O18  1  0.050155  0.621564  0.286883  1
  O  O19  1  0.550155  0.378436  0.213117  1
  O  O20  1  0.050155  0.878436  0.286883  1
  O  O21  1  0.550155  0.121564  0.213117  1
  O  O22  1  0.949845  0.378436  0.713117  1
  O  O23  1  0.449845  0.621564  0.786883  1
  O  O24  1  0.472879  0.116748  0.719187  1
  O  O25  1  0.972879  0.883252  0.780813  1
  O  O26  1  0.527121  0.616748  0.280813  1
  O  O27  1  0.027121  0.383252  0.219187  1
  O  O28  1  0.527121  0.883252  0.280813  1
  O  O29  1  0.027121  0.116748  0.219187  1
  O  O30  1  0.472879  0.383252  0.719187  1
  O  O31  1  0.972879  0.616748  0.780813  1
  O  O32  1  0.179998  0.750000  0.553531  1
  O  O33  1  0.679998  0.250000  0.946469  1
  O  O34  1  0.820002  0.250000  0.446469  1
  O  O35  1  0.320002  0.750000  0.053531  1
  O  O36  1  0.223288  0.402404  0.964894  1
  O  O37  1  0.723288  0.597596  0.535106  1
  O  O38  1  0.776712  0.902404  0.035106  1
  O  O39  1  0.276712  0.097596  0.464894  1
  O  O40  1  0.776712  0.597596  0.035106  1
  O  O41  1  0.276712  0.402404  0.464894  1
  O  O42  1  0.223288  0.097596  0.964894  1
  O  O43  1  0.723288  0.902404  0.535106  1
