# generated using pymatgen
data_V2ZnS4
_symmetry_space_group_name_H-M   'P 1'
_cell_length_a   7.13363610
_cell_length_b   7.14195653
_cell_length_c   7.11843397
_cell_angle_alpha   59.86722564
_cell_angle_beta   59.99284872
_cell_angle_gamma   60.12081898
_symmetry_Int_Tables_number   1
_chemical_formula_structural   V2ZnS4
_chemical_formula_sum   'V4 Zn2 S8'
_cell_volume   256.40745228
_cell_formula_units_Z   2
loop_
 _symmetry_equiv_pos_site_id
 _symmetry_equiv_pos_as_xyz
  1  'x, y, z'
loop_
 _atom_site_type_symbol
 _atom_site_label
 _atom_site_symmetry_multiplicity
 _atom_site_fract_x
 _atom_site_fract_y
 _atom_site_fract_z
 _atom_site_occupancy
  V  V0  1  0.499636  0.499334  0.494343  1
  V  V1  1  0.494248  0.495669  0.016211  1
  V  V2  1  0.006414  0.499208  0.494733  1
  V  V3  1  0.499630  0.005048  0.495609  1
  Zn  Zn4  1  0.876600  0.876296  0.870732  1
  Zn  Zn5  1  0.125041  0.130124  0.119821  1
  S  S6  1  0.738971  0.736343  0.742840  1
  S  S7  1  0.259820  0.258486  0.721963  1
  S  S8  1  0.255113  0.730707  0.259029  1
  S  S9  1  0.726429  0.255807  0.261014  1
  S  S10  1  0.737896  0.280662  0.743192  1
  S  S11  1  0.281997  0.736142  0.742762  1
  S  S12  1  0.256831  0.255850  0.261005  1
  S  S13  1  0.741377  0.740320  0.276747  1
