# generated using pymatgen
data_ZnCo2(PO5)2
_symmetry_space_group_name_H-M   'P 1'
_cell_length_a   6.46080342
_cell_length_b   6.46080292
_cell_length_c   9.08544018
_cell_angle_alpha   102.03865496
_cell_angle_beta   102.03865332
_cell_angle_gamma   114.41839027
_symmetry_Int_Tables_number   1
_chemical_formula_structural   ZnCo2(PO5)2
_chemical_formula_sum   'Zn2 Co4 P4 O20'
_cell_volume   318.68517529
_cell_formula_units_Z   2
loop_
 _symmetry_equiv_pos_site_id
 _symmetry_equiv_pos_as_xyz
  1  'x, y, z'
loop_
 _atom_site_type_symbol
 _atom_site_label
 _atom_site_symmetry_multiplicity
 _atom_site_fract_x
 _atom_site_fract_y
 _atom_site_fract_z
 _atom_site_occupancy
  Zn  Zn0  1  0.494595  0.994595  0.500000  1
  Zn  Zn1  1  0.244595  0.244595  1.000000  1
  Co  Co2  1  0.871907  0.617698  0.251814  1
  Co  Co3  1  0.365883  0.620091  0.748186  1
  Co  Co4  1  0.870091  0.115883  0.248186  1
  Co  Co5  1  0.867698  0.621907  0.751814  1
  P  P6  1  0.036934  0.037495  0.584140  1
  P  P7  1  0.702795  0.203355  0.915860  1
  P  P8  1  0.453355  0.452795  0.415860  1
  P  P9  1  0.287495  0.786934  0.084140  1
  O  O10  1  0.583052  0.555672  0.301967  1
  O  O11  1  0.660423  0.662345  0.832537  1
  O  O12  1  0.313255  0.583962  0.976397  1
  O  O13  1  0.805672  0.333052  0.801967  1
  O  O14  1  0.211466  0.236262  0.299213  1
  O  O15  1  0.424931  0.654479  0.522607  1
  O  O16  1  0.077886  0.579807  0.667463  1
  O  O17  1  0.829807  0.827886  0.167463  1
  O  O18  1  0.912345  0.410423  0.332537  1
  O  O19  1  0.162253  0.687051  0.200787  1
  O  O20  1  0.253705  0.281086  0.698033  1
  O  O21  1  0.486262  0.961466  0.799213  1
  O  O22  1  0.937051  0.912253  0.700787  1
  O  O23  1  0.152326  0.881873  0.977393  1
  O  O24  1  0.131873  0.902326  0.477393  1
  O  O25  1  0.904479  0.174931  0.022607  1
  O  O26  1  0.833962  0.063255  0.476397  1
  O  O27  1  0.607564  0.336857  0.023603  1
  O  O28  1  0.531086  0.003705  0.198033  1
  O  O29  1  0.586857  0.357564  0.523603  1
