# generated using pymatgen
data_Ca(BiO2)2
_symmetry_space_group_name_H-M   'P 1'
_cell_length_a   7.05530746
_cell_length_b   7.04685948
_cell_length_c   7.04685913
_cell_angle_alpha   59.99998811
_cell_angle_beta   60.03960290
_cell_angle_gamma   60.03960290
_symmetry_Int_Tables_number   1
_chemical_formula_structural   Ca(BiO2)2
_chemical_formula_sum   'Ca2 Bi4 O8'
_cell_volume   247.88589588
_cell_formula_units_Z   2
loop_
 _symmetry_equiv_pos_site_id
 _symmetry_equiv_pos_as_xyz
  1  'x, y, z'
loop_
 _atom_site_type_symbol
 _atom_site_label
 _atom_site_symmetry_multiplicity
 _atom_site_fract_x
 _atom_site_fract_y
 _atom_site_fract_z
 _atom_site_occupancy
  Ca  Ca0  1  0.993564  0.002145  0.002145  1
  Ca  Ca1  1  0.124188  0.625271  0.625271  1
  Bi  Bi2  1  0.256902  0.247700  0.247700  1
  Bi  Bi3  1  0.629962  0.118353  0.625842  1
  Bi  Bi4  1  0.629962  0.625842  0.118353  1
  Bi  Bi5  1  0.629962  0.625842  0.625842  1
  O  O6  1  0.379151  0.383368  0.383368  1
  O  O7  1  0.379151  0.383368  0.854110  1
  O  O8  1  0.379151  0.854110  0.383368  1
  O  O9  1  0.863253  0.378915  0.378915  1
  O  O10  1  0.401109  0.866297  0.866297  1
  O  O11  1  0.861215  0.407130  0.865827  1
  O  O12  1  0.861215  0.865827  0.407130  1
  O  O13  1  0.861215  0.865827  0.865827  1
