# generated using pymatgen
data_BaYCuAgO5
_symmetry_space_group_name_H-M   'P 1'
_cell_length_a   3.98280174
_cell_length_b   3.98189561
_cell_length_c   8.01243804
_cell_angle_alpha   90.00000543
_cell_angle_beta   90.00002202
_cell_angle_gamma   90.00000000
_symmetry_Int_Tables_number   1
_chemical_formula_structural   BaYCuAgO5
_chemical_formula_sum   'Ba1 Y1 Cu1 Ag1 O5'
_cell_volume   127.07006224
_cell_formula_units_Z   1
loop_
 _symmetry_equiv_pos_site_id
 _symmetry_equiv_pos_as_xyz
  1  'x, y, z'
loop_
 _atom_site_type_symbol
 _atom_site_label
 _atom_site_symmetry_multiplicity
 _atom_site_fract_x
 _atom_site_fract_y
 _atom_site_fract_z
 _atom_site_occupancy
  Ba  Ba0  1  0.000001  0.999999  0.998636  1
  Y  Y1  1  0.000000  0.000000  0.456580  1
  Cu  Cu2  1  0.499999  0.499998  0.238210  1
  Ag  Ag3  1  0.500000  0.500000  0.695839  1
  O  O4  1  1.000000  0.500000  0.626540  1
  O  O5  1  0.500000  1.000000  0.626507  1
  O  O6  1  0.999999  0.500000  0.279654  1
  O  O7  1  0.499998  0.999999  0.279651  1
  O  O8  1  0.499999  0.500000  0.986300  1
