# generated using pymatgen
data_Ba2Ti2AlF11
_symmetry_space_group_name_H-M   'P 1'
_cell_length_a   7.43537165
_cell_length_b   7.43591837
_cell_length_c   14.31120782
_cell_angle_alpha   89.97532065
_cell_angle_beta   90.01523252
_cell_angle_gamma   119.97364969
_symmetry_Int_Tables_number   1
_chemical_formula_structural   Ba2Ti2AlF11
_chemical_formula_sum   'Ba6 Ti6 Al3 F33'
_cell_volume   685.42419059
_cell_formula_units_Z   3
loop_
 _symmetry_equiv_pos_site_id
 _symmetry_equiv_pos_as_xyz
  1  'x, y, z'
loop_
 _atom_site_type_symbol
 _atom_site_label
 _atom_site_symmetry_multiplicity
 _atom_site_fract_x
 _atom_site_fract_y
 _atom_site_fract_z
 _atom_site_occupancy
  Ba  Ba0  1  0.535427  0.209410  0.659064  1
  Ba  Ba1  1  0.184230  0.516704  0.795630  1
  Ba  Ba2  1  0.674074  0.465391  0.992117  1
  Ba  Ba3  1  0.483313  0.667881  0.462480  1
  Ba  Ba4  1  0.332472  0.816518  0.128958  1
  Ba  Ba5  1  0.790693  0.326287  0.325708  1
  Ti  Ti6  1  0.672809  0.970710  0.875452  1
  Ti  Ti7  1  0.792364  0.782936  0.744765  1
  Ti  Ti8  1  0.216767  0.008973  0.411920  1
  Ti  Ti9  1  0.298282  0.327925  0.209442  1
  Ti  Ti10  1  0.990790  0.207640  0.078674  1
  Ti  Ti11  1  0.029508  0.701601  0.542680  1
  Al  Al12  1  0.187189  0.016499  0.872787  1
  Al  Al13  1  0.829258  0.812650  0.206428  1
  Al  Al14  1  0.983256  0.170500  0.539960  1
  F  F15  1  0.692086  0.094292  0.022834  1
  F  F16  1  0.483845  0.717219  0.948268  1
  F  F17  1  0.401510  0.307562  0.356418  1
  F  F18  1  0.063008  0.434403  0.490851  1
  F  F19  1  0.501413  0.222126  0.179505  1
  F  F20  1  0.907938  0.620955  0.192295  1
  F  F21  1  0.565528  0.629026  0.156973  1
  F  F22  1  0.379355  0.286736  0.858735  1
  F  F23  1  0.720640  0.499091  0.512613  1
  F  F24  1  0.292379  0.316224  0.065132  1
  F  F25  1  0.370904  0.936565  0.823441  1
  F  F26  1  0.906533  0.598064  0.689473  1
  F  F27  1  0.267723  0.988306  0.983993  1
  F  F28  1  0.039926  0.480039  0.026398  1
  F  F29  1  0.720492  0.731571  0.317609  1
  F  F30  1  0.283455  0.767196  0.615669  1
  F  F31  1  0.999413  0.100661  0.914182  1
  F  F32  1  0.024526  0.707579  0.398384  1
  F  F33  1  0.974266  0.080912  0.418927  1
  F  F34  1  0.010880  0.278961  0.651197  1
  F  F35  1  0.106362  0.025613  0.751853  1
  F  F36  1  0.519405  0.559004  0.693076  1
  F  F37  1  0.440621  0.960196  0.359774  1
  F  F38  1  0.101323  0.000453  0.247690  1
  F  F39  1  0.682746  0.975042  0.731088  1
  F  F40  1  0.778011  0.279248  0.845402  1
  F  F41  1  0.234279  0.517282  0.282366  1
  F  F42  1  0.974386  0.744692  0.866809  1
  F  F43  1  0.769922  0.025119  0.200458  1
  F  F44  1  0.919421  0.893759  0.085499  1
  F  F45  1  0.712889  0.091980  0.525920  1
  F  F46  1  0.899298  0.898630  0.581098  1
  F  F47  1  0.255083  0.229869  0.533903  1
