# generated using pymatgen
data_BaCaSnF7
_symmetry_space_group_name_H-M   'P 1'
_cell_length_a   5.91530673
_cell_length_b   9.95213184
_cell_length_c   10.79982747
_cell_angle_alpha   90.00000000
_cell_angle_beta   90.00000000
_cell_angle_gamma   91.67041511
_symmetry_Int_Tables_number   1
_chemical_formula_structural   BaCaSnF7
_chemical_formula_sum   'Ba4 Ca4 Sn4 F28'
_cell_volume   635.51471735
_cell_formula_units_Z   4
loop_
 _symmetry_equiv_pos_site_id
 _symmetry_equiv_pos_as_xyz
  1  'x, y, z'
loop_
 _atom_site_type_symbol
 _atom_site_label
 _atom_site_symmetry_multiplicity
 _atom_site_fract_x
 _atom_site_fract_y
 _atom_site_fract_z
 _atom_site_occupancy
  Ba  Ba0  1  0.268409  0.502414  0.320122  1
  Ba  Ba1  1  0.731591  0.997586  0.820122  1
  Ba  Ba2  1  0.731591  0.497586  0.679878  1
  Ba  Ba3  1  0.268409  0.002414  0.179878  1
  Ca  Ca4  1  0.712478  0.818374  0.415452  1
  Ca  Ca5  1  0.287522  0.681626  0.915452  1
  Ca  Ca6  1  0.712478  0.318374  0.084548  1
  Ca  Ca7  1  0.287522  0.181626  0.584548  1
  Sn  Sn8  1  0.219303  0.793179  0.607740  1
  Sn  Sn9  1  0.780697  0.206821  0.392260  1
  Sn  Sn10  1  0.219303  0.293179  0.892260  1
  Sn  Sn11  1  0.780697  0.706821  0.107740  1
  F  F12  1  0.093369  0.106533  0.415792  1
  F  F13  1  0.354999  0.398911  0.051327  1
  F  F14  1  0.506696  0.748991  0.741089  1
  F  F15  1  0.493304  0.251009  0.258911  1
  F  F16  1  0.991355  0.357337  0.492739  1
  F  F17  1  0.282324  0.484868  0.792639  1
  F  F18  1  0.019483  0.726227  0.770043  1
  F  F19  1  0.008645  0.142663  0.992739  1
  F  F20  1  0.354999  0.898911  0.448673  1
  F  F21  1  0.493304  0.751009  0.241089  1
  F  F22  1  0.093369  0.606533  0.084208  1
  F  F23  1  0.906631  0.893467  0.584208  1
  F  F24  1  0.980517  0.773773  0.270043  1
  F  F25  1  0.486348  0.858991  0.996384  1
  F  F26  1  0.008645  0.642663  0.507261  1
  F  F27  1  0.991355  0.857337  0.007261  1
  F  F28  1  0.980517  0.273773  0.229957  1
  F  F29  1  0.906631  0.393467  0.915792  1
  F  F30  1  0.513652  0.641009  0.496384  1
  F  F31  1  0.645001  0.601089  0.948673  1
  F  F32  1  0.513652  0.141009  0.003616  1
  F  F33  1  0.019483  0.226227  0.729957  1
  F  F34  1  0.486348  0.358991  0.503616  1
  F  F35  1  0.717676  0.015132  0.292639  1
  F  F36  1  0.717676  0.515132  0.207361  1
  F  F37  1  0.282324  0.984868  0.707361  1
  F  F38  1  0.645001  0.101089  0.551327  1
  F  F39  1  0.506696  0.248991  0.758911  1
