# generated using pymatgen
data_MgV4O10
_symmetry_space_group_name_H-M   'P 1'
_cell_length_a   3.66456756
_cell_length_b   5.47681054
_cell_length_c   11.33775690
_cell_angle_alpha   90.00000000
_cell_angle_beta   90.00000000
_cell_angle_gamma   109.54536267
_symmetry_Int_Tables_number   1
_chemical_formula_structural   MgV4O10
_chemical_formula_sum   'Mg1 V4 O10'
_cell_volume   214.43823710
_cell_formula_units_Z   1
loop_
 _symmetry_equiv_pos_site_id
 _symmetry_equiv_pos_as_xyz
  1  'x, y, z'
loop_
 _atom_site_type_symbol
 _atom_site_label
 _atom_site_symmetry_multiplicity
 _atom_site_fract_x
 _atom_site_fract_y
 _atom_site_fract_z
 _atom_site_occupancy
  Mg  Mg0  1  0.895272  0.790541  0.750000  1
  V  V1  1  0.200297  0.400595  0.600669  1
  V  V2  1  0.790430  0.580861  0.399025  1
  V  V3  1  0.790430  0.580861  0.100975  1
  V  V4  1  0.200297  0.400595  0.899331  1
  O  O5  1  0.725610  0.451221  0.250000  1
  O  O6  1  0.303405  0.606811  0.750000  1
  O  O7  1  0.243085  0.486168  0.069322  1
  O  O8  1  0.763380  0.526760  0.922939  1
  O  O9  1  0.763380  0.526760  0.577061  1
  O  O10  1  0.243085  0.486168  0.430677  1
  O  O11  1  0.041997  0.083993  0.629925  1
  O  O12  1  0.944361  0.888722  0.382214  1
  O  O13  1  0.041997  0.083993  0.870075  1
  O  O14  1  0.944361  0.888722  0.117787  1
