# generated using pymatgen
data_Mg2SbWO6
_symmetry_space_group_name_H-M   'P 1'
_cell_length_a   7.19609056
_cell_length_b   7.83691925
_cell_length_c   7.27379523
_cell_angle_alpha   81.68215429
_cell_angle_beta   132.58977647
_cell_angle_gamma   135.92841250
_symmetry_Int_Tables_number   1
_chemical_formula_structural   Mg2SbWO6
_chemical_formula_sum   'Mg2 Sb1 W1 O6'
_cell_volume   156.50664404
_cell_formula_units_Z   1
loop_
 _symmetry_equiv_pos_site_id
 _symmetry_equiv_pos_as_xyz
  1  'x, y, z'
loop_
 _atom_site_type_symbol
 _atom_site_label
 _atom_site_symmetry_multiplicity
 _atom_site_fract_x
 _atom_site_fract_y
 _atom_site_fract_z
 _atom_site_occupancy
  Mg  Mg0  1  0.062174  0.710518  0.322658  1
  Mg  Mg1  1  0.839058  0.559382  0.674966  1
  Sb  Sb2  1  0.835854  0.996345  0.392539  1
  W  W3  1  0.023480  0.963653  0.000367  1
  O  O4  1  0.259777  0.077178  0.403682  1
  O  O5  1  0.892914  0.850304  0.651450  1
  O  O6  1  0.676908  0.425171  0.323016  1
  O  O7  1  0.651518  0.937484  0.770942  1
  O  O8  1  0.276715  0.834901  0.155982  1
  O  O9  1  0.458508  0.467724  0.795062  1
