# generated using pymatgen
data_Zn4Cr5(TeO6)3
_symmetry_space_group_name_H-M   'P 1'
_cell_length_a   8.72837596
_cell_length_b   8.72837616
_cell_length_c   10.57415321
_cell_angle_alpha   85.33588484
_cell_angle_beta   85.33588545
_cell_angle_gamma   63.22635076
_symmetry_Int_Tables_number   1
_chemical_formula_structural   Zn4Cr5(TeO6)3
_chemical_formula_sum   'Zn8 Cr10 Te6 O36'
_cell_volume   715.93647125
_cell_formula_units_Z   2
loop_
 _symmetry_equiv_pos_site_id
 _symmetry_equiv_pos_as_xyz
  1  'x, y, z'
loop_
 _atom_site_type_symbol
 _atom_site_label
 _atom_site_symmetry_multiplicity
 _atom_site_fract_x
 _atom_site_fract_y
 _atom_site_fract_z
 _atom_site_occupancy
  Zn  Zn0  1  0.863926  0.544482  0.316678  1
  Zn  Zn1  1  0.482217  0.573215  0.213954  1
  Zn  Zn2  1  0.455518  0.136074  0.683322  1
  Zn  Zn3  1  0.426785  0.517783  0.786046  1
  Zn  Zn4  1  0.181376  0.873907  0.713862  1
  Zn  Zn5  1  0.152889  0.255735  0.816602  1
  Zn  Zn6  1  0.744265  0.847111  0.183398  1
  Zn  Zn7  1  0.126093  0.818624  0.286138  1
  Cr  Cr8  1  0.796224  0.511652  0.978286  1
  Cr  Cr9  1  0.119883  0.188062  0.478092  1
  Cr  Cr10  1  0.327356  0.342758  0.291909  1
  Cr  Cr11  1  0.950962  0.718983  0.791915  1
  Cr  Cr12  1  0.657242  0.672644  0.708091  1
  Cr  Cr13  1  0.975390  0.024610  1.000000  1
  Cr  Cr14  1  0.633203  0.366797  0.500000  1
  Cr  Cr15  1  0.281017  0.049039  0.208085  1
  Cr  Cr16  1  0.811938  0.880117  0.521908  1
  Cr  Cr17  1  0.488348  0.203776  0.021714  1
  Te  Te18  1  0.450110  0.861053  0.957860  1
  Te  Te19  1  0.804130  0.195682  0.249973  1
  Te  Te20  1  0.804318  0.195870  0.750027  1
  Te  Te21  1  0.469315  0.841972  0.457927  1
  Te  Te22  1  0.158028  0.530685  0.542073  1
  Te  Te23  1  0.138947  0.549890  0.042140  1
  O  O24  1  0.395205  0.140229  0.872568  1
  O  O25  1  0.722924  0.446498  0.813930  1
  O  O26  1  0.562477  0.608065  0.562709  1
  O  O27  1  0.724009  0.127244  0.429878  1
  O  O28  1  0.553502  0.277076  0.186070  1
  O  O29  1  0.872756  0.275991  0.570122  1
  O  O30  1  0.361310  0.808463  0.292017  1
  O  O31  1  0.050080  0.088638  0.826162  1
  O  O32  1  0.558594  0.302989  0.674034  1
  O  O33  1  0.087093  0.417764  0.389344  1
  O  O34  1  0.554898  0.627469  0.045991  1
  O  O35  1  0.521287  0.973985  0.110420  1
  O  O36  1  0.885430  0.945051  0.686209  1
  O  O37  1  0.724985  0.736032  0.867309  1
  O  O38  1  0.372531  0.445102  0.954009  1
  O  O39  1  0.247143  0.583304  0.208071  1
  O  O40  1  0.053167  0.764434  0.454018  1
  O  O41  1  0.263968  0.275015  0.132691  1
  O  O42  1  0.391935  0.437523  0.437291  1
  O  O43  1  0.235566  0.946833  0.545982  1
  O  O44  1  0.748301  0.786819  0.372667  1
  O  O45  1  0.883193  0.655595  0.632792  1
  O  O46  1  0.911362  0.949920  0.173838  1
  O  O47  1  0.416696  0.752857  0.791929  1
  O  O48  1  0.045942  0.783654  0.937108  1
  O  O49  1  0.735735  0.116227  0.929236  1
  O  O50  1  0.026015  0.478713  0.889580  1
  O  O51  1  0.191537  0.638690  0.707983  1
  O  O52  1  0.054949  0.114570  0.313791  1
  O  O53  1  0.344405  0.116807  0.367208  1
  O  O54  1  0.213181  0.251699  0.627333  1
  O  O55  1  0.883773  0.264265  0.070764  1
  O  O56  1  0.697011  0.441406  0.325966  1
  O  O57  1  0.582236  0.912907  0.610656  1
  O  O58  1  0.216346  0.954058  0.062892  1
  O  O59  1  0.859771  0.604795  0.127432  1
