# generated using pymatgen
data_Mg2TaWO6
_symmetry_space_group_name_H-M   'P 1'
_cell_length_a   5.36643519
_cell_length_b   5.46125594
_cell_length_c   7.75489777
_cell_angle_alpha   90.00000000
_cell_angle_beta   90.00000000
_cell_angle_gamma   88.45144943
_symmetry_Int_Tables_number   1
_chemical_formula_structural   Mg2TaWO6
_chemical_formula_sum   'Mg4 Ta2 W2 O12'
_cell_volume   227.19347581
_cell_formula_units_Z   2
loop_
 _symmetry_equiv_pos_site_id
 _symmetry_equiv_pos_as_xyz
  1  'x, y, z'
loop_
 _atom_site_type_symbol
 _atom_site_label
 _atom_site_symmetry_multiplicity
 _atom_site_fract_x
 _atom_site_fract_y
 _atom_site_fract_z
 _atom_site_occupancy
  Mg  Mg0  1  0.992580  0.966547  0.250000  1
  Mg  Mg1  1  0.503518  0.454527  0.250000  1
  Mg  Mg2  1  0.496482  0.545473  0.750000  1
  Mg  Mg3  1  0.007420  0.033453  0.750000  1
  Ta  Ta4  1  0.000000  0.500000  0.000000  1
  Ta  Ta5  1  0.000000  0.500000  0.500000  1
  W  W6  1  0.500000  0.000000  0.000000  1
  W  W7  1  0.500000  0.000000  0.500000  1
  O  O8  1  0.844770  0.814867  0.569844  1
  O  O9  1  0.311157  0.664131  0.431452  1
  O  O10  1  0.155230  0.185133  0.430156  1
  O  O11  1  0.688843  0.335869  0.931452  1
  O  O12  1  0.128270  0.425584  0.750000  1
  O  O13  1  0.688843  0.335869  0.568548  1
  O  O14  1  0.311157  0.664131  0.068548  1
  O  O15  1  0.844770  0.814867  0.930156  1
  O  O16  1  0.638980  0.098108  0.250000  1
  O  O17  1  0.155230  0.185133  0.069844  1
  O  O18  1  0.361020  0.901892  0.750000  1
  O  O19  1  0.871730  0.574416  0.250000  1
