# generated using pymatgen
data_Ba2YBi3O8
_symmetry_space_group_name_H-M   'P 1'
_cell_length_a   4.40152785
_cell_length_b   4.40152720
_cell_length_c   13.61770295
_cell_angle_alpha   89.99995233
_cell_angle_beta   89.99994043
_cell_angle_gamma   89.99999492
_symmetry_Int_Tables_number   1
_chemical_formula_structural   Ba2YBi3O8
_chemical_formula_sum   'Ba2 Y1 Bi3 O8'
_cell_volume   263.82181305
_cell_formula_units_Z   1
loop_
 _symmetry_equiv_pos_site_id
 _symmetry_equiv_pos_as_xyz
  1  'x, y, z'
loop_
 _atom_site_type_symbol
 _atom_site_label
 _atom_site_symmetry_multiplicity
 _atom_site_fract_x
 _atom_site_fract_y
 _atom_site_fract_z
 _atom_site_occupancy
  Ba  Ba0  1  0.500000  0.500000  0.144820  1
  Ba  Ba1  1  0.500001  0.500000  0.855180  1
  Y  Y2  1  0.500001  0.500002  0.500000  1
  Bi  Bi3  1  -0.000000  1.000000  0.345925  1
  Bi  Bi4  1  0.000000  0.000001  1.000000  1
  Bi  Bi5  1  0.000000  0.000001  0.654075  1
  O  O6  1  1.000000  0.500000  0.400907  1
  O  O7  1  0.500000  0.999997  0.400907  1
  O  O8  1  0.500000  0.999999  0.000000  1
  O  O9  1  0.999999  1.000000  0.179622  1
  O  O10  1  -0.000000  0.500002  0.599093  1
  O  O11  1  0.499999  0.999999  0.599093  1
  O  O12  1  0.999999  0.000000  0.820378  1
  O  O13  1  0.000000  0.499999  1.000000  1
