# generated using pymatgen
data_YCrO3
_symmetry_space_group_name_H-M   'P 1'
_cell_length_a   6.08692799
_cell_length_b   6.08692767
_cell_length_c   12.01284598
_cell_angle_alpha   90.00000000
_cell_angle_beta   90.00000000
_cell_angle_gamma   120.00000170
_symmetry_Int_Tables_number   1
_chemical_formula_structural   YCrO3
_chemical_formula_sum   'Y6 Cr6 O18'
_cell_volume   385.45424953
_cell_formula_units_Z   6
loop_
 _symmetry_equiv_pos_site_id
 _symmetry_equiv_pos_as_xyz
  1  'x, y, z'
loop_
 _atom_site_type_symbol
 _atom_site_label
 _atom_site_symmetry_multiplicity
 _atom_site_fract_x
 _atom_site_fract_y
 _atom_site_fract_z
 _atom_site_occupancy
  Y  Y0  1  0.666667  0.333333  0.233658  1
  Y  Y1  1  0.333333  0.666667  0.733658  1
  Y  Y2  1  0.666667  0.333333  0.733658  1
  Y  Y3  1  0.333333  0.666667  0.233658  1
  Y  Y4  1  0.000000  0.000000  0.776756  1
  Y  Y5  1  0.000000  0.000000  0.276756  1
  Cr  Cr6  1  0.666584  0.000000  0.501159  1
  Cr  Cr7  1  0.666584  0.666584  0.001159  1
  Cr  Cr8  1  1.000000  0.333416  0.001159  1
  Cr  Cr9  1  0.000000  0.666584  0.501159  1
  Cr  Cr10  1  0.333416  0.333416  0.501159  1
  Cr  Cr11  1  0.333416  0.000000  0.001159  1
  O  O12  1  0.666667  0.333333  0.019132  1
  O  O13  1  0.333333  0.666667  0.519132  1
  O  O14  1  0.666667  0.333333  0.519132  1
  O  O15  1  0.333333  0.666667  0.019132  1
  O  O16  1  0.000000  0.000000  0.979551  1
  O  O17  1  0.000000  0.000000  0.479551  1
  O  O18  1  0.360061  0.000000  0.838733  1
  O  O19  1  0.360061  0.360061  0.338733  1
  O  O20  1  0.000000  0.639939  0.338733  1
  O  O21  1  1.000000  0.360061  0.838733  1
  O  O22  1  0.639939  0.639939  0.838733  1
  O  O23  1  0.639939  0.000000  0.338733  1
  O  O24  1  0.306622  0.000000  0.164479  1
  O  O25  1  0.306622  0.306622  0.664479  1
  O  O26  1  1.000000  0.693378  0.664479  1
  O  O27  1  0.000000  0.306622  0.164479  1
  O  O28  1  0.693378  0.693378  0.164479  1
  O  O29  1  0.693378  0.000000  0.664479  1
