# generated using pymatgen
data_Al4(CoO4)3
_symmetry_space_group_name_H-M   'P 1'
_cell_length_a   5.74957520
_cell_length_b   5.75293608
_cell_length_c   17.13615617
_cell_angle_alpha   59.47089737
_cell_angle_beta   59.74734714
_cell_angle_gamma   59.98023136
_symmetry_Int_Tables_number   1
_chemical_formula_structural   Al4(CoO4)3
_chemical_formula_sum   'Al8 Co6 O24'
_cell_volume   398.34853705
_cell_formula_units_Z   2
loop_
 _symmetry_equiv_pos_site_id
 _symmetry_equiv_pos_as_xyz
  1  'x, y, z'
loop_
 _atom_site_type_symbol
 _atom_site_label
 _atom_site_symmetry_multiplicity
 _atom_site_fract_x
 _atom_site_fract_y
 _atom_site_fract_z
 _atom_site_occupancy
  Al  Al0  1  0.124692  0.625202  0.208607  1
  Al  Al1  1  0.625083  0.128779  0.207268  1
  Al  Al2  1  0.623125  0.626416  0.208434  1
  Al  Al3  1  0.128322  0.633220  0.538366  1
  Al  Al4  1  0.625663  0.633467  0.538309  1
  Al  Al5  1  0.121234  0.621392  0.876463  1
  Al  Al6  1  0.624532  0.625693  0.708422  1
  Al  Al7  1  0.626874  0.618663  0.876561  1
  Co  Co8  1  0.006168  0.984405  0.000268  1
  Co  Co9  1  0.008456  0.004249  0.326520  1
  Co  Co10  1  0.616040  0.626520  0.046569  1
  Co  Co11  1  0.241345  0.247491  0.423615  1
  Co  Co12  1  0.001981  0.992399  0.667652  1
  Co  Co13  1  0.249641  0.260067  0.746186  1
  O  O14  1  0.390315  0.395214  0.131539  1
  O  O15  1  0.378148  0.377597  0.288261  1
  O  O16  1  0.388361  0.825174  0.132141  1
  O  O17  1  0.819088  0.396515  0.131363  1
  O  O18  1  0.392979  0.887626  0.278406  1
  O  O19  1  0.343723  0.382865  0.463703  1
  O  O20  1  0.884085  0.392093  0.279575  1
  O  O21  1  0.378692  0.406569  0.612953  1
  O  O22  1  0.371859  0.855861  0.467652  1
  O  O23  1  0.859190  0.862414  0.139645  1
  O  O24  1  0.883404  0.383085  0.463598  1
  O  O25  1  0.885076  0.887825  0.278302  1
  O  O26  1  0.366191  0.411448  0.788541  1
  O  O27  1  0.394404  0.840206  0.627611  1
  O  O28  1  0.861436  0.415294  0.621282  1
  O  O29  1  0.375452  0.413791  0.944043  1
  O  O30  1  0.888707  0.844170  0.460132  1
  O  O31  1  0.386421  0.848757  0.792490  1
  O  O32  1  0.854920  0.407799  0.789138  1
  O  O33  1  0.883291  0.839640  0.627620  1
  O  O34  1  0.395956  0.828954  0.962776  1
  O  O35  1  0.866178  0.404143  0.954010  1
  O  O36  1  0.878963  0.842177  0.798863  1
  O  O37  1  0.881715  0.832346  0.962356  1
