# generated using pymatgen
data_Al4Cu13Si2(SbO14)2
_symmetry_space_group_name_H-M   'P 1'
_cell_length_a   5.44010435
_cell_length_b   8.49890014
_cell_length_c   11.96500118
_cell_angle_alpha   87.68188872
_cell_angle_beta   77.01576041
_cell_angle_gamma   80.54458313
_symmetry_Int_Tables_number   1
_chemical_formula_structural   Al4Cu13Si2(SbO14)2
_chemical_formula_sum   'Al4 Cu13 Si2 Sb2 O28'
_cell_volume   531.72902362
_cell_formula_units_Z   1
loop_
 _symmetry_equiv_pos_site_id
 _symmetry_equiv_pos_as_xyz
  1  'x, y, z'
loop_
 _atom_site_type_symbol
 _atom_site_label
 _atom_site_symmetry_multiplicity
 _atom_site_fract_x
 _atom_site_fract_y
 _atom_site_fract_z
 _atom_site_occupancy
  Al  Al0  1  0.075205  0.666275  0.428696  1
  Al  Al1  1  0.496190  0.330844  0.429063  1
  Al  Al2  1  0.924866  0.332956  0.571623  1
  Al  Al3  1  0.503914  0.667319  0.571546  1
  Cu  Cu4  1  0.916463  0.638359  0.713089  1
  Cu  Cu5  1  0.680469  0.357226  0.141888  1
  Cu  Cu6  1  0.371633  0.360543  0.712712  1
  Cu  Cu7  1  0.087984  0.360669  0.287005  1
  Cu  Cu8  1  0.334220  0.642084  0.858352  1
  Cu  Cu9  1  0.291979  0.998937  0.417958  1
  Cu  Cu10  1  0.192722  0.642154  0.141483  1
  Cu  Cu11  1  0.001623  0.998329  0.999633  1
  Cu  Cu12  1  0.431411  0.997334  0.144811  1
  Cu  Cu13  1  0.807039  0.355461  0.858041  1
  Cu  Cu14  1  0.630234  0.639844  0.289103  1
  Cu  Cu15  1  0.574002  0.998733  0.854498  1
  Cu  Cu16  1  0.709356  0.999865  0.582126  1
  Si  Si17  1  0.223798  0.314202  0.000584  1
  Si  Si18  1  0.780258  0.682023  0.000140  1
  Sb  Sb19  1  0.861399  0.000439  0.280403  1
  Sb  Sb20  1  0.140905  0.999449  0.719759  1
  O  O21  1  0.661170  0.406403  0.299301  1
  O  O22  1  0.160617  0.365209  0.448794  1
  O  O23  1  0.917533  0.345093  0.999077  1
  O  O24  1  0.303286  0.115071  0.000577  1
  O  O25  1  0.839597  0.634204  0.551637  1
  O  O26  1  0.334792  0.593679  0.700975  1
  O  O27  1  0.996402  0.116371  0.589478  1
  O  O28  1  0.004305  0.882880  0.410712  1
  O  O29  1  0.699622  0.881090  0.001276  1
  O  O30  1  0.125476  0.879005  0.151767  1
  O  O31  1  0.270682  0.388761  0.118158  1
  O  O32  1  0.034386  0.594031  0.298920  1
  O  O33  1  0.414215  0.883752  0.588960  1
  O  O34  1  0.715870  0.125673  0.154200  1
  O  O35  1  0.616193  0.605672  0.118014  1
  O  O36  1  0.086089  0.650450  0.999636  1
  O  O37  1  0.280769  0.877819  0.847657  1
  O  O38  1  0.874212  0.119074  0.848731  1
  O  O39  1  0.587000  0.114700  0.411889  1
  O  O40  1  0.139171  0.130691  0.280842  1
  O  O41  1  0.862086  0.868834  0.719402  1
  O  O42  1  0.390565  0.387576  0.882766  1
  O  O43  1  0.418768  0.130380  0.719698  1
  O  O44  1  0.608989  0.364714  0.551654  1
  O  O45  1  0.727692  0.609969  0.882696  1
  O  O46  1  0.583046  0.869862  0.278854  1
  O  O47  1  0.965456  0.405036  0.701380  1
  O  O48  1  0.391114  0.636104  0.448387  1
