# generated using pymatgen
data_Zn(FeO2)2
_symmetry_space_group_name_H-M   'P 1'
_cell_length_a   4.97723156
_cell_length_b   5.76948540
_cell_length_c   10.21706122
_cell_angle_alpha   89.32169695
_cell_angle_beta   90.97028258
_cell_angle_gamma   89.97160263
_symmetry_Int_Tables_number   1
_chemical_formula_structural   Zn(FeO2)2
_chemical_formula_sum   'Zn4 Fe8 O16'
_cell_volume   293.33109503
_cell_formula_units_Z   4
loop_
 _symmetry_equiv_pos_site_id
 _symmetry_equiv_pos_as_xyz
  1  'x, y, z'
loop_
 _atom_site_type_symbol
 _atom_site_label
 _atom_site_symmetry_multiplicity
 _atom_site_fract_x
 _atom_site_fract_y
 _atom_site_fract_z
 _atom_site_occupancy
  Zn  Zn0  1  0.850769  0.247754  0.747976  1
  Zn  Zn1  1  0.147868  0.747556  0.252810  1
  Zn  Zn2  1  0.524386  0.250985  0.249027  1
  Zn  Zn3  1  0.472162  0.750231  0.750904  1
  Fe  Fe4  1  0.510811  0.750725  0.490496  1
  Fe  Fe5  1  0.511301  0.748586  0.016563  1
  Fe  Fe6  1  0.488028  0.249810  0.509852  1
  Fe  Fe7  1  0.492706  0.248070  0.983666  1
  Fe  Fe8  1  0.999385  0.499774  0.500401  1
  Fe  Fe9  1  0.000151  0.000819  0.999099  1
  Fe  Fe10  1  0.999440  0.000296  0.499961  1
  Fe  Fe11  1  0.002486  0.499890  0.000788  1
  O  O12  1  0.851603  0.752503  0.396414  1
  O  O13  1  0.857294  0.748385  0.102552  1
  O  O14  1  0.147012  0.247058  0.603695  1
  O  O15  1  0.143759  0.252643  0.896924  1
  O  O16  1  0.193936  0.748282  0.597246  1
  O  O17  1  0.187572  0.753144  0.907062  1
  O  O18  1  0.805059  0.252496  0.403077  1
  O  O19  1  0.813659  0.249700  0.092913  1
  O  O20  1  0.669966  0.496992  0.608895  1
  O  O21  1  0.676691  -0.003037  0.880755  1
  O  O22  1  0.329929  0.001134  0.390966  1
  O  O23  1  0.325477  0.495990  0.119220  1
  O  O24  1  0.330695  0.502596  0.392724  1
  O  O25  1  0.333962  0.004121  0.111049  1
  O  O26  1  0.666902  0.997461  0.606767  1
  O  O27  1  0.666995  0.506038  0.888198  1
