# generated using pymatgen
data_ZnBiSbO5
_symmetry_space_group_name_H-M   'P 1'
_cell_length_a   5.43404821
_cell_length_b   8.04703253
_cell_length_c   12.16763671
_cell_angle_alpha   90.00000000
_cell_angle_beta   90.00000000
_cell_angle_gamma   106.88091611
_symmetry_Int_Tables_number   1
_chemical_formula_structural   ZnBiSbO5
_chemical_formula_sum   'Zn4 Bi4 Sb4 O20'
_cell_volume   509.13943160
_cell_formula_units_Z   4
loop_
 _symmetry_equiv_pos_site_id
 _symmetry_equiv_pos_as_xyz
  1  'x, y, z'
loop_
 _atom_site_type_symbol
 _atom_site_label
 _atom_site_symmetry_multiplicity
 _atom_site_fract_x
 _atom_site_fract_y
 _atom_site_fract_z
 _atom_site_occupancy
  Zn  Zn0  1  0.616634  0.170135  0.919379  1
  Zn  Zn1  1  0.383366  0.829865  0.080621  1
  Zn  Zn2  1  0.883366  0.329865  0.419379  1
  Zn  Zn3  1  0.116634  0.670135  0.580621  1
  Bi  Bi4  1  0.108455  0.165533  0.096966  1
  Bi  Bi5  1  0.891545  0.834467  0.903034  1
  Bi  Bi6  1  0.608455  0.665533  0.403034  1
  Bi  Bi7  1  0.391545  0.334467  0.596966  1
  Sb  Sb8  1  0.788474  0.965333  0.643717  1
  Sb  Sb9  1  0.211526  0.034667  0.356283  1
  Sb  Sb10  1  0.711526  0.534667  0.143717  1
  Sb  Sb11  1  0.288474  0.465333  0.856283  1
  O  O12  1  0.551487  0.322782  0.067553  1
  O  O13  1  0.015707  0.318741  0.941351  1
  O  O14  1  0.468163  0.654841  0.182470  1
  O  O15  1  0.757583  0.514458  0.521794  1
  O  O16  1  0.795867  0.487600  0.292459  1
  O  O17  1  0.295867  0.987600  0.207541  1
  O  O18  1  0.515707  0.818741  0.558649  1
  O  O19  1  0.484293  0.181259  0.441351  1
  O  O20  1  0.242417  0.485542  0.478206  1
  O  O21  1  0.948513  0.177218  0.567553  1
  O  O22  1  0.204133  0.512400  0.707541  1
  O  O23  1  0.448513  0.677218  0.932447  1
  O  O24  1  0.051487  0.822782  0.432447  1
  O  O25  1  0.704133  0.012400  0.792459  1
  O  O26  1  0.742417  0.985542  0.021794  1
  O  O27  1  0.257583  0.014458  0.978206  1
  O  O28  1  0.531837  0.345159  0.817530  1
  O  O29  1  0.984293  0.681259  0.058649  1
  O  O30  1  0.031837  0.845159  0.682470  1
  O  O31  1  0.968163  0.154841  0.317530  1
