# generated using pymatgen
data_Mn3Zn(P2O7)2
_symmetry_space_group_name_H-M   'P 1'
_cell_length_a   7.52957886
_cell_length_b   7.54191504
_cell_length_c   9.90218186
_cell_angle_alpha   90.00000000
_cell_angle_beta   113.43397402
_cell_angle_gamma   90.00000000
_symmetry_Int_Tables_number   1
_chemical_formula_structural   Mn3Zn(P2O7)2
_chemical_formula_sum   'Mn6 Zn2 P8 O28'
_cell_volume   515.93889948
_cell_formula_units_Z   2
loop_
 _symmetry_equiv_pos_site_id
 _symmetry_equiv_pos_as_xyz
  1  'x, y, z'
loop_
 _atom_site_type_symbol
 _atom_site_label
 _atom_site_symmetry_multiplicity
 _atom_site_fract_x
 _atom_site_fract_y
 _atom_site_fract_z
 _atom_site_occupancy
  Mn  Mn0  1  0.191648  0.879036  0.524812  1
  Mn  Mn1  1  0.808352  0.379036  0.975188  1
  Mn  Mn2  1  0.808352  0.120964  0.475188  1
  Mn  Mn3  1  0.191648  0.620964  0.024812  1
  Mn  Mn4  1  -0.000000  -0.000000  -0.000000  1
  Mn  Mn5  1  -0.000000  0.500000  0.500000  1
  Zn  Zn6  1  0.500000  -0.000000  -0.000000  1
  Zn  Zn7  1  0.500000  0.500000  0.500000  1
  P  P8  1  0.591919  0.088642  0.701636  1
  P  P9  1  0.408081  0.588642  0.798364  1
  P  P10  1  0.408081  0.911358  0.298364  1
  P  P11  1  0.591919  0.411358  0.201636  1
  P  P12  1  0.851131  0.789120  0.682701  1
  P  P13  1  0.148869  0.289120  0.817299  1
  P  P14  1  0.148869  0.210880  0.317299  1
  P  P15  1  0.851131  0.710880  0.182701  1
  O  O16  1  0.777146  0.613656  0.598751  1
  O  O17  1  0.222854  0.113656  0.901249  1
  O  O18  1  0.222854  0.386344  0.401249  1
  O  O19  1  0.777146  0.886344  0.098751  1
  O  O20  1  0.276095  0.621933  0.633436  1
  O  O21  1  0.723905  0.121933  0.866564  1
  O  O22  1  0.723905  0.378067  0.366564  1
  O  O23  1  0.276095  0.878067  0.133436  1
  O  O24  1  0.623119  0.226997  0.599587  1
  O  O25  1  0.376881  0.726997  0.900413  1
  O  O26  1  0.376881  0.773003  0.400413  1
  O  O27  1  0.623119  0.273003  0.099587  1
  O  O28  1  0.658613  0.899033  0.660041  1
  O  O29  1  0.341387  0.399033  0.839959  1
  O  O30  1  0.341387  0.100967  0.339959  1
  O  O31  1  0.658613  0.600967  0.160041  1
  O  O32  1  0.387036  0.448709  0.184459  1
  O  O33  1  0.612964  0.948709  0.315541  1
  O  O34  1  0.612964  0.551291  0.815541  1
  O  O35  1  0.387036  0.051291  0.684459  1
  O  O36  1  0.034053  0.221315  0.150570  1
  O  O37  1  0.965947  0.721315  0.349430  1
  O  O38  1  0.965947  0.778685  0.849430  1
  O  O39  1  0.034053  0.278685  0.650570  1
  O  O40  1  0.959898  0.603057  0.108172  1
  O  O41  1  0.040102  0.103057  0.391828  1
  O  O42  1  0.040102  0.396943  0.891828  1
  O  O43  1  0.959898  0.896943  0.608172  1
