# generated using pymatgen
data_AlCo3(SiO4)3
_symmetry_space_group_name_H-M   'P 1'
_cell_length_a   9.89448441
_cell_length_b   9.89448403
_cell_length_c   9.89448414
_cell_angle_alpha   109.47122086
_cell_angle_beta   109.47122007
_cell_angle_gamma   109.47122199
_symmetry_Int_Tables_number   1
_chemical_formula_structural   AlCo3(SiO4)3
_chemical_formula_sum   'Al4 Co12 Si12 O48'
_cell_volume   745.68873284
_cell_formula_units_Z   4
loop_
 _symmetry_equiv_pos_site_id
 _symmetry_equiv_pos_as_xyz
  1  'x, y, z'
loop_
 _atom_site_type_symbol
 _atom_site_label
 _atom_site_symmetry_multiplicity
 _atom_site_fract_x
 _atom_site_fract_y
 _atom_site_fract_z
 _atom_site_occupancy
  Al  Al0  1  0.000000  0.000000  0.000000  1
  Al  Al1  1  0.000000  0.500000  0.500001  1
  Al  Al2  1  0.500000  0.000000  0.500001  1
  Al  Al3  1  0.500000  0.500000  0.000000  1
  Co  Co4  1  0.250000  0.886067  0.636066  1
  Co  Co5  1  0.886066  0.636066  0.250000  1
  Co  Co6  1  0.613935  0.863935  0.750001  1
  Co  Co7  1  0.863935  0.750001  0.613935  1
  Co  Co8  1  0.636066  0.250000  0.886066  1
  Co  Co9  1  0.750000  0.613934  0.863934  1
  Co  Co10  1  0.750000  0.113934  0.363934  1
  Co  Co11  1  0.113934  0.363934  0.750000  1
  Co  Co12  1  0.386066  0.136066  0.250000  1
  Co  Co13  1  0.136066  0.250000  0.386066  1
  Co  Co14  1  0.363934  0.750001  0.113934  1
  Co  Co15  1  0.250000  0.386066  0.136066  1
  Si  Si16  1  0.250000  0.124685  0.874685  1
  Si  Si17  1  0.874685  0.250000  0.124685  1
  Si  Si18  1  0.625315  0.750001  0.375315  1
  Si  Si19  1  0.250000  0.624685  0.374686  1
  Si  Si20  1  0.375315  0.625315  0.750000  1
  Si  Si21  1  0.750000  0.375315  0.625315  1
  Si  Si22  1  0.875315  0.125315  0.750000  1
  Si  Si23  1  0.125315  0.750001  0.875315  1
  Si  Si24  1  0.124685  0.874686  0.250000  1
  Si  Si25  1  0.624685  0.374685  0.250000  1
  Si  Si26  1  0.374685  0.250000  0.624685  1
  Si  Si27  1  0.750000  0.875316  0.125315  1
  O  O28  1  0.268660  0.463770  0.365640  1
  O  O29  1  0.036230  0.304890  0.901870  1
  O  O30  1  0.134360  0.598130  0.903020  1
  O  O31  1  0.231339  0.596980  0.195110  1
  O  O32  1  0.205077  0.120910  0.020767  1
  O  O33  1  0.596979  0.195109  0.231339  1
  O  O34  1  0.600143  0.184309  0.479232  1
  O  O35  1  0.195110  0.231339  0.596981  1
  O  O36  1  0.899857  0.379089  0.584166  1
  O  O37  1  0.315691  0.915834  0.294923  1
  O  O38  1  0.915834  0.294923  0.315691  1
  O  O39  1  0.020768  0.205077  0.120910  1
  O  O40  1  0.184310  0.479232  0.600144  1
  O  O41  1  0.584166  0.899857  0.379090  1
  O  O42  1  0.120910  0.020767  0.205077  1
  O  O43  1  0.479232  0.600144  0.184309  1
  O  O44  1  0.379089  0.584166  0.899856  1
  O  O45  1  0.901870  0.036229  0.304890  1
  O  O46  1  0.598129  0.903020  0.134360  1
  O  O47  1  0.100142  0.620910  0.415834  1
  O  O48  1  0.463770  0.365640  0.268660  1
  O  O49  1  0.365640  0.268661  0.463770  1
  O  O50  1  0.304891  0.901871  0.036230  1
  O  O51  1  0.294922  0.315690  0.915833  1
  O  O52  1  0.731339  0.536229  0.634359  1
  O  O53  1  0.963770  0.695109  0.098129  1
  O  O54  1  0.865641  0.401871  0.096980  1
  O  O55  1  0.768661  0.403020  0.804891  1
  O  O56  1  0.794922  0.879090  0.979233  1
  O  O57  1  0.403020  0.804890  0.768660  1
  O  O58  1  0.399857  0.815690  0.520767  1
  O  O59  1  0.804891  0.768661  0.403020  1
  O  O60  1  0.705077  0.684309  0.084166  1
  O  O61  1  0.695110  0.098130  0.963770  1
  O  O62  1  0.634359  0.731340  0.536230  1
  O  O63  1  0.536230  0.634359  0.731339  1
  O  O64  1  0.096980  0.865641  0.401870  1
  O  O65  1  0.401870  0.096979  0.865640  1
  O  O66  1  0.098130  0.963770  0.695109  1
  O  O67  1  0.620911  0.415834  0.100142  1
  O  O68  1  0.520768  0.399857  0.815691  1
  O  O69  1  0.879090  0.979232  0.794923  1
  O  O70  1  0.415834  0.100143  0.620911  1
  O  O71  1  0.815690  0.520767  0.399857  1
  O  O72  1  0.979232  0.794923  0.879090  1
  O  O73  1  0.084166  0.705078  0.684310  1
  O  O74  1  0.684309  0.084165  0.705077  1
  O  O75  1  0.903020  0.134359  0.598129  1
