# generated using pymatgen
data_Ca2TiSbO6
_symmetry_space_group_name_H-M   'P 1'
_cell_length_a   5.51761125
_cell_length_b   5.70249920
_cell_length_c   7.95551589
_cell_angle_alpha   90.00000000
_cell_angle_beta   90.00000000
_cell_angle_gamma   90.08154599
_symmetry_Int_Tables_number   1
_chemical_formula_structural   Ca2TiSbO6
_chemical_formula_sum   'Ca4 Ti2 Sb2 O12'
_cell_volume   250.31348060
_cell_formula_units_Z   2
loop_
 _symmetry_equiv_pos_site_id
 _symmetry_equiv_pos_as_xyz
  1  'x, y, z'
loop_
 _atom_site_type_symbol
 _atom_site_label
 _atom_site_symmetry_multiplicity
 _atom_site_fract_x
 _atom_site_fract_y
 _atom_site_fract_z
 _atom_site_occupancy
  Ca  Ca0  1  0.515403  0.561352  0.750000  1
  Ca  Ca1  1  0.484597  0.438648  0.250000  1
  Ca  Ca2  1  0.991301  0.045559  0.750000  1
  Ca  Ca3  1  0.008699  0.954441  0.250000  1
  Ti  Ti4  1  0.500000  0.000000  0.500000  1
  Ti  Ti5  1  0.500000  0.000000  0.000000  1
  Sb  Sb6  1  0.000000  0.500000  0.500000  1
  Sb  Sb7  1  0.000000  0.500000  0.000000  1
  O  O8  1  0.312150  0.708514  0.449552  1
  O  O9  1  0.206756  0.191890  0.050644  1
  O  O10  1  0.687850  0.291486  0.949552  1
  O  O11  1  0.793244  0.808110  0.550644  1
  O  O12  1  0.206756  0.191890  0.449356  1
  O  O13  1  0.793244  0.808110  0.949356  1
  O  O14  1  0.904744  0.531640  0.250000  1
  O  O15  1  0.312150  0.708514  0.050448  1
  O  O16  1  0.409015  0.967982  0.750000  1
  O  O17  1  0.687850  0.291486  0.550448  1
  O  O18  1  0.095256  0.468360  0.750000  1
  O  O19  1  0.590985  0.032018  0.250000  1
