# generated using pymatgen
data_Mg(WO2)2
_symmetry_space_group_name_H-M   'P 1'
_cell_length_a   3.13768393
_cell_length_b   10.34192515
_cell_length_c   10.49697956
_cell_angle_alpha   89.93933374
_cell_angle_beta   90.00394533
_cell_angle_gamma   90.00559710
_symmetry_Int_Tables_number   1
_chemical_formula_structural   Mg(WO2)2
_chemical_formula_sum   'Mg4 W8 O16'
_cell_volume   340.62356460
_cell_formula_units_Z   4
loop_
 _symmetry_equiv_pos_site_id
 _symmetry_equiv_pos_as_xyz
  1  'x, y, z'
loop_
 _atom_site_type_symbol
 _atom_site_label
 _atom_site_symmetry_multiplicity
 _atom_site_fract_x
 _atom_site_fract_y
 _atom_site_fract_z
 _atom_site_occupancy
  Mg  Mg0  1  0.257504  0.750093  0.141780  1
  Mg  Mg1  1  0.257917  0.249917  0.358780  1
  Mg  Mg2  1  0.742316  0.750140  0.641222  1
  Mg  Mg3  1  0.742398  0.250069  0.858199  1
  W  W4  1  0.751914  0.574054  0.382170  1
  W  W5  1  0.751911  0.074316  0.117813  1
  W  W6  1  0.248047  0.073899  0.617920  1
  W  W7  1  0.751912  0.425470  0.117700  1
  W  W8  1  0.248086  0.425945  0.617813  1
  W  W9  1  0.751846  0.926098  0.382093  1
  W  W10  1  0.248059  0.925690  0.882184  1
  W  W11  1  0.248155  0.574521  0.882304  1
  O  O12  1  0.252073  0.884936  0.520859  1
  O  O13  1  0.747786  0.115050  0.479156  1
  O  O14  1  0.252182  0.000616  0.250149  1
  O  O15  1  0.747838  0.885023  0.021243  1
  O  O16  1  0.747975  0.615202  0.021301  1
  O  O17  1  0.756277  0.249941  0.230613  1
  O  O18  1  0.252136  0.114963  0.978774  1
  O  O19  1  0.243834  0.249977  0.730313  1
  O  O20  1  0.252207  0.499294  0.250134  1
  O  O21  1  0.747760  0.999337  0.749844  1
  O  O22  1  0.252195  0.615323  0.520834  1
  O  O23  1  0.243886  0.750047  0.769389  1
  O  O24  1  0.756081  0.750029  0.269674  1
  O  O25  1  0.747820  0.500594  0.749905  1
  O  O26  1  0.252093  0.384779  0.978688  1
  O  O27  1  0.747793  0.384677  0.479148  1
