# generated using pymatgen
data_ZnCr(GeO3)2
_symmetry_space_group_name_H-M   'P 1'
_cell_length_a   5.57675781
_cell_length_b   9.10405054
_cell_length_c   10.04680034
_cell_angle_alpha   90.00000000
_cell_angle_beta   105.86917573
_cell_angle_gamma   90.00000000
_symmetry_Int_Tables_number   1
_chemical_formula_structural   ZnCr(GeO3)2
_chemical_formula_sum   'Zn4 Cr4 Ge8 O24'
_cell_volume   490.64680324
_cell_formula_units_Z   4
loop_
 _symmetry_equiv_pos_site_id
 _symmetry_equiv_pos_as_xyz
  1  'x, y, z'
loop_
 _atom_site_type_symbol
 _atom_site_label
 _atom_site_symmetry_multiplicity
 _atom_site_fract_x
 _atom_site_fract_y
 _atom_site_fract_z
 _atom_site_occupancy
  Zn  Zn0  1  0.449500  0.488592  0.244260  1
  Zn  Zn1  1  0.050500  0.988592  0.755740  1
  Zn  Zn2  1  0.550500  0.511408  0.755740  1
  Zn  Zn3  1  0.949500  0.011408  0.244260  1
  Cr  Cr4  1  0.959103  0.656866  0.247100  1
  Cr  Cr5  1  0.540897  0.156866  0.752900  1
  Cr  Cr6  1  0.040897  0.343134  0.752900  1
  Cr  Cr7  1  0.459103  0.843134  0.247100  1
  Ge  Ge8  1  0.814199  0.337045  0.058119  1
  Ge  Ge9  1  0.685801  0.837045  0.941881  1
  Ge  Ge10  1  0.185801  0.662955  0.941881  1
  Ge  Ge11  1  0.314199  0.162955  0.058119  1
  Ge  Ge12  1  0.251632  0.341999  0.454311  1
  Ge  Ge13  1  0.248368  0.841999  0.545689  1
  Ge  Ge14  1  0.748368  0.658001  0.545689  1
  Ge  Ge15  1  0.751632  0.158001  0.454311  1
  O  O16  1  0.499949  0.282922  0.381259  1
  O  O17  1  0.000051  0.782922  0.618741  1
  O  O18  1  0.500051  0.717078  0.618741  1
  O  O19  1  -0.000051  0.217078  0.381259  1
  O  O20  1  0.157246  0.322392  0.108959  1
  O  O21  1  0.342754  0.822392  0.891042  1
  O  O22  1  0.842754  0.677608  0.891042  1
  O  O23  1  0.657246  0.177608  0.108959  1
  O  O24  1  0.704519  0.987877  0.372071  1
  O  O25  1  0.795481  0.487877  0.627929  1
  O  O26  1  0.295481  0.012123  0.627929  1
  O  O27  1  0.204519  0.512123  0.372071  1
  O  O28  1  0.226086  0.015387  0.144799  1
  O  O29  1  0.273914  0.515387  0.855201  1
  O  O30  1  0.773914  0.984613  0.855201  1
  O  O31  1  0.726086  0.484613  0.144799  1
  O  O32  1  0.734446  0.335902  0.875895  1
  O  O33  1  0.765554  0.835902  0.124105  1
  O  O34  1  0.265554  0.664098  0.124105  1
  O  O35  1  0.234446  0.164098  0.875895  1
  O  O36  1  0.337908  0.338515  0.634795  1
  O  O37  1  0.162092  0.838515  0.365205  1
  O  O38  1  0.662092  0.661485  0.365205  1
  O  O39  1  0.837908  0.161485  0.634795  1
