# generated using pymatgen
data_PrZn(FeO3)2
_symmetry_space_group_name_H-M   'P 1'
_cell_length_a   5.32575184
_cell_length_b   5.48107298
_cell_length_c   7.73348753
_cell_angle_alpha   89.99558106
_cell_angle_beta   89.99663746
_cell_angle_gamma   90.00208069
_symmetry_Int_Tables_number   1
_chemical_formula_structural   PrZn(FeO3)2
_chemical_formula_sum   'Pr2 Zn2 Fe4 O12'
_cell_volume   225.74695335
_cell_formula_units_Z   2
loop_
 _symmetry_equiv_pos_site_id
 _symmetry_equiv_pos_as_xyz
  1  'x, y, z'
loop_
 _atom_site_type_symbol
 _atom_site_label
 _atom_site_symmetry_multiplicity
 _atom_site_fract_x
 _atom_site_fract_y
 _atom_site_fract_z
 _atom_site_occupancy
  Pr  Pr0  1  0.011130  0.958611  0.749985  1
  Pr  Pr1  1  0.511140  0.541383  0.250024  1
  Zn  Zn2  1  0.485873  0.471991  0.750034  1
  Zn  Zn3  1  0.985866  0.027969  0.249970  1
  Fe  Fe4  1  -0.000020  0.494014  0.999859  1
  Fe  Fe5  1  0.000008  0.494016  0.500144  1
  Fe  Fe6  1  0.500008  0.006016  0.499852  1
  Fe  Fe7  1  0.499987  0.006050  0.000133  1
  O  O8  1  0.079064  0.460721  0.249997  1
  O  O9  1  0.220265  0.221914  0.946938  1
  O  O10  1  0.220351  0.221969  0.552993  1
  O  O11  1  0.307539  0.695863  0.558677  1
  O  O12  1  0.307436  0.695867  0.941320  1
  O  O13  1  0.368405  0.976787  0.250031  1
  O  O14  1  0.579062  0.039280  0.750007  1
  O  O15  1  0.720295  0.278027  0.053016  1
  O  O16  1  0.720308  0.278036  0.446984  1
  O  O17  1  0.807462  0.804140  0.058674  1
  O  O18  1  0.807421  0.804139  0.441324  1
  O  O19  1  0.868395  0.523209  0.750041  1
