# generated using pymatgen
data_Ba2Mo3O7
_symmetry_space_group_name_H-M   'P 1'
_cell_length_a   4.06171231
_cell_length_b   4.09717422
_cell_length_c   11.85752784
_cell_angle_alpha   89.97913950
_cell_angle_beta   89.92265229
_cell_angle_gamma   90.00287127
_symmetry_Int_Tables_number   1
_chemical_formula_structural   Ba2Mo3O7
_chemical_formula_sum   'Ba2 Mo3 O7'
_cell_volume   197.32736552
_cell_formula_units_Z   1
loop_
 _symmetry_equiv_pos_site_id
 _symmetry_equiv_pos_as_xyz
  1  'x, y, z'
loop_
 _atom_site_type_symbol
 _atom_site_label
 _atom_site_symmetry_multiplicity
 _atom_site_fract_x
 _atom_site_fract_y
 _atom_site_fract_z
 _atom_site_occupancy
  Ba  Ba0  1  0.506097  0.503705  0.800202  1
  Ba  Ba1  1  0.503460  0.503312  0.202460  1
  Mo  Mo2  1  0.006489  0.003853  0.631265  1
  Mo  Mo3  1  0.002926  0.003127  0.371356  1
  Mo  Mo4  1  0.004747  0.003557  0.001357  1
  O  O5  1  0.004605  0.503507  0.001371  1
  O  O6  1  0.506620  0.003934  0.646478  1
  O  O7  1  0.502831  0.003040  0.357036  1
  O  O8  1  0.006631  0.503870  0.644133  1
  O  O9  1  0.002872  0.503045  0.357596  1
  O  O10  1  0.006264  0.003578  0.828495  1
  O  O11  1  0.003253  0.003334  0.174235  1
