# generated using pymatgen
data_Ba2Mg2Mn3Tl2O10
_symmetry_space_group_name_H-M   'P 1'
_cell_length_a   3.75901997
_cell_length_b   3.75040168
_cell_length_c   20.41201875
_cell_angle_alpha   95.79269058
_cell_angle_beta   96.55559646
_cell_angle_gamma   89.86925542
_symmetry_Int_Tables_number   1
_chemical_formula_structural   Ba2Mg2Mn3Tl2O10
_chemical_formula_sum   'Ba2 Mg2 Mn3 Tl2 O10'
_cell_volume   284.41145738
_cell_formula_units_Z   1
loop_
 _symmetry_equiv_pos_site_id
 _symmetry_equiv_pos_as_xyz
  1  'x, y, z'
loop_
 _atom_site_type_symbol
 _atom_site_label
 _atom_site_symmetry_multiplicity
 _atom_site_fract_x
 _atom_site_fract_y
 _atom_site_fract_z
 _atom_site_occupancy
  Ba  Ba0  1  0.109909  0.169064  0.298756  1
  Ba  Ba1  1  0.788190  0.822686  0.697708  1
  Mg  Mg2  1  0.901986  0.938855  0.901165  1
  Mg  Mg3  1  0.977637  0.063967  0.096153  1
  Mn  Mn4  1  0.358080  0.391647  0.821248  1
  Mn  Mn5  1  0.532530  0.612191  0.178083  1
  Mn  Mn6  1  0.406076  0.504743  0.001125  1
  Tl  Tl7  1  0.692112  0.719000  0.441715  1
  Tl  Tl8  1  0.252813  0.271731  0.555198  1
  O  O9  1  0.365138  0.898483  0.833401  1
  O  O10  1  0.298746  0.336009  0.724478  1
  O  O11  1  0.885361  0.421979  0.871574  1
  O  O12  1  0.789707  0.777389  0.565243  1
  O  O13  1  0.925360  0.525483  0.031544  1
  O  O14  1  0.026274  0.615802  0.168271  1
  O  O15  1  0.594865  0.658105  0.274744  1
  O  O16  1  0.497389  0.088270  0.126790  1
  O  O17  1  0.217041  0.214782  0.432810  1
  O  O18  1  0.381874  0.987777  0.970958  1
