# generated using pymatgen
data_MoO2
_symmetry_space_group_name_H-M   'P 1'
_cell_length_a   5.48779911
_cell_length_b   6.52697080
_cell_length_c   10.70153248
_cell_angle_alpha   89.86041668
_cell_angle_beta   90.06355634
_cell_angle_gamma   86.93971311
_symmetry_Int_Tables_number   1
_chemical_formula_structural   MoO2
_chemical_formula_sum   'Mo8 O16'
_cell_volume   382.76695930
_cell_formula_units_Z   8
loop_
 _symmetry_equiv_pos_site_id
 _symmetry_equiv_pos_as_xyz
  1  'x, y, z'
loop_
 _atom_site_type_symbol
 _atom_site_label
 _atom_site_symmetry_multiplicity
 _atom_site_fract_x
 _atom_site_fract_y
 _atom_site_fract_z
 _atom_site_occupancy
  Mo  Mo0  1  0.500059  0.750527  0.499189  1
  Mo  Mo1  1  0.500012  0.750488  0.000474  1
  Mo  Mo2  1  0.499876  0.250373  0.498635  1
  Mo  Mo3  1  0.499924  0.250182  0.001525  1
  Mo  Mo4  1  0.000001  0.499529  0.500428  1
  Mo  Mo5  1  0.000258  0.999712  0.999306  1
  Mo  Mo6  1  0.000098  0.999593  0.501193  1
  Mo  Mo7  1  -0.000114  0.499538  0.999269  1
  O  O8  1  0.832781  0.749384  0.410404  1
  O  O9  1  0.833301  0.748414  0.089532  1
  O  O10  1  0.168319  0.250745  0.590382  1
  O  O11  1  0.168007  0.251112  0.909680  1
  O  O12  1  0.169425  0.750688  0.590599  1
  O  O13  1  0.168860  0.751656  0.909339  1
  O  O14  1  0.832620  0.248567  0.409900  1
  O  O15  1  0.833088  0.247980  0.090307  1
  O  O16  1  0.667185  0.500742  0.589289  1
  O  O17  1  0.667200  0.002440  0.910281  1
  O  O18  1  0.331591  0.999314  0.409406  1
  O  O19  1  0.330814  0.498711  0.090600  1
  O  O20  1  0.330714  0.499343  0.409040  1
  O  O21  1  0.332279  0.998338  0.090833  1
  O  O22  1  0.667317  0.001394  0.589832  1
  O  O23  1  0.666383  0.501231  0.910557  1
