# generated using pymatgen
data_Zn3Fe4(BiO4)6
_symmetry_space_group_name_H-M   'P 1'
_cell_length_a   6.65394444
_cell_length_b   7.98049591
_cell_length_c   11.60035323
_cell_angle_alpha   104.58521973
_cell_angle_beta   101.80932206
_cell_angle_gamma   109.95084314
_symmetry_Int_Tables_number   1
_chemical_formula_structural   Zn3Fe4(BiO4)6
_chemical_formula_sum   'Zn3 Fe4 Bi6 O24'
_cell_volume   531.01375183
_cell_formula_units_Z   1
loop_
 _symmetry_equiv_pos_site_id
 _symmetry_equiv_pos_as_xyz
  1  'x, y, z'
loop_
 _atom_site_type_symbol
 _atom_site_label
 _atom_site_symmetry_multiplicity
 _atom_site_fract_x
 _atom_site_fract_y
 _atom_site_fract_z
 _atom_site_occupancy
  Zn  Zn0  1  -0.000000  0.500000  0.500000  1
  Zn  Zn1  1  0.319524  0.280994  0.794834  1
  Zn  Zn2  1  0.680476  0.719006  0.205166  1
  Fe  Fe3  1  0.358680  0.957122  0.591206  1
  Fe  Fe4  1  0.641320  0.042878  0.408794  1
  Fe  Fe5  1  0.008678  0.199822  0.981863  1
  Fe  Fe6  1  0.991322  0.800178  0.018137  1
  Bi  Bi7  1  0.869018  0.401173  0.733185  1
  Bi  Bi8  1  0.130982  0.598827  0.266815  1
  Bi  Bi9  1  0.820823  0.878624  0.687157  1
  Bi  Bi10  1  0.501121  0.801859  0.895375  1
  Bi  Bi11  1  0.179177  0.121376  0.312843  1
  Bi  Bi12  1  0.498879  0.198141  0.104625  1
  O  O13  1  0.845813  0.606939  0.634781  1
  O  O14  1  0.154187  0.393061  0.365219  1
  O  O15  1  0.254941  0.511289  0.795828  1
  O  O16  1  0.745059  0.488711  0.204172  1
  O  O17  1  0.888289  0.281432  0.547915  1
  O  O18  1  0.111711  0.718568  0.452085  1
  O  O19  1  0.617455  0.915363  0.539257  1
  O  O20  1  0.382545  0.084637  0.460743  1
  O  O21  1  0.683100  0.752048  0.041337  1
  O  O22  1  0.316900  0.247952  0.958663  1
  O  O23  1  0.466589  0.773980  0.287916  1
  O  O24  1  0.533411  0.226020  0.712084  1
  O  O25  1  0.137895  0.004464  0.665483  1
  O  O26  1  0.135220  0.104695  0.118188  1
  O  O27  1  0.864780  0.895305  0.881812  1
  O  O28  1  0.529681  0.179951  0.289762  1
  O  O29  1  0.470319  0.820049  0.710238  1
  O  O30  1  0.129167  0.449981  0.094954  1
  O  O31  1  0.870833  0.550019  0.905046  1
  O  O32  1  0.940644  0.188083  0.800562  1
  O  O33  1  0.059356  0.811917  0.199438  1
  O  O34  1  0.300928  0.884395  0.000713  1
  O  O35  1  0.699072  0.115605  0.999287  1
  O  O36  1  0.862105  0.995536  0.334517  1
