# generated using pymatgen
data_CaWO2
_symmetry_space_group_name_H-M   'P 1'
_cell_length_a   3.39579594
_cell_length_b   9.70542077
_cell_length_c   9.11606532
_cell_angle_alpha   76.29449962
_cell_angle_beta   79.13756314
_cell_angle_gamma   89.79452210
_symmetry_Int_Tables_number   1
_chemical_formula_structural   CaWO2
_chemical_formula_sum   'Ca4 W4 O8'
_cell_volume   286.39362144
_cell_formula_units_Z   4
loop_
 _symmetry_equiv_pos_site_id
 _symmetry_equiv_pos_as_xyz
  1  'x, y, z'
loop_
 _atom_site_type_symbol
 _atom_site_label
 _atom_site_symmetry_multiplicity
 _atom_site_fract_x
 _atom_site_fract_y
 _atom_site_fract_z
 _atom_site_occupancy
  Ca  Ca0  1  0.118250  0.059380  0.279735  1
  Ca  Ca1  1  0.878291  0.920551  0.748599  1
  Ca  Ca2  1  0.172198  0.698219  0.162910  1
  Ca  Ca3  1  0.823725  0.281740  0.865385  1
  W  W4  1  0.485607  0.206838  0.539419  1
  W  W5  1  0.179861  0.370379  0.150427  1
  W  W6  1  0.816243  0.609669  0.877545  1
  W  W7  1  0.510321  0.772891  0.488750  1
  O  O8  1  0.934069  0.717229  0.641031  1
  O  O9  1  0.309301  0.454441  0.894243  1
  O  O10  1  0.686886  0.525396  0.133890  1
  O  O11  1  0.061733  0.262570  0.387283  1
  O  O12  1  0.906980  0.156093  0.695951  1
  O  O13  1  0.689315  0.227219  0.134395  1
  O  O14  1  0.088896  0.823935  0.332227  1
  O  O15  1  0.306599  0.752786  0.893828  1
