# generated using pymatgen
data_BaYCrCuO5
_symmetry_space_group_name_H-M   'P 1'
_cell_length_a   3.90722582
_cell_length_b   3.90724370
_cell_length_c   7.88849366
_cell_angle_alpha   89.99990563
_cell_angle_beta   89.99980866
_cell_angle_gamma   89.97599455
_symmetry_Int_Tables_number   1
_chemical_formula_structural   BaYCrCuO5
_chemical_formula_sum   'Ba1 Y1 Cr1 Cu1 O5'
_cell_volume   120.42954723
_cell_formula_units_Z   1
loop_
 _symmetry_equiv_pos_site_id
 _symmetry_equiv_pos_as_xyz
  1  'x, y, z'
loop_
 _atom_site_type_symbol
 _atom_site_label
 _atom_site_symmetry_multiplicity
 _atom_site_fract_x
 _atom_site_fract_y
 _atom_site_fract_z
 _atom_site_occupancy
  Ba  Ba0  1  0.000001  0.000003  0.991403  1
  Y  Y1  1  -0.000000  -0.000000  0.464206  1
  Cr  Cr2  1  0.499992  0.499986  0.696629  1
  Cu  Cu3  1  0.500004  0.500003  0.256267  1
  O  O4  1  0.999994  0.499998  0.640436  1
  O  O5  1  0.499996  -0.000003  0.640430  1
  O  O6  1  0.000003  0.500002  0.280639  1
  O  O7  1  0.500005  0.000001  0.280646  1
  O  O8  1  0.499998  0.500003  0.937262  1
