# generated using pymatgen
data_LaCrCoO6
_symmetry_space_group_name_H-M   'P 1'
_cell_length_a   5.20173515
_cell_length_b   6.21519286
_cell_length_c   7.54536747
_cell_angle_alpha   90.00804336
_cell_angle_beta   89.17602862
_cell_angle_gamma   90.04897060
_symmetry_Int_Tables_number   1
_chemical_formula_structural   LaCrCoO6
_chemical_formula_sum   'La2 Cr2 Co2 O12'
_cell_volume   243.91480883
_cell_formula_units_Z   2
loop_
 _symmetry_equiv_pos_site_id
 _symmetry_equiv_pos_as_xyz
  1  'x, y, z'
loop_
 _atom_site_type_symbol
 _atom_site_label
 _atom_site_symmetry_multiplicity
 _atom_site_fract_x
 _atom_site_fract_y
 _atom_site_fract_z
 _atom_site_occupancy
  La  La0  1  0.013378  0.865385  0.745726  1
  La  La1  1  0.513190  0.634829  0.245725  1
  Cr  Cr2  1  0.532348  0.083669  0.480526  1
  Cr  Cr3  1  0.032630  0.416310  0.980323  1
  Co  Co4  1  0.562347  0.082573  0.982250  1
  Co  Co5  1  0.062567  0.417294  0.482295  1
  O  O6  1  0.087826  0.463756  0.239970  1
  O  O7  1  0.197913  0.186161  0.956203  1
  O  O8  1  0.214785  0.157133  0.564713  1
  O  O9  1  0.237156  0.636820  0.971816  1
  O  O10  1  0.248589  0.647175  0.533227  1
  O  O11  1  0.415497  0.033416  0.276000  1
  O  O12  1  0.587453  0.036152  0.739937  1
  O  O13  1  0.698091  0.313832  0.456219  1
  O  O14  1  0.714788  0.342905  0.064726  1
  O  O15  1  0.737330  0.863373  0.471812  1
  O  O16  1  0.748503  0.853000  0.033065  1
  O  O17  1  0.915674  0.466217  0.775883  1
