# generated using pymatgen
data_YNi(WO4)2
_symmetry_space_group_name_H-M   'P 1'
_cell_length_a   5.09206087
_cell_length_b   6.06150616
_cell_length_c   10.09364033
_cell_angle_alpha   90.00107108
_cell_angle_beta   92.70964104
_cell_angle_gamma   89.99903275
_symmetry_Int_Tables_number   1
_chemical_formula_structural   YNi(WO4)2
_chemical_formula_sum   'Y2 Ni2 W4 O16'
_cell_volume   311.19751543
_cell_formula_units_Z   2
loop_
 _symmetry_equiv_pos_site_id
 _symmetry_equiv_pos_as_xyz
  1  'x, y, z'
loop_
 _atom_site_type_symbol
 _atom_site_label
 _atom_site_symmetry_multiplicity
 _atom_site_fract_x
 _atom_site_fract_y
 _atom_site_fract_z
 _atom_site_occupancy
  Y  Y0  1  0.249997  0.663068  0.250002  1
  Y  Y1  1  0.750002  0.336931  0.749998  1
  Ni  Ni2  1  0.750002  0.277280  0.249998  1
  Ni  Ni3  1  0.249998  0.722719  0.750002  1
  W  W4  1  0.250904  0.166599  0.487848  1
  W  W5  1  0.249104  0.166612  0.012146  1
  W  W6  1  0.749096  0.833401  0.512152  1
  W  W7  1  0.750896  0.833388  0.987854  1
  O  O8  1  0.403313  0.356172  0.136284  1
  O  O9  1  0.096679  0.356176  0.363710  1
  O  O10  1  0.596687  0.643827  0.863716  1
  O  O11  1  0.903320  0.643823  0.636290  1
  O  O12  1  0.448409  0.911477  0.609072  1
  O  O13  1  0.051597  0.911482  0.890928  1
  O  O14  1  0.551591  0.088523  0.390928  1
  O  O15  1  0.948403  0.088518  0.109072  1
  O  O16  1  0.894808  0.639432  0.109393  1
  O  O17  1  0.605186  0.639431  0.390609  1
  O  O18  1  0.105192  0.360569  0.890607  1
  O  O19  1  0.394814  0.360570  0.609391  1
  O  O20  1  0.436842  0.885888  0.096034  1
  O  O21  1  0.563158  0.114113  0.903966  1
  O  O22  1  0.063162  0.885890  0.403965  1
  O  O23  1  0.936838  0.114111  0.596035  1
