# generated using pymatgen
data_Sr9Zn3(CuO7)2
_symmetry_space_group_name_H-M   'P 1'
_cell_length_a   3.66729255
_cell_length_b   11.45802732
_cell_length_c   11.42483051
_cell_angle_alpha   98.35647647
_cell_angle_beta   89.99890535
_cell_angle_gamma   99.26416110
_symmetry_Int_Tables_number   1
_chemical_formula_structural   Sr9Zn3(CuO7)2
_chemical_formula_sum   'Sr9 Zn3 Cu2 O14'
_cell_volume   468.64414220
_cell_formula_units_Z   1
loop_
 _symmetry_equiv_pos_site_id
 _symmetry_equiv_pos_as_xyz
  1  'x, y, z'
loop_
 _atom_site_type_symbol
 _atom_site_label
 _atom_site_symmetry_multiplicity
 _atom_site_fract_x
 _atom_site_fract_y
 _atom_site_fract_z
 _atom_site_occupancy
  Sr  Sr0  1  0.309486  0.611224  0.426422  1
  Sr  Sr1  1  0.320021  0.648477  0.084429  1
  Sr  Sr2  1  0.318841  0.632491  0.789822  1
  Sr  Sr3  1  0.687581  0.379167  0.219642  1
  Sr  Sr4  1  0.486130  0.970393  0.175759  1
  Sr  Sr5  1  0.507622  0.001919  0.498015  1
  Sr  Sr6  1  0.695420  0.392575  0.575864  1
  Sr  Sr7  1  0.509266  0.021537  0.811042  1
  Sr  Sr8  1  0.685133  0.374297  0.900674  1
  Zn  Zn9  1  0.111564  0.223264  0.703577  1
  Zn  Zn10  1  0.100458  0.205278  0.039637  1
  Zn  Zn11  1  0.890593  0.776882  0.298587  1
  Cu  Cu12  1  0.901036  0.788282  0.623741  1
  Cu  Cu13  1  0.108535  0.213568  0.376563  1
  O  O14  1  0.801436  0.594895  0.275515  1
  O  O15  1  0.193222  0.390053  0.070315  1
  O  O16  1  0.033259  0.054344  0.353614  1
  O  O17  1  0.912571  0.822081  0.141250  1
  O  O18  1  0.190507  0.378640  0.401355  1
  O  O19  1  0.409119  0.812925  0.365051  1
  O  O20  1  0.795292  0.588436  0.927581  1
  O  O21  1  0.203013  0.405929  0.728565  1
  O  O22  1  0.578264  0.160567  0.093051  1
  O  O23  1  0.818481  0.623164  0.599206  1
  O  O24  1  0.978986  0.947933  0.647699  1
  O  O25  1  0.411429  0.840411  0.909384  1
  O  O26  1  0.086245  0.171801  0.863285  1
  O  O27  1  0.593997  0.188016  0.639782  1
