# generated using pymatgen
data_Fe2(TeO4)3
_symmetry_space_group_name_H-M   'P 1'
_cell_length_a   6.81162470
_cell_length_b   8.71103445
_cell_length_c   10.35005369
_cell_angle_alpha   108.72442283
_cell_angle_beta   104.03420923
_cell_angle_gamma   103.19262451
_symmetry_Int_Tables_number   1
_chemical_formula_structural   Fe2(TeO4)3
_chemical_formula_sum   'Fe4 Te6 O24'
_cell_volume   532.04030791
_cell_formula_units_Z   2
loop_
 _symmetry_equiv_pos_site_id
 _symmetry_equiv_pos_as_xyz
  1  'x, y, z'
loop_
 _atom_site_type_symbol
 _atom_site_label
 _atom_site_symmetry_multiplicity
 _atom_site_fract_x
 _atom_site_fract_y
 _atom_site_fract_z
 _atom_site_occupancy
  Fe  Fe0  1  0.373890  0.959904  0.615483  1
  Fe  Fe1  1  0.626110  0.040096  0.384517  1
  Fe  Fe2  1  0.046081  0.212146  0.017619  1
  Fe  Fe3  1  0.953919  0.787854  0.982381  1
  Te  Te4  1  0.882199  0.882246  0.658210  1
  Te  Te5  1  0.117801  0.117754  0.341790  1
  Te  Te6  1  0.212869  0.672398  0.265455  1
  Te  Te7  1  0.787131  0.327602  0.734545  1
  Te  Te8  1  0.606162  0.277804  0.143964  1
  Te  Te9  1  0.393838  0.722196  0.856036  1
  O  O10  1  0.072939  0.051579  0.141029  1
  O  O11  1  0.927061  0.948421  0.858971  1
  O  O12  1  0.560675  0.132908  0.241254  1
  O  O13  1  0.439325  0.867092  0.758746  1
  O  O14  1  0.184072  0.445146  0.178511  1
  O  O15  1  0.815928  0.554854  0.821489  1
  O  O16  1  0.996910  0.274157  0.846173  1
  O  O17  1  0.003090  0.725843  0.153827  1
  O  O18  1  0.243178  0.809900  0.972396  1
  O  O19  1  0.756822  0.190100  0.027604  1
  O  O20  1  0.879352  0.983518  0.358029  1
  O  O21  1  0.120648  0.016482  0.641971  1
  O  O22  1  0.521846  0.212745  0.733662  1
  O  O23  1  0.478154  0.787255  0.266338  1
  O  O24  1  0.336338  0.217581  0.009956  1
  O  O25  1  0.663662  0.782419  0.990044  1
  O  O26  1  0.328756  0.029941  0.418008  1
  O  O27  1  0.671244  0.970059  0.581992  1
  O  O28  1  0.219868  0.724279  0.454908  1
  O  O29  1  0.780132  0.275721  0.545092  1
  O  O30  1  0.741081  0.503546  0.255624  1
  O  O31  1  0.258919  0.496454  0.744377  1
  O  O32  1  0.186554  0.346342  0.426289  1
  O  O33  1  0.813446  0.653658  0.573711  1
