# generated using pymatgen
data_Ba2AlSn3O7
_symmetry_space_group_name_H-M   'P 1'
_cell_length_a   4.15807906
_cell_length_b   4.36662872
_cell_length_c   11.56260505
_cell_angle_alpha   90.00039249
_cell_angle_beta   89.99957451
_cell_angle_gamma   89.98962652
_symmetry_Int_Tables_number   1
_chemical_formula_structural   Ba2AlSn3O7
_chemical_formula_sum   'Ba2 Al1 Sn3 O7'
_cell_volume   209.93975849
_cell_formula_units_Z   1
loop_
 _symmetry_equiv_pos_site_id
 _symmetry_equiv_pos_as_xyz
  1  'x, y, z'
loop_
 _atom_site_type_symbol
 _atom_site_label
 _atom_site_symmetry_multiplicity
 _atom_site_fract_x
 _atom_site_fract_y
 _atom_site_fract_z
 _atom_site_occupancy
  Ba  Ba0  1  0.499980  0.500004  0.810768  1
  Ba  Ba1  1  0.499995  0.499990  0.189239  1
  Al  Al2  1  0.500100  0.499818  0.499999  1
  Sn  Sn3  1  0.000018  0.999968  0.622000  1
  Sn  Sn4  1  0.000023  0.999978  0.377998  1
  Sn  Sn5  1  0.999953  0.999965  0.999999  1
  O  O6  1  0.999992  0.500007  0.000000  1
  O  O7  1  0.500017  0.000124  0.627304  1
  O  O8  1  0.500012  0.000154  0.372699  1
  O  O9  1  0.999946  0.499993  0.619829  1
  O  O10  1  0.999940  0.499999  0.380168  1
  O  O11  1  0.000015  -0.000002  0.801962  1
  O  O12  1  0.000010  -0.000002  0.198033  1
