# generated using pymatgen
data_Zn2CrN2
_symmetry_space_group_name_H-M   'P 1'
_cell_length_a   4.58918325
_cell_length_b   6.02916361
_cell_length_c   5.56076195
_cell_angle_alpha   64.35956594
_cell_angle_beta   65.12926864
_cell_angle_gamma   67.43672744
_symmetry_Int_Tables_number   1
_chemical_formula_structural   Zn2CrN2
_chemical_formula_sum   'Zn4 Cr2 N4'
_cell_volume   121.95831721
_cell_formula_units_Z   2
loop_
 _symmetry_equiv_pos_site_id
 _symmetry_equiv_pos_as_xyz
  1  'x, y, z'
loop_
 _atom_site_type_symbol
 _atom_site_label
 _atom_site_symmetry_multiplicity
 _atom_site_fract_x
 _atom_site_fract_y
 _atom_site_fract_z
 _atom_site_occupancy
  Zn  Zn0  1  0.706879  0.248180  0.339716  1
  Zn  Zn1  1  0.291931  0.750699  0.661658  1
  Zn  Zn2  1  0.056695  0.686978  0.193961  1
  Zn  Zn3  1  0.939772  0.312505  0.804695  1
  Cr  Cr4  1  0.357210  0.151914  0.135174  1
  Cr  Cr5  1  0.643043  0.842973  0.865326  1
  N  N6  1  0.159990  0.280642  0.407071  1
  N  N7  1  0.838132  0.719301  0.591056  1
  N  N8  1  0.529632  0.187758  0.753293  1
  N  N9  1  0.469003  0.807841  0.249004  1
