# generated using pymatgen
data_BaBiF7
_symmetry_space_group_name_H-M   'P 1'
_cell_length_a   5.79584687
_cell_length_b   10.53127084
_cell_length_c   10.20350045
_cell_angle_alpha   90.00000000
_cell_angle_beta   90.00000000
_cell_angle_gamma   92.06366437
_symmetry_Int_Tables_number   1
_chemical_formula_structural   BaBiF7
_chemical_formula_sum   'Ba4 Bi4 F28'
_cell_volume   622.39359012
_cell_formula_units_Z   4
loop_
 _symmetry_equiv_pos_site_id
 _symmetry_equiv_pos_as_xyz
  1  'x, y, z'
loop_
 _atom_site_type_symbol
 _atom_site_label
 _atom_site_symmetry_multiplicity
 _atom_site_fract_x
 _atom_site_fract_y
 _atom_site_fract_z
 _atom_site_occupancy
  Ba  Ba0  1  0.308295  0.492073  0.330816  1
  Ba  Ba1  1  0.691705  0.007927  0.830816  1
  Ba  Ba2  1  0.691705  0.507927  0.669184  1
  Ba  Ba3  1  0.308295  0.992073  0.169184  1
  Bi  Bi4  1  0.184845  0.813543  0.609221  1
  Bi  Bi5  1  0.815155  0.186457  0.390779  1
  Bi  Bi6  1  0.184845  0.313543  0.890779  1
  Bi  Bi7  1  0.815155  0.686457  0.109221  1
  F  F8  1  0.119394  0.112373  0.449035  1
  F  F9  1  0.347637  0.369492  0.058839  1
  F  F10  1  0.483093  0.757300  0.697473  1
  F  F11  1  0.516907  0.242700  0.302527  1
  F  F12  1  0.897902  0.367272  0.459106  1
  F  F13  1  0.255414  0.484396  0.797474  1
  F  F14  1  0.989754  0.754454  0.768784  1
  F  F15  1  0.102098  0.132728  0.959106  1
  F  F16  1  0.347637  0.869492  0.441161  1
  F  F17  1  0.516907  0.742700  0.197473  1
  F  F18  1  0.119394  0.612373  0.050965  1
  F  F19  1  0.880606  0.887627  0.550965  1
  F  F20  1  0.010246  0.745546  0.268784  1
  F  F21  1  0.409508  0.880798  0.964427  1
  F  F22  1  0.102098  0.632728  0.540894  1
  F  F23  1  0.897902  0.867272  0.040894  1
  F  F24  1  0.010246  0.245546  0.231216  1
  F  F25  1  0.880606  0.387627  0.949035  1
  F  F26  1  0.590492  0.619202  0.464427  1
  F  F27  1  0.652363  0.630508  0.941161  1
  F  F28  1  0.590492  0.119202  0.035573  1
  F  F29  1  0.989754  0.254454  0.731216  1
  F  F30  1  0.409508  0.380798  0.535573  1
  F  F31  1  0.744586  0.015604  0.297474  1
  F  F32  1  0.744586  0.515604  0.202526  1
  F  F33  1  0.255414  0.984396  0.702526  1
  F  F34  1  0.652363  0.130508  0.558839  1
  F  F35  1  0.483093  0.257300  0.802527  1
