# generated using pymatgen
data_Ta6Zn3(FeO6)4
_symmetry_space_group_name_H-M   'P 1'
_cell_length_a   7.03418664
_cell_length_b   8.27088117
_cell_length_c   10.31100790
_cell_angle_alpha   106.66628882
_cell_angle_beta   103.32823552
_cell_angle_gamma   102.17462663
_symmetry_Int_Tables_number   1
_chemical_formula_structural   Ta6Zn3(FeO6)4
_chemical_formula_sum   'Ta6 Zn3 Fe4 O24'
_cell_volume   533.94404108
_cell_formula_units_Z   1
loop_
 _symmetry_equiv_pos_site_id
 _symmetry_equiv_pos_as_xyz
  1  'x, y, z'
loop_
 _atom_site_type_symbol
 _atom_site_label
 _atom_site_symmetry_multiplicity
 _atom_site_fract_x
 _atom_site_fract_y
 _atom_site_fract_z
 _atom_site_occupancy
  Ta  Ta0  1  0.778467  0.331427  0.728922  1
  Ta  Ta1  1  0.221533  0.668572  0.271078  1
  Ta  Ta2  1  0.895465  0.909733  0.667855  1
  Ta  Ta3  1  0.407705  0.732198  0.878137  1
  Ta  Ta4  1  0.104535  0.090267  0.332145  1
  Ta  Ta5  1  0.592294  0.267802  0.121863  1
  Zn  Zn6  1  1.000000  0.500000  0.500000  1
  Zn  Zn7  1  0.285219  0.283529  0.798339  1
  Zn  Zn8  1  0.714780  0.716470  0.201661  1
  Fe  Fe9  1  0.379828  0.951950  0.608657  1
  Fe  Fe10  1  0.620172  0.048050  0.391344  1
  Fe  Fe11  1  0.041769  0.204329  0.011925  1
  Fe  Fe12  1  0.958231  0.795671  0.988075  1
  O  O13  1  0.879753  0.679659  0.581086  1
  O  O14  1  0.120247  0.320341  0.418914  1
  O  O15  1  0.276227  0.499128  0.758934  1
  O  O16  1  0.723773  0.500872  0.241067  1
  O  O17  1  0.781510  0.296993  0.539494  1
  O  O18  1  0.218490  0.703007  0.460506  1
  O  O19  1  0.661837  0.969053  0.575883  1
  O  O20  1  0.338163  0.030947  0.424117  1
  O  O21  1  0.660241  0.756815  0.012173  1
  O  O22  1  0.339760  0.243185  0.987828  1
  O  O23  1  0.481949  0.779565  0.270274  1
  O  O24  1  0.518051  0.220435  0.729726  1
  O  O25  1  0.138274  0.027737  0.645737  1
  O  O26  1  0.071823  0.061843  0.138916  1
  O  O27  1  0.928176  0.938157  0.861084  1
  O  O28  1  0.564218  0.135015  0.238643  1
  O  O29  1  0.435781  0.864985  0.761357  1
  O  O30  1  0.165862  0.435134  0.166411  1
  O  O31  1  0.834138  0.564866  0.833590  1
  O  O32  1  0.979465  0.245603  0.822213  1
  O  O33  1  0.020534  0.754396  0.177787  1
  O  O34  1  0.230810  0.794065  0.976288  1
  O  O35  1  0.769190  0.205935  0.023712  1
  O  O36  1  0.861726  0.972263  0.354263  1
