# generated using pymatgen
data_Zn(FeO2)2
_symmetry_space_group_name_H-M   'P 1'
_cell_length_a   6.06432229
_cell_length_b   6.06432248
_cell_length_c   18.19042952
_cell_angle_alpha   59.99539011
_cell_angle_beta   59.99538909
_cell_angle_gamma   60.00000014
_symmetry_Int_Tables_number   1
_chemical_formula_structural   Zn(FeO2)2
_chemical_formula_sum   'Zn6 Fe12 O24'
_cell_volume   473.00120826
_cell_formula_units_Z   6
loop_
 _symmetry_equiv_pos_site_id
 _symmetry_equiv_pos_as_xyz
  1  'x, y, z'
loop_
 _atom_site_type_symbol
 _atom_site_label
 _atom_site_symmetry_multiplicity
 _atom_site_fract_x
 _atom_site_fract_y
 _atom_site_fract_z
 _atom_site_occupancy
  Zn  Zn0  1  0.121548  0.121548  0.045119  1
  Zn  Zn1  1  0.497563  0.497563  0.002437  1
  Zn  Zn2  1  0.124669  0.124669  0.375331  1
  Zn  Zn3  1  0.125896  0.125896  0.707437  1
  Zn  Zn4  1  0.877009  0.877009  0.289658  1
  Zn  Zn5  1  0.874901  0.874901  0.625099  1
  Fe  Fe6  1  0.498059  0.498059  0.166542  1
  Fe  Fe7  1  0.498059  0.004256  0.166542  1
  Fe  Fe8  1  0.501214  0.501214  0.332119  1
  Fe  Fe9  1  0.500593  0.500593  0.499216  1
  Fe  Fe10  1  0.004256  0.498059  0.166542  1
  Fe  Fe11  1  0.002236  0.499311  0.833047  1
  Fe  Fe12  1  0.500593  0.001165  0.499216  1
  Fe  Fe13  1  0.501433  0.501433  0.665234  1
  Fe  Fe14  1  0.001165  0.500593  0.499216  1
  Fe  Fe15  1  0.499311  0.499311  0.833047  1
  Fe  Fe16  1  0.499311  0.002236  0.833047  1
  Fe  Fe17  1  0.876284  0.876284  0.957049  1
  O  O18  1  0.252773  0.252773  0.091271  1
  O  O19  1  0.258916  0.258916  0.241084  1
  O  O20  1  0.252773  0.720641  0.091271  1
  O  O21  1  0.720641  0.252773  0.091271  1
  O  O22  1  0.283533  0.738557  0.246451  1
  O  O23  1  0.260069  0.260069  0.420424  1
  O  O24  1  0.745146  0.745146  0.088187  1
  O  O25  1  0.260306  0.260306  0.573027  1
  O  O26  1  0.260069  0.718590  0.420424  1
  O  O27  1  0.738557  0.283533  0.246451  1
  O  O28  1  0.718590  0.260069  0.420424  1
  O  O29  1  0.738557  0.738557  0.246451  1
  O  O30  1  0.280640  0.739723  0.579972  1
  O  O31  1  0.261056  0.261056  0.753168  1
  O  O32  1  0.259872  0.259872  0.906795  1
  O  O33  1  0.739723  0.280640  0.579972  1
  O  O34  1  0.740051  0.740051  0.426616  1
  O  O35  1  0.261056  0.718386  0.753168  1
  O  O36  1  0.739723  0.739723  0.579972  1
  O  O37  1  0.718386  0.261056  0.753168  1
  O  O38  1  0.268821  0.749247  0.910895  1
  O  O39  1  0.749247  0.268821  0.910895  1
  O  O40  1  0.738146  0.738146  0.761854  1
  O  O41  1  0.749247  0.749247  0.910895  1
