# generated using pymatgen
data_V2ZnCuO7
_symmetry_space_group_name_H-M   'P 1'
_cell_length_a   8.32924487
_cell_length_b   10.85172178
_cell_length_c   10.19738211
_cell_angle_alpha   93.71191923
_cell_angle_beta   90.00000000
_cell_angle_gamma   90.00000000
_symmetry_Int_Tables_number   1
_chemical_formula_structural   V2ZnCuO7
_chemical_formula_sum   'V12 Zn6 Cu6 O42'
_cell_volume   919.77360365
_cell_formula_units_Z   6
loop_
 _symmetry_equiv_pos_site_id
 _symmetry_equiv_pos_as_xyz
  1  'x, y, z'
loop_
 _atom_site_type_symbol
 _atom_site_label
 _atom_site_symmetry_multiplicity
 _atom_site_fract_x
 _atom_site_fract_y
 _atom_site_fract_z
 _atom_site_occupancy
  V  V0  1  0.222246  0.159355  0.282643  1
  V  V1  1  0.737236  0.169434  0.380384  1
  V  V2  1  0.262764  0.169434  0.880384  1
  V  V3  1  0.777754  0.159355  0.782643  1
  V  V4  1  0.279527  0.473648  0.955798  1
  V  V5  1  0.737236  0.830566  0.119616  1
  V  V6  1  0.720473  0.473648  0.455798  1
  V  V7  1  0.262764  0.830566  0.619616  1
  V  V8  1  0.279527  0.526352  0.544202  1
  V  V9  1  0.720473  0.526352  0.044202  1
  V  V10  1  0.777754  0.840645  0.717357  1
  V  V11  1  0.222246  0.840645  0.217357  1
  Zn  Zn12  1  0.430674  0.126663  0.574862  1
  Zn  Zn13  1  0.932849  0.500000  0.750000  1
  Zn  Zn14  1  0.430674  0.873337  0.925138  1
  Zn  Zn15  1  0.067151  0.500000  0.250000  1
  Zn  Zn16  1  0.569326  0.873337  0.425138  1
  Zn  Zn17  1  0.569326  0.126663  0.074862  1
  Cu  Cu18  1  0.926946  0.804084  0.413922  1
  Cu  Cu19  1  0.073054  0.195916  0.586078  1
  Cu  Cu20  1  0.432020  0.500000  0.250000  1
  Cu  Cu21  1  0.926946  0.195916  0.086078  1
  Cu  Cu22  1  0.567980  0.500000  0.750000  1
  Cu  Cu23  1  0.073054  0.804084  0.913922  1
  O  O24  1  0.749233  0.187222  0.955874  1
  O  O25  1  0.758448  0.835301  0.291765  1
  O  O26  1  0.835820  0.000000  0.750000  1
  O  O27  1  0.901063  0.509403  0.113912  1
  O  O28  1  0.401808  0.938698  0.572969  1
  O  O29  1  0.921715  0.255194  0.719715  1
  O  O30  1  0.344141  0.314734  0.933530  1
  O  O31  1  0.098937  0.509403  0.613912  1
  O  O32  1  0.742156  0.486996  0.873229  1
  O  O33  1  0.401808  0.061302  0.927031  1
  O  O34  1  0.742156  0.513004  0.626771  1
  O  O35  1  0.419617  0.560772  0.880992  1
  O  O36  1  0.916035  0.848162  0.043295  1
  O  O37  1  0.078285  0.255194  0.219715  1
  O  O38  1  0.655859  0.685266  0.066470  1
  O  O39  1  0.344141  0.685266  0.566470  1
  O  O40  1  0.921715  0.744806  0.780285  1
  O  O41  1  0.598192  0.061302  0.427031  1
  O  O42  1  0.250767  0.187222  0.455874  1
  O  O43  1  0.580383  0.439228  0.119008  1
  O  O44  1  0.397874  0.820369  0.296357  1
  O  O45  1  0.257844  0.513004  0.126771  1
  O  O46  1  0.083965  0.848162  0.543295  1
  O  O47  1  0.257844  0.486996  0.373229  1
  O  O48  1  0.901063  0.490597  0.386088  1
  O  O49  1  0.580383  0.560772  0.380992  1
  O  O50  1  0.098937  0.490597  0.886088  1
  O  O51  1  0.602126  0.820369  0.796357  1
  O  O52  1  0.602126  0.179631  0.703643  1
  O  O53  1  0.083965  0.151838  0.956705  1
  O  O54  1  0.078285  0.744806  0.280285  1
  O  O55  1  0.749233  0.812778  0.544126  1
  O  O56  1  0.164180  0.000000  0.250000  1
  O  O57  1  0.241552  0.835301  0.791765  1
  O  O58  1  0.598192  0.938698  0.072969  1
  O  O59  1  0.916035  0.151838  0.456705  1
  O  O60  1  0.250767  0.812778  0.044126  1
  O  O61  1  0.758448  0.164699  0.208235  1
  O  O62  1  0.419617  0.439228  0.619008  1
  O  O63  1  0.655859  0.314734  0.433530  1
  O  O64  1  0.241552  0.164699  0.708235  1
  O  O65  1  0.397874  0.179631  0.203643  1
