# generated using pymatgen
data_AlFe3F15
_symmetry_space_group_name_H-M   'P 1'
_cell_length_a   9.64688052
_cell_length_b   5.34730373
_cell_length_c   5.34730352
_cell_angle_alpha   76.75976812
_cell_angle_beta   71.33900155
_cell_angle_gamma   71.33898546
_symmetry_Int_Tables_number   1
_chemical_formula_structural   AlFe3F15
_chemical_formula_sum   'Al1 Fe3 F15'
_cell_volume   245.12204604
_cell_formula_units_Z   1
loop_
 _symmetry_equiv_pos_site_id
 _symmetry_equiv_pos_as_xyz
  1  'x, y, z'
loop_
 _atom_site_type_symbol
 _atom_site_label
 _atom_site_symmetry_multiplicity
 _atom_site_fract_x
 _atom_site_fract_y
 _atom_site_fract_z
 _atom_site_occupancy
  Al  Al0  1  0.833333  0.500000  0.500000  1
  Fe  Fe1  1  0.012315  0.000680  0.000680  1
  Fe  Fe2  1  0.333333  0.000000  0.000000  1
  Fe  Fe3  1  0.654352  0.999320  0.999320  1
  F  F4  1  0.170372  0.821949  0.189755  1
  F  F5  1  0.496295  0.810245  0.178051  1
  F  F6  1  0.833333  0.802135  0.197865  1
  F  F7  1  0.170372  0.189755  0.821949  1
  F  F8  1  0.496295  0.178051  0.810245  1
  F  F9  1  0.833333  0.197865  0.802135  1
  F  F10  1  0.257631  0.229056  0.229056  1
  F  F11  1  0.582177  0.234010  0.234010  1
  F  F12  1  0.912226  0.255694  0.255694  1
  F  F13  1  0.084490  0.765990  0.765990  1
  F  F14  1  0.409035  0.770944  0.770944  1
  F  F15  1  0.754441  0.744306  0.744306  1
  F  F16  1  0.011981  0.497296  0.497296  1
  F  F17  1  0.333333  0.500000  0.500000  1
  F  F18  1  0.654686  0.502704  0.502704  1
