# generated using pymatgen
data_Ca2YMoO5
_symmetry_space_group_name_H-M   'P 1'
_cell_length_a   5.81738711
_cell_length_b   5.96296959
_cell_length_c   8.73512182
_cell_angle_alpha   109.95053711
_cell_angle_beta   109.48722756
_cell_angle_gamma   89.99665071
_symmetry_Int_Tables_number   1
_chemical_formula_structural   Ca2YMoO5
_chemical_formula_sum   'Ca4 Y2 Mo2 O10'
_cell_volume   266.28911416
_cell_formula_units_Z   2
loop_
 _symmetry_equiv_pos_site_id
 _symmetry_equiv_pos_as_xyz
  1  'x, y, z'
loop_
 _atom_site_type_symbol
 _atom_site_label
 _atom_site_symmetry_multiplicity
 _atom_site_fract_x
 _atom_site_fract_y
 _atom_site_fract_z
 _atom_site_occupancy
  Ca  Ca0  1  0.129850  0.628228  0.213342  1
  Ca  Ca1  1  0.417162  0.915441  0.787116  1
  Ca  Ca2  1  0.917237  0.372669  0.787129  1
  Ca  Ca3  1  0.629833  0.086078  0.213346  1
  Y  Y4  1  0.304575  0.298606  0.500230  1
  Y  Y5  1  0.804472  0.702554  0.500071  1
  Mo  Mo6  1  0.484264  0.500597  0.999971  1
  Mo  Mo7  1  0.984181  0.000339  -0.000031  1
  O  O8  1  0.681762  0.354800  0.500039  1
  O  O9  1  0.181750  0.646298  0.500058  1
  O  O10  1  0.568986  0.747783  0.270402  1
  O  O11  1  0.297650  0.253065  0.729478  1
  O  O12  1  0.068976  0.023564  0.270308  1
  O  O13  1  0.797671  0.977487  0.729572  1
  O  O14  1  0.206730  0.726223  0.925091  1
  O  O15  1  0.281502  0.276723  0.074818  1
  O  O16  1  0.781495  0.299118  0.074842  1
  O  O17  1  0.706758  0.699909  0.925105  1
