# generated using pymatgen
data_CaCr2O4
_symmetry_space_group_name_H-M   'P 1'
_cell_length_a   3.04641159
_cell_length_b   5.19379439
_cell_length_c   10.08787229
_cell_angle_alpha   90.00000000
_cell_angle_beta   90.00000000
_cell_angle_gamma   107.05407386
_symmetry_Int_Tables_number   1
_chemical_formula_structural   CaCr2O4
_chemical_formula_sum   'Ca2 Cr4 O8'
_cell_volume   152.59619378
_cell_formula_units_Z   2
loop_
 _symmetry_equiv_pos_site_id
 _symmetry_equiv_pos_as_xyz
  1  'x, y, z'
loop_
 _atom_site_type_symbol
 _atom_site_label
 _atom_site_symmetry_multiplicity
 _atom_site_fract_x
 _atom_site_fract_y
 _atom_site_fract_z
 _atom_site_occupancy
  Ca  Ca0  1  0.389822  0.779645  0.750000  1
  Ca  Ca1  1  0.610178  0.220355  0.250000  1
  Cr  Cr2  1  0.864603  0.729207  0.069257  1
  Cr  Cr3  1  0.135397  0.270793  0.930743  1
  Cr  Cr4  1  0.864603  0.729207  0.430743  1
  Cr  Cr5  1  0.135397  0.270793  0.569257  1
  O  O6  1  0.235783  0.471566  0.393356  1
  O  O7  1  0.764217  0.528434  0.606644  1
  O  O8  1  0.764217  0.528434  0.893356  1
  O  O9  1  0.235783  0.471566  0.106644  1
  O  O10  1  0.943918  0.887838  0.250000  1
  O  O11  1  0.056082  0.112162  0.750000  1
  O  O12  1  0.500000  -0.000000  0.000000  1
  O  O13  1  0.500000  -0.000000  0.500000  1
