# generated using pymatgen
data_Zn3Ge3(SbO6)2
_symmetry_space_group_name_H-M   'P 1'
_cell_length_a   10.96868172
_cell_length_b   10.96868112
_cell_length_c   10.96868126
_cell_angle_alpha   109.47122091
_cell_angle_beta   109.47121981
_cell_angle_gamma   109.47121983
_symmetry_Int_Tables_number   1
_chemical_formula_structural   Zn3Ge3(SbO6)2
_chemical_formula_sum   'Zn12 Ge12 Sb8 O48'
_cell_volume   1015.87758627
_cell_formula_units_Z   4
loop_
 _symmetry_equiv_pos_site_id
 _symmetry_equiv_pos_as_xyz
  1  'x, y, z'
loop_
 _atom_site_type_symbol
 _atom_site_label
 _atom_site_symmetry_multiplicity
 _atom_site_fract_x
 _atom_site_fract_y
 _atom_site_fract_z
 _atom_site_occupancy
  Zn  Zn0  1  0.625000  0.250000  0.875000  1
  Zn  Zn1  1  0.875000  0.750000  0.625000  1
  Zn  Zn2  1  0.750000  0.625000  0.875000  1
  Zn  Zn3  1  0.250000  0.875000  0.625000  1
  Zn  Zn4  1  0.875000  0.625000  0.250000  1
  Zn  Zn5  1  0.625000  0.875000  0.750000  1
  Zn  Zn6  1  0.375000  0.750000  0.125000  1
  Zn  Zn7  1  0.125000  0.250000  0.375000  1
  Zn  Zn8  1  0.250000  0.375000  0.125000  1
  Zn  Zn9  1  0.750000  0.125000  0.375000  1
  Zn  Zn10  1  0.125000  0.375000  0.750000  1
  Zn  Zn11  1  0.375000  0.125000  0.250000  1
  Ge  Ge12  1  0.875000  0.125000  0.750000  1
  Ge  Ge13  1  0.125000  0.875000  0.250000  1
  Ge  Ge14  1  0.250000  0.625000  0.375000  1
  Ge  Ge15  1  0.125000  0.750000  0.875000  1
  Ge  Ge16  1  0.750000  0.875000  0.125000  1
  Ge  Ge17  1  0.375000  0.250000  0.625000  1
  Ge  Ge18  1  0.625000  0.750000  0.375000  1
  Ge  Ge19  1  0.875000  0.250000  0.125000  1
  Ge  Ge20  1  0.250000  0.125000  0.875000  1
  Ge  Ge21  1  0.750000  0.375000  0.625000  1
  Ge  Ge22  1  0.375000  0.625000  0.750000  1
  Ge  Ge23  1  0.625000  0.375000  0.250000  1
  Sb  Sb24  1  0.500000  0.500000  0.500000  1
  Sb  Sb25  1  0.500000  0.500000  0.000000  1
  Sb  Sb26  1  0.500000  0.000000  0.500000  1
  Sb  Sb27  1  0.000000  0.500000  0.500000  1
  Sb  Sb28  1  0.500000  0.000000  0.000000  1
  Sb  Sb29  1  0.000000  0.000000  0.500000  1
  Sb  Sb30  1  0.000000  0.500000  0.000000  1
  Sb  Sb31  1  0.000000  0.000000  0.000000  1
  O  O32  1  0.776302  0.410926  0.806649  1
  O  O33  1  0.089074  0.865376  0.395723  1
  O  O34  1  0.693351  0.104277  0.969652  1
  O  O35  1  0.723698  0.530348  0.634624  1
  O  O36  1  0.723698  0.693351  0.089074  1
  O  O37  1  0.530348  0.634624  0.723698  1
  O  O38  1  0.104277  0.634624  0.410926  1
  O  O39  1  0.634624  0.723698  0.530348  1
  O  O40  1  0.395723  0.806649  0.530348  1
  O  O41  1  0.865376  0.969652  0.776302  1
  O  O42  1  0.969652  0.776302  0.865376  1
  O  O43  1  0.089074  0.723698  0.693351  1
  O  O44  1  0.634624  0.410926  0.104277  1
  O  O45  1  0.530348  0.395723  0.806649  1
  O  O46  1  0.693351  0.089074  0.723698  1
  O  O47  1  0.410926  0.104277  0.634624  1
  O  O48  1  0.806649  0.530348  0.395723  1
  O  O49  1  0.395723  0.089074  0.865376  1
  O  O50  1  0.104277  0.969652  0.693351  1
  O  O51  1  0.604277  0.193351  0.469652  1
  O  O52  1  0.969652  0.693351  0.104277  1
  O  O53  1  0.806649  0.776302  0.410926  1
  O  O54  1  0.865376  0.395723  0.089074  1
  O  O55  1  0.776302  0.865376  0.969652  1
  O  O56  1  0.223698  0.589074  0.193351  1
  O  O57  1  0.910926  0.134624  0.604277  1
  O  O58  1  0.306649  0.895723  0.030348  1
  O  O59  1  0.276302  0.469652  0.365376  1
  O  O60  1  0.276302  0.306649  0.910926  1
  O  O61  1  0.469652  0.365376  0.276302  1
  O  O62  1  0.895723  0.365376  0.589074  1
  O  O63  1  0.365376  0.276302  0.469652  1
  O  O64  1  0.223698  0.134624  0.030348  1
  O  O65  1  0.134624  0.604277  0.910926  1
  O  O66  1  0.193351  0.223698  0.589074  1
  O  O67  1  0.589074  0.193351  0.223698  1
  O  O68  1  0.030348  0.306649  0.895723  1
  O  O69  1  0.895723  0.030348  0.306649  1
  O  O70  1  0.604277  0.910926  0.134624  1
  O  O71  1  0.193351  0.469652  0.604277  1
  O  O72  1  0.589074  0.895723  0.365376  1
  O  O73  1  0.306649  0.910926  0.276302  1
  O  O74  1  0.469652  0.604277  0.193351  1
  O  O75  1  0.365376  0.589074  0.895723  1
  O  O76  1  0.910926  0.276302  0.306649  1
  O  O77  1  0.030348  0.223698  0.134624  1
  O  O78  1  0.134624  0.030348  0.223698  1
  O  O79  1  0.410926  0.806649  0.776302  1
