# generated using pymatgen
data_Mg3Bi2(PO6)2
_symmetry_space_group_name_H-M   'P 1'
_cell_length_a   5.35777714
_cell_length_b   7.86865018
_cell_length_c   12.21251969
_cell_angle_alpha   87.95557428
_cell_angle_beta   90.00000000
_cell_angle_gamma   90.00000000
_symmetry_Int_Tables_number   1
_chemical_formula_structural   Mg3Bi2(PO6)2
_chemical_formula_sum   'Mg6 Bi4 P4 O24'
_cell_volume   514.53346799
_cell_formula_units_Z   2
loop_
 _symmetry_equiv_pos_site_id
 _symmetry_equiv_pos_as_xyz
  1  'x, y, z'
loop_
 _atom_site_type_symbol
 _atom_site_label
 _atom_site_symmetry_multiplicity
 _atom_site_fract_x
 _atom_site_fract_y
 _atom_site_fract_z
 _atom_site_occupancy
  Mg  Mg0  1  0.750000  0.816994  0.594999  1
  Mg  Mg1  1  0.750000  0.310694  0.090761  1
  Mg  Mg2  1  0.750000  0.202938  0.596257  1
  Mg  Mg3  1  0.250000  0.684803  0.908967  1
  Mg  Mg4  1  0.250000  0.179411  0.404124  1
  Mg  Mg5  1  0.750000  0.696460  0.100670  1
  Bi  Bi6  1  0.250000  0.482333  0.594823  1
  Bi  Bi7  1  0.250000  0.000019  0.095187  1
  Bi  Bi8  1  0.750000  0.516324  0.402035  1
  Bi  Bi9  1  0.750000  0.998979  0.902288  1
  P  P10  1  0.750000  0.515970  0.800524  1
  P  P11  1  0.250000  0.009796  0.696627  1
  P  P12  1  0.250000  0.484568  0.196876  1
  P  P13  1  0.750000  0.995372  0.300586  1
  O  O14  1  0.499050  0.325912  0.493926  1
  O  O15  1  0.514223  0.663997  0.512453  1
  O  O16  1  0.000950  0.325912  0.493926  1
  O  O17  1  0.007443  0.003900  0.624525  1
  O  O18  1  0.981115  0.511741  0.876642  1
  O  O19  1  0.250000  0.857670  0.779736  1
  O  O20  1  0.750000  0.822918  0.242710  1
  O  O21  1  0.750000  0.141624  0.213708  1
  O  O22  1  0.250000  0.310817  0.259586  1
  O  O23  1  0.250000  0.632255  0.276915  1
  O  O24  1  0.492192  0.497961  0.124661  1
  O  O25  1  0.000237  0.825516  0.001728  1
  O  O26  1  0.985777  0.663997  0.512453  1
  O  O27  1  0.007808  0.497961  0.124661  1
  O  O28  1  0.988121  0.165250  0.002955  1
  O  O29  1  0.520907  0.007660  0.376750  1
  O  O30  1  0.250000  0.180991  0.753361  1
  O  O31  1  0.750000  0.684914  0.732886  1
  O  O32  1  0.511879  0.165250  0.002955  1
  O  O33  1  0.492557  0.003900  0.624525  1
  O  O34  1  0.979093  0.007660  0.376750  1
  O  O35  1  0.750000  0.362866  0.724189  1
  O  O36  1  0.518885  0.511741  0.876642  1
  O  O37  1  0.499763  0.825516  0.001728  1
