# generated using pymatgen
data_ZnBi2O5
_symmetry_space_group_name_H-M   'P 1'
_cell_length_a   4.34093336
_cell_length_b   5.90739669
_cell_length_c   10.92713982
_cell_angle_alpha   90.00000000
_cell_angle_beta   90.00000000
_cell_angle_gamma   111.55627719
_symmetry_Int_Tables_number   1
_chemical_formula_structural   ZnBi2O5
_chemical_formula_sum   'Zn2 Bi4 O10'
_cell_volume   260.61258422
_cell_formula_units_Z   2
loop_
 _symmetry_equiv_pos_site_id
 _symmetry_equiv_pos_as_xyz
  1  'x, y, z'
loop_
 _atom_site_type_symbol
 _atom_site_label
 _atom_site_symmetry_multiplicity
 _atom_site_fract_x
 _atom_site_fract_y
 _atom_site_fract_z
 _atom_site_occupancy
  Zn  Zn0  1  0.817136  0.634269  0.750000  1
  Zn  Zn1  1  0.182865  0.365732  0.250000  1
  Bi  Bi2  1  0.140193  0.280386  0.570558  1
  Bi  Bi3  1  0.859808  0.719615  0.429441  1
  Bi  Bi4  1  0.859808  0.719615  0.070559  1
  Bi  Bi5  1  0.140193  0.280386  0.929442  1
  O  O6  1  0.759216  0.518432  0.250000  1
  O  O7  1  0.240785  0.481569  0.750000  1
  O  O8  1  0.303343  0.606684  0.079764  1
  O  O9  1  0.696659  0.393317  0.920236  1
  O  O10  1  0.696659  0.393317  0.579764  1
  O  O11  1  0.303343  0.606684  0.420235  1
  O  O12  1  0.945664  0.891326  0.614661  1
  O  O13  1  0.054336  0.108673  0.385339  1
  O  O14  1  0.945664  0.891326  0.885339  1
  O  O15  1  0.054336  0.108673  0.114662  1
