# generated using pymatgen
data_ZnCrO2
_symmetry_space_group_name_H-M   'P 1'
_cell_length_a   2.97571494
_cell_length_b   8.49375935
_cell_length_c   8.59249923
_cell_angle_alpha   84.75350709
_cell_angle_beta   79.87423500
_cell_angle_gamma   79.86310042
_symmetry_Int_Tables_number   1
_chemical_formula_structural   ZnCrO2
_chemical_formula_sum   'Zn4 Cr4 O8'
_cell_volume   210.04497631
_cell_formula_units_Z   4
loop_
 _symmetry_equiv_pos_site_id
 _symmetry_equiv_pos_as_xyz
  1  'x, y, z'
loop_
 _atom_site_type_symbol
 _atom_site_label
 _atom_site_symmetry_multiplicity
 _atom_site_fract_x
 _atom_site_fract_y
 _atom_site_fract_z
 _atom_site_occupancy
  Zn  Zn0  1  0.348806  0.064646  0.246186  1
  Zn  Zn1  1  0.647063  0.915296  0.782210  1
  Zn  Zn2  1  0.077277  0.712599  0.134935  1
  Zn  Zn3  1  0.918746  0.267267  0.893282  1
  Cr  Cr4  1  0.622360  0.184143  0.567284  1
  Cr  Cr5  1  0.212483  0.385279  0.193096  1
  Cr  Cr6  1  0.783632  0.594572  0.834905  1
  Cr  Cr7  1  0.373631  0.795937  0.461023  1
  O  O8  1  0.815805  0.757576  0.612548  1
  O  O9  1  0.373966  0.422694  0.827255  1
  O  O10  1  0.622170  0.557135  0.200698  1
  O  O11  1  0.180186  0.222503  0.415730  1
  O  O12  1  0.078188  0.097812  0.738698  1
  O  O13  1  0.834306  0.213381  0.123494  1
  O  O14  1  0.917871  0.882063  0.289563  1
  O  O15  1  0.161785  0.766433  0.904710  1
