# generated using pymatgen
data_Zn(Ni2O3)2
_symmetry_space_group_name_H-M   'P 1'
_cell_length_a   2.91362821
_cell_length_b   5.09046782
_cell_length_c   14.89921991
_cell_angle_alpha   90.00000000
_cell_angle_beta   90.00000000
_cell_angle_gamma   106.62967804
_symmetry_Int_Tables_number   1
_chemical_formula_structural   Zn(Ni2O3)2
_chemical_formula_sum   'Zn2 Ni8 O12'
_cell_volume   211.73855888
_cell_formula_units_Z   2
loop_
 _symmetry_equiv_pos_site_id
 _symmetry_equiv_pos_as_xyz
  1  'x, y, z'
loop_
 _atom_site_type_symbol
 _atom_site_label
 _atom_site_symmetry_multiplicity
 _atom_site_fract_x
 _atom_site_fract_y
 _atom_site_fract_z
 _atom_site_occupancy
  Zn  Zn0  1  0.656568  0.313137  0.750000  1
  Zn  Zn1  1  0.343432  0.686863  0.250000  1
  Ni  Ni2  1  0.863640  0.727282  0.044573  1
  Ni  Ni3  1  0.404475  0.808950  0.634784  1
  Ni  Ni4  1  0.136358  0.272717  0.955427  1
  Ni  Ni5  1  0.595525  0.191050  0.365217  1
  Ni  Ni6  1  0.863640  0.727282  0.455427  1
  Ni  Ni7  1  0.136358  0.272717  0.544573  1
  Ni  Ni8  1  0.595525  0.191050  0.134783  1
  Ni  Ni9  1  0.404475  0.808950  0.865216  1
  O  O10  1  0.499999  0.000000  0.500000  1
  O  O11  1  0.499999  0.000000  -0.000000  1
  O  O12  1  0.046252  0.092502  0.839525  1
  O  O13  1  0.953748  0.907498  0.160476  1
  O  O14  1  0.953748  0.907498  0.339524  1
  O  O15  1  0.046252  0.092502  0.660476  1
  O  O16  1  0.778430  0.556863  0.923890  1
  O  O17  1  0.221569  0.443138  0.076110  1
  O  O18  1  0.221569  0.443138  0.423890  1
  O  O19  1  0.778430  0.556863  0.576110  1
  O  O20  1  0.302816  0.605633  0.750000  1
  O  O21  1  0.697182  0.394366  0.250000  1
