# generated using pymatgen
data_Mn4ZnO8
_symmetry_space_group_name_H-M   'P 1'
_cell_length_a   3.00255153
_cell_length_b   7.22776735
_cell_length_c   7.41999813
_cell_angle_alpha   82.07301118
_cell_angle_beta   78.52720456
_cell_angle_gamma   78.31314949
_symmetry_Int_Tables_number   1
_chemical_formula_structural   Mn4ZnO8
_chemical_formula_sum   'Mn4 Zn1 O8'
_cell_volume   153.73638913
_cell_formula_units_Z   1
loop_
 _symmetry_equiv_pos_site_id
 _symmetry_equiv_pos_as_xyz
  1  'x, y, z'
loop_
 _atom_site_type_symbol
 _atom_site_label
 _atom_site_symmetry_multiplicity
 _atom_site_fract_x
 _atom_site_fract_y
 _atom_site_fract_z
 _atom_site_occupancy
  Mn  Mn0  1  0.635784  0.173509  0.555185  1
  Mn  Mn1  1  0.139734  0.505564  0.208854  1
  Mn  Mn2  1  0.843503  0.479378  0.837663  1
  Mn  Mn3  1  0.349030  0.802071  0.497980  1
  Zn  Zn4  1  0.342459  0.127107  0.189817  1
  O  O5  1  0.851695  0.673143  0.623928  1
  O  O6  1  0.457805  0.336180  0.749308  1
  O  O7  1  0.525796  0.647786  0.292075  1
  O  O8  1  0.136541  0.306160  0.421351  1
  O  O9  1  0.162972  0.019401  0.655066  1
  O  O10  1  0.803689  0.312211  0.091047  1
  O  O11  1  0.825052  0.986127  0.356678  1
  O  O12  1  0.223424  0.607469  0.951693  1
