# generated using pymatgen
data_PrZnCr2O6
_symmetry_space_group_name_H-M   'P 1'
_cell_length_a   5.30676398
_cell_length_b   5.40459666
_cell_length_c   7.75567028
_cell_angle_alpha   90.00601595
_cell_angle_beta   90.23423799
_cell_angle_gamma   89.95964680
_symmetry_Int_Tables_number   1
_chemical_formula_structural   PrZnCr2O6
_chemical_formula_sum   'Pr2 Zn2 Cr4 O12'
_cell_volume   222.43783459
_cell_formula_units_Z   2
loop_
 _symmetry_equiv_pos_site_id
 _symmetry_equiv_pos_as_xyz
  1  'x, y, z'
loop_
 _atom_site_type_symbol
 _atom_site_label
 _atom_site_symmetry_multiplicity
 _atom_site_fract_x
 _atom_site_fract_y
 _atom_site_fract_z
 _atom_site_occupancy
  Pr  Pr0  1  0.008124  0.951003  0.749602  1
  Pr  Pr1  1  0.507600  0.548774  0.249736  1
  Zn  Zn2  1  0.491307  0.470351  0.748149  1
  Zn  Zn3  1  0.991946  0.029620  0.247636  1
  Cr  Cr4  1  0.996308  0.492599  0.001084  1
  Cr  Cr5  1  0.994630  0.486865  0.498337  1
  Cr  Cr6  1  0.496679  0.007295  0.501194  1
  Cr  Cr7  1  0.494985  0.013185  0.998310  1
  O  O8  1  0.082115  0.442638  0.251184  1
  O  O9  1  0.218860  0.211568  0.947173  1
  O  O10  1  0.207706  0.221789  0.554954  1
  O  O11  1  0.307065  0.691324  0.557547  1
  O  O12  1  0.318387  0.697505  0.943915  1
  O  O13  1  0.374966  0.978317  0.248370  1
  O  O14  1  0.582151  0.057827  0.751238  1
  O  O15  1  0.707674  0.278335  0.054903  1
  O  O16  1  0.719413  0.287863  0.446741  1
  O  O17  1  0.807491  0.808893  0.057647  1
  O  O18  1  0.818524  0.802105  0.443905  1
  O  O19  1  0.874066  0.522146  0.748378  1
