# generated using pymatgen
data_Sr2YTlSn2O7
_symmetry_space_group_name_H-M   'P 1'
_cell_length_a   4.19518249
_cell_length_b   4.19522128
_cell_length_c   12.80345355
_cell_angle_alpha   89.99964672
_cell_angle_beta   89.99995596
_cell_angle_gamma   89.98320993
_symmetry_Int_Tables_number   1
_chemical_formula_structural   Sr2YTlSn2O7
_chemical_formula_sum   'Sr2 Y1 Tl1 Sn2 O7'
_cell_volume   225.33717319
_cell_formula_units_Z   1
loop_
 _symmetry_equiv_pos_site_id
 _symmetry_equiv_pos_as_xyz
  1  'x, y, z'
loop_
 _atom_site_type_symbol
 _atom_site_label
 _atom_site_symmetry_multiplicity
 _atom_site_fract_x
 _atom_site_fract_y
 _atom_site_fract_z
 _atom_site_occupancy
  Sr  Sr0  1  0.500007  0.499999  0.820009  1
  Sr  Sr1  1  0.500000  0.499996  0.179992  1
  Y  Y2  1  0.499997  0.500000  0.500000  1
  Tl  Tl3  1  0.000002  0.999998  -0.000000  1
  Sn  Sn4  1  0.000000  -0.000000  0.634733  1
  Sn  Sn5  1  0.999999  0.000001  0.365267  1
  O  O6  1  0.500000  0.999997  0.610565  1
  O  O7  1  -0.000002  0.500000  0.610567  1
  O  O8  1  0.499998  0.000003  0.389434  1
  O  O9  1  0.000004  0.500004  0.389433  1
  O  O10  1  0.999995  0.000000  0.794385  1
  O  O11  1  0.000000  0.000000  0.205615  1
  O  O12  1  0.500000  0.500001  0.000001  1
