# generated using pymatgen
data_BaZnCr4O8
_symmetry_space_group_name_H-M   'P 1'
_cell_length_a   5.41936341
_cell_length_b   5.41936373
_cell_length_c   7.34840000
_cell_angle_alpha   90.00000000
_cell_angle_beta   90.00000000
_cell_angle_gamma   119.99999812
_symmetry_Int_Tables_number   1
_chemical_formula_structural   BaZnCr4O8
_chemical_formula_sum   'Ba1 Zn1 Cr4 O8'
_cell_volume   186.90460574
_cell_formula_units_Z   1
loop_
 _symmetry_equiv_pos_site_id
 _symmetry_equiv_pos_as_xyz
  1  'x, y, z'
loop_
 _atom_site_type_symbol
 _atom_site_label
 _atom_site_symmetry_multiplicity
 _atom_site_fract_x
 _atom_site_fract_y
 _atom_site_fract_z
 _atom_site_occupancy
  Ba  Ba0  1  -0.000000  -0.000000  -0.000000  1
  Zn  Zn1  1  -0.000000  -0.000000  0.500000  1
  Cr  Cr2  1  0.333333  0.666667  0.741737  1
  Cr  Cr3  1  0.666667  0.333333  0.741737  1
  Cr  Cr4  1  0.333333  0.666667  0.258263  1
  Cr  Cr5  1  0.666667  0.333333  0.258263  1
  O  O6  1  0.314204  0.314204  0.679109  1
  O  O7  1  0.685796  -0.000000  0.679109  1
  O  O8  1  0.000000  0.685796  0.679109  1
  O  O9  1  0.685796  0.685796  0.320891  1
  O  O10  1  1.000000  0.314204  0.320891  1
  O  O11  1  0.314204  0.000000  0.320891  1
  O  O12  1  0.333333  0.666667  -0.000000  1
  O  O13  1  0.666667  0.333333  -0.000000  1
