# generated using pymatgen
data_ZnCr4O9
_symmetry_space_group_name_H-M   'P 1'
_cell_length_a   4.91807572
_cell_length_b   8.40241275
_cell_length_c   8.40241275
_cell_angle_alpha   90.00000000
_cell_angle_beta   90.00000000
_cell_angle_gamma   90.00000000
_symmetry_Int_Tables_number   1
_chemical_formula_structural   ZnCr4O9
_chemical_formula_sum   'Zn2 Cr8 O18'
_cell_volume   347.21880170
_cell_formula_units_Z   2
loop_
 _symmetry_equiv_pos_site_id
 _symmetry_equiv_pos_as_xyz
  1  'x, y, z'
loop_
 _atom_site_type_symbol
 _atom_site_label
 _atom_site_symmetry_multiplicity
 _atom_site_fract_x
 _atom_site_fract_y
 _atom_site_fract_z
 _atom_site_occupancy
  Zn  Zn0  1  0.026768  0.250000  0.250000  1
  Zn  Zn1  1  0.973233  0.750000  0.749999  1
  Cr  Cr2  1  0.613324  0.535349  0.340716  1
  Cr  Cr3  1  0.386677  0.840715  0.464652  1
  Cr  Cr4  1  0.613324  0.340715  0.964652  1
  Cr  Cr5  1  0.386677  0.035348  0.840715  1
  Cr  Cr6  1  0.613324  0.964652  0.159284  1
  Cr  Cr7  1  0.613324  0.159285  0.535349  1
  Cr  Cr8  1  0.386677  0.464652  0.659284  1
  Cr  Cr9  1  0.386677  0.659284  0.035348  1
  O  O10  1  0.499999  0.750000  0.250000  1
  O  O11  1  0.499999  0.250001  0.750000  1
  O  O12  1  0.056722  0.681581  0.976000  1
  O  O13  1  0.056722  0.524001  0.681580  1
  O  O14  1  0.056722  0.976000  0.818420  1
  O  O15  1  0.056722  0.818420  0.524000  1
  O  O16  1  0.943279  0.318420  0.024000  1
  O  O17  1  0.943279  0.475999  0.318420  1
  O  O18  1  0.943279  0.024000  0.181580  1
  O  O19  1  0.943279  0.181580  0.475999  1
  O  O20  1  0.464194  0.038231  0.356066  1
  O  O21  1  0.464194  0.143933  0.038232  1
  O  O22  1  0.464194  0.356066  0.461769  1
  O  O23  1  0.464194  0.461769  0.143934  1
  O  O24  1  0.535805  0.538231  0.856066  1
  O  O25  1  0.535805  0.856066  0.961769  1
  O  O26  1  0.535805  0.643934  0.538231  1
  O  O27  1  0.535805  0.961768  0.643934  1
