# generated using pymatgen
data_MgSi4NiO10
_symmetry_space_group_name_H-M   'P 1'
_cell_length_a   7.26985729
_cell_length_b   7.26950408
_cell_length_c   14.86012685
_cell_angle_alpha   90.00000000
_cell_angle_beta   90.00000000
_cell_angle_gamma   89.82899581
_symmetry_Int_Tables_number   1
_chemical_formula_structural   MgSi4NiO10
_chemical_formula_sum   'Mg4 Si16 Ni4 O40'
_cell_volume   785.32830839
_cell_formula_units_Z   4
loop_
 _symmetry_equiv_pos_site_id
 _symmetry_equiv_pos_as_xyz
  1  'x, y, z'
loop_
 _atom_site_type_symbol
 _atom_site_label
 _atom_site_symmetry_multiplicity
 _atom_site_fract_x
 _atom_site_fract_y
 _atom_site_fract_z
 _atom_site_occupancy
  Mg  Mg0  1  0.250000  0.750000  0.499892  1
  Mg  Mg1  1  0.750000  0.250000  0.500108  1
  Mg  Mg2  1  0.750000  0.250000  0.999867  1
  Mg  Mg3  1  0.250000  0.750000  0.000133  1
  Si  Si4  1  0.916524  0.491567  0.644077  1
  Si  Si5  1  0.583476  0.008433  0.644077  1
  Si  Si6  1  0.991653  0.416588  0.856047  1
  Si  Si7  1  0.491777  0.584164  0.643912  1
  Si  Si8  1  0.008223  0.915836  0.643912  1
  Si  Si9  1  0.084102  0.991791  0.855956  1
  Si  Si10  1  0.415898  0.508209  0.855956  1
  Si  Si11  1  0.508347  0.083412  0.856047  1
  Si  Si12  1  0.083476  0.508433  0.355923  1
  Si  Si13  1  0.416524  0.991567  0.355923  1
  Si  Si14  1  0.008348  0.583412  0.143953  1
  Si  Si15  1  0.508223  0.415836  0.356088  1
  Si  Si16  1  0.991777  0.084164  0.356088  1
  Si  Si17  1  0.915898  0.008209  0.144044  1
  Si  Si18  1  0.584102  0.491791  0.144044  1
  Si  Si19  1  0.491652  0.916588  0.143953  1
  Ni  Ni20  1  0.250000  0.250000  0.569430  1
  Ni  Ni21  1  0.750000  0.750000  0.930668  1
  Ni  Ni22  1  0.750000  0.750000  0.430570  1
  Ni  Ni23  1  0.250000  0.250000  0.069332  1
  O  O24  1  0.987603  0.332982  0.576149  1
  O  O25  1  0.512397  0.167018  0.576149  1
  O  O26  1  0.833240  0.487276  0.924123  1
  O  O27  1  0.335664  0.513041  0.575034  1
  O  O28  1  0.164336  0.986959  0.575034  1
  O  O29  1  0.012510  0.835707  0.924792  1
  O  O30  1  0.487490  0.664293  0.924792  1
  O  O31  1  0.666760  0.012724  0.924123  1
  O  O32  1  0.012397  0.667018  0.423851  1
  O  O33  1  0.487603  0.832982  0.423851  1
  O  O34  1  0.166760  0.512724  0.075877  1
  O  O35  1  0.664336  0.486959  0.424966  1
  O  O36  1  0.835664  0.013041  0.424966  1
  O  O37  1  0.987490  0.164293  0.075208  1
  O  O38  1  0.512510  0.335707  0.075208  1
  O  O39  1  0.997893  0.305556  0.377243  1
  O  O40  1  0.333240  0.987276  0.075877  1
  O  O41  1  0.497893  0.805556  0.622757  1
  O  O42  1  0.194492  0.502381  0.877242  1
  O  O43  1  0.695284  0.498633  0.622938  1
  O  O44  1  0.804716  0.001367  0.622938  1
  O  O45  1  0.998831  0.195338  0.877019  1
  O  O46  1  0.501169  0.304662  0.877019  1
  O  O47  1  0.305508  0.997619  0.877242  1
  O  O48  1  0.448389  0.948460  0.249921  1
  O  O49  1  0.552175  0.447893  0.250089  1
  O  O50  1  0.947825  0.052108  0.250089  1
  O  O51  1  0.051612  0.551540  0.249921  1
  O  O52  1  0.551611  0.051541  0.750079  1
  O  O53  1  0.447825  0.552107  0.749911  1
  O  O54  1  0.052176  0.947893  0.749911  1
  O  O55  1  0.948389  0.448460  0.750079  1
  O  O56  1  0.694492  0.002381  0.122758  1
  O  O57  1  0.498831  0.695338  0.122981  1
  O  O58  1  0.001169  0.804662  0.122981  1
  O  O59  1  0.195284  0.998633  0.377062  1
  O  O60  1  0.304716  0.501367  0.377062  1
  O  O61  1  0.805508  0.497619  0.122758  1
  O  O62  1  0.502107  0.194444  0.377243  1
  O  O63  1  0.002107  0.694444  0.622757  1
