# generated using pymatgen
data_MgTiMn(PO4)3
_symmetry_space_group_name_H-M   'P 1'
_cell_length_a   8.54271712
_cell_length_b   8.54271717
_cell_length_c   8.54271757
_cell_angle_alpha   60.72082998
_cell_angle_beta   60.72083232
_cell_angle_gamma   60.72083453
_symmetry_Int_Tables_number   1
_chemical_formula_structural   MgTiMn(PO4)3
_chemical_formula_sum   'Mg2 Ti2 Mn2 P6 O24'
_cell_volume   448.00303354
_cell_formula_units_Z   2
loop_
 _symmetry_equiv_pos_site_id
 _symmetry_equiv_pos_as_xyz
  1  'x, y, z'
loop_
 _atom_site_type_symbol
 _atom_site_label
 _atom_site_symmetry_multiplicity
 _atom_site_fract_x
 _atom_site_fract_y
 _atom_site_fract_z
 _atom_site_occupancy
  Mg  Mg0  1  0.997805  0.997805  0.997805  1
  Mg  Mg1  1  0.497805  0.497805  0.497805  1
  Ti  Ti2  1  0.143531  0.143531  0.143531  1
  Ti  Ti3  1  0.643531  0.643531  0.643531  1
  Mn  Mn4  1  0.356769  0.356769  0.356769  1
  Mn  Mn5  1  0.856769  0.856769  0.856769  1
  P  P6  1  0.044681  0.456029  0.751152  1
  P  P7  1  0.456029  0.751152  0.044681  1
  P  P8  1  0.751152  0.044681  0.456029  1
  P  P9  1  0.251152  0.956029  0.544681  1
  P  P10  1  0.544681  0.251152  0.956029  1
  P  P11  1  0.956029  0.544681  0.251152  1
  O  O12  1  0.111195  0.508688  0.315294  1
  O  O13  1  0.315294  0.111195  0.508688  1
  O  O14  1  0.053264  0.258190  0.912045  1
  O  O15  1  0.508688  0.315294  0.111195  1
  O  O16  1  0.008688  0.611195  0.815294  1
  O  O17  1  0.241041  0.439373  0.592148  1
  O  O18  1  0.258190  0.912045  0.053264  1
  O  O19  1  0.439373  0.592148  0.241041  1
  O  O20  1  0.184673  0.003122  0.380998  1
  O  O21  1  0.592148  0.241041  0.439373  1
  O  O22  1  0.092148  0.939373  0.741041  1
  O  O23  1  0.380998  0.184673  0.003122  1
  O  O24  1  0.611195  0.815294  0.008688  1
  O  O25  1  0.912045  0.053264  0.258190  1
  O  O26  1  0.412045  0.758190  0.553264  1
  O  O27  1  0.815294  0.008688  0.611195  1
  O  O28  1  0.553264  0.412045  0.758190  1
  O  O29  1  0.741041  0.092148  0.939373  1
  O  O30  1  0.758190  0.553264  0.412045  1
  O  O31  1  0.003122  0.380998  0.184673  1
  O  O32  1  0.503122  0.684673  0.880998  1
  O  O33  1  0.939373  0.741041  0.092148  1
  O  O34  1  0.684673  0.880998  0.503122  1
  O  O35  1  0.880998  0.503122  0.684673  1
