# generated using pymatgen
data_HoMg(NiO3)2
_symmetry_space_group_name_H-M   'P 1'
_cell_length_a   5.09973324
_cell_length_b   5.42036075
_cell_length_c   7.34930756
_cell_angle_alpha   90.00205656
_cell_angle_beta   89.99777505
_cell_angle_gamma   89.98984971
_symmetry_Int_Tables_number   1
_chemical_formula_structural   HoMg(NiO3)2
_chemical_formula_sum   'Ho2 Mg2 Ni4 O12'
_cell_volume   203.15245111
_cell_formula_units_Z   2
loop_
 _symmetry_equiv_pos_site_id
 _symmetry_equiv_pos_as_xyz
  1  'x, y, z'
loop_
 _atom_site_type_symbol
 _atom_site_label
 _atom_site_symmetry_multiplicity
 _atom_site_fract_x
 _atom_site_fract_y
 _atom_site_fract_z
 _atom_site_occupancy
  Ho  Ho0  1  0.019529  0.923365  0.749951  1
  Ho  Ho1  1  0.519436  0.576592  0.250055  1
  Mg  Mg2  1  0.472488  0.427702  0.750043  1
  Mg  Mg3  1  0.972294  0.072373  0.249941  1
  Ni  Ni4  1  0.998361  0.495189  0.999658  1
  Ni  Ni5  1  0.998467  0.495150  0.500319  1
  Ni  Ni6  1  0.498519  0.004810  0.499701  1
  Ni  Ni7  1  0.498371  0.004785  0.000343  1
  O  O8  1  0.107038  0.443622  0.249902  1
  O  O9  1  0.206139  0.211165  0.933083  1
  O  O10  1  0.206415  0.211140  0.566913  1
  O  O11  1  0.313307  0.690127  0.941618  1
  O  O12  1  0.313521  0.690166  0.558335  1
  O  O13  1  0.365089  0.968496  0.250070  1
  O  O14  1  0.607111  0.056345  0.749980  1
  O  O15  1  0.706178  0.288675  0.433170  1
  O  O16  1  0.706117  0.288782  0.066805  1
  O  O17  1  0.813250  0.809925  0.058430  1
  O  O18  1  0.813294  0.810016  0.441601  1
  O  O19  1  0.865072  0.531570  0.750082  1
