# generated using pymatgen
data_FeSiO4
_symmetry_space_group_name_H-M   'P 1'
_cell_length_a   9.98225801
_cell_length_b   9.98225834
_cell_length_c   9.98225819
_cell_angle_alpha   109.47121835
_cell_angle_beta   109.47121907
_cell_angle_gamma   109.47122428
_symmetry_Int_Tables_number   1
_chemical_formula_structural   FeSiO4
_chemical_formula_sum   'Fe12 Si12 O48'
_cell_volume   765.71032830
_cell_formula_units_Z   12
loop_
 _symmetry_equiv_pos_site_id
 _symmetry_equiv_pos_as_xyz
  1  'x, y, z'
loop_
 _atom_site_type_symbol
 _atom_site_label
 _atom_site_symmetry_multiplicity
 _atom_site_fract_x
 _atom_site_fract_y
 _atom_site_fract_z
 _atom_site_occupancy
  Fe  Fe0  1  0.625000  0.250000  0.875000  1
  Fe  Fe1  1  0.875000  0.750000  0.625000  1
  Fe  Fe2  1  0.750000  0.625000  0.875000  1
  Fe  Fe3  1  0.250000  0.875000  0.625000  1
  Fe  Fe4  1  0.875000  0.625000  0.250000  1
  Fe  Fe5  1  0.625000  0.875000  0.750000  1
  Fe  Fe6  1  0.375000  0.750000  0.125000  1
  Fe  Fe7  1  0.125000  0.250000  0.375000  1
  Fe  Fe8  1  0.250000  0.375000  0.125000  1
  Fe  Fe9  1  0.750000  0.125000  0.375000  1
  Fe  Fe10  1  0.125000  0.375000  0.750000  1
  Fe  Fe11  1  0.375000  0.125000  0.250000  1
  Si  Si12  1  0.250000  0.125000  0.875000  1
  Si  Si13  1  0.875000  0.250000  0.125000  1
  Si  Si14  1  0.625000  0.750000  0.375000  1
  Si  Si15  1  0.250000  0.625000  0.375000  1
  Si  Si16  1  0.375000  0.625000  0.750000  1
  Si  Si17  1  0.750000  0.375000  0.625000  1
  Si  Si18  1  0.875000  0.125000  0.750000  1
  Si  Si19  1  0.125000  0.750000  0.875000  1
  Si  Si20  1  0.125000  0.875000  0.250000  1
  Si  Si21  1  0.625000  0.375000  0.250000  1
  Si  Si22  1  0.375000  0.250000  0.625000  1
  Si  Si23  1  0.750000  0.875000  0.125000  1
  O  O24  1  0.270886  0.465757  0.367199  1
  O  O25  1  0.034243  0.305129  0.901442  1
  O  O26  1  0.132800  0.598558  0.903687  1
  O  O27  1  0.229113  0.596313  0.194871  1
  O  O28  1  0.229113  0.132800  0.034243  1
  O  O29  1  0.596313  0.194871  0.229114  1
  O  O30  1  0.598558  0.194871  0.465757  1
  O  O31  1  0.194871  0.229113  0.596313  1
  O  O32  1  0.901442  0.367199  0.596313  1
  O  O33  1  0.305129  0.903687  0.270886  1
  O  O34  1  0.903687  0.270886  0.305129  1
  O  O35  1  0.034243  0.229113  0.132800  1
  O  O36  1  0.194871  0.465757  0.598558  1
  O  O37  1  0.596313  0.901442  0.367199  1
  O  O38  1  0.132800  0.034243  0.229113  1
  O  O39  1  0.465757  0.598558  0.194871  1
  O  O40  1  0.367199  0.596313  0.901442  1
  O  O41  1  0.901442  0.034243  0.305129  1
  O  O42  1  0.598558  0.903687  0.132800  1
  O  O43  1  0.098558  0.632801  0.403687  1
  O  O44  1  0.903687  0.132800  0.598558  1
  O  O45  1  0.367199  0.270886  0.465757  1
  O  O46  1  0.305129  0.901442  0.034243  1
  O  O47  1  0.270886  0.305129  0.903687  1
  O  O48  1  0.729113  0.534243  0.632801  1
  O  O49  1  0.965757  0.694871  0.098558  1
  O  O50  1  0.867199  0.401442  0.096313  1
  O  O51  1  0.770886  0.403687  0.805129  1
  O  O52  1  0.770886  0.867199  0.965757  1
  O  O53  1  0.403687  0.805129  0.770886  1
  O  O54  1  0.401442  0.805129  0.534243  1
  O  O55  1  0.805129  0.770887  0.403687  1
  O  O56  1  0.729113  0.694871  0.096313  1
  O  O57  1  0.694871  0.098558  0.965757  1
  O  O58  1  0.632800  0.729113  0.534243  1
  O  O59  1  0.534243  0.632801  0.729113  1
  O  O60  1  0.096313  0.867199  0.401442  1
  O  O61  1  0.401442  0.096313  0.867199  1
  O  O62  1  0.098558  0.965757  0.694871  1
  O  O63  1  0.632800  0.403687  0.098558  1
  O  O64  1  0.534243  0.401442  0.805129  1
  O  O65  1  0.867199  0.965757  0.770886  1
  O  O66  1  0.403687  0.098558  0.632801  1
  O  O67  1  0.805129  0.534243  0.401442  1
  O  O68  1  0.965757  0.770887  0.867199  1
  O  O69  1  0.096313  0.729113  0.694871  1
  O  O70  1  0.694871  0.096313  0.729113  1
  O  O71  1  0.465757  0.367199  0.270886  1
