# generated using pymatgen
data_Ti2ZnS5
_symmetry_space_group_name_H-M   'P 1'
_cell_length_a   3.83673363
_cell_length_b   6.01007894
_cell_length_c   14.96403857
_cell_angle_alpha   90.02427161
_cell_angle_beta   89.99894033
_cell_angle_gamma   90.00416216
_symmetry_Int_Tables_number   1
_chemical_formula_structural   Ti2ZnS5
_chemical_formula_sum   'Ti4 Zn2 S10'
_cell_volume   345.05681087
_cell_formula_units_Z   2
loop_
 _symmetry_equiv_pos_site_id
 _symmetry_equiv_pos_as_xyz
  1  'x, y, z'
loop_
 _atom_site_type_symbol
 _atom_site_label
 _atom_site_symmetry_multiplicity
 _atom_site_fract_x
 _atom_site_fract_y
 _atom_site_fract_z
 _atom_site_occupancy
  Ti  Ti0  1  0.249986  0.431129  0.097797  1
  Ti  Ti1  1  0.750013  0.568835  0.902237  1
  Ti  Ti2  1  0.750001  0.568688  0.597849  1
  Ti  Ti3  1  0.249997  0.431243  0.402122  1
  Zn  Zn4  1  0.750019  0.888209  0.250015  1
  Zn  Zn5  1  0.249974  0.112490  0.749854  1
  S  S6  1  0.749978  0.400328  0.750033  1
  S  S7  1  0.250017  0.599617  0.249998  1
  S  S8  1  0.750008  0.644768  0.065346  1
  S  S9  1  0.249987  0.355112  0.934749  1
  S  S10  1  0.750013  0.644628  0.434705  1
  S  S11  1  0.249985  0.355201  0.565222  1
  S  S12  1  0.249993  0.085732  0.354800  1
  S  S13  1  0.750001  -0.085771  0.645220  1
  S  S14  1  0.750059  -0.085704  0.854858  1
  S  S15  1  0.249959  0.085496  0.145195  1
