# generated using pymatgen
data_MgCr4O9
_symmetry_space_group_name_H-M   'P 1'
_cell_length_a   4.89784055
_cell_length_b   8.35523612
_cell_length_c   8.35490182
_cell_angle_alpha   89.99884175
_cell_angle_beta   89.99996136
_cell_angle_gamma   89.99993789
_symmetry_Int_Tables_number   1
_chemical_formula_structural   MgCr4O9
_chemical_formula_sum   'Mg2 Cr8 O18'
_cell_volume   341.90442444
_cell_formula_units_Z   2
loop_
 _symmetry_equiv_pos_site_id
 _symmetry_equiv_pos_as_xyz
  1  'x, y, z'
loop_
 _atom_site_type_symbol
 _atom_site_label
 _atom_site_symmetry_multiplicity
 _atom_site_fract_x
 _atom_site_fract_y
 _atom_site_fract_z
 _atom_site_occupancy
  Mg  Mg0  1  0.120743  0.250001  0.250001  1
  Mg  Mg1  1  0.879256  0.750001  0.749998  1
  Cr  Cr2  1  0.616032  0.534548  0.340774  1
  Cr  Cr3  1  0.383911  0.840773  0.465444  1
  Cr  Cr4  1  0.616091  0.340773  0.965446  1
  Cr  Cr5  1  0.383963  0.034555  0.840777  1
  Cr  Cr6  1  0.616035  0.965451  0.159222  1
  Cr  Cr7  1  0.616093  0.159227  0.534560  1
  Cr  Cr8  1  0.383975  0.465446  0.659227  1
  Cr  Cr9  1  0.383902  0.659224  0.034559  1
  O  O10  1  0.500012  0.750000  0.250001  1
  O  O11  1  0.499984  0.250002  0.749999  1
  O  O12  1  0.058532  0.684550  0.971325  1
  O  O13  1  0.058588  0.528654  0.684535  1
  O  O14  1  0.058584  0.971347  0.815463  1
  O  O15  1  0.058531  0.815452  0.528675  1
  O  O16  1  0.941471  0.315452  0.028675  1
  O  O17  1  0.941417  0.471346  0.315464  1
  O  O18  1  0.941417  0.028652  0.184535  1
  O  O19  1  0.941471  0.184549  0.471322  1
  O  O20  1  0.452307  0.042935  0.354801  1
  O  O21  1  0.452301  0.145171  0.042934  1
  O  O22  1  0.452302  0.354828  0.457068  1
  O  O23  1  0.452306  0.457064  0.145197  1
  O  O24  1  0.547691  0.542936  0.854802  1
  O  O25  1  0.547695  0.854827  0.957067  1
  O  O26  1  0.547696  0.645173  0.542932  1
  O  O27  1  0.547692  0.957063  0.645197  1
