# generated using pymatgen
data_ZnW5O7
_symmetry_space_group_name_H-M   'P 1'
_cell_length_a   3.27500023
_cell_length_b   5.79147535
_cell_length_c   19.44508194
_cell_angle_alpha   90.00000000
_cell_angle_beta   90.00000000
_cell_angle_gamma   106.42399433
_symmetry_Int_Tables_number   1
_chemical_formula_structural   ZnW5O7
_chemical_formula_sum   'Zn2 W10 O14'
_cell_volume   353.76716862
_cell_formula_units_Z   2
loop_
 _symmetry_equiv_pos_site_id
 _symmetry_equiv_pos_as_xyz
  1  'x, y, z'
loop_
 _atom_site_type_symbol
 _atom_site_label
 _atom_site_symmetry_multiplicity
 _atom_site_fract_x
 _atom_site_fract_y
 _atom_site_fract_z
 _atom_site_occupancy
  Zn  Zn0  1  0.836206  0.672411  0.750000  1
  Zn  Zn1  1  0.163795  0.327588  0.250000  1
  W  W2  1  0.269964  0.539927  0.581962  1
  W  W3  1  0.473595  0.947190  0.151741  1
  W  W4  1  -0.000000  -0.000000  0.500000  1
  W  W5  1  -0.000000  -0.000000  0.000000  1
  W  W6  1  0.526405  0.052809  0.848260  1
  W  W7  1  0.730036  0.460072  0.418038  1
  W  W8  1  0.730036  0.460072  0.081962  1
  W  W9  1  0.269964  0.539927  0.918038  1
  W  W10  1  0.526405  0.052809  0.651740  1
  W  W11  1  0.473595  0.947190  0.348260  1
  O  O12  1  0.660932  0.321863  0.962063  1
  O  O13  1  0.339069  0.678138  0.037937  1
  O  O14  1  0.339069  0.678138  0.462063  1
  O  O15  1  0.660932  0.321863  0.537937  1
  O  O16  1  0.145171  0.290344  0.835595  1
  O  O17  1  0.854829  0.709656  0.164405  1
  O  O18  1  0.854829  0.709656  0.335596  1
  O  O19  1  0.145171  0.290344  0.664405  1
  O  O20  1  0.872909  0.745818  0.860017  1
  O  O21  1  0.127091  0.254182  0.139983  1
  O  O22  1  0.127091  0.254182  0.360017  1
  O  O23  1  0.872909  0.745818  0.639983  1
  O  O24  1  0.446051  0.892104  0.750000  1
  O  O25  1  0.553950  0.107898  0.250000  1
