# generated using pymatgen
data_Ti2Zn3(Si2O7)2
_symmetry_space_group_name_H-M   'P 1'
_cell_length_a   7.71168062
_cell_length_b   9.70175912
_cell_length_c   9.19717749
_cell_angle_alpha   62.43784356
_cell_angle_beta   65.21327730
_cell_angle_gamma   66.58193314
_symmetry_Int_Tables_number   1
_chemical_formula_structural   Ti2Zn3(Si2O7)2
_chemical_formula_sum   'Ti4 Zn6 Si8 O28'
_cell_volume   535.82704044
_cell_formula_units_Z   2
loop_
 _symmetry_equiv_pos_site_id
 _symmetry_equiv_pos_as_xyz
  1  'x, y, z'
loop_
 _atom_site_type_symbol
 _atom_site_label
 _atom_site_symmetry_multiplicity
 _atom_site_fract_x
 _atom_site_fract_y
 _atom_site_fract_z
 _atom_site_occupancy
  Ti  Ti0  1  0.185879  0.250000  0.750000  1
  Ti  Ti1  1  0.814121  0.750000  0.250000  1
  Ti  Ti2  1  0.000000  0.000000  0.000000  1
  Ti  Ti3  1  0.000000  0.500000  0.500000  1
  Zn  Zn4  1  0.927489  0.911183  0.445194  1
  Zn  Zn5  1  0.283866  0.588817  0.054806  1
  Zn  Zn6  1  0.716134  0.411183  0.945194  1
  Zn  Zn7  1  0.606119  0.250000  0.750000  1
  Zn  Zn8  1  0.072511  0.088817  0.554806  1
  Zn  Zn9  1  0.393881  0.750000  0.250000  1
  Si  Si10  1  0.476037  0.288543  0.342575  1
  Si  Si11  1  0.892844  0.788543  0.842575  1
  Si  Si12  1  0.475339  0.900619  0.858088  1
  Si  Si13  1  0.765955  0.400619  0.358088  1
  Si  Si14  1  0.107156  0.211457  0.157425  1
  Si  Si15  1  0.524661  0.099381  0.141912  1
  Si  Si16  1  0.234045  0.599381  0.641912  1
  Si  Si17  1  0.523963  0.711457  0.657425  1
  O  O18  1  0.157830  0.660661  0.470731  1
  O  O19  1  0.056024  0.586208  0.247841  1
  O  O20  1  0.541254  0.910718  0.194570  1
  O  O21  1  0.109927  0.086208  0.747841  1
  O  O22  1  0.741319  0.675997  0.522575  1
  O  O23  1  0.948413  0.376131  0.187524  1
  O  O24  1  0.353457  0.410718  0.694570  1
  O  O25  1  0.939890  0.824003  0.977425  1
  O  O26  1  0.051587  0.623869  0.812476  1
  O  O27  1  0.356860  0.734331  0.575293  1
  O  O28  1  0.943976  0.413792  0.752159  1
  O  O29  1  0.258681  0.324003  0.477425  1
  O  O30  1  0.512069  0.123869  0.312476  1
  O  O31  1  0.710777  0.160661  0.970731  1
  O  O32  1  0.333516  0.234331  0.075293  1
  O  O33  1  0.060110  0.175997  0.022575  1
  O  O34  1  0.103130  0.066004  0.343148  1
  O  O35  1  0.643140  0.265669  0.424707  1
  O  O36  1  0.512281  0.433996  0.156852  1
  O  O37  1  0.666484  0.765669  0.924707  1
  O  O38  1  0.487931  0.876131  0.687524  1
  O  O39  1  0.890073  0.913792  0.252159  1
  O  O40  1  0.487719  0.566004  0.843148  1
  O  O41  1  0.458746  0.089282  0.805430  1
  O  O42  1  0.896870  0.933996  0.656852  1
  O  O43  1  0.646543  0.589282  0.305430  1
  O  O44  1  0.289223  0.839339  0.029269  1
  O  O45  1  0.842170  0.339339  0.529269  1
