# generated using pymatgen
data_CaFeAsO5
_symmetry_space_group_name_H-M   'P 1'
_cell_length_a   7.70923548
_cell_length_b   5.98939859
_cell_length_c   9.04394099
_cell_angle_alpha   89.97365199
_cell_angle_beta   90.00452101
_cell_angle_gamma   90.04759061
_symmetry_Int_Tables_number   1
_chemical_formula_structural   CaFeAsO5
_chemical_formula_sum   'Ca4 Fe4 As4 O20'
_cell_volume   417.59188518
_cell_formula_units_Z   4
loop_
 _symmetry_equiv_pos_site_id
 _symmetry_equiv_pos_as_xyz
  1  'x, y, z'
loop_
 _atom_site_type_symbol
 _atom_site_label
 _atom_site_symmetry_multiplicity
 _atom_site_fract_x
 _atom_site_fract_y
 _atom_site_fract_z
 _atom_site_occupancy
  Ca  Ca0  1  0.897438  0.775052  0.079742  1
  Ca  Ca1  1  0.602538  0.225113  0.579763  1
  Ca  Ca2  1  0.397452  0.725005  0.920120  1
  Ca  Ca3  1  0.102596  0.275012  0.420435  1
  Fe  Fe4  1  0.991942  0.496038  0.754914  1
  Fe  Fe5  1  0.508192  0.503839  0.254615  1
  Fe  Fe6  1  0.491903  0.003922  0.245157  1
  Fe  Fe7  1  0.008060  0.996037  0.745239  1
  As  As8  1  0.638774  0.268868  0.935415  1
  As  As9  1  0.860984  0.730914  0.435751  1
  As  As10  1  0.139138  0.231688  0.064340  1
  As  As11  1  0.361073  0.768887  0.564320  1
  O  O12  1  0.821335  0.241623  0.819531  1
  O  O13  1  0.678204  0.758188  0.320257  1
  O  O14  1  0.321928  0.258480  0.179783  1
  O  O15  1  0.178434  0.741838  0.680244  1
  O  O16  1  0.476059  0.336579  0.816332  1
  O  O17  1  0.023788  0.663831  0.315850  1
  O  O18  1  0.976268  0.163463  0.184320  1
  O  O19  1  0.523834  0.836444  0.683784  1
  O  O20  1  0.612233  0.018556  0.028454  1
  O  O21  1  0.888029  0.981331  0.528613  1
  O  O22  1  0.111788  0.481270  0.971576  1
  O  O23  1  0.387871  0.518666  0.471243  1
  O  O24  1  0.654525  0.496034  0.053235  1
  O  O25  1  0.846069  0.503602  0.552999  1
  O  O26  1  0.153958  0.003734  0.947042  1
  O  O27  1  0.345537  0.996139  0.446887  1
  O  O28  1  0.881236  0.754936  0.829847  1
  O  O29  1  0.618502  0.244654  0.329893  1
  O  O30  1  0.381625  0.744597  0.169964  1
  O  O31  1  0.118686  0.255662  0.670338  1
