# generated using pymatgen
data_Mg(SbO2)2
_symmetry_space_group_name_H-M   'P 1'
_cell_length_a   7.14957627
_cell_length_b   6.51289911
_cell_length_c   20.52970548
_cell_angle_alpha   62.20511509
_cell_angle_beta   60.24640792
_cell_angle_gamma   62.68242454
_symmetry_Int_Tables_number   1
_chemical_formula_structural   Mg(SbO2)2
_chemical_formula_sum   'Mg6 Sb12 O24'
_cell_volume   701.22117027
_cell_formula_units_Z   6
loop_
 _symmetry_equiv_pos_site_id
 _symmetry_equiv_pos_as_xyz
  1  'x, y, z'
loop_
 _atom_site_type_symbol
 _atom_site_label
 _atom_site_symmetry_multiplicity
 _atom_site_fract_x
 _atom_site_fract_y
 _atom_site_fract_z
 _atom_site_occupancy
  Mg  Mg0  1  0.130592  0.141433  0.028933  1
  Mg  Mg1  1  0.379880  0.469447  0.355302  1
  Mg  Mg2  1  0.014127  0.571956  0.166950  1
  Mg  Mg3  1  0.564437  0.401054  0.663831  1
  Mg  Mg4  1  -0.018322  0.436163  0.509294  1
  Mg  Mg5  1  0.062702  0.477770  0.829326  1
  Sb  Sb6  1  0.602590  0.036015  0.149542  1
  Sb  Sb7  1  0.052117  0.186935  0.361858  1
  Sb  Sb8  1  0.350495  0.556721  0.002470  1
  Sb  Sb9  1  0.490134  0.537012  0.185638  1
  Sb  Sb10  1  0.465970  0.943069  0.538753  1
  Sb  Sb11  1  0.170764  0.075622  0.727310  1
  Sb  Sb12  1  0.526766  0.517840  0.468119  1
  Sb  Sb13  1  0.600896  0.944067  0.828291  1
  Sb  Sb14  1  0.819431  0.936654  0.297422  1
  Sb  Sb15  1  0.485971  0.490016  0.834144  1
  Sb  Sb16  1  0.929627  0.819374  0.637962  1
  Sb  Sb17  1  0.829675  0.956893  0.951626  1
  O  O18  1  0.179258  0.321590  0.078637  1
  O  O19  1  0.142108  0.390398  0.251621  1
  O  O20  1  0.227134  0.759848  0.070596  1
  O  O21  1  0.820370  0.172376  0.050316  1
  O  O22  1  0.080528  0.374451  0.408096  1
  O  O23  1  0.329021  0.730698  0.256562  1
  O  O24  1  0.395982  0.097484  0.614741  1
  O  O25  1  0.606921  0.276528  0.275460  1
  O  O26  1  0.257612  0.538215  0.459050  1
  O  O27  1  0.744083  0.700184  0.133860  1
  O  O28  1  0.708877  0.349681  0.384375  1
  O  O29  1  0.811329  0.868731  0.213882  1
  O  O30  1  0.349012  0.202540  0.741360  1
  O  O31  1  0.266617  0.719758  0.609235  1
  O  O32  1  0.869231  0.171643  0.603951  1
  O  O33  1  0.302137  0.691823  0.762255  1
  O  O34  1  0.281064  0.279939  0.903644  1
  O  O35  1  0.548135  0.843365  0.387547  1
  O  O36  1  0.660542  0.275110  0.761597  1
  O  O37  1  0.709392  0.656091  0.565792  1
  O  O38  1  0.150235  0.764074  0.936035  1
  O  O39  1  0.889493  0.249925  0.865566  1
  O  O40  1  0.876312  0.763702  0.749734  1
  O  O41  1  0.836757  0.803801  0.879318  1
