# generated using pymatgen
data_ZnCoF5
_symmetry_space_group_name_H-M   'P 1'
_cell_length_a   5.21953200
_cell_length_b   7.43310119
_cell_length_c   9.66428120
_cell_angle_alpha   90.00000000
_cell_angle_beta   90.00000000
_cell_angle_gamma   110.39175060
_symmetry_Int_Tables_number   1
_chemical_formula_structural   ZnCoF5
_chemical_formula_sum   'Zn4 Co4 F20'
_cell_volume   351.45092390
_cell_formula_units_Z   4
loop_
 _symmetry_equiv_pos_site_id
 _symmetry_equiv_pos_as_xyz
  1  'x, y, z'
loop_
 _atom_site_type_symbol
 _atom_site_label
 _atom_site_symmetry_multiplicity
 _atom_site_fract_x
 _atom_site_fract_y
 _atom_site_fract_z
 _atom_site_occupancy
  Zn  Zn0  1  0.478742  0.743127  0.010895  1
  Zn  Zn1  1  0.521258  0.756873  0.510895  1
  Zn  Zn2  1  0.521258  0.256873  0.989105  1
  Zn  Zn3  1  0.478742  0.243127  0.489105  1
  Co  Co4  1  0.901196  0.602047  0.752950  1
  Co  Co5  1  0.098804  0.897953  0.252950  1
  Co  Co6  1  0.098804  0.397953  0.247050  1
  Co  Co7  1  0.901196  0.102047  0.747050  1
  F  F8  1  0.605273  0.566911  0.886159  1
  F  F9  1  0.394727  0.933089  0.386159  1
  F  F10  1  0.394727  0.433089  0.113841  1
  F  F11  1  0.605273  0.066911  0.613841  1
  F  F12  1  0.646504  0.494317  0.610057  1
  F  F13  1  0.353496  0.005683  0.110057  1
  F  F14  1  0.353496  0.505683  0.389943  1
  F  F15  1  0.646504  0.994317  0.889943  1
  F  F16  1  0.855974  0.801477  0.399240  1
  F  F17  1  0.144026  0.698523  0.899240  1
  F  F18  1  0.144026  0.198523  0.600760  1
  F  F19  1  0.855974  0.301477  0.100760  1
  F  F20  1  0.790372  0.849772  0.134656  1
  F  F21  1  0.209628  0.650228  0.634656  1
  F  F22  1  0.209628  0.150228  0.865344  1
  F  F23  1  0.790372  0.349772  0.365344  1
  F  F24  1  0.842578  0.836929  0.686161  1
  F  F25  1  0.157422  0.663071  0.186161  1
  F  F26  1  0.157422  0.163071  0.313839  1
  F  F27  1  0.842578  0.336929  0.813839  1
