# generated using pymatgen
data_Zn2Bi3O8
_symmetry_space_group_name_H-M   'P 1'
_cell_length_a   5.83669789
_cell_length_b   7.00800561
_cell_length_c   7.01130910
_cell_angle_alpha   119.98441805
_cell_angle_beta   122.92073647
_cell_angle_gamma   89.99999589
_symmetry_Int_Tables_number   1
_chemical_formula_structural   Zn2Bi3O8
_chemical_formula_sum   'Zn2 Bi3 O8'
_cell_volume   193.42068800
_cell_formula_units_Z   1
loop_
 _symmetry_equiv_pos_site_id
 _symmetry_equiv_pos_as_xyz
  1  'x, y, z'
loop_
 _atom_site_type_symbol
 _atom_site_label
 _atom_site_symmetry_multiplicity
 _atom_site_fract_x
 _atom_site_fract_y
 _atom_site_fract_z
 _atom_site_occupancy
  Zn  Zn0  1  0.693519  0.664348  0.328696  1
  Zn  Zn1  1  0.306480  0.335652  0.671303  1
  Bi  Bi2  1  0.500001  0.999999  -0.000000  1
  Bi  Bi3  1  -0.000002  0.733172  -0.000000  1
  Bi  Bi4  1  -0.000002  0.266828  -0.000000  1
  O  O5  1  0.008977  0.377017  0.754034  1
  O  O6  1  0.991024  0.622983  0.245966  1
  O  O7  1  0.980213  0.879648  0.759296  1
  O  O8  1  0.019786  0.120351  0.240703  1
  O  O9  1  0.471954  0.373298  0.229761  1
  O  O10  1  0.471954  0.856463  0.229761  1
  O  O11  1  0.528047  0.143537  0.770240  1
  O  O12  1  0.528047  0.626702  0.770240  1
