# generated using pymatgen
data_BaCaCoF7
_symmetry_space_group_name_H-M   'P 1'
_cell_length_a   5.81910739
_cell_length_b   9.94396017
_cell_length_c   10.43785532
_cell_angle_alpha   90.00000000
_cell_angle_beta   90.00000000
_cell_angle_gamma   92.94273322
_symmetry_Int_Tables_number   1
_chemical_formula_structural   BaCaCoF7
_chemical_formula_sum   'Ba4 Ca4 Co4 F28'
_cell_volume   603.18975742
_cell_formula_units_Z   4
loop_
 _symmetry_equiv_pos_site_id
 _symmetry_equiv_pos_as_xyz
  1  'x, y, z'
loop_
 _atom_site_type_symbol
 _atom_site_label
 _atom_site_symmetry_multiplicity
 _atom_site_fract_x
 _atom_site_fract_y
 _atom_site_fract_z
 _atom_site_occupancy
  Ba  Ba0  1  0.270228  0.505339  0.325892  1
  Ba  Ba1  1  0.729772  0.994661  0.825892  1
  Ba  Ba2  1  0.729772  0.494661  0.674108  1
  Ba  Ba3  1  0.270228  0.005339  0.174108  1
  Ca  Ca4  1  0.705330  0.820904  0.408679  1
  Ca  Ca5  1  0.294670  0.679096  0.908679  1
  Ca  Ca6  1  0.705330  0.320904  0.091321  1
  Ca  Ca7  1  0.294670  0.179096  0.591321  1
  Co  Co8  1  0.190225  0.807625  0.620379  1
  Co  Co9  1  0.809775  0.192375  0.379621  1
  Co  Co10  1  0.190225  0.307625  0.879621  1
  Co  Co11  1  0.809775  0.692375  0.120379  1
  F  F12  1  0.097159  0.108205  0.420177  1
  F  F13  1  0.342478  0.368914  0.037773  1
  F  F14  1  0.469002  0.742039  0.706099  1
  F  F15  1  0.530998  0.257961  0.293901  1
  F  F16  1  0.900766  0.354288  0.458028  1
  F  F17  1  0.277820  0.475863  0.799487  1
  F  F18  1  0.012386  0.744367  0.773744  1
  F  F19  1  0.099234  0.145712  0.958028  1
  F  F20  1  0.342478  0.868914  0.462227  1
  F  F21  1  0.530998  0.757961  0.206099  1
  F  F22  1  0.097159  0.608205  0.079823  1
  F  F23  1  0.902841  0.891795  0.579823  1
  F  F24  1  0.987614  0.755633  0.273744  1
  F  F25  1  0.387463  0.885497  0.960401  1
  F  F26  1  0.099234  0.645712  0.541972  1
  F  F27  1  0.900766  0.854288  0.041972  1
  F  F28  1  0.987614  0.255633  0.226256  1
  F  F29  1  0.902841  0.391795  0.920177  1
  F  F30  1  0.612537  0.614503  0.460401  1
  F  F31  1  0.657522  0.631086  0.962227  1
  F  F32  1  0.612537  0.114503  0.039599  1
  F  F33  1  0.012386  0.244367  0.726256  1
  F  F34  1  0.387463  0.385497  0.539599  1
  F  F35  1  0.722180  0.024137  0.299487  1
  F  F36  1  0.722180  0.524137  0.200513  1
  F  F37  1  0.277820  0.975863  0.700513  1
  F  F38  1  0.657522  0.131086  0.537773  1
  F  F39  1  0.469002  0.242039  0.793901  1
