# generated using pymatgen
data_Al(CuO2)3
_symmetry_space_group_name_H-M   'P 1'
_cell_length_a   9.35825496
_cell_length_b   2.85550305
_cell_length_c   11.22888129
_cell_angle_alpha   90.55939344
_cell_angle_beta   90.24311298
_cell_angle_gamma   117.02445850
_symmetry_Int_Tables_number   1
_chemical_formula_structural   Al(CuO2)3
_chemical_formula_sum   'Al2 Cu6 O12'
_cell_volume   267.27543720
_cell_formula_units_Z   2
loop_
 _symmetry_equiv_pos_site_id
 _symmetry_equiv_pos_as_xyz
  1  'x, y, z'
loop_
 _atom_site_type_symbol
 _atom_site_label
 _atom_site_symmetry_multiplicity
 _atom_site_fract_x
 _atom_site_fract_y
 _atom_site_fract_z
 _atom_site_occupancy
  Al  Al0  1  0.663701  0.997784  0.000350  1
  Al  Al1  1  0.003063  0.007236  0.501081  1
  Cu  Cu2  1  0.225370  0.334203  0.753468  1
  Cu  Cu3  1  0.564003  0.335069  0.747716  1
  Cu  Cu4  1  0.878751  0.324640  0.748754  1
  Cu  Cu5  1  0.107750  0.662355  0.250703  1
  Cu  Cu6  1  0.439909  0.662504  0.250362  1
  Cu  Cu7  1  0.780761  0.677040  0.249723  1
  O  O8  1  0.081750  0.621282  0.407853  1
  O  O9  1  0.434193  0.638617  0.404327  1
  O  O10  1  0.819790  0.734035  0.400501  1
  O  O11  1  0.227898  0.341732  0.906456  1
  O  O12  1  0.583145  0.374259  0.905632  1
  O  O13  1  0.845859  0.269909  0.899509  1
  O  O14  1  0.115444  0.680578  0.099817  1
  O  O15  1  0.479820  0.728068  0.096888  1
  O  O16  1  0.744511  0.621642  0.094352  1
  O  O17  1  0.185948  0.279374  0.599900  1
  O  O18  1  0.547444  0.302685  0.596424  1
  O  O19  1  0.923099  0.391065  0.594392  1
