# generated using pymatgen
data_Y(CoO2)3
_symmetry_space_group_name_H-M   'P 1'
_cell_length_a   17.47286539
_cell_length_b   5.73989803
_cell_length_c   6.17120306
_cell_angle_alpha   114.94632074
_cell_angle_beta   115.68108317
_cell_angle_gamma   94.38209088
_symmetry_Int_Tables_number   1
_chemical_formula_structural   Y(CoO2)3
_chemical_formula_sum   'Y4 Co12 O24'
_cell_volume   479.63280951
_cell_formula_units_Z   4
loop_
 _symmetry_equiv_pos_site_id
 _symmetry_equiv_pos_as_xyz
  1  'x, y, z'
loop_
 _atom_site_type_symbol
 _atom_site_label
 _atom_site_symmetry_multiplicity
 _atom_site_fract_x
 _atom_site_fract_y
 _atom_site_fract_z
 _atom_site_occupancy
  Y  Y0  1  0.289783  0.121560  0.743914  1
  Y  Y1  1  0.956412  0.157924  0.761484  1
  Y  Y2  1  0.376883  0.878440  0.256086  1
  Y  Y3  1  0.710255  0.842076  0.238516  1
  Co  Co4  1  0.172085  0.020182  0.998284  1
  Co  Co5  1  0.494582  0.979818  0.001716  1
  Co  Co6  1  0.833333  -0.000000  -0.000000  1
  Co  Co7  1  0.166920  0.518927  0.003815  1
  Co  Co8  1  0.499747  0.481073  0.996185  1
  Co  Co9  1  0.833333  0.500000  -0.000000  1
  Co  Co10  1  0.998684  0.573147  0.502096  1
  Co  Co11  1  0.333333  0.500000  0.500000  1
  Co  Co12  1  0.667983  0.426853  0.497904  1
  Co  Co13  1  0.154330  0.476300  0.501808  1
  Co  Co14  1  0.512337  0.523700  0.498192  1
  Co  Co15  1  0.833333  0.500000  0.500000  1
  O  O16  1  0.244160  0.518162  0.878783  1
  O  O17  1  0.569977  0.575835  0.882429  1
  O  O18  1  0.904008  0.537681  0.850553  1
  O  O19  1  0.052284  0.879776  0.847569  1
  O  O20  1  0.374064  0.835203  0.866044  1
  O  O21  1  0.733137  0.733737  0.862508  1
  O  O22  1  0.096690  0.424165  0.117571  1
  O  O23  1  0.422507  0.481838  0.121218  1
  O  O24  1  0.762659  0.462319  0.149447  1
  O  O25  1  0.292603  0.164797  0.133956  1
  O  O26  1  0.614383  0.120224  0.152431  1
  O  O27  1  0.933529  0.266263  0.137492  1
  O  O28  1  0.209973  0.213819  0.384879  1
  O  O29  1  0.504717  0.160187  0.351143  1
  O  O30  1  0.840443  0.141934  0.345876  1
  O  O31  1  0.268589  0.711067  0.361037  1
  O  O32  1  0.593722  0.615838  0.364155  1
  O  O33  1  0.925030  0.744749  0.378537  1
  O  O34  1  0.072944  0.384162  0.635845  1
  O  O35  1  0.398078  0.288933  0.638963  1
  O  O36  1  0.741637  0.255251  0.621463  1
  O  O37  1  0.161950  0.839813  0.648857  1
  O  O38  1  0.456693  0.786181  0.615121  1
  O  O39  1  0.826224  0.858066  0.654124  1
