# generated using pymatgen
data_CrP2O7
_symmetry_space_group_name_H-M   'P 1'
_cell_length_a   6.57704780
_cell_length_b   6.14597584
_cell_length_c   7.28100118
_cell_angle_alpha   83.54037553
_cell_angle_beta   90.68122530
_cell_angle_gamma   68.94382147
_symmetry_Int_Tables_number   1
_chemical_formula_structural   CrP2O7
_chemical_formula_sum   'Cr2 P4 O14'
_cell_volume   272.48520691
_cell_formula_units_Z   2
loop_
 _symmetry_equiv_pos_site_id
 _symmetry_equiv_pos_as_xyz
  1  'x, y, z'
loop_
 _atom_site_type_symbol
 _atom_site_label
 _atom_site_symmetry_multiplicity
 _atom_site_fract_x
 _atom_site_fract_y
 _atom_site_fract_z
 _atom_site_occupancy
  Cr  Cr0  1  0.260533  0.118154  0.208689  1
  Cr  Cr1  1  0.739579  0.881601  0.791366  1
  P  P2  1  0.135677  0.677741  0.117903  1
  P  P3  1  0.864327  0.322268  0.882108  1
  P  P4  1  0.257845  0.222144  0.619345  1
  P  P5  1  0.742132  0.777909  0.380619  1
  O  O6  1  0.029240  0.758970  0.923104  1
  O  O7  1  0.970740  0.241056  0.076877  1
  O  O8  1  0.283002  0.811717  0.165616  1
  O  O9  1  0.716963  0.188297  0.834356  1
  O  O10  1  0.284375  0.414751  0.142728  1
  O  O11  1  0.715587  0.585294  0.857255  1
  O  O12  1  0.682087  0.568886  0.435283  1
  O  O13  1  0.317936  0.431159  0.564720  1
  O  O14  1  0.171312  0.141032  0.445581  1
  O  O15  1  0.828679  0.859011  0.554426  1
  O  O16  1  0.045720  0.288132  0.737749  1
  O  O17  1  0.573988  0.993220  0.264520  1
  O  O18  1  0.426010  0.006759  0.735501  1
  O  O19  1  0.954271  0.711895  0.262253  1
