# generated using pymatgen
data_MgAgF5
_symmetry_space_group_name_H-M   'P 1'
_cell_length_a   5.22641412
_cell_length_b   8.06095363
_cell_length_c   9.98512202
_cell_angle_alpha   90.00000000
_cell_angle_beta   90.00000000
_cell_angle_gamma   110.69547038
_symmetry_Int_Tables_number   1
_chemical_formula_structural   MgAgF5
_chemical_formula_sum   'Mg4 Ag4 F20'
_cell_volume   393.52687576
_cell_formula_units_Z   4
loop_
 _symmetry_equiv_pos_site_id
 _symmetry_equiv_pos_as_xyz
  1  'x, y, z'
loop_
 _atom_site_type_symbol
 _atom_site_label
 _atom_site_symmetry_multiplicity
 _atom_site_fract_x
 _atom_site_fract_y
 _atom_site_fract_z
 _atom_site_occupancy
  Mg  Mg0  1  0.473515  0.759265  0.007616  1
  Mg  Mg1  1  0.526485  0.740735  0.507616  1
  Mg  Mg2  1  0.526485  0.240735  0.992384  1
  Mg  Mg3  1  0.473515  0.259265  0.492384  1
  Ag  Ag4  1  0.886000  0.608728  0.753023  1
  Ag  Ag5  1  0.114000  0.891272  0.253023  1
  Ag  Ag6  1  0.114000  0.391272  0.246977  1
  Ag  Ag7  1  0.886000  0.108728  0.746977  1
  F  F8  1  0.570263  0.589251  0.888160  1
  F  F9  1  0.429737  0.910749  0.388160  1
  F  F10  1  0.429737  0.410749  0.111840  1
  F  F11  1  0.570263  0.089251  0.611840  1
  F  F12  1  0.631193  0.495043  0.598142  1
  F  F13  1  0.368807  0.004957  0.098142  1
  F  F14  1  0.368807  0.504957  0.401858  1
  F  F15  1  0.631193  0.995043  0.901858  1
  F  F16  1  0.865660  0.775556  0.405756  1
  F  F17  1  0.134340  0.724444  0.905756  1
  F  F18  1  0.134340  0.224444  0.594244  1
  F  F19  1  0.865660  0.275556  0.094244  1
  F  F20  1  0.784620  0.849707  0.129867  1
  F  F21  1  0.215380  0.650293  0.629867  1
  F  F22  1  0.215380  0.150293  0.870133  1
  F  F23  1  0.784620  0.349707  0.370133  1
  F  F24  1  0.801409  0.838813  0.660149  1
  F  F25  1  0.198591  0.661187  0.160149  1
  F  F26  1  0.198591  0.161187  0.339851  1
  F  F27  1  0.801409  0.338813  0.839851  1
