# generated using pymatgen
data_CaVF5
_symmetry_space_group_name_H-M   'P 1'
_cell_length_a   5.58886255
_cell_length_b   7.81992030
_cell_length_c   10.27387158
_cell_angle_alpha   90.00000000
_cell_angle_beta   90.00000000
_cell_angle_gamma   109.95889106
_symmetry_Int_Tables_number   1
_chemical_formula_structural   CaVF5
_chemical_formula_sum   'Ca4 V4 F20'
_cell_volume   422.04522584
_cell_formula_units_Z   4
loop_
 _symmetry_equiv_pos_site_id
 _symmetry_equiv_pos_as_xyz
  1  'x, y, z'
loop_
 _atom_site_type_symbol
 _atom_site_label
 _atom_site_symmetry_multiplicity
 _atom_site_fract_x
 _atom_site_fract_y
 _atom_site_fract_z
 _atom_site_occupancy
  Ca  Ca0  1  0.468933  0.744860  0.020162  1
  Ca  Ca1  1  0.531067  0.755140  0.520162  1
  Ca  Ca2  1  0.531067  0.255140  0.979838  1
  Ca  Ca3  1  0.468933  0.244860  0.479838  1
  V  V4  1  0.891250  0.598733  0.753356  1
  V  V5  1  0.108750  0.901267  0.253356  1
  V  V6  1  0.108750  0.401267  0.246644  1
  V  V7  1  0.891250  0.098733  0.746644  1
  F  F8  1  0.611157  0.556283  0.882829  1
  F  F9  1  0.388843  0.943717  0.382829  1
  F  F10  1  0.388843  0.443717  0.117171  1
  F  F11  1  0.611157  0.056283  0.617171  1
  F  F12  1  0.641873  0.504707  0.611680  1
  F  F13  1  0.358127  0.995293  0.111680  1
  F  F14  1  0.358127  0.495293  0.388320  1
  F  F15  1  0.641873  0.004707  0.888320  1
  F  F16  1  0.877339  0.811005  0.395905  1
  F  F17  1  0.122661  0.688995  0.895905  1
  F  F18  1  0.122661  0.188995  0.604095  1
  F  F19  1  0.877339  0.311005  0.104095  1
  F  F20  1  0.827693  0.858824  0.136093  1
  F  F21  1  0.172307  0.641176  0.636093  1
  F  F22  1  0.172307  0.141176  0.863907  1
  F  F23  1  0.827693  0.358824  0.363907  1
  F  F24  1  0.847680  0.837190  0.700345  1
  F  F25  1  0.152320  0.662810  0.200345  1
  F  F26  1  0.152320  0.162810  0.299655  1
  F  F27  1  0.847680  0.337190  0.799655  1
