# generated using pymatgen
data_Ca2BiWO6
_symmetry_space_group_name_H-M   'P 1'
_cell_length_a   5.67421262
_cell_length_b   5.96014233
_cell_length_c   8.29650570
_cell_angle_alpha   90.00000000
_cell_angle_beta   89.38043170
_cell_angle_gamma   90.00000000
_symmetry_Int_Tables_number   1
_chemical_formula_structural   Ca2BiWO6
_chemical_formula_sum   'Ca4 Bi2 W2 O12'
_cell_volume   280.56407468
_cell_formula_units_Z   2
loop_
 _symmetry_equiv_pos_site_id
 _symmetry_equiv_pos_as_xyz
  1  'x, y, z'
loop_
 _atom_site_type_symbol
 _atom_site_label
 _atom_site_symmetry_multiplicity
 _atom_site_fract_x
 _atom_site_fract_y
 _atom_site_fract_z
 _atom_site_occupancy
  Ca  Ca0  1  0.987286  0.056364  0.251970  1
  Ca  Ca1  1  0.512714  0.556365  0.248030  1
  Ca  Ca2  1  0.012715  0.943637  0.748030  1
  Ca  Ca3  1  0.487285  0.443636  0.751970  1
  Bi  Bi4  1  0.500000  0.000000  0.000000  1
  Bi  Bi5  1  0.000001  0.499999  0.500000  1
  W  W6  1  0.500000  0.000000  0.499999  1
  W  W7  1  0.000000  0.499999  0.000000  1
  O  O8  1  0.666561  0.287660  0.424697  1
  O  O9  1  0.833439  0.787661  0.075303  1
  O  O10  1  0.333438  0.712340  0.575303  1
  O  O11  1  0.166562  0.212339  0.924697  1
  O  O12  1  0.215488  0.170024  0.557111  1
  O  O13  1  0.284512  0.670023  0.942889  1
  O  O14  1  0.784513  0.829976  0.442889  1
  O  O15  1  0.715487  0.329977  0.057111  1
  O  O16  1  0.124765  0.435515  0.227718  1
  O  O17  1  0.375236  0.935516  0.272281  1
  O  O18  1  0.624765  0.064484  0.727719  1
  O  O19  1  0.875236  0.564485  0.772282  1
