# generated using pymatgen
data_MgAg2P2O9
_symmetry_space_group_name_H-M   'P 1'
_cell_length_a   6.53379618
_cell_length_b   6.92441527
_cell_length_c   15.89403845
_cell_angle_alpha   89.89515044
_cell_angle_beta   89.99752436
_cell_angle_gamma   90.00257740
_symmetry_Int_Tables_number   1
_chemical_formula_structural   MgAg2P2O9
_chemical_formula_sum   'Mg4 Ag8 P8 O36'
_cell_volume   719.08829474
_cell_formula_units_Z   4
loop_
 _symmetry_equiv_pos_site_id
 _symmetry_equiv_pos_as_xyz
  1  'x, y, z'
loop_
 _atom_site_type_symbol
 _atom_site_label
 _atom_site_symmetry_multiplicity
 _atom_site_fract_x
 _atom_site_fract_y
 _atom_site_fract_z
 _atom_site_occupancy
  Mg  Mg0  1  0.750020  0.888743  0.774670  1
  Mg  Mg1  1  0.749982  0.612776  0.275223  1
  Mg  Mg2  1  0.250015  0.388565  0.724978  1
  Mg  Mg3  1  0.249982  0.112873  0.225132  1
  Ag  Ag4  1  0.750031  0.371145  0.881192  1
  Ag  Ag5  1  0.249962  0.629604  0.118790  1
  Ag  Ag6  1  0.250017  0.870685  0.618559  1
  Ag  Ag7  1  0.749980  0.129729  0.381554  1
  Ag  Ag8  1  0.499924  0.999403  0.999744  1
  Ag  Ag9  1  0.499992  0.499686  0.500207  1
  Ag  Ag10  1  0.000009  0.499681  0.500208  1
  Ag  Ag11  1  0.000080  0.999409  0.999747  1
  P  P12  1  0.250033  0.384636  0.921141  1
  P  P13  1  0.749967  0.615715  0.079615  1
  P  P14  1  0.750005  0.884437  0.578679  1
  P  P15  1  0.249996  0.115494  0.420913  1
  P  P16  1  0.750053  0.386780  0.707119  1
  P  P17  1  0.750017  0.112171  0.207732  1
  P  P18  1  0.249985  0.886996  0.792487  1
  P  P19  1  0.249960  0.612659  0.292668  1
  O  O20  1  0.046215  0.607506  0.341247  1
  O  O21  1  0.545873  0.392786  0.658592  1
  O  O22  1  0.953816  0.107686  0.159149  1
  O  O23  1  0.454114  0.892436  0.841069  1
  O  O24  1  0.954121  0.392780  0.658590  1
  O  O25  1  0.453784  0.607503  0.341241  1
  O  O26  1  0.045927  0.892440  0.841056  1
  O  O27  1  0.546141  0.107690  0.159136  1
  O  O28  1  0.250003  0.302428  0.477511  1
  O  O29  1  0.749999  0.696877  0.522593  1
  O  O30  1  0.749980  0.802566  0.022830  1
  O  O31  1  0.250024  0.196595  0.977152  1
  O  O32  1  0.750009  0.109768  0.939642  1
  O  O33  1  0.249993  0.891118  0.060679  1
  O  O34  1  0.250011  0.608821  0.560478  1
  O  O35  1  0.749989  0.392131  0.439323  1
  O  O36  1  0.750037  0.196214  0.761895  1
  O  O37  1  0.249968  0.802609  0.237348  1
  O  O38  1  0.249999  0.697086  0.737585  1
  O  O39  1  0.750003  0.301849  0.263018  1
  O  O40  1  0.426034  0.123664  0.355360  1
  O  O41  1  0.926459  0.877197  0.644088  1
  O  O42  1  0.574026  0.623498  0.144832  1
  O  O43  1  0.073529  0.377030  0.855554  1
  O  O44  1  0.573597  0.877160  0.644098  1
  O  O45  1  0.073904  0.123626  0.355372  1
  O  O46  1  0.426545  0.377065  0.855570  1
  O  O47  1  0.925894  0.623536  0.144849  1
  O  O48  1  0.750004  0.443272  0.020576  1
  O  O49  1  0.250023  0.063798  0.727046  1
  O  O50  1  0.249956  0.435979  0.227294  1
  O  O51  1  0.750050  0.563366  0.772545  1
  O  O52  1  0.749955  0.056278  0.519673  1
  O  O53  1  0.250044  0.943191  0.479598  1
  O  O54  1  0.250000  0.555831  0.979934  1
  O  O55  1  0.749978  0.935426  0.273121  1
