# generated using pymatgen
data_CaPr(WO3)2
_symmetry_space_group_name_H-M   'P 1'
_cell_length_a   5.63643610
_cell_length_b   5.90226503
_cell_length_c   8.05568212
_cell_angle_alpha   89.37307581
_cell_angle_beta   89.99920903
_cell_angle_gamma   89.98929244
_symmetry_Int_Tables_number   1
_chemical_formula_structural   CaPr(WO3)2
_chemical_formula_sum   'Ca2 Pr2 W4 O12'
_cell_volume   267.97828846
_cell_formula_units_Z   2
loop_
 _symmetry_equiv_pos_site_id
 _symmetry_equiv_pos_as_xyz
  1  'x, y, z'
loop_
 _atom_site_type_symbol
 _atom_site_label
 _atom_site_symmetry_multiplicity
 _atom_site_fract_x
 _atom_site_fract_y
 _atom_site_fract_z
 _atom_site_occupancy
  Ca  Ca0  1  0.482405  0.445348  0.758775  1
  Ca  Ca1  1  0.982268  0.054657  0.241313  1
  Pr  Pr2  1  0.020124  0.942442  0.760148  1
  Pr  Pr3  1  0.519968  0.557521  0.239830  1
  W  W4  1  0.001028  0.498009  0.999605  1
  W  W5  1  0.999514  0.497887  0.500505  1
  W  W6  1  0.499538  0.002104  0.499499  1
  W  W7  1  0.501047  0.001992  0.000397  1
  O  O8  1  0.108283  0.463021  0.259225  1
  O  O9  1  0.191097  0.195472  0.942516  1
  O  O10  1  0.195111  0.207027  0.559222  1
  O  O11  1  0.301374  0.709788  0.559602  1
  O  O12  1  0.311048  0.695739  0.942421  1
  O  O13  1  0.390187  0.965277  0.259428  1
  O  O14  1  0.608416  0.036991  0.740790  1
  O  O15  1  0.691064  0.304561  0.057366  1
  O  O16  1  0.694996  0.293045  0.440795  1
  O  O17  1  0.811093  0.804297  0.057643  1
  O  O18  1  0.801195  0.790085  0.440347  1
  O  O19  1  0.890240  0.534735  0.740573  1
