# generated using pymatgen
data_YCu3(SnO3)4
_symmetry_space_group_name_H-M   'P 1'
_cell_length_a   6.74662661
_cell_length_b   6.74655823
_cell_length_c   6.74675660
_cell_angle_alpha   109.56518059
_cell_angle_beta   109.53839050
_cell_angle_gamma   109.32107292
_symmetry_Int_Tables_number   1
_chemical_formula_structural   YCu3(SnO3)4
_chemical_formula_sum   'Y1 Cu3 Sn4 O12'
_cell_volume   236.36406344
_cell_formula_units_Z   1
loop_
 _symmetry_equiv_pos_site_id
 _symmetry_equiv_pos_as_xyz
  1  'x, y, z'
loop_
 _atom_site_type_symbol
 _atom_site_label
 _atom_site_symmetry_multiplicity
 _atom_site_fract_x
 _atom_site_fract_y
 _atom_site_fract_z
 _atom_site_occupancy
  Y  Y0  1  0.000002  0.999998  0.999996  1
  Cu  Cu1  1  0.499997  0.999997  0.500001  1
  Cu  Cu2  1  0.500002  0.500000  0.999996  1
  Cu  Cu3  1  0.000006  0.500006  0.500003  1
  Sn  Sn4  1  0.500002  0.000005  0.000001  1
  Sn  Sn5  1  0.999988  0.999990  0.499990  1
  Sn  Sn6  1  0.000004  0.500001  0.000001  1
  Sn  Sn7  1  0.500000  0.499998  0.500001  1
  O  O8  1  0.831772  0.296874  0.128632  1
  O  O9  1  0.168233  0.703134  0.871374  1
  O  O10  1  0.831757  0.703133  0.534886  1
  O  O11  1  0.297118  0.464854  0.167733  1
  O  O12  1  0.466150  0.167519  0.298614  1
  O  O13  1  0.131136  0.832507  0.298649  1
  O  O14  1  0.702841  0.870547  0.167699  1
  O  O15  1  0.533847  0.832476  0.701389  1
  O  O16  1  0.168242  0.296868  0.465119  1
  O  O17  1  0.702893  0.535150  0.832268  1
  O  O18  1  0.868860  0.167488  0.701355  1
  O  O19  1  0.297153  0.129451  0.832292  1
