# generated using pymatgen
data_Sb2O5
_symmetry_space_group_name_H-M   'P 1'
_cell_length_a   3.96937820
_cell_length_b   3.84047858
_cell_length_c   12.97219019
_cell_angle_alpha   90.00161332
_cell_angle_beta   90.00052301
_cell_angle_gamma   89.99995753
_symmetry_Int_Tables_number   1
_chemical_formula_structural   Sb2O5
_chemical_formula_sum   'Sb4 O10'
_cell_volume   197.75211398
_cell_formula_units_Z   2
loop_
 _symmetry_equiv_pos_site_id
 _symmetry_equiv_pos_as_xyz
  1  'x, y, z'
loop_
 _atom_site_type_symbol
 _atom_site_label
 _atom_site_symmetry_multiplicity
 _atom_site_fract_x
 _atom_site_fract_y
 _atom_site_fract_z
 _atom_site_occupancy
  Sb  Sb0  1  0.018419  0.992149  0.147956  1
  Sb  Sb1  1  0.518421  0.007923  0.352046  1
  Sb  Sb2  1  0.518440  0.007998  0.647972  1
  Sb  Sb3  1  0.018451  0.992241  0.852016  1
  O  O4  1  0.518475  0.995277  0.187926  1
  O  O5  1  0.018458  0.004740  0.312067  1
  O  O6  1  0.018481  0.004728  0.687924  1
  O  O7  1  0.518506  0.995311  0.812076  1
  O  O8  1  0.018879  0.491539  0.846428  1
  O  O9  1  0.518619  0.508263  0.653559  1
  O  O10  1  0.518619  0.508275  0.346487  1
  O  O11  1  0.518856  0.031667  0.499990  1
  O  O12  1  0.018543  0.968180  0.000014  1
  O  O13  1  0.018823  0.491707  0.153537  1
