# generated using pymatgen
data_Y8Cu3(SnS7)3
_symmetry_space_group_name_H-M   'P 1'
_cell_length_a   9.64823607
_cell_length_b   9.70762877
_cell_length_c   19.04704846
_cell_angle_alpha   90.00000000
_cell_angle_beta   90.00000000
_cell_angle_gamma   119.14945840
_symmetry_Int_Tables_number   1
_chemical_formula_structural   Y8Cu3(SnS7)3
_chemical_formula_sum   'Y16 Cu6 Sn6 S42'
_cell_volume   1558.03830401
_cell_formula_units_Z   2
loop_
 _symmetry_equiv_pos_site_id
 _symmetry_equiv_pos_as_xyz
  1  'x, y, z'
loop_
 _atom_site_type_symbol
 _atom_site_label
 _atom_site_symmetry_multiplicity
 _atom_site_fract_x
 _atom_site_fract_y
 _atom_site_fract_z
 _atom_site_occupancy
  Y  Y0  1  0.209246  0.363508  0.288222  1
  Y  Y1  1  0.216388  0.373848  0.622787  1
  Y  Y2  1  0.211718  0.364856  0.956475  1
  Y  Y3  1  0.373407  0.150546  0.122880  1
  Y  Y4  1  0.360040  0.142415  0.457984  1
  Y  Y5  1  0.364705  0.147524  0.789166  1
  Y  Y6  1  0.635295  0.852476  0.289166  1
  Y  Y7  1  0.626593  0.849454  0.622880  1
  Y  Y8  1  0.639960  0.857585  0.957984  1
  Y  Y9  1  0.783612  0.626152  0.122787  1
  Y  Y10  1  0.788282  0.635144  0.456475  1
  Y  Y11  1  0.790754  0.636492  0.788222  1
  Y  Y12  1  0.845890  0.211938  0.457767  1
  Y  Y13  1  0.849825  0.211823  0.793987  1
  Y  Y14  1  0.150175  0.788177  0.293987  1
  Y  Y15  1  0.154110  0.788062  0.957767  1
  Cu  Cu16  1  0.001131  0.994842  0.338509  1
  Cu  Cu17  1  0.006053  0.988237  0.661849  1
  Cu  Cu18  1  0.000945  0.000386  0.995765  1
  Cu  Cu19  1  0.993947  0.011763  0.161849  1
  Cu  Cu20  1  0.999055  0.999614  0.495765  1
  Cu  Cu21  1  0.998869  0.005158  0.838509  1
  Sn  Sn22  1  0.329307  0.665341  0.100957  1
  Sn  Sn23  1  0.334085  0.664640  0.440167  1
  Sn  Sn24  1  0.324921  0.674106  0.766205  1
  Sn  Sn25  1  0.675079  0.325894  0.266205  1
  Sn  Sn26  1  0.670693  0.334659  0.600957  1
  Sn  Sn27  1  0.665915  0.335360  0.940167  1
  S  S28  1  0.674581  0.327695  0.065121  1
  S  S29  1  0.663548  0.331352  0.394598  1
  S  S30  1  0.667890  0.333481  0.728320  1
  S  S31  1  0.332110  0.666519  0.228320  1
  S  S32  1  0.325419  0.672305  0.565121  1
  S  S33  1  0.336452  0.668648  0.894598  1
  S  S34  1  0.483564  0.567242  0.040461  1
  S  S35  1  0.481174  0.565994  0.373613  1
  S  S36  1  0.483647  0.571179  0.709016  1
  S  S37  1  0.926327  0.500094  0.213387  1
  S  S38  1  0.918534  0.476020  0.540473  1
  S  S39  1  0.915940  0.480487  0.876549  1
  S  S40  1  0.539876  0.064048  0.217497  1
  S  S41  1  0.564984  0.080167  0.543687  1
  S  S42  1  0.566394  0.085377  0.878530  1
  S  S43  1  0.435016  0.919833  0.043687  1
  S  S44  1  0.433606  0.914623  0.378530  1
  S  S45  1  0.460124  0.935952  0.717497  1
  S  S46  1  0.081466  0.523980  0.040473  1
  S  S47  1  0.084060  0.519513  0.376549  1
  S  S48  1  0.073673  0.499906  0.713387  1
  S  S49  1  0.516353  0.428821  0.209016  1
  S  S50  1  0.516436  0.432758  0.540461  1
  S  S51  1  0.518826  0.434006  0.873613  1
  S  S52  1  0.737132  0.873862  0.153885  1
  S  S53  1  0.735762  0.884034  0.485827  1
  S  S54  1  0.739400  0.880953  0.820122  1
  S  S55  1  0.847296  0.738979  0.318305  1
  S  S56  1  0.842599  0.738762  0.650918  1
  S  S57  1  0.853770  0.739933  0.985623  1
  S  S58  1  0.260600  0.119047  0.320122  1
  S  S59  1  0.262868  0.126138  0.653885  1
  S  S60  1  0.264238  0.115966  0.985827  1
  S  S61  1  0.157401  0.261238  0.150918  1
  S  S62  1  0.146230  0.260067  0.485623  1
  S  S63  1  0.152704  0.261021  0.818305  1
  S  S64  1  0.107404  0.859339  0.154374  1
  S  S65  1  0.104959  0.849919  0.472094  1
  S  S66  1  0.112248  0.854989  0.820462  1
  S  S67  1  0.887752  0.145011  0.320462  1
  S  S68  1  0.892596  0.140661  0.654374  1
  S  S69  1  0.895041  0.150081  0.972094  1
