# generated using pymatgen
data_Sr2YTi2AlO7
_symmetry_space_group_name_H-M   'P 1'
_cell_length_a   12.12821307
_cell_length_b   12.12821307
_cell_length_c   12.12821307
_cell_angle_alpha   38.03188063
_cell_angle_beta   153.01248025
_cell_angle_gamma   153.70986092
_symmetry_Int_Tables_number   1
_chemical_formula_structural   Sr2YTi2AlO7
_chemical_formula_sum   'Sr4 Y2 Ti4 Al2 O14'
_cell_volume   358.00634809
_cell_formula_units_Z   2
loop_
 _symmetry_equiv_pos_site_id
 _symmetry_equiv_pos_as_xyz
  1  'x, y, z'
loop_
 _atom_site_type_symbol
 _atom_site_label
 _atom_site_symmetry_multiplicity
 _atom_site_fract_x
 _atom_site_fract_y
 _atom_site_fract_z
 _atom_site_occupancy
  Sr  Sr0  1  0.035949  0.855182  0.867026  1
  Sr  Sr1  1  0.988157  0.168923  0.132974  1
  Sr  Sr2  1  0.035949  0.668923  0.680767  1
  Sr  Sr3  1  0.988157  0.355182  0.319233  1
  Y  Y4  1  0.018115  0.518115  0.500000  1
  Y  Y5  1  0.018115  0.018115  0.000000  1
  Ti  Ti6  1  0.517258  0.455889  0.937327  1
  Ti  Ti7  1  0.518561  0.579931  0.062673  1
  Ti  Ti8  1  0.517258  0.079931  0.561370  1
  Ti  Ti9  1  0.518561  0.955889  0.438630  1
  Al  Al10  1  0.567569  0.744612  0.322957  1
  Al  Al11  1  0.421655  0.244612  0.677043  1
  O  O12  1  0.017516  0.926767  0.590749  1
  O  O13  1  0.336018  0.426767  0.409251  1
  O  O14  1  0.507106  0.195098  0.176883  1
  O  O15  1  0.018216  0.330222  0.823117  1
  O  O16  1  0.507106  0.830222  0.812006  1
  O  O17  1  0.018216  0.695098  0.187994  1
  O  O18  1  0.526405  0.702796  0.684462  1
  O  O19  1  0.018334  0.841943  0.315538  1
  O  O20  1  0.526405  0.341943  0.323610  1
  O  O21  1  0.018334  0.202796  0.676390  1
  O  O22  1  0.490186  0.868477  0.258142  1
  O  O23  1  0.610335  0.232043  0.741858  1
  O  O24  1  0.490186  0.732043  0.121709  1
  O  O25  1  0.610335  0.368477  0.878291  1
