# generated using pymatgen
data_MgCu3(BiO3)4
_symmetry_space_group_name_H-M   'P 1'
_cell_length_a   7.09598356
_cell_length_b   7.09553542
_cell_length_c   7.09706909
_cell_angle_alpha   109.49716031
_cell_angle_beta   109.42521656
_cell_angle_gamma   109.49212663
_symmetry_Int_Tables_number   1
_chemical_formula_structural   MgCu3(BiO3)4
_chemical_formula_sum   'Mg1 Cu3 Bi4 O12'
_cell_volume   275.07444443
_cell_formula_units_Z   1
loop_
 _symmetry_equiv_pos_site_id
 _symmetry_equiv_pos_as_xyz
  1  'x, y, z'
loop_
 _atom_site_type_symbol
 _atom_site_label
 _atom_site_symmetry_multiplicity
 _atom_site_fract_x
 _atom_site_fract_y
 _atom_site_fract_z
 _atom_site_occupancy
  Mg  Mg0  1  0.999999  0.999998  0.999998  1
  Cu  Cu1  1  0.499998  0.500001  0.999999  1
  Cu  Cu2  1  0.000003  0.500001  0.500000  1
  Cu  Cu3  1  0.500000  0.000000  0.500000  1
  Bi  Bi4  1  1.000000  0.000001  0.500000  1
  Bi  Bi5  1  0.000000  0.500000  0.000000  1
  Bi  Bi6  1  0.500000  0.499999  0.500000  1
  Bi  Bi7  1  0.500000  0.999999  0.000000  1
  O  O8  1  0.846225  0.319300  0.165543  1
  O  O9  1  0.153774  0.680700  0.834457  1
  O  O10  1  0.846234  0.680673  0.526888  1
  O  O11  1  0.319105  0.472827  0.153724  1
  O  O12  1  0.473164  0.153668  0.319426  1
  O  O13  1  0.165770  0.846321  0.319503  1
  O  O14  1  0.680890  0.834603  0.153755  1
  O  O15  1  0.526836  0.846333  0.680574  1
  O  O16  1  0.153767  0.319329  0.473112  1
  O  O17  1  0.680894  0.527173  0.846276  1
  O  O18  1  0.834229  0.153679  0.680500  1
  O  O19  1  0.319110  0.165396  0.846245  1
