# generated using pymatgen
data_Zn(NiO2)2
_symmetry_space_group_name_H-M   'P 1'
_cell_length_a   5.89471290
_cell_length_b   5.89471243
_cell_length_c   5.95929590
_cell_angle_alpha   59.63689943
_cell_angle_beta   59.63690365
_cell_angle_gamma   60.36798055
_symmetry_Int_Tables_number   1
_chemical_formula_structural   Zn(NiO2)2
_chemical_formula_sum   'Zn2 Ni4 O8'
_cell_volume   146.00895037
_cell_formula_units_Z   2
loop_
 _symmetry_equiv_pos_site_id
 _symmetry_equiv_pos_as_xyz
  1  'x, y, z'
loop_
 _atom_site_type_symbol
 _atom_site_label
 _atom_site_symmetry_multiplicity
 _atom_site_fract_x
 _atom_site_fract_y
 _atom_site_fract_z
 _atom_site_occupancy
  Zn  Zn0  1  0.125000  0.625000  0.625000  1
  Zn  Zn1  1  0.625000  0.125000  0.625000  1
  Ni  Ni2  1  0.993752  0.993752  0.006248  1
  Ni  Ni3  1  0.256248  0.256248  0.243752  1
  Ni  Ni4  1  0.625000  0.625000  0.125000  1
  Ni  Ni5  1  0.625000  0.625000  0.625000  1
  O  O6  1  0.388849  0.388849  0.368148  1
  O  O7  1  0.388910  0.865108  0.372991  1
  O  O8  1  0.388849  0.388849  0.854154  1
  O  O9  1  0.865108  0.388910  0.372991  1
  O  O10  1  0.384892  0.861090  0.877009  1
  O  O11  1  0.861090  0.384892  0.877009  1
  O  O12  1  0.861151  0.861151  0.395846  1
  O  O13  1  0.861151  0.861151  0.881852  1
