# generated using pymatgen
data_CaCu3(WO3)4
_symmetry_space_group_name_H-M   'P 1'
_cell_length_a   6.71307214
_cell_length_b   6.70664223
_cell_length_c   6.69410559
_cell_angle_alpha   109.50037168
_cell_angle_beta   109.43574349
_cell_angle_gamma   109.52088963
_symmetry_Int_Tables_number   1
_chemical_formula_structural   CaCu3(WO3)4
_chemical_formula_sum   'Ca1 Cu3 W4 O12'
_cell_volume   231.88059132
_cell_formula_units_Z   1
loop_
 _symmetry_equiv_pos_site_id
 _symmetry_equiv_pos_as_xyz
  1  'x, y, z'
loop_
 _atom_site_type_symbol
 _atom_site_label
 _atom_site_symmetry_multiplicity
 _atom_site_fract_x
 _atom_site_fract_y
 _atom_site_fract_z
 _atom_site_occupancy
  Ca  Ca0  1  -0.000000  -0.000000  -0.000000  1
  Cu  Cu1  1  0.500001  0.500000  0.000001  1
  Cu  Cu2  1  0.000001  0.500001  0.500001  1
  Cu  Cu3  1  0.500000  0.999999  0.499999  1
  W  W4  1  -0.000000  -0.000000  0.500000  1
  W  W5  1  -0.000000  0.500000  -0.000000  1
  W  W6  1  0.500000  0.500000  0.500000  1
  W  W7  1  0.500000  -0.000000  -0.000000  1
  O  O8  1  0.824677  0.298976  0.121431  1
  O  O9  1  0.175324  0.701024  0.878569  1
  O  O10  1  0.821925  0.704034  0.524064  1
  O  O11  1  0.283669  0.474642  0.167286  1
  O  O12  1  0.476118  0.177109  0.299159  1
  O  O13  1  0.122783  0.824087  0.299284  1
  O  O14  1  0.718013  0.885934  0.189590  1
  O  O15  1  0.523882  0.822891  0.700841  1
  O  O16  1  0.178075  0.295966  0.475936  1
  O  O17  1  0.716331  0.525358  0.832714  1
  O  O18  1  0.877216  0.175912  0.700716  1
  O  O19  1  0.281987  0.114066  0.810410  1
