# generated using pymatgen
data_ZnNi2S5
_symmetry_space_group_name_H-M   'P 1'
_cell_length_a   3.56711688
_cell_length_b   6.40420714
_cell_length_c   13.33014834
_cell_angle_alpha   89.96429452
_cell_angle_beta   90.00034907
_cell_angle_gamma   89.99942360
_symmetry_Int_Tables_number   1
_chemical_formula_structural   ZnNi2S5
_chemical_formula_sum   'Zn2 Ni4 S10'
_cell_volume   304.52125304
_cell_formula_units_Z   2
loop_
 _symmetry_equiv_pos_site_id
 _symmetry_equiv_pos_as_xyz
  1  'x, y, z'
loop_
 _atom_site_type_symbol
 _atom_site_label
 _atom_site_symmetry_multiplicity
 _atom_site_fract_x
 _atom_site_fract_y
 _atom_site_fract_z
 _atom_site_occupancy
  Zn  Zn0  1  0.750003  0.892613  0.249677  1
  Zn  Zn1  1  0.249981  0.107343  0.750433  1
  Ni  Ni2  1  0.249991  0.466126  0.104611  1
  Ni  Ni3  1  0.749989  0.533737  0.895266  1
  Ni  Ni4  1  0.750010  0.533796  0.604799  1
  Ni  Ni5  1  0.250049  0.466260  0.395223  1
  S  S6  1  0.749993  0.360886  0.749988  1
  S  S7  1  0.250008  0.639126  0.249964  1
  S  S8  1  0.749986  0.642604  0.052626  1
  S  S9  1  0.249984  0.357232  0.947342  1
  S  S10  1  0.750037  0.642831  0.447289  1
  S  S11  1  0.250016  0.357333  0.552701  1
  S  S12  1  0.250032  0.146070  0.329831  1
  S  S13  1  0.749992  0.854020  0.670194  1
  S  S14  1  0.749969  0.854114  0.829728  1
  S  S15  1  0.249952  0.145910  0.170329  1
