# generated using pymatgen
data_Zn2AgSbO6
_symmetry_space_group_name_H-M   'P 1'
_cell_length_a   5.58995455
_cell_length_b   5.48904917
_cell_length_c   7.75366240
_cell_angle_alpha   90.00000000
_cell_angle_beta   90.00000000
_cell_angle_gamma   97.53056331
_symmetry_Int_Tables_number   1
_chemical_formula_structural   Zn2AgSbO6
_chemical_formula_sum   'Zn4 Ag2 Sb2 O12'
_cell_volume   235.85782514
_cell_formula_units_Z   2
loop_
 _symmetry_equiv_pos_site_id
 _symmetry_equiv_pos_as_xyz
  1  'x, y, z'
loop_
 _atom_site_type_symbol
 _atom_site_label
 _atom_site_symmetry_multiplicity
 _atom_site_fract_x
 _atom_site_fract_y
 _atom_site_fract_z
 _atom_site_occupancy
  Zn  Zn0  1  0.515506  0.544318  0.750000  1
  Zn  Zn1  1  0.484494  0.455682  0.250000  1
  Zn  Zn2  1  0.060801  0.015174  0.750000  1
  Zn  Zn3  1  0.939199  0.984826  0.250000  1
  Ag  Ag4  1  0.500000  0.000000  0.500000  1
  Ag  Ag5  1  0.500000  0.000000  0.000000  1
  Sb  Sb6  1  0.000000  0.500000  0.500000  1
  Sb  Sb7  1  0.000000  0.500000  0.000000  1
  O  O8  1  0.339301  0.653993  0.437907  1
  O  O9  1  0.119740  0.201025  0.073649  1
  O  O10  1  0.660699  0.346007  0.937907  1
  O  O11  1  0.880259  0.798975  0.573649  1
  O  O12  1  0.119740  0.201025  0.426351  1
  O  O13  1  0.880259  0.798975  0.926351  1
  O  O14  1  0.874888  0.602201  0.250000  1
  O  O15  1  0.339301  0.653993  0.062093  1
  O  O16  1  0.396975  0.888860  0.750000  1
  O  O17  1  0.660699  0.346007  0.562093  1
  O  O18  1  0.125112  0.397799  0.750000  1
  O  O19  1  0.603025  0.111140  0.250000  1
