# generated using pymatgen
data_SrCaCr(PO4)2
_symmetry_space_group_name_H-M   'P 1'
_cell_length_a   5.91835365
_cell_length_b   6.93159810
_cell_length_c   9.46016377
_cell_angle_alpha   108.95425959
_cell_angle_beta   102.37073229
_cell_angle_gamma   98.57023739
_symmetry_Int_Tables_number   1
_chemical_formula_structural   SrCaCr(PO4)2
_chemical_formula_sum   'Sr2 Ca2 Cr2 P4 O16'
_cell_volume   348.34262913
_cell_formula_units_Z   2
loop_
 _symmetry_equiv_pos_site_id
 _symmetry_equiv_pos_as_xyz
  1  'x, y, z'
loop_
 _atom_site_type_symbol
 _atom_site_label
 _atom_site_symmetry_multiplicity
 _atom_site_fract_x
 _atom_site_fract_y
 _atom_site_fract_z
 _atom_site_occupancy
  Sr  Sr0  1  0.276592  0.810275  0.061725  1
  Sr  Sr1  1  0.723408  0.189725  0.938275  1
  Ca  Ca2  1  0.001095  0.419004  0.663742  1
  Ca  Ca3  1  0.998905  0.580996  0.336258  1
  Cr  Cr4  1  0.655028  0.843663  0.548483  1
  Cr  Cr5  1  0.344972  0.156337  0.451517  1
  P  P6  1  0.388297  0.416237  0.227063  1
  P  P7  1  0.611703  0.583763  0.772937  1
  P  P8  1  0.838937  0.028532  0.293324  1
  P  P9  1  0.161063  0.971468  0.706676  1
  O  O10  1  0.840053  0.563479  0.881248  1
  O  O11  1  0.613086  0.453112  0.172412  1
  O  O12  1  0.653231  0.800354  0.755364  1
  O  O13  1  0.952860  0.091087  0.694157  1
  O  O14  1  0.386914  0.546888  0.827588  1
  O  O15  1  0.046048  0.735216  0.602729  1
  O  O16  1  0.953952  0.264784  0.397271  1
  O  O17  1  0.274146  0.005735  0.877051  1
  O  O18  1  0.346769  0.199646  0.244636  1
  O  O19  1  0.725854  0.994265  0.122949  1
  O  O20  1  0.159947  0.436521  0.118752  1
  O  O21  1  0.408362  0.586374  0.389640  1
  O  O22  1  0.591638  0.413626  0.610360  1
  O  O23  1  0.646561  0.938289  0.359984  1
  O  O24  1  0.047140  0.908913  0.305843  1
  O  O25  1  0.353439  0.061711  0.640016  1
