# generated using pymatgen
data_Zn3Ge3(BiO6)2
_symmetry_space_group_name_H-M   'P 1'
_cell_length_a   11.08004404
_cell_length_b   11.08004343
_cell_length_c   11.08004358
_cell_angle_alpha   109.47122090
_cell_angle_beta   109.47121979
_cell_angle_gamma   109.47121986
_symmetry_Int_Tables_number   1
_chemical_formula_structural   Zn3Ge3(BiO6)2
_chemical_formula_sum   'Zn12 Ge12 Bi8 O48'
_cell_volume   1047.13465942
_cell_formula_units_Z   4
loop_
 _symmetry_equiv_pos_site_id
 _symmetry_equiv_pos_as_xyz
  1  'x, y, z'
loop_
 _atom_site_type_symbol
 _atom_site_label
 _atom_site_symmetry_multiplicity
 _atom_site_fract_x
 _atom_site_fract_y
 _atom_site_fract_z
 _atom_site_occupancy
  Zn  Zn0  1  0.625000  0.250000  0.875000  1
  Zn  Zn1  1  0.875000  0.750000  0.625000  1
  Zn  Zn2  1  0.750000  0.625000  0.875000  1
  Zn  Zn3  1  0.250000  0.875000  0.625000  1
  Zn  Zn4  1  0.875000  0.625000  0.250000  1
  Zn  Zn5  1  0.625000  0.875000  0.750000  1
  Zn  Zn6  1  0.375000  0.750000  0.125000  1
  Zn  Zn7  1  0.125000  0.250000  0.375000  1
  Zn  Zn8  1  0.250000  0.375000  0.125000  1
  Zn  Zn9  1  0.750000  0.125000  0.375000  1
  Zn  Zn10  1  0.125000  0.375000  0.750000  1
  Zn  Zn11  1  0.375000  0.125000  0.250000  1
  Ge  Ge12  1  0.875000  0.125000  0.750000  1
  Ge  Ge13  1  0.125000  0.875000  0.250000  1
  Ge  Ge14  1  0.250000  0.625000  0.375000  1
  Ge  Ge15  1  0.125000  0.750000  0.875000  1
  Ge  Ge16  1  0.750000  0.875000  0.125000  1
  Ge  Ge17  1  0.375000  0.250000  0.625000  1
  Ge  Ge18  1  0.625000  0.750000  0.375000  1
  Ge  Ge19  1  0.875000  0.250000  0.125000  1
  Ge  Ge20  1  0.250000  0.125000  0.875000  1
  Ge  Ge21  1  0.750000  0.375000  0.625000  1
  Ge  Ge22  1  0.375000  0.625000  0.750000  1
  Ge  Ge23  1  0.625000  0.375000  0.250000  1
  Bi  Bi24  1  0.500000  0.500000  0.500000  1
  Bi  Bi25  1  0.500000  0.500000  0.000000  1
  Bi  Bi26  1  0.500000  0.000000  0.500000  1
  Bi  Bi27  1  0.000000  0.500000  0.500000  1
  Bi  Bi28  1  0.500000  0.000000  0.000000  1
  Bi  Bi29  1  0.000000  0.000000  0.500000  1
  Bi  Bi30  1  0.000000  0.500000  0.000000  1
  Bi  Bi31  1  0.000000  0.000000  0.000000  1
  O  O32  1  0.770316  0.406214  0.801647  1
  O  O33  1  0.093786  0.864102  0.395432  1
  O  O34  1  0.698353  0.104568  0.968669  1
  O  O35  1  0.729684  0.531331  0.635898  1
  O  O36  1  0.729684  0.698353  0.093786  1
  O  O37  1  0.531331  0.635898  0.729684  1
  O  O38  1  0.104568  0.635898  0.406214  1
  O  O39  1  0.635898  0.729684  0.531331  1
  O  O40  1  0.395432  0.801647  0.531331  1
  O  O41  1  0.864102  0.968669  0.770316  1
  O  O42  1  0.968669  0.770316  0.864102  1
  O  O43  1  0.093786  0.729684  0.698353  1
  O  O44  1  0.635898  0.406214  0.104568  1
  O  O45  1  0.531331  0.395432  0.801647  1
  O  O46  1  0.698353  0.093786  0.729684  1
  O  O47  1  0.406214  0.104568  0.635898  1
  O  O48  1  0.801647  0.531331  0.395432  1
  O  O49  1  0.395432  0.093786  0.864102  1
  O  O50  1  0.104568  0.968669  0.698353  1
  O  O51  1  0.604568  0.198353  0.468668  1
  O  O52  1  0.968669  0.698353  0.104568  1
  O  O53  1  0.801647  0.770316  0.406214  1
  O  O54  1  0.864102  0.395432  0.093786  1
  O  O55  1  0.770316  0.864102  0.968669  1
  O  O56  1  0.229684  0.593786  0.198353  1
  O  O57  1  0.906214  0.135898  0.604568  1
  O  O58  1  0.301647  0.895432  0.031331  1
  O  O59  1  0.270316  0.468668  0.364102  1
  O  O60  1  0.270316  0.301647  0.906214  1
  O  O61  1  0.468668  0.364102  0.270316  1
  O  O62  1  0.895432  0.364102  0.593786  1
  O  O63  1  0.364102  0.270316  0.468668  1
  O  O64  1  0.229684  0.135898  0.031331  1
  O  O65  1  0.135898  0.604568  0.906214  1
  O  O66  1  0.198353  0.229684  0.593786  1
  O  O67  1  0.593786  0.198353  0.229684  1
  O  O68  1  0.031331  0.301647  0.895432  1
  O  O69  1  0.895432  0.031331  0.301647  1
  O  O70  1  0.604568  0.906214  0.135898  1
  O  O71  1  0.198353  0.468668  0.604568  1
  O  O72  1  0.593786  0.895432  0.364102  1
  O  O73  1  0.301647  0.906214  0.270316  1
  O  O74  1  0.468668  0.604568  0.198353  1
  O  O75  1  0.364102  0.593786  0.895432  1
  O  O76  1  0.906214  0.270316  0.301647  1
  O  O77  1  0.031331  0.229684  0.135898  1
  O  O78  1  0.135898  0.031331  0.229684  1
  O  O79  1  0.406214  0.801647  0.770316  1
