# generated using pymatgen
data_CaCu3P3O13
_symmetry_space_group_name_H-M   'P 1'
_cell_length_a   6.22587158
_cell_length_b   7.57733195
_cell_length_c   10.22152171
_cell_angle_alpha   100.09553711
_cell_angle_beta   90.00000000
_cell_angle_gamma   90.00000000
_symmetry_Int_Tables_number   1
_chemical_formula_structural   CaCu3P3O13
_chemical_formula_sum   'Ca2 Cu6 P6 O26'
_cell_volume   474.73928858
_cell_formula_units_Z   2
loop_
 _symmetry_equiv_pos_site_id
 _symmetry_equiv_pos_as_xyz
  1  'x, y, z'
loop_
 _atom_site_type_symbol
 _atom_site_label
 _atom_site_symmetry_multiplicity
 _atom_site_fract_x
 _atom_site_fract_y
 _atom_site_fract_z
 _atom_site_occupancy
  Ca  Ca0  1  0.750000  0.662649  0.194842  1
  Ca  Ca1  1  0.250000  0.337351  0.805158  1
  Cu  Cu2  1  0.250000  0.351005  0.201641  1
  Cu  Cu3  1  0.750000  0.648995  0.798359  1
  Cu  Cu4  1  0.250000  0.765134  0.435434  1
  Cu  Cu5  1  0.500000  0.000000  0.000000  1
  Cu  Cu6  1  0.750000  0.234866  0.564566  1
  Cu  Cu7  1  0.000000  0.000000  0.000000  1
  P  P8  1  0.250000  0.209526  0.483695  1
  P  P9  1  0.750000  0.790474  0.516305  1
  P  P10  1  0.250000  0.742990  0.759799  1
  P  P11  1  0.750000  0.257010  0.240201  1
  P  P12  1  0.750000  0.312359  0.887148  1
  P  P13  1  0.250000  0.687641  0.112852  1
  O  O14  1  0.750000  0.364602  0.744182  1
  O  O15  1  0.560845  0.752631  0.413373  1
  O  O16  1  0.250000  0.803099  0.625759  1
  O  O17  1  0.543593  0.205608  0.902265  1
  O  O18  1  0.750000  0.646772  0.605829  1
  O  O19  1  0.750000  0.880517  0.908161  1
  O  O20  1  0.250000  0.353228  0.394171  1
  O  O21  1  0.043593  0.794392  0.097735  1
  O  O22  1  0.250000  0.024692  0.397917  1
  O  O23  1  0.750000  0.975308  0.602083  1
  O  O24  1  0.061515  0.621268  0.788847  1
  O  O25  1  0.250000  0.119483  0.091839  1
  O  O26  1  0.561515  0.378732  0.211153  1
  O  O27  1  0.750000  0.502246  0.970006  1
  O  O28  1  0.750000  0.196901  0.374241  1
  O  O29  1  0.456407  0.794392  0.097735  1
  O  O30  1  0.939155  0.752631  0.413373  1
  O  O31  1  0.439155  0.247369  0.586627  1
  O  O32  1  0.438485  0.621268  0.788847  1
  O  O33  1  0.250000  0.635398  0.255818  1
  O  O34  1  0.750000  0.080555  0.133486  1
  O  O35  1  0.250000  0.919445  0.866514  1
  O  O36  1  0.938485  0.378732  0.211153  1
  O  O37  1  0.956407  0.205608  0.902265  1
  O  O38  1  0.060845  0.247369  0.586627  1
  O  O39  1  0.250000  0.497754  0.029994  1
