# generated using pymatgen
data_Zn(SbO2)2
_symmetry_space_group_name_H-M   'P 1'
_cell_length_a   3.40168244
_cell_length_b   10.88471035
_cell_length_c   6.48749883
_cell_angle_alpha   83.54819344
_cell_angle_beta   74.88232341
_cell_angle_gamma   80.94911981
_symmetry_Int_Tables_number   1
_chemical_formula_structural   Zn(SbO2)2
_chemical_formula_sum   'Zn2 Sb4 O8'
_cell_volume   228.36580737
_cell_formula_units_Z   2
loop_
 _symmetry_equiv_pos_site_id
 _symmetry_equiv_pos_as_xyz
  1  'x, y, z'
loop_
 _atom_site_type_symbol
 _atom_site_label
 _atom_site_symmetry_multiplicity
 _atom_site_fract_x
 _atom_site_fract_y
 _atom_site_fract_z
 _atom_site_occupancy
  Zn  Zn0  1  0.323725  0.206662  0.143072  1
  Zn  Zn1  1  0.672211  0.771718  0.890037  1
  Sb  Sb2  1  0.644996  0.148475  0.567463  1
  Sb  Sb3  1  0.101908  0.546250  0.223699  1
  Sb  Sb4  1  0.869886  0.431764  0.809116  1
  Sb  Sb5  1  0.356619  0.829562  0.465783  1
  O  O6  1  0.867883  0.729348  0.544896  1
  O  O7  1  0.444234  0.288765  0.848301  1
  O  O8  1  0.577412  0.689415  0.184591  1
  O  O9  1  0.134025  0.248791  0.488482  1
  O  O10  1  0.184409  0.851564  0.787106  1
  O  O11  1  0.742813  0.414626  0.132427  1
  O  O12  1  0.814246  0.126667  0.245945  1
  O  O13  1  0.281946  0.563195  0.900524  1
