# generated using pymatgen
data_SrNi(PO4)2
_symmetry_space_group_name_H-M   'P 1'
_cell_length_a   5.62351609
_cell_length_b   7.06116788
_cell_length_c   9.08143252
_cell_angle_alpha   111.40258571
_cell_angle_beta   100.76824320
_cell_angle_gamma   99.83390835
_symmetry_Int_Tables_number   1
_chemical_formula_structural   SrNi(PO4)2
_chemical_formula_sum   'Sr2 Ni2 P4 O16'
_cell_volume   318.37403231
_cell_formula_units_Z   2
loop_
 _symmetry_equiv_pos_site_id
 _symmetry_equiv_pos_as_xyz
  1  'x, y, z'
loop_
 _atom_site_type_symbol
 _atom_site_label
 _atom_site_symmetry_multiplicity
 _atom_site_fract_x
 _atom_site_fract_y
 _atom_site_fract_z
 _atom_site_occupancy
  Sr  Sr0  1  0.252364  0.786943  0.046745  1
  Sr  Sr1  1  0.747636  0.213057  0.953255  1
  Ni  Ni2  1  0.665741  0.851480  0.553298  1
  Ni  Ni3  1  0.334259  0.148520  0.446702  1
  P  P4  1  0.397533  0.434319  0.241853  1
  P  P5  1  0.602467  0.565681  0.758147  1
  P  P6  1  0.847973  0.026206  0.302810  1
  P  P7  1  0.152027  0.973794  0.697190  1
  O  O8  1  0.816639  0.555977  0.885518  1
  O  O9  1  0.639023  0.464049  0.189748  1
  O  O10  1  0.652648  0.785918  0.750999  1
  O  O11  1  0.944400  0.099020  0.703996  1
  O  O12  1  0.360977  0.535951  0.810252  1
  O  O13  1  0.981902  0.755187  0.570181  1
  O  O14  1  0.018098  0.244813  0.429819  1
  O  O15  1  0.272661  0.993362  0.868401  1
  O  O16  1  0.347352  0.214082  0.249001  1
  O  O17  1  0.727339  0.006638  0.131599  1
  O  O18  1  0.183361  0.444023  0.114482  1
  O  O19  1  0.410194  0.603907  0.411799  1
  O  O20  1  0.589806  0.396093  0.588201  1
  O  O21  1  0.630150  0.950300  0.369583  1
  O  O22  1  0.055600  0.900980  0.296004  1
  O  O23  1  0.369850  0.049700  0.630417  1
