# generated using pymatgen
data_MgMnF5
_symmetry_space_group_name_H-M   'P 1'
_cell_length_a   5.28557852
_cell_length_b   5.29977244
_cell_length_c   7.68188405
_cell_angle_alpha   99.56782568
_cell_angle_beta   107.12655149
_cell_angle_gamma   110.19719735
_symmetry_Int_Tables_number   1
_chemical_formula_structural   MgMnF5
_chemical_formula_sum   'Mg2 Mn2 F10'
_cell_volume   184.19045693
_cell_formula_units_Z   2
loop_
 _symmetry_equiv_pos_site_id
 _symmetry_equiv_pos_as_xyz
  1  'x, y, z'
loop_
 _atom_site_type_symbol
 _atom_site_label
 _atom_site_symmetry_multiplicity
 _atom_site_fract_x
 _atom_site_fract_y
 _atom_site_fract_z
 _atom_site_occupancy
  Mg  Mg0  1  0.276770  0.523015  0.752787  1
  Mg  Mg1  1  0.725541  0.478850  0.245093  1
  Mn  Mn2  1  0.001640  0.000914  0.998584  1
  Mn  Mn3  1  0.501518  0.000844  0.499693  1
  F  F4  1  0.401276  0.149490  0.250013  1
  F  F5  1  0.601775  0.850956  0.748434  1
  F  F6  1  0.597976  0.739817  0.369555  1
  F  F7  1  0.861257  0.222202  0.123861  1
  F  F8  1  0.773078  0.687424  0.056660  1
  F  F9  1  0.126829  0.711804  0.436546  1
  F  F10  1  0.234452  0.316627  0.944019  1
  F  F11  1  0.876528  0.287631  0.563226  1
  F  F12  1  0.135213  0.776038  0.871000  1
  F  F13  1  0.407429  0.262356  0.631238  1
