# generated using pymatgen
data_LaZnCrCoO6
_symmetry_space_group_name_H-M   'P 1'
_cell_length_a   5.32546573
_cell_length_b   5.33005585
_cell_length_c   7.85709168
_cell_angle_alpha   90.00000000
_cell_angle_beta   89.76343262
_cell_angle_gamma   90.00000000
_symmetry_Int_Tables_number   1
_chemical_formula_structural   LaZnCrCoO6
_chemical_formula_sum   'La2 Zn2 Cr2 Co2 O12'
_cell_volume   223.02188037
_cell_formula_units_Z   2
loop_
 _symmetry_equiv_pos_site_id
 _symmetry_equiv_pos_as_xyz
  1  'x, y, z'
loop_
 _atom_site_type_symbol
 _atom_site_label
 _atom_site_symmetry_multiplicity
 _atom_site_fract_x
 _atom_site_fract_y
 _atom_site_fract_z
 _atom_site_occupancy
  La  La0  1  0.001760  0.966010  0.751085  1
  La  La1  1  0.501760  0.533990  0.251085  1
  Zn  Zn2  1  0.490729  0.466921  0.752624  1
  Zn  Zn3  1  0.990729  0.033079  0.252624  1
  Cr  Cr4  1  0.491649  0.012629  0.504457  1
  Cr  Cr5  1  0.991649  0.487371  0.004457  1
  Co  Co6  1  0.492360  0.000871  0.998045  1
  Co  Co7  1  0.992360  0.499129  0.498045  1
  O  O8  1  0.071139  0.443144  0.245752  1
  O  O9  1  0.216089  0.233159  0.945591  1
  O  O10  1  0.221134  0.225402  0.546176  1
  O  O11  1  0.314615  0.701252  0.944441  1
  O  O12  1  0.326863  0.702732  0.557401  1
  O  O13  1  0.373656  0.979198  0.254427  1
  O  O14  1  0.571139  0.056856  0.745752  1
  O  O15  1  0.716089  0.266841  0.445591  1
  O  O16  1  0.721134  0.274598  0.046176  1
  O  O17  1  0.814615  0.798748  0.444441  1
  O  O18  1  0.826863  0.797268  0.057401  1
  O  O19  1  0.873656  0.520802  0.754427  1
