# generated using pymatgen
data_Cr4(CuO4)3
_symmetry_space_group_name_H-M   'P 1'
_cell_length_a   6.30934832
_cell_length_b   6.30811072
_cell_length_c   6.31888532
_cell_angle_alpha   109.48132130
_cell_angle_beta   109.50914761
_cell_angle_gamma   109.46898404
_symmetry_Int_Tables_number   1
_chemical_formula_structural   Cr4(CuO4)3
_chemical_formula_sum   'Cr4 Cu3 O12'
_cell_volume   193.48917794
_cell_formula_units_Z   1
loop_
 _symmetry_equiv_pos_site_id
 _symmetry_equiv_pos_as_xyz
  1  'x, y, z'
loop_
 _atom_site_type_symbol
 _atom_site_label
 _atom_site_symmetry_multiplicity
 _atom_site_fract_x
 _atom_site_fract_y
 _atom_site_fract_z
 _atom_site_occupancy
  Cr  Cr0  1  0.000007  0.000015  0.500012  1
  Cr  Cr1  1  -0.000018  0.499990  -0.000006  1
  Cr  Cr2  1  0.500001  0.500001  0.500000  1
  Cr  Cr3  1  0.500008  0.999996  -0.000001  1
  Cu  Cu4  1  0.500006  0.500003  0.000004  1
  Cu  Cu5  1  0.000011  0.500010  0.499996  1
  Cu  Cu6  1  0.499992  -0.000008  0.499998  1
  O  O7  1  0.823932  0.316901  0.140696  1
  O  O8  1  0.176066  0.683094  0.859297  1
  O  O9  1  0.825861  0.685548  0.507526  1
  O  O10  1  0.316618  0.493035  0.175882  1
  O  O11  1  0.493082  0.175893  0.316679  1
  O  O12  1  0.140151  0.825646  0.318131  1
  O  O13  1  0.685393  0.859836  0.177815  1
  O  O14  1  0.506925  0.824108  0.683312  1
  O  O15  1  0.174145  0.314465  0.492474  1
  O  O16  1  0.683360  0.506939  0.824100  1
  O  O17  1  0.859856  0.174358  0.681880  1
  O  O18  1  0.314607  0.140169  0.822205  1
