# generated using pymatgen
data_BaYVCuO5
_symmetry_space_group_name_H-M   'P 1'
_cell_length_a   3.95254373
_cell_length_b   3.88519353
_cell_length_c   8.00863249
_cell_angle_alpha   90.00009591
_cell_angle_beta   90.00004176
_cell_angle_gamma   90.04491350
_symmetry_Int_Tables_number   1
_chemical_formula_structural   BaYVCuO5
_chemical_formula_sum   'Ba1 Y1 V1 Cu1 O5'
_cell_volume   122.98370455
_cell_formula_units_Z   1
loop_
 _symmetry_equiv_pos_site_id
 _symmetry_equiv_pos_as_xyz
  1  'x, y, z'
loop_
 _atom_site_type_symbol
 _atom_site_label
 _atom_site_symmetry_multiplicity
 _atom_site_fract_x
 _atom_site_fract_y
 _atom_site_fract_z
 _atom_site_occupancy
  Ba  Ba0  1  1.000000  0.000001  0.008658  1
  Y  Y1  1  -0.000000  0.999998  0.459745  1
  V  V2  1  0.500001  0.500000  0.701364  1
  Cu  Cu3  1  0.500001  0.499998  0.268570  1
  O  O4  1  0.999998  0.500000  0.631976  1
  O  O5  1  0.500000  1.000000  0.633921  1
  O  O6  1  0.000000  0.499998  0.275469  1
  O  O7  1  0.500000  0.999998  0.278601  1
  O  O8  1  0.499997  0.500001  0.929611  1
