# generated using pymatgen
data_CaV4O10
_symmetry_space_group_name_H-M   'P 1'
_cell_length_a   3.71426331
_cell_length_b   5.96257850
_cell_length_c   11.34764384
_cell_angle_alpha   90.00000000
_cell_angle_beta   90.00000000
_cell_angle_gamma   108.14750637
_symmetry_Int_Tables_number   1
_chemical_formula_structural   CaV4O10
_chemical_formula_sum   'Ca1 V4 O10'
_cell_volume   238.81078843
_cell_formula_units_Z   1
loop_
 _symmetry_equiv_pos_site_id
 _symmetry_equiv_pos_as_xyz
  1  'x, y, z'
loop_
 _atom_site_type_symbol
 _atom_site_label
 _atom_site_symmetry_multiplicity
 _atom_site_fract_x
 _atom_site_fract_y
 _atom_site_fract_z
 _atom_site_occupancy
  Ca  Ca0  1  0.899547  0.799093  0.750000  1
  V  V1  1  0.201021  0.402042  0.596788  1
  V  V2  1  0.791013  0.582025  0.399141  1
  V  V3  1  0.791013  0.582025  0.100859  1
  V  V4  1  0.201021  0.402042  0.903212  1
  O  O5  1  0.733196  0.466392  0.250000  1
  O  O6  1  0.285770  0.571538  0.750000  1
  O  O7  1  0.249700  0.499397  0.070802  1
  O  O8  1  0.759289  0.518578  0.926447  1
  O  O9  1  0.759289  0.518578  0.573553  1
  O  O10  1  0.249700  0.499397  0.429197  1
  O  O11  1  0.055878  0.111756  0.619758  1
  O  O12  1  0.931578  0.863154  0.385228  1
  O  O13  1  0.055878  0.111756  0.880242  1
  O  O14  1  0.931578  0.863154  0.114773  1
