# generated using pymatgen
data_Ba2Co3O8
_symmetry_space_group_name_H-M   'P 1'
_cell_length_a   3.84659504
_cell_length_b   3.84679722
_cell_length_c   12.17758076
_cell_angle_alpha   90.00025867
_cell_angle_beta   89.99981159
_cell_angle_gamma   90.34741808
_symmetry_Int_Tables_number   1
_chemical_formula_structural   Ba2Co3O8
_chemical_formula_sum   'Ba2 Co3 O8'
_cell_volume   180.18921574
_cell_formula_units_Z   1
loop_
 _symmetry_equiv_pos_site_id
 _symmetry_equiv_pos_as_xyz
  1  'x, y, z'
loop_
 _atom_site_type_symbol
 _atom_site_label
 _atom_site_symmetry_multiplicity
 _atom_site_fract_x
 _atom_site_fract_y
 _atom_site_fract_z
 _atom_site_occupancy
  Ba  Ba0  1  0.499999  0.499999  0.172361  1
  Ba  Ba1  1  0.500000  0.499999  0.826326  1
  Co  Co2  1  0.999987  0.999992  0.336241  1
  Co  Co3  1  0.000001  1.000000  0.997271  1
  Co  Co4  1  0.000000  0.999999  0.658031  1
  O  O5  1  0.000002  0.500008  0.348004  1
  O  O6  1  0.500005  0.000008  0.348005  1
  O  O7  1  0.500000  0.999998  0.000835  1
  O  O8  1  0.000003  0.000001  0.169703  1
  O  O9  1  0.000001  0.500000  0.652888  1
  O  O10  1  0.500001  1.000000  0.652885  1
  O  O11  1  0.999999  0.000001  0.836616  1
  O  O12  1  0.000002  0.499998  0.000834  1
