# generated using pymatgen
data_BiO2
_symmetry_space_group_name_H-M   'P 1'
_cell_length_a   3.56542280
_cell_length_b   3.56463891
_cell_length_c   11.14223799
_cell_angle_alpha   88.95237866
_cell_angle_beta   90.53181762
_cell_angle_gamma   119.98316601
_symmetry_Int_Tables_number   1
_chemical_formula_structural   BiO2
_chemical_formula_sum   'Bi2 O4'
_cell_volume   122.63958747
_cell_formula_units_Z   2
loop_
 _symmetry_equiv_pos_site_id
 _symmetry_equiv_pos_as_xyz
  1  'x, y, z'
loop_
 _atom_site_type_symbol
 _atom_site_label
 _atom_site_symmetry_multiplicity
 _atom_site_fract_x
 _atom_site_fract_y
 _atom_site_fract_z
 _atom_site_occupancy
  Bi  Bi0  1  0.997795  0.999799  0.501916  1
  Bi  Bi1  1  0.997765  0.999735  0.002222  1
  O  O2  1  0.664571  0.338032  0.412694  1
  O  O3  1  0.664445  0.328170  0.091460  1
  O  O4  1  0.331031  0.661308  0.591347  1
  O  O5  1  0.331069  0.671393  0.912820  1
