# generated using pymatgen
data_Ca2BiAsO6
_symmetry_space_group_name_H-M   'P 1'
_cell_length_a   5.61237235
_cell_length_b   7.54076315
_cell_length_c   7.54076329
_cell_angle_alpha   106.61357957
_cell_angle_beta   90.00000000
_cell_angle_gamma   90.00000000
_symmetry_Int_Tables_number   1
_chemical_formula_structural   Ca2BiAsO6
_chemical_formula_sum   'Ca4 Bi2 As2 O12'
_cell_volume   305.81452252
_cell_formula_units_Z   2
loop_
 _symmetry_equiv_pos_site_id
 _symmetry_equiv_pos_as_xyz
  1  'x, y, z'
loop_
 _atom_site_type_symbol
 _atom_site_label
 _atom_site_symmetry_multiplicity
 _atom_site_fract_x
 _atom_site_fract_y
 _atom_site_fract_z
 _atom_site_occupancy
  Ca  Ca0  1  0.762025  0.694995  0.907563  1
  Ca  Ca1  1  0.762025  0.092437  0.305005  1
  Ca  Ca2  1  0.262025  0.907563  0.694995  1
  Ca  Ca3  1  0.262025  0.305005  0.092437  1
  Bi  Bi4  1  0.252481  0.410461  0.589539  1
  Bi  Bi5  1  0.752481  0.589539  0.410461  1
  As  As6  1  0.804373  0.181934  0.818066  1
  As  As7  1  0.304373  0.818066  0.181934  1
  O  O8  1  0.512449  0.650477  0.655631  1
  O  O9  1  0.917849  0.401777  0.912112  1
  O  O10  1  0.417849  0.912112  0.401777  1
  O  O11  1  0.512449  0.344369  0.349523  1
  O  O12  1  0.997296  0.817772  0.182228  1
  O  O13  1  0.012449  0.349523  0.344369  1
  O  O14  1  0.497296  0.182228  0.817772  1
  O  O15  1  0.012449  0.655631  0.650477  1
  O  O16  1  0.435203  0.948112  0.051888  1
  O  O17  1  0.417849  0.598223  0.087888  1
  O  O18  1  0.935203  0.051888  0.948112  1
  O  O19  1  0.917849  0.087888  0.598223  1
