# generated using pymatgen
data_LaFeReO6
_symmetry_space_group_name_H-M   'P 1'
_cell_length_a   5.60159278
_cell_length_b   5.53210169
_cell_length_c   7.84535329
_cell_angle_alpha   89.51618826
_cell_angle_beta   90.00000000
_cell_angle_gamma   90.00000000
_symmetry_Int_Tables_number   1
_chemical_formula_structural   LaFeReO6
_chemical_formula_sum   'La2 Fe2 Re2 O12'
_cell_volume   243.10769766
_cell_formula_units_Z   2
loop_
 _symmetry_equiv_pos_site_id
 _symmetry_equiv_pos_as_xyz
  1  'x, y, z'
loop_
 _atom_site_type_symbol
 _atom_site_label
 _atom_site_symmetry_multiplicity
 _atom_site_fract_x
 _atom_site_fract_y
 _atom_site_fract_z
 _atom_site_occupancy
  La  La0  1  0.047980  0.990608  0.246173  1
  La  La1  1  0.452020  0.490608  0.746173  1
  Fe  Fe2  1  0.505087  0.997681  0.999261  1
  Fe  Fe3  1  0.994913  0.497681  0.499261  1
  Re  Re4  1  0.510741  -0.000353  0.499524  1
  Re  Re5  1  0.989259  0.499647  0.999524  1
  O  O6  1  0.008856  0.549001  0.762542  1
  O  O7  1  0.212283  0.241902  0.974578  1
  O  O8  1  0.241099  0.214792  0.527636  1
  O  O9  1  0.258901  0.714792  0.027636  1
  O  O10  1  0.287717  0.741902  0.474578  1
  O  O11  1  0.491144  0.049001  0.262542  1
  O  O12  1  0.509714  0.922234  0.737310  1
  O  O13  1  0.699770  0.271743  0.538291  1
  O  O14  1  0.720998  0.301993  0.964874  1
  O  O15  1  0.779002  0.801993  0.464874  1
  O  O16  1  0.800230  0.771743  0.038291  1
  O  O17  1  0.990286  0.422234  0.237310  1
