# generated using pymatgen
data_ZnCoO3
_symmetry_space_group_name_H-M   'P 1'
_cell_length_a   4.97813286
_cell_length_b   5.03293842
_cell_length_c   7.28657164
_cell_angle_alpha   90.00678967
_cell_angle_beta   90.00056704
_cell_angle_gamma   89.99794776
_symmetry_Int_Tables_number   1
_chemical_formula_structural   ZnCoO3
_chemical_formula_sum   'Zn4 Co4 O12'
_cell_volume   182.56239977
_cell_formula_units_Z   4
loop_
 _symmetry_equiv_pos_site_id
 _symmetry_equiv_pos_as_xyz
  1  'x, y, z'
loop_
 _atom_site_type_symbol
 _atom_site_label
 _atom_site_symmetry_multiplicity
 _atom_site_fract_x
 _atom_site_fract_y
 _atom_site_fract_z
 _atom_site_occupancy
  Zn  Zn0  1  0.993754  0.051162  0.249996  1
  Zn  Zn1  1  0.493715  0.448831  0.749993  1
  Zn  Zn2  1  0.506286  0.551170  0.250007  1
  Zn  Zn3  1  0.006245  0.948837  0.750004  1
  Co  Co4  1  0.499999  0.000001  0.000000  1
  Co  Co5  1  0.000001  0.500000  0.000000  1
  Co  Co6  1  0.000001  0.500000  0.500000  1
  Co  Co7  1  0.499999  0.000001  0.499999  1
  O  O8  1  0.881284  0.557297  0.750005  1
  O  O9  1  0.381294  0.942716  0.250024  1
  O  O10  1  0.618705  0.057284  0.749976  1
  O  O11  1  0.118717  0.442703  0.249996  1
  O  O12  1  0.686726  0.311931  0.436102  1
  O  O13  1  0.186732  0.188062  0.563929  1
  O  O14  1  0.813294  0.811924  0.063928  1
  O  O15  1  0.313237  0.688046  0.936100  1
  O  O16  1  0.686763  0.311954  0.063900  1
  O  O17  1  0.186707  0.188076  0.936072  1
  O  O18  1  0.313273  0.688070  0.563898  1
  O  O19  1  0.813268  0.811939  0.436071  1
