# generated using pymatgen
data_ZnCu3(P2O7)2
_symmetry_space_group_name_H-M   'P 1'
_cell_length_a   7.15498066
_cell_length_b   7.93634673
_cell_length_c   9.35064167
_cell_angle_alpha   90.00000000
_cell_angle_beta   106.98043294
_cell_angle_gamma   90.00000000
_symmetry_Int_Tables_number   1
_chemical_formula_structural   ZnCu3(P2O7)2
_chemical_formula_sum   'Zn2 Cu6 P8 O28'
_cell_volume   507.82274063
_cell_formula_units_Z   2
loop_
 _symmetry_equiv_pos_site_id
 _symmetry_equiv_pos_as_xyz
  1  'x, y, z'
loop_
 _atom_site_type_symbol
 _atom_site_label
 _atom_site_symmetry_multiplicity
 _atom_site_fract_x
 _atom_site_fract_y
 _atom_site_fract_z
 _atom_site_occupancy
  Zn  Zn0  1  0.500000  -0.000000  -0.000000  1
  Zn  Zn1  1  0.500000  0.500000  0.500000  1
  Cu  Cu2  1  0.172989  0.865081  0.502025  1
  Cu  Cu3  1  0.827011  0.365081  0.997975  1
  Cu  Cu4  1  0.827011  0.134919  0.497975  1
  Cu  Cu5  1  0.172989  0.634919  0.002025  1
  Cu  Cu6  1  0.000000  -0.000000  -0.000000  1
  Cu  Cu7  1  0.000000  0.500000  0.500000  1
  P  P8  1  0.572487  0.042198  0.698392  1
  P  P9  1  0.427513  0.542198  0.801608  1
  P  P10  1  0.427513  0.957802  0.301608  1
  P  P11  1  0.572487  0.457802  0.198392  1
  P  P12  1  0.884992  0.788003  0.698069  1
  P  P13  1  0.115008  0.288003  0.801931  1
  P  P14  1  0.115008  0.211997  0.301931  1
  P  P15  1  0.884992  0.711997  0.198069  1
  O  O16  1  0.846879  0.613390  0.625382  1
  O  O17  1  0.153121  0.113390  0.874618  1
  O  O18  1  0.153121  0.386611  0.374618  1
  O  O19  1  0.846879  0.886610  0.125382  1
  O  O20  1  0.360973  0.573812  0.629285  1
  O  O21  1  0.639027  0.073812  0.870715  1
  O  O22  1  0.639027  0.426188  0.370715  1
  O  O23  1  0.360973  0.926188  0.129285  1
  O  O24  1  0.653789  0.183004  0.621760  1
  O  O25  1  0.346211  0.683004  0.878240  1
  O  O26  1  0.346211  0.816996  0.378240  1
  O  O27  1  0.653789  0.316996  0.121760  1
  O  O28  1  0.670091  0.864745  0.673861  1
  O  O29  1  0.329909  0.364745  0.826139  1
  O  O30  1  0.329909  0.135255  0.326139  1
  O  O31  1  0.670091  0.635255  0.173861  1
  O  O32  1  0.355511  0.487316  0.142856  1
  O  O33  1  0.644489  0.987316  0.357144  1
  O  O34  1  0.644489  0.512684  0.857144  1
  O  O35  1  0.355511  0.012684  0.642856  1
  O  O36  1  0.025543  0.210536  0.128010  1
  O  O37  1  0.974457  0.710536  0.371990  1
  O  O38  1  0.974457  0.789464  0.871990  1
  O  O39  1  0.025543  0.289464  0.628010  1
  O  O40  1  0.993692  0.594428  0.122168  1
  O  O41  1  0.006308  0.094428  0.377832  1
  O  O42  1  0.006308  0.405572  0.877832  1
  O  O43  1  0.993692  0.905572  0.622168  1
