# generated using pymatgen
data_CaFeP2O7
_symmetry_space_group_name_H-M   'P 1'
_cell_length_a   7.45517697
_cell_length_b   8.87163041
_cell_length_c   8.83104619
_cell_angle_alpha   90.00000000
_cell_angle_beta   111.25695892
_cell_angle_gamma   90.00000000
_symmetry_Int_Tables_number   1
_chemical_formula_structural   CaFeP2O7
_chemical_formula_sum   'Ca4 Fe4 P8 O28'
_cell_volume   544.34296857
_cell_formula_units_Z   4
loop_
 _symmetry_equiv_pos_site_id
 _symmetry_equiv_pos_as_xyz
  1  'x, y, z'
loop_
 _atom_site_type_symbol
 _atom_site_label
 _atom_site_symmetry_multiplicity
 _atom_site_fract_x
 _atom_site_fract_y
 _atom_site_fract_z
 _atom_site_occupancy
  Ca  Ca0  1  0.143869  0.949650  0.872421  1
  Ca  Ca1  1  0.356131  0.449650  0.627579  1
  Ca  Ca2  1  0.643869  0.550350  0.372421  1
  Ca  Ca3  1  0.856131  0.050350  0.127579  1
  Fe  Fe4  1  0.385479  0.072812  0.614474  1
  Fe  Fe5  1  0.614521  0.927188  0.385526  1
  Fe  Fe6  1  0.114521  0.572812  0.885526  1
  Fe  Fe7  1  0.885479  0.427188  0.114474  1
  P  P8  1  0.188537  0.725902  0.237569  1
  P  P9  1  0.435555  0.244042  0.964368  1
  P  P10  1  0.688537  0.774098  0.737569  1
  P  P11  1  0.935555  0.255958  0.464368  1
  P  P12  1  0.311463  0.225902  0.262431  1
  P  P13  1  0.064445  0.744042  0.535632  1
  P  P14  1  0.564445  0.755958  0.035632  1
  P  P15  1  0.811463  0.274098  0.762431  1
  O  O16  1  0.360477  0.180042  0.103268  1
  O  O17  1  0.588138  0.628504  0.661432  1
  O  O18  1  0.088138  0.871496  0.161432  1
  O  O19  1  0.330382  0.389368  0.890362  1
  O  O20  1  0.639523  0.819958  0.896732  1
  O  O21  1  0.387249  0.087854  0.375025  1
  O  O22  1  0.669618  0.610632  0.109638  1
  O  O23  1  0.379675  0.107838  0.847235  1
  O  O24  1  0.154032  0.239811  0.544356  1
  O  O25  1  0.612751  0.912146  0.624975  1
  O  O26  1  0.887249  0.412146  0.875025  1
  O  O27  1  0.908698  0.764735  0.804703  1
  O  O28  1  0.591302  0.264735  0.695297  1
  O  O29  1  0.860477  0.319958  0.603268  1
  O  O30  1  0.112751  0.587854  0.124975  1
  O  O31  1  0.911862  0.128504  0.838568  1
  O  O32  1  0.091302  0.235265  0.195297  1
  O  O33  1  0.620325  0.892162  0.152765  1
  O  O34  1  0.654032  0.260189  0.044356  1
  O  O35  1  0.345968  0.739811  0.955644  1
  O  O36  1  0.169618  0.889368  0.609638  1
  O  O37  1  0.879675  0.392162  0.347235  1
  O  O38  1  0.120325  0.607838  0.652765  1
  O  O39  1  0.411862  0.371496  0.338568  1
  O  O40  1  0.408698  0.735265  0.304703  1
  O  O41  1  0.830382  0.110632  0.390362  1
  O  O42  1  0.845968  0.760189  0.455644  1
  O  O43  1  0.139523  0.680042  0.396732  1
