# generated using pymatgen
data_Mg3Cr2(Si2O7)2
_symmetry_space_group_name_H-M   'P 1'
_cell_length_a   7.58609344
_cell_length_b   9.42932875
_cell_length_c   9.18276847
_cell_angle_alpha   63.44564837
_cell_angle_beta   65.60270982
_cell_angle_gamma   66.28042729
_symmetry_Int_Tables_number   1
_chemical_formula_structural   Mg3Cr2(Si2O7)2
_chemical_formula_sum   'Mg6 Cr4 Si8 O28'
_cell_volume   515.65664889
_cell_formula_units_Z   2
loop_
 _symmetry_equiv_pos_site_id
 _symmetry_equiv_pos_as_xyz
  1  'x, y, z'
loop_
 _atom_site_type_symbol
 _atom_site_label
 _atom_site_symmetry_multiplicity
 _atom_site_fract_x
 _atom_site_fract_y
 _atom_site_fract_z
 _atom_site_occupancy
  Mg  Mg0  1  0.901365  0.915017  0.449018  1
  Mg  Mg1  1  0.265400  0.584983  0.050982  1
  Mg  Mg2  1  0.734600  0.415017  0.949018  1
  Mg  Mg3  1  0.620921  0.250000  0.750000  1
  Mg  Mg4  1  0.098635  0.084983  0.550982  1
  Mg  Mg5  1  0.379079  0.750000  0.250000  1
  Cr  Cr6  1  0.211059  0.250000  0.750000  1
  Cr  Cr7  1  0.788941  0.750000  0.250000  1
  Cr  Cr8  1  0.000000  0.000000  0.000000  1
  Cr  Cr9  1  0.000000  0.500000  0.500000  1
  Si  Si10  1  0.467461  0.292346  0.347096  1
  Si  Si11  1  0.893096  0.792346  0.847096  1
  Si  Si12  1  0.474469  0.897641  0.856991  1
  Si  Si13  1  0.770899  0.397641  0.356991  1
  Si  Si14  1  0.106904  0.207654  0.152904  1
  Si  Si15  1  0.525531  0.102359  0.143009  1
  Si  Si16  1  0.229101  0.602359  0.643009  1
  Si  Si17  1  0.532539  0.707654  0.652904  1
  O  O18  1  0.142231  0.670750  0.476550  1
  O  O19  1  0.039073  0.577212  0.258802  1
  O  O20  1  0.527160  0.915470  0.187206  1
  O  O21  1  0.124913  0.077212  0.758802  1
  O  O22  1  0.744353  0.679735  0.507050  1
  O  O23  1  0.933670  0.377691  0.174821  1
  O  O24  1  0.370164  0.415470  0.687206  1
  O  O25  1  0.931138  0.820265  0.992950  1
  O  O26  1  0.066330  0.622309  0.825179  1
  O  O27  1  0.350336  0.744396  0.576970  1
  O  O28  1  0.960927  0.422788  0.741198  1
  O  O29  1  0.255647  0.320265  0.492950  1
  O  O30  1  0.486182  0.122309  0.325179  1
  O  O31  1  0.710468  0.170750  0.976550  1
  O  O32  1  0.328297  0.244396  0.076970  1
  O  O33  1  0.068862  0.179735  0.007050  1
  O  O34  1  0.092622  0.062415  0.336510  1
  O  O35  1  0.649664  0.255604  0.423030  1
  O  O36  1  0.491546  0.437585  0.163490  1
  O  O37  1  0.671703  0.755604  0.923030  1
  O  O38  1  0.513818  0.877691  0.674821  1
  O  O39  1  0.875087  0.922788  0.241198  1
  O  O40  1  0.508454  0.562415  0.836510  1
  O  O41  1  0.472840  0.084530  0.812794  1
  O  O42  1  0.907378  0.937585  0.663490  1
  O  O43  1  0.629836  0.584530  0.312794  1
  O  O44  1  0.289532  0.829250  0.023450  1
  O  O45  1  0.857769  0.329250  0.523450  1
