# generated using pymatgen
data_Al2Ni2O7
_symmetry_space_group_name_H-M   'P 1'
_cell_length_a   6.48184393
_cell_length_b   6.48151486
_cell_length_c   6.48149489
_cell_angle_alpha   59.99585466
_cell_angle_beta   59.99755639
_cell_angle_gamma   59.99745439
_symmetry_Int_Tables_number   1
_chemical_formula_structural   Al2Ni2O7
_chemical_formula_sum   'Al4 Ni4 O14'
_cell_volume   192.53305079
_cell_formula_units_Z   2
loop_
 _symmetry_equiv_pos_site_id
 _symmetry_equiv_pos_as_xyz
  1  'x, y, z'
loop_
 _atom_site_type_symbol
 _atom_site_label
 _atom_site_symmetry_multiplicity
 _atom_site_fract_x
 _atom_site_fract_y
 _atom_site_fract_z
 _atom_site_occupancy
  Al  Al0  1  0.500002  -0.000001  0.499995  1
  Al  Al1  1  0.000001  0.500009  0.499997  1
  Al  Al2  1  0.499997  0.500002  -0.000000  1
  Al  Al3  1  0.499992  0.500009  0.499999  1
  Ni  Ni4  1  0.000003  0.499993  0.000004  1
  Ni  Ni5  1  0.500004  -0.000004  0.000002  1
  Ni  Ni6  1  0.000001  -0.000006  0.500006  1
  Ni  Ni7  1  0.000000  -0.000002  0.000002  1
  O  O8  1  0.625002  0.625001  0.624991  1
  O  O9  1  0.374996  0.375005  0.375005  1
  O  O10  1  0.345043  0.904968  0.904954  1
  O  O11  1  0.095036  0.654971  0.654973  1
  O  O12  1  0.904973  0.345045  0.904949  1
  O  O13  1  0.904972  0.904958  0.345044  1
  O  O14  1  0.345034  0.345036  0.904948  1
  O  O15  1  0.345026  0.904956  0.345032  1
  O  O16  1  0.904962  0.345026  0.345034  1
  O  O17  1  0.654970  0.654962  0.095053  1
  O  O18  1  0.095031  0.095042  0.654955  1
  O  O19  1  0.654957  0.095032  0.095045  1
  O  O20  1  0.654974  0.095044  0.654964  1
  O  O21  1  0.095024  0.654955  0.095051  1
