# generated using pymatgen
data_TiZn(SiO3)2
_symmetry_space_group_name_H-M   'P 1'
_cell_length_a   5.29417443
_cell_length_b   6.80222032
_cell_length_c   6.80222056
_cell_angle_alpha   84.90365533
_cell_angle_beta   76.43316248
_cell_angle_gamma   76.43316668
_symmetry_Int_Tables_number   1
_chemical_formula_structural   TiZn(SiO3)2
_chemical_formula_sum   'Ti2 Zn2 Si4 O12'
_cell_volume   231.33469153
_cell_formula_units_Z   2
loop_
 _symmetry_equiv_pos_site_id
 _symmetry_equiv_pos_as_xyz
  1  'x, y, z'
loop_
 _atom_site_type_symbol
 _atom_site_label
 _atom_site_symmetry_multiplicity
 _atom_site_fract_x
 _atom_site_fract_y
 _atom_site_fract_z
 _atom_site_occupancy
  Ti  Ti0  1  0.249999  0.082378  0.917622  1
  Ti  Ti1  1  0.749999  0.917623  0.082377  1
  Zn  Zn2  1  0.749997  0.258521  0.741473  1
  Zn  Zn3  1  0.249998  0.741473  0.258522  1
  Si  Si4  1  0.233947  0.212025  0.392005  1
  Si  Si5  1  0.266056  0.607994  0.787974  1
  Si  Si6  1  0.733947  0.392005  0.212025  1
  Si  Si7  1  0.766057  0.787974  0.607994  1
  O  O8  1  0.479158  0.327586  0.375135  1
  O  O9  1  0.020847  0.624867  0.672410  1
  O  O10  1  0.520848  0.672410  0.624868  1
  O  O11  1  0.979157  0.375136  0.327585  1
  O  O12  1  0.132000  0.140367  0.626042  1
  O  O13  1  0.367998  0.373960  0.859638  1
  O  O14  1  0.867998  0.859639  0.373961  1
  O  O15  1  0.631999  0.626042  0.140368  1
  O  O16  1  0.843343  0.224351  0.031574  1
  O  O17  1  0.656655  0.968423  0.775651  1
  O  O18  1  0.343342  0.031574  0.224352  1
  O  O19  1  0.156656  0.775652  0.968423  1
