# generated using pymatgen
data_Ba2ZnCuBi2F14
_symmetry_space_group_name_H-M   'P 1'
_cell_length_a   5.37059286
_cell_length_b   7.76671622
_cell_length_c   16.18337031
_cell_angle_alpha   90.06880260
_cell_angle_beta   89.96194522
_cell_angle_gamma   110.16263467
_symmetry_Int_Tables_number   1
_chemical_formula_structural   Ba2ZnCuBi2F14
_chemical_formula_sum   'Ba4 Zn2 Cu2 Bi4 F28'
_cell_volume   633.67045751
_cell_formula_units_Z   2
loop_
 _symmetry_equiv_pos_site_id
 _symmetry_equiv_pos_as_xyz
  1  'x, y, z'
loop_
 _atom_site_type_symbol
 _atom_site_label
 _atom_site_symmetry_multiplicity
 _atom_site_fract_x
 _atom_site_fract_y
 _atom_site_fract_z
 _atom_site_occupancy
  Ba  Ba0  1  0.083081  0.361835  0.626975  1
  Ba  Ba1  1  0.279454  0.362528  0.127718  1
  Ba  Ba2  1  0.915705  0.634506  0.373330  1
  Ba  Ba3  1  0.718538  0.635582  0.873315  1
  Zn  Zn4  1  0.438065  0.999659  0.750853  1
  Zn  Zn5  1  0.559677  0.996810  0.250861  1
  Cu  Cu6  1  0.498132  0.998877  0.000305  1
  Cu  Cu7  1  0.500344  0.998078  0.499830  1
  Bi  Bi8  1  0.056971  0.216227  0.877937  1
  Bi  Bi9  1  0.940478  0.782420  0.123025  1
  Bi  Bi10  1  0.159284  0.214881  0.377660  1
  Bi  Bi11  1  0.840527  0.782114  0.622682  1
  F  F12  1  0.820411  0.956548  0.328049  1
  F  F13  1  0.866651  0.293013  0.454799  1
  F  F14  1  0.130772  0.703184  0.544974  1
  F  F15  1  0.599533  0.492357  0.599157  1
  F  F16  1  0.658050  0.048221  0.607640  1
  F  F17  1  0.606684  0.950512  0.892417  1
  F  F18  1  0.424727  0.295438  0.955873  1
  F  F19  1  0.857035  0.040443  0.171816  1
  F  F20  1  0.351051  0.358098  0.781470  1
  F  F21  1  0.398898  0.504637  0.401734  1
  F  F22  1  0.771938  0.209606  0.763331  1
  F  F23  1  0.108508  0.507139  0.899322  1
  F  F24  1  0.442428  0.210141  0.264002  1
  F  F25  1  0.228126  0.786309  0.236733  1
  F  F26  1  0.388671  0.047667  0.108108  1
  F  F27  1  0.649194  0.637260  0.219847  1
  F  F28  1  0.127001  0.846460  0.986648  1
  F  F29  1  0.181578  0.039366  0.671797  1
  F  F30  1  0.868402  0.150994  0.014043  1
  F  F31  1  0.721463  0.847847  0.486136  1
  F  F32  1  0.571707  0.702652  0.045346  1
  F  F33  1  0.558722  0.788003  0.736946  1
  F  F34  1  0.015572  0.361640  0.281229  1
  F  F35  1  0.278820  0.148401  0.513580  1
  F  F36  1  0.343747  0.948660  0.391739  1
  F  F37  1  0.138273  0.957948  0.828635  1
  F  F38  1  0.985239  0.635620  0.718988  1
  F  F39  1  0.891902  0.492538  0.100346  1
