# generated using pymatgen
data_ZnSb2P2O9
_symmetry_space_group_name_H-M   'P 1'
_cell_length_a   7.50302681
_cell_length_b   6.29186908
_cell_length_c   18.08410310
_cell_angle_alpha   90.03134725
_cell_angle_beta   90.00491659
_cell_angle_gamma   90.01633577
_symmetry_Int_Tables_number   1
_chemical_formula_structural   ZnSb2P2O9
_chemical_formula_sum   'Zn4 Sb8 P8 O36'
_cell_volume   853.71530162
_cell_formula_units_Z   4
loop_
 _symmetry_equiv_pos_site_id
 _symmetry_equiv_pos_as_xyz
  1  'x, y, z'
loop_
 _atom_site_type_symbol
 _atom_site_label
 _atom_site_symmetry_multiplicity
 _atom_site_fract_x
 _atom_site_fract_y
 _atom_site_fract_z
 _atom_site_occupancy
  Zn  Zn0  1  0.820365  0.941706  0.755345  1
  Zn  Zn1  1  0.681287  0.557566  0.255246  1
  Zn  Zn2  1  0.181192  0.442429  0.744936  1
  Zn  Zn3  1  0.320559  0.058005  0.244580  1
  Sb  Sb4  1  0.732617  0.389563  0.895462  1
  Sb  Sb5  1  0.233117  0.610698  0.104436  1
  Sb  Sb6  1  0.265952  0.889329  0.604451  1
  Sb  Sb7  1  0.765720  0.110686  0.395594  1
  Sb  Sb8  1  0.446776  0.947700  0.944604  1
  Sb  Sb9  1  0.553357  0.447907  0.555469  1
  Sb  Sb10  1  0.053402  0.552201  0.444430  1
  Sb  Sb11  1  0.947054  0.052538  0.055568  1
  P  P12  1  0.279382  0.429548  0.919364  1
  P  P13  1  0.779817  0.570451  0.080595  1
  P  P14  1  0.718297  0.931745  0.580582  1
  P  P15  1  0.218081  0.068428  0.419414  1
  P  P16  1  0.772231  0.447760  0.723291  1
  P  P17  1  0.729696  0.051977  0.223302  1
  P  P18  1  0.229557  0.947926  0.776757  1
  P  P19  1  0.272164  0.551967  0.276625  1
  O  O20  1  0.123904  0.564458  0.337001  1
  O  O21  1  0.624088  0.435287  0.662843  1
  O  O22  1  0.878574  0.063897  0.163192  1
  O  O23  1  0.378134  0.935770  0.837012  1
  O  O24  1  0.956989  0.439864  0.688330  1
  O  O25  1  0.456961  0.560267  0.311724  1
  O  O26  1  0.045048  0.938723  0.811759  1
  O  O27  1  0.545294  0.060813  0.188173  1
  O  O28  1  0.206679  0.287919  0.461275  1
  O  O29  1  0.706754  0.712263  0.538715  1
  O  O30  1  0.791793  0.789667  0.038563  1
  O  O31  1  0.291478  0.210495  0.961512  1
  O  O32  1  0.671861  0.089918  0.916980  1
  O  O33  1  0.172297  0.910346  0.083020  1
  O  O34  1  0.328386  0.590327  0.583149  1
  O  O35  1  0.828279  0.409760  0.416858  1
  O  O36  1  0.740425  0.250057  0.776910  1
  O  O37  1  0.240537  0.749633  0.222998  1
  O  O38  1  0.261630  0.750263  0.723094  1
  O  O39  1  0.761574  0.249809  0.276925  1
  O  O40  1  0.343745  0.079695  0.353564  1
  O  O41  1  0.844178  0.920691  0.646365  1
  O  O42  1  0.653767  0.583191  0.146485  1
  O  O43  1  0.152775  0.416669  0.853684  1
  O  O44  1  0.525501  0.995657  0.607971  1
  O  O45  1  0.025210  0.004357  0.392106  1
  O  O46  1  0.471853  0.491976  0.891177  1
  O  O47  1  0.972458  0.507687  0.108468  1
  O  O48  1  0.714321  0.406414  0.023696  1
  O  O49  1  0.263281  0.143123  0.726255  1
  O  O50  1  0.238318  0.357069  0.225995  1
  O  O51  1  0.738062  0.642642  0.773948  1
  O  O52  1  0.783704  0.095223  0.523349  1
  O  O53  1  0.283691  0.905036  0.476607  1
  O  O54  1  0.214643  0.593904  0.976294  1
  O  O55  1  0.763202  0.856992  0.273947  1
