# generated using pymatgen
data_Zn(AgO2)2
_symmetry_space_group_name_H-M   'P 1'
_cell_length_a   3.27476283
_cell_length_b   8.09573246
_cell_length_c   7.86527305
_cell_angle_alpha   81.03194808
_cell_angle_beta   78.48592912
_cell_angle_gamma   98.25856904
_symmetry_Int_Tables_number   1
_chemical_formula_structural   Zn(AgO2)2
_chemical_formula_sum   'Zn2 Ag4 O8'
_cell_volume   198.50992361
_cell_formula_units_Z   2
loop_
 _symmetry_equiv_pos_site_id
 _symmetry_equiv_pos_as_xyz
  1  'x, y, z'
loop_
 _atom_site_type_symbol
 _atom_site_label
 _atom_site_symmetry_multiplicity
 _atom_site_fract_x
 _atom_site_fract_y
 _atom_site_fract_z
 _atom_site_occupancy
  Zn  Zn0  1  0.302335  0.182097  0.210490  1
  Zn  Zn1  1  0.699771  0.796021  0.822584  1
  Ag  Ag2  1  0.668610  0.168146  0.558206  1
  Ag  Ag3  1  0.075929  0.523010  0.200561  1
  Ag  Ag4  1  0.926462  0.455097  0.832466  1
  Ag  Ag5  1  0.334021  0.809979  0.474816  1
  O  O6  1  0.839604  0.632872  0.632471  1
  O  O7  1  0.569903  0.258214  0.778691  1
  O  O8  1  0.432533  0.720020  0.254293  1
  O  O9  1  0.162773  0.345188  0.400632  1
  O  O10  1  0.303850  0.931885  0.694306  1
  O  O11  1  0.885422  0.314612  0.085071  1
  O  O12  1  0.698271  0.046081  0.338781  1
  O  O13  1  0.116829  0.663578  0.948077  1
