# generated using pymatgen
data_Ca2TaFeO6
_symmetry_space_group_name_H-M   'P 1'
_cell_length_a   5.48028863
_cell_length_b   5.65526262
_cell_length_c   7.81209169
_cell_angle_alpha   90.00000000
_cell_angle_beta   90.00000000
_cell_angle_gamma   89.65898477
_symmetry_Int_Tables_number   1
_chemical_formula_structural   Ca2TaFeO6
_chemical_formula_sum   'Ca4 Ta2 Fe2 O12'
_cell_volume   242.11174010
_cell_formula_units_Z   2
loop_
 _symmetry_equiv_pos_site_id
 _symmetry_equiv_pos_as_xyz
  1  'x, y, z'
loop_
 _atom_site_type_symbol
 _atom_site_label
 _atom_site_symmetry_multiplicity
 _atom_site_fract_x
 _atom_site_fract_y
 _atom_site_fract_z
 _atom_site_occupancy
  Ca  Ca0  1  0.008801  0.957950  0.250000  1
  Ca  Ca1  1  0.487798  0.434786  0.250000  1
  Ca  Ca2  1  0.512202  0.565214  0.750000  1
  Ca  Ca3  1  0.991199  0.042050  0.750000  1
  Ta  Ta4  1  0.000000  0.500000  0.000000  1
  Ta  Ta5  1  0.000000  0.500000  0.500000  1
  Fe  Fe6  1  0.500000  0.000000  0.000000  1
  Fe  Fe7  1  0.500000  0.000000  0.500000  1
  O  O8  1  0.803710  0.789008  0.548816  1
  O  O9  1  0.291225  0.697070  0.454224  1
  O  O10  1  0.196290  0.210992  0.451184  1
  O  O11  1  0.708775  0.302930  0.954224  1
  O  O12  1  0.092080  0.470755  0.750000  1
  O  O13  1  0.708775  0.302930  0.545776  1
  O  O14  1  0.291225  0.697070  0.045776  1
  O  O15  1  0.803710  0.789008  0.951184  1
  O  O16  1  0.591301  0.027966  0.250000  1
  O  O17  1  0.196290  0.210992  0.048816  1
  O  O18  1  0.408699  0.972034  0.750000  1
  O  O19  1  0.907920  0.529245  0.250000  1
