# generated using pymatgen
data_CaSi2SnO6
_symmetry_space_group_name_H-M   'P 1'
_cell_length_a   5.42505510
_cell_length_b   7.23800600
_cell_length_c   7.23800624
_cell_angle_alpha   84.57745028
_cell_angle_beta   79.57461393
_cell_angle_gamma   79.57461831
_symmetry_Int_Tables_number   1
_chemical_formula_structural   CaSi2SnO6
_chemical_formula_sum   'Ca2 Si4 Sn2 O12'
_cell_volume   274.34446760
_cell_formula_units_Z   2
loop_
 _symmetry_equiv_pos_site_id
 _symmetry_equiv_pos_as_xyz
  1  'x, y, z'
loop_
 _atom_site_type_symbol
 _atom_site_label
 _atom_site_symmetry_multiplicity
 _atom_site_fract_x
 _atom_site_fract_y
 _atom_site_fract_z
 _atom_site_occupancy
  Ca  Ca0  1  0.750000  0.321406  0.678594  1
  Ca  Ca1  1  0.250001  0.678594  0.321407  1
  Si  Si2  1  0.261982  0.187839  0.383356  1
  Si  Si3  1  0.238017  0.616644  0.812161  1
  Si  Si4  1  0.761982  0.383356  0.187839  1
  Si  Si5  1  0.738018  0.812161  0.616644  1
  Sn  Sn6  1  0.249999  0.112592  0.887409  1
  Sn  Sn7  1  0.749999  0.887410  0.112591  1
  O  O8  1  0.508116  0.310566  0.338057  1
  O  O9  1  0.991884  0.661942  0.689435  1
  O  O10  1  0.491885  0.689435  0.661943  1
  O  O11  1  0.008115  0.338058  0.310565  1
  O  O12  1  0.157291  0.175072  0.608060  1
  O  O13  1  0.342709  0.391939  0.824927  1
  O  O14  1  0.842709  0.824928  0.391940  1
  O  O15  1  0.657290  0.608060  0.175073  1
  O  O16  1  0.834844  0.291844  0.987394  1
  O  O17  1  0.665156  0.012606  0.708155  1
  O  O18  1  0.334843  0.987394  0.291845  1
  O  O19  1  0.165157  0.708156  0.012606  1
