# generated using pymatgen
data_Y2Si3(SnO4)3
_symmetry_space_group_name_H-M   'P 1'
_cell_length_a   11.27588463
_cell_length_b   11.27588408
_cell_length_c   11.27588423
_cell_angle_alpha   109.47122093
_cell_angle_beta   109.47121993
_cell_angle_gamma   109.47122232
_symmetry_Int_Tables_number   1
_chemical_formula_structural   Y2Si3(SnO4)3
_chemical_formula_sum   'Y8 Si12 Sn12 O48'
_cell_volume   1103.64636419
_cell_formula_units_Z   4
loop_
 _symmetry_equiv_pos_site_id
 _symmetry_equiv_pos_as_xyz
  1  'x, y, z'
loop_
 _atom_site_type_symbol
 _atom_site_label
 _atom_site_symmetry_multiplicity
 _atom_site_fract_x
 _atom_site_fract_y
 _atom_site_fract_z
 _atom_site_occupancy
  Y  Y0  1  0.500000  0.000000  0.000000  1
  Y  Y1  1  0.000000  0.000000  0.000000  1
  Y  Y2  1  0.000000  0.500000  0.000000  1
  Y  Y3  1  0.000000  0.000000  0.500000  1
  Y  Y4  1  0.000000  0.500000  0.500001  1
  Y  Y5  1  0.500000  0.000000  0.500001  1
  Y  Y6  1  0.500000  0.500000  0.000000  1
  Y  Y7  1  0.500000  0.500000  0.500000  1
  Si  Si8  1  0.250000  0.125000  0.875000  1
  Si  Si9  1  0.875000  0.250000  0.125000  1
  Si  Si10  1  0.625000  0.750001  0.375000  1
  Si  Si11  1  0.250000  0.625000  0.375001  1
  Si  Si12  1  0.375000  0.625000  0.750000  1
  Si  Si13  1  0.750000  0.375000  0.625000  1
  Si  Si14  1  0.875000  0.125000  0.750000  1
  Si  Si15  1  0.125000  0.750001  0.875000  1
  Si  Si16  1  0.125000  0.875001  0.250000  1
  Si  Si17  1  0.625000  0.375000  0.250000  1
  Si  Si18  1  0.375000  0.250000  0.625000  1
  Si  Si19  1  0.750000  0.875001  0.125000  1
  Sn  Sn20  1  0.250000  0.875001  0.625000  1
  Sn  Sn21  1  0.875000  0.625000  0.250000  1
  Sn  Sn22  1  0.625001  0.875001  0.750001  1
  Sn  Sn23  1  0.875001  0.750001  0.625001  1
  Sn  Sn24  1  0.625000  0.250000  0.875000  1
  Sn  Sn25  1  0.750000  0.625000  0.875000  1
  Sn  Sn26  1  0.750000  0.125000  0.375000  1
  Sn  Sn27  1  0.125000  0.375000  0.750000  1
  Sn  Sn28  1  0.375000  0.125000  0.250000  1
  Sn  Sn29  1  0.125000  0.250000  0.375000  1
  Sn  Sn30  1  0.375000  0.750001  0.125000  1
  Sn  Sn31  1  0.250000  0.375000  0.125000  1
  O  O32  1  0.291149  0.498142  0.383375  1
  O  O33  1  0.001858  0.293007  0.885233  1
  O  O34  1  0.116625  0.614767  0.907774  1
  O  O35  1  0.208850  0.592226  0.206993  1
  O  O36  1  0.208850  0.116624  0.001857  1
  O  O37  1  0.592225  0.206992  0.208850  1
  O  O38  1  0.614766  0.206992  0.498142  1
  O  O39  1  0.206993  0.208850  0.592227  1
  O  O40  1  0.885234  0.383375  0.592226  1
  O  O41  1  0.293008  0.907774  0.291150  1
  O  O42  1  0.907774  0.291150  0.293008  1
  O  O43  1  0.001858  0.208850  0.116624  1
  O  O44  1  0.206993  0.498142  0.614767  1
  O  O45  1  0.592226  0.885234  0.383376  1
  O  O46  1  0.116624  0.001857  0.208850  1
  O  O47  1  0.498142  0.614767  0.206992  1
  O  O48  1  0.383375  0.592226  0.885233  1
  O  O49  1  0.885233  0.001857  0.293007  1
  O  O50  1  0.614766  0.907774  0.116625  1
  O  O51  1  0.114766  0.616624  0.407774  1
  O  O52  1  0.498142  0.383375  0.291149  1
  O  O53  1  0.383375  0.291150  0.498142  1
  O  O54  1  0.293008  0.885234  0.001858  1
  O  O55  1  0.291149  0.293007  0.907773  1
  O  O56  1  0.708850  0.501857  0.616625  1
  O  O57  1  0.998142  0.706992  0.114766  1
  O  O58  1  0.883376  0.385234  0.092226  1
  O  O59  1  0.791150  0.407774  0.793008  1
  O  O60  1  0.791149  0.883376  0.998143  1
  O  O61  1  0.407774  0.793007  0.791149  1
  O  O62  1  0.385234  0.793007  0.501857  1
  O  O63  1  0.793008  0.791150  0.407774  1
  O  O64  1  0.708850  0.706992  0.092226  1
  O  O65  1  0.706993  0.114767  0.998142  1
  O  O66  1  0.616624  0.708851  0.501858  1
  O  O67  1  0.501858  0.616624  0.708850  1
  O  O68  1  0.092226  0.883376  0.385233  1
  O  O69  1  0.385233  0.092225  0.883375  1
  O  O70  1  0.114767  0.998142  0.706992  1
  O  O71  1  0.616625  0.407774  0.114766  1
  O  O72  1  0.501858  0.385234  0.793008  1
  O  O73  1  0.883376  0.998142  0.791150  1
  O  O74  1  0.407775  0.114767  0.616625  1
  O  O75  1  0.793007  0.501857  0.385234  1
  O  O76  1  0.998142  0.791150  0.883376  1
  O  O77  1  0.092227  0.708851  0.706993  1
  O  O78  1  0.706992  0.092225  0.708850  1
  O  O79  1  0.907774  0.116624  0.614766  1
