# generated using pymatgen
data_CaTi(SiO3)2
_symmetry_space_group_name_H-M   'P 1'
_cell_length_a   5.37427306
_cell_length_b   9.73004316
_cell_length_c   19.36297383
_cell_angle_alpha   90.00000000
_cell_angle_beta   90.00000000
_cell_angle_gamma   90.00000000
_symmetry_Int_Tables_number   1
_chemical_formula_structural   CaTi(SiO3)2
_chemical_formula_sum   'Ca8 Ti8 Si16 O48'
_cell_volume   1012.52686215
_cell_formula_units_Z   8
loop_
 _symmetry_equiv_pos_site_id
 _symmetry_equiv_pos_as_xyz
  1  'x, y, z'
loop_
 _atom_site_type_symbol
 _atom_site_label
 _atom_site_symmetry_multiplicity
 _atom_site_fract_x
 _atom_site_fract_y
 _atom_site_fract_z
 _atom_site_occupancy
  Ca  Ca0  1  0.628183  0.146944  0.619582  1
  Ca  Ca1  1  0.371817  0.853056  0.380418  1
  Ca  Ca2  1  0.628183  0.646944  0.880418  1
  Ca  Ca3  1  0.128183  0.853056  0.880418  1
  Ca  Ca4  1  0.871817  0.146944  0.119582  1
  Ca  Ca5  1  0.371817  0.353056  0.119582  1
  Ca  Ca6  1  0.128183  0.353056  0.619582  1
  Ca  Ca7  1  0.871817  0.646944  0.380418  1
  Ti  Ti8  1  0.353109  0.978770  0.129268  1
  Ti  Ti9  1  0.646891  0.021230  0.870732  1
  Ti  Ti10  1  0.853109  0.021230  0.370732  1
  Ti  Ti11  1  0.146891  0.978770  0.629268  1
  Ti  Ti12  1  0.353109  0.478770  0.370732  1
  Ti  Ti13  1  0.646891  0.521230  0.629268  1
  Ti  Ti14  1  0.853109  0.521230  0.129268  1
  Ti  Ti15  1  0.146891  0.478770  0.870732  1
  Si  Si16  1  0.536756  0.664605  0.230142  1
  Si  Si17  1  0.738801  0.833371  0.525571  1
  Si  Si18  1  0.761199  0.833371  0.025571  1
  Si  Si19  1  0.963244  0.164605  0.769858  1
  Si  Si20  1  0.036756  0.335395  0.269858  1
  Si  Si21  1  0.463244  0.835395  0.730142  1
  Si  Si22  1  0.238801  0.666629  0.525571  1
  Si  Si23  1  0.738801  0.333371  0.974429  1
  Si  Si24  1  0.761199  0.333371  0.474429  1
  Si  Si25  1  0.963244  0.664605  0.730142  1
  Si  Si26  1  0.463244  0.335395  0.769858  1
  Si  Si27  1  0.536756  0.164605  0.269858  1
  Si  Si28  1  0.261199  0.166629  0.474429  1
  Si  Si29  1  0.036756  0.835395  0.230142  1
  Si  Si30  1  0.261199  0.666629  0.025571  1
  Si  Si31  1  0.238801  0.166629  0.974429  1
  O  O32  1  0.967780  0.521101  0.688259  1
  O  O33  1  0.326504  0.033071  0.931927  1
  O  O34  1  0.032220  0.478899  0.311741  1
  O  O35  1  0.741987  0.347296  0.058439  1
  O  O36  1  0.241987  0.152704  0.058439  1
  O  O37  1  0.940884  0.206612  0.952062  1
  O  O38  1  0.986522  0.652490  0.813802  1
  O  O39  1  0.013478  0.847510  0.313802  1
  O  O40  1  0.741987  0.847296  0.441561  1
  O  O41  1  0.986522  0.152490  0.686198  1
  O  O42  1  0.467780  0.478899  0.811741  1
  O  O43  1  0.758013  0.347296  0.558439  1
  O  O44  1  0.673496  0.966929  0.068073  1
  O  O45  1  0.486522  0.847510  0.813802  1
  O  O46  1  0.532220  0.021101  0.311741  1
  O  O47  1  0.326504  0.533071  0.568073  1
  O  O48  1  0.467780  0.978899  0.688259  1
  O  O49  1  0.182427  0.775396  0.703972  1
  O  O50  1  0.317573  0.775396  0.203972  1
  O  O51  1  0.559116  0.706612  0.047938  1
  O  O52  1  0.758013  0.847296  0.941561  1
  O  O53  1  0.513478  0.652490  0.313802  1
  O  O54  1  0.826504  0.466929  0.931927  1
  O  O55  1  0.182427  0.275396  0.796028  1
  O  O56  1  0.258013  0.152704  0.558439  1
  O  O57  1  0.513478  0.152490  0.186198  1
  O  O58  1  0.673496  0.466929  0.431927  1
  O  O59  1  0.241987  0.652704  0.441561  1
  O  O60  1  0.173496  0.533071  0.068073  1
  O  O61  1  0.682427  0.724604  0.703972  1
  O  O62  1  0.032220  0.978899  0.188259  1
  O  O63  1  0.817573  0.724604  0.203972  1
  O  O64  1  0.817573  0.224604  0.296028  1
  O  O65  1  0.826504  0.966929  0.568073  1
  O  O66  1  0.258013  0.652704  0.941561  1
  O  O67  1  0.173496  0.033071  0.431927  1
  O  O68  1  0.317573  0.275396  0.296028  1
  O  O69  1  0.059116  0.793388  0.047938  1
  O  O70  1  0.440884  0.793388  0.547938  1
  O  O71  1  0.682427  0.224604  0.796028  1
  O  O72  1  0.440884  0.293388  0.952062  1
  O  O73  1  0.559116  0.206612  0.452062  1
  O  O74  1  0.059116  0.293388  0.452062  1
  O  O75  1  0.486522  0.347510  0.686198  1
  O  O76  1  0.532220  0.521101  0.188259  1
  O  O77  1  0.940884  0.706612  0.547938  1
  O  O78  1  0.013478  0.347510  0.186198  1
  O  O79  1  0.967780  0.021101  0.811741  1
