# generated using pymatgen
data_WO2
_symmetry_space_group_name_H-M   'P 1'
_cell_length_a   5.55911227
_cell_length_b   6.63667059
_cell_length_c   10.72275929
_cell_angle_alpha   89.61040595
_cell_angle_beta   89.48665058
_cell_angle_gamma   93.29151819
_symmetry_Int_Tables_number   1
_chemical_formula_structural   WO2
_chemical_formula_sum   'W8 O16'
_cell_volume   394.92637686
_cell_formula_units_Z   8
loop_
 _symmetry_equiv_pos_site_id
 _symmetry_equiv_pos_as_xyz
  1  'x, y, z'
loop_
 _atom_site_type_symbol
 _atom_site_label
 _atom_site_symmetry_multiplicity
 _atom_site_fract_x
 _atom_site_fract_y
 _atom_site_fract_z
 _atom_site_occupancy
  W  W0  1  0.499518  0.749647  0.499084  1
  W  W1  1  0.500310  0.750169  0.998790  1
  W  W2  1  0.499542  0.249635  0.499078  1
  W  W3  1  0.499964  0.250421  0.999148  1
  W  W4  1  -0.000076  0.500382  0.500841  1
  W  W5  1  0.000188  0.999612  0.000872  1
  W  W6  1  0.000808  0.000295  0.501000  1
  W  W7  1  0.999747  0.499831  0.001240  1
  O  O8  1  0.835449  0.751835  0.412313  1
  O  O9  1  0.830279  0.749461  0.088745  1
  O  O10  1  0.166840  0.249068  0.588704  1
  O  O11  1  0.167473  0.250702  0.912461  1
  O  O12  1  0.166604  0.748469  0.588659  1
  O  O13  1  0.167385  0.750016  0.912133  1
  O  O14  1  0.835327  0.251362  0.412172  1
  O  O15  1  0.829755  0.249072  0.088749  1
  O  O16  1  0.663915  0.497838  0.587773  1
  O  O17  1  0.670326  0.000941  0.911196  1
  O  O18  1  0.333758  0.001765  0.411337  1
  O  O19  1  0.332696  0.500031  0.087858  1
  O  O20  1  0.332447  0.501752  0.411181  1
  O  O21  1  0.332677  0.999276  0.087573  1
  O  O22  1  0.665219  0.997790  0.587829  1
  O  O23  1  0.669847  0.500631  0.911268  1
