# generated using pymatgen
data_Ba2Co2F11
_symmetry_space_group_name_H-M   'P 1'
_cell_length_a   7.63776483
_cell_length_b   7.63776445
_cell_length_c   14.13993176
_cell_angle_alpha   90.00000000
_cell_angle_beta   90.00000000
_cell_angle_gamma   119.99999698
_symmetry_Int_Tables_number   1
_chemical_formula_structural   Ba2Co2F11
_chemical_formula_sum   'Ba6 Co6 F33'
_cell_volume   714.34909836
_cell_formula_units_Z   3
loop_
 _symmetry_equiv_pos_site_id
 _symmetry_equiv_pos_as_xyz
  1  'x, y, z'
loop_
 _atom_site_type_symbol
 _atom_site_label
 _atom_site_symmetry_multiplicity
 _atom_site_fract_x
 _atom_site_fract_y
 _atom_site_fract_z
 _atom_site_occupancy
  Ba  Ba0  1  0.536553  0.179640  0.670412  1
  Ba  Ba1  1  0.145151  0.472673  0.826549  1
  Ba  Ba2  1  0.643087  0.463447  0.003745  1
  Ba  Ba3  1  0.527327  0.672477  0.493215  1
  Ba  Ba4  1  0.327523  0.854849  0.159882  1
  Ba  Ba5  1  0.820360  0.356913  0.337078  1
  Co  Co6  1  0.642550  0.974724  0.883065  1
  Co  Co7  1  0.853253  0.774555  0.727051  1
  Co  Co8  1  0.225445  0.078697  0.393717  1
  Co  Co9  1  0.332175  0.357450  0.216398  1
  Co  Co10  1  0.921303  0.146747  0.060384  1
  Co  Co11  1  0.025276  0.667825  0.549731  1
  F  F12  1  0.634841  0.058183  0.017014  1
  F  F13  1  0.516287  0.715415  0.933865  1
  F  F14  1  0.423345  0.365159  0.350347  1
  F  F15  1  0.112924  0.499485  0.489670  1
  F  F16  1  0.524210  0.279061  0.181676  1
  F  F17  1  0.947854  0.601418  0.178591  1
  F  F18  1  0.500515  0.613439  0.156337  1
  F  F19  1  0.398582  0.346435  0.845258  1
  F  F20  1  0.754852  0.475790  0.515009  1
  F  F21  1  0.212629  0.284064  0.088005  1
  F  F22  1  0.386561  0.887076  0.823004  1
  F  F23  1  0.941817  0.576655  0.683681  1
  F  F24  1  0.325803  0.059529  0.007333  1
  F  F25  1  0.986656  0.410130  0.013379  1
  F  F26  1  0.733725  0.674197  0.340666  1
  F  F27  1  0.284585  0.800873  0.600531  1
  F  F28  1  0.929450  0.092496  0.916092  1
  F  F29  1  0.071435  0.787371  0.421338  1
  F  F30  1  0.012617  0.115680  0.404270  1
  F  F31  1  0.940471  0.266275  0.673999  1
  F  F32  1  0.103063  0.987383  0.737604  1
  F  F33  1  0.589870  0.576526  0.680046  1
  F  F34  1  0.423474  0.013344  0.346712  1
  F  F35  1  0.163046  0.070550  0.249425  1
  F  F36  1  0.715936  0.928565  0.754672  1
  F  F37  1  0.720938  0.245148  0.848343  1
  F  F38  1  0.199127  0.483713  0.267198  1
  F  F39  1  0.842980  0.668919  0.849094  1
  F  F40  1  0.825939  0.157020  0.182427  1
  F  F41  1  0.884320  0.896937  0.070937  1
  F  F42  1  0.653565  0.052146  0.511924  1
  F  F43  1  0.907504  0.836954  0.582758  1
  F  F44  1  0.331081  0.174061  0.515760  1
