# generated using pymatgen
data_Mg3As4W3O16
_symmetry_space_group_name_H-M   'P 1'
_cell_length_a   5.56425452
_cell_length_b   10.14137132
_cell_length_c   16.34928020
_cell_angle_alpha   110.77583226
_cell_angle_beta   90.00000000
_cell_angle_gamma   90.00000000
_symmetry_Int_Tables_number   1
_chemical_formula_structural   Mg3As4W3O16
_chemical_formula_sum   'Mg6 As8 W6 O32'
_cell_volume   862.58615563
_cell_formula_units_Z   2
loop_
 _symmetry_equiv_pos_site_id
 _symmetry_equiv_pos_as_xyz
  1  'x, y, z'
loop_
 _atom_site_type_symbol
 _atom_site_label
 _atom_site_symmetry_multiplicity
 _atom_site_fract_x
 _atom_site_fract_y
 _atom_site_fract_z
 _atom_site_occupancy
  Mg  Mg0  1  0.122850  0.013611  0.719382  1
  Mg  Mg1  1  0.622850  0.486389  0.780618  1
  Mg  Mg2  1  0.877150  0.986389  0.280618  1
  Mg  Mg3  1  0.377150  0.513611  0.219382  1
  Mg  Mg4  1  0.000000  0.000000  -0.000000  1
  Mg  Mg5  1  0.500000  0.500000  0.500000  1
  As  As6  1  0.518841  0.954347  0.846122  1
  As  As7  1  0.169567  0.266580  0.922212  1
  As  As8  1  0.669567  0.233420  0.577788  1
  As  As9  1  0.330433  0.766580  0.422212  1
  As  As10  1  0.481159  0.045653  0.153878  1
  As  As11  1  0.830433  0.733420  0.077788  1
  As  As12  1  0.981159  0.454347  0.346122  1
  As  As13  1  0.018841  0.545653  0.653878  1
  W  W14  1  0.878263  0.309897  0.114723  1
  W  W15  1  0.121737  0.690103  0.885277  1
  W  W16  1  0.378263  0.190103  0.385277  1
  W  W17  1  0.621737  0.809897  0.614723  1
  W  W18  1  0.500000  0.500000  -0.000000  1
  W  W19  1  0.000000  0.000000  0.500000  1
  O  O20  1  0.319541  0.591072  0.793897  1
  O  O21  1  0.611102  0.303419  0.493288  1
  O  O22  1  0.303569  0.103335  0.837325  1
  O  O23  1  0.345941  0.855906  0.677049  1
  O  O24  1  0.696431  0.896665  0.162675  1
  O  O25  1  0.180459  0.091072  0.293897  1
  O  O26  1  0.803569  0.396665  0.662675  1
  O  O27  1  0.881612  0.936517  0.384994  1
  O  O28  1  0.797447  0.540501  0.429205  1
  O  O29  1  0.680459  0.408928  0.206103  1
  O  O30  1  0.154059  0.355906  0.177049  1
  O  O31  1  0.118388  0.063483  0.615006  1
  O  O32  1  0.218803  0.599101  0.961108  1
  O  O33  1  0.202553  0.459499  0.570795  1
  O  O34  1  0.788440  0.126890  0.104806  1
  O  O35  1  0.288440  0.373110  0.395194  1
  O  O36  1  0.718803  0.900899  0.538892  1
  O  O37  1  0.196431  0.603335  0.337325  1
  O  O38  1  0.297447  0.959499  0.070795  1
  O  O39  1  0.381612  0.563483  0.115006  1
  O  O40  1  0.711560  0.626890  0.604806  1
  O  O41  1  0.211560  0.873110  0.895194  1
  O  O42  1  0.388898  0.696581  0.506712  1
  O  O43  1  0.111102  0.196581  0.006712  1
  O  O44  1  0.781197  0.400899  0.038892  1
  O  O45  1  0.819541  0.908928  0.706103  1
  O  O46  1  0.654059  0.144094  0.322951  1
  O  O47  1  0.702553  0.040501  0.929205  1
  O  O48  1  0.888898  0.803419  0.993288  1
  O  O49  1  0.618388  0.436517  0.884994  1
  O  O50  1  0.281197  0.099101  0.461108  1
  O  O51  1  0.845941  0.644094  0.822951  1
