# generated using pymatgen
data_Ca3V2(GeO4)3
_symmetry_space_group_name_H-M   'P 1'
_cell_length_a   10.82569322
_cell_length_b   10.82569265
_cell_length_c   10.82569278
_cell_angle_alpha   109.47122089
_cell_angle_beta   109.47121981
_cell_angle_gamma   109.47121988
_symmetry_Int_Tables_number   1
_chemical_formula_structural   Ca3V2(GeO4)3
_chemical_formula_sum   'Ca12 V8 Ge12 O48'
_cell_volume   976.66409718
_cell_formula_units_Z   4
loop_
 _symmetry_equiv_pos_site_id
 _symmetry_equiv_pos_as_xyz
  1  'x, y, z'
loop_
 _atom_site_type_symbol
 _atom_site_label
 _atom_site_symmetry_multiplicity
 _atom_site_fract_x
 _atom_site_fract_y
 _atom_site_fract_z
 _atom_site_occupancy
  Ca  Ca0  1  0.625000  0.250000  0.875000  1
  Ca  Ca1  1  0.875000  0.750000  0.625000  1
  Ca  Ca2  1  0.750000  0.625000  0.875000  1
  Ca  Ca3  1  0.250000  0.875000  0.625000  1
  Ca  Ca4  1  0.875000  0.625000  0.250000  1
  Ca  Ca5  1  0.625000  0.875000  0.750000  1
  Ca  Ca6  1  0.375000  0.750000  0.125000  1
  Ca  Ca7  1  0.125000  0.250000  0.375000  1
  Ca  Ca8  1  0.250000  0.375000  0.125000  1
  Ca  Ca9  1  0.750000  0.125000  0.375000  1
  Ca  Ca10  1  0.125000  0.375000  0.750000  1
  Ca  Ca11  1  0.375000  0.125000  0.250000  1
  V  V12  1  0.500000  0.500000  0.500000  1
  V  V13  1  0.500000  0.500000  0.000000  1
  V  V14  1  0.500000  0.000000  0.500000  1
  V  V15  1  0.000000  0.500000  0.500000  1
  V  V16  1  0.500000  0.000000  0.000000  1
  V  V17  1  0.000000  0.000000  0.500000  1
  V  V18  1  0.000000  0.500000  0.000000  1
  V  V19  1  0.000000  0.000000  0.000000  1
  Ge  Ge20  1  0.875000  0.125000  0.750000  1
  Ge  Ge21  1  0.125000  0.875000  0.250000  1
  Ge  Ge22  1  0.250000  0.625000  0.375000  1
  Ge  Ge23  1  0.125000  0.750000  0.875000  1
  Ge  Ge24  1  0.750000  0.875000  0.125000  1
  Ge  Ge25  1  0.375000  0.250000  0.625000  1
  Ge  Ge26  1  0.625000  0.750000  0.375000  1
  Ge  Ge27  1  0.875000  0.250000  0.125000  1
  Ge  Ge28  1  0.250000  0.125000  0.875000  1
  Ge  Ge29  1  0.750000  0.375000  0.625000  1
  Ge  Ge30  1  0.375000  0.625000  0.750000  1
  Ge  Ge31  1  0.625000  0.375000  0.250000  1
  O  O32  1  0.796593  0.415270  0.813648  1
  O  O33  1  0.084730  0.881323  0.398378  1
  O  O34  1  0.686352  0.101622  0.982944  1
  O  O35  1  0.703407  0.517056  0.618677  1
  O  O36  1  0.703407  0.686352  0.084730  1
  O  O37  1  0.517056  0.618677  0.703407  1
  O  O38  1  0.101622  0.618677  0.415270  1
  O  O39  1  0.618677  0.703407  0.517056  1
  O  O40  1  0.398378  0.813648  0.517056  1
  O  O41  1  0.881323  0.982944  0.796593  1
  O  O42  1  0.982944  0.796593  0.881323  1
  O  O43  1  0.084730  0.703407  0.686352  1
  O  O44  1  0.618677  0.415270  0.101622  1
  O  O45  1  0.517056  0.398378  0.813648  1
  O  O46  1  0.686352  0.084730  0.703407  1
  O  O47  1  0.415270  0.101622  0.618677  1
  O  O48  1  0.813648  0.517056  0.398378  1
  O  O49  1  0.398378  0.084730  0.881323  1
  O  O50  1  0.101622  0.982944  0.686352  1
  O  O51  1  0.601622  0.186352  0.482944  1
  O  O52  1  0.982944  0.686352  0.101622  1
  O  O53  1  0.813648  0.796593  0.415270  1
  O  O54  1  0.881323  0.398378  0.084730  1
  O  O55  1  0.796593  0.881323  0.982944  1
  O  O56  1  0.203407  0.584730  0.186352  1
  O  O57  1  0.915270  0.118677  0.601622  1
  O  O58  1  0.313648  0.898378  0.017056  1
  O  O59  1  0.296593  0.482944  0.381323  1
  O  O60  1  0.296593  0.313648  0.915270  1
  O  O61  1  0.482944  0.381323  0.296593  1
  O  O62  1  0.898378  0.381323  0.584730  1
  O  O63  1  0.381323  0.296593  0.482944  1
  O  O64  1  0.203407  0.118677  0.017056  1
  O  O65  1  0.118677  0.601622  0.915270  1
  O  O66  1  0.186352  0.203407  0.584730  1
  O  O67  1  0.584730  0.186352  0.203407  1
  O  O68  1  0.017056  0.313648  0.898378  1
  O  O69  1  0.898378  0.017056  0.313648  1
  O  O70  1  0.601622  0.915270  0.118677  1
  O  O71  1  0.186352  0.482944  0.601622  1
  O  O72  1  0.584730  0.898378  0.381323  1
  O  O73  1  0.313648  0.915270  0.296593  1
  O  O74  1  0.482944  0.601622  0.186352  1
  O  O75  1  0.381323  0.584730  0.898378  1
  O  O76  1  0.915270  0.296593  0.313648  1
  O  O77  1  0.017056  0.203407  0.118677  1
  O  O78  1  0.118677  0.017056  0.203407  1
  O  O79  1  0.415270  0.813648  0.796593  1
