# generated using pymatgen
data_YSnO3
_symmetry_space_group_name_H-M   'P 1'
_cell_length_a   6.42710628
_cell_length_b   6.42710591
_cell_length_c   12.57640342
_cell_angle_alpha   90.00000000
_cell_angle_beta   90.00000000
_cell_angle_gamma   120.00000192
_symmetry_Int_Tables_number   1
_chemical_formula_structural   YSnO3
_chemical_formula_sum   'Y6 Sn6 O18'
_cell_volume   449.90210088
_cell_formula_units_Z   6
loop_
 _symmetry_equiv_pos_site_id
 _symmetry_equiv_pos_as_xyz
  1  'x, y, z'
loop_
 _atom_site_type_symbol
 _atom_site_label
 _atom_site_symmetry_multiplicity
 _atom_site_fract_x
 _atom_site_fract_y
 _atom_site_fract_z
 _atom_site_occupancy
  Y  Y0  1  0.666667  0.333333  0.236787  1
  Y  Y1  1  0.333333  0.666667  0.736787  1
  Y  Y2  1  0.666667  0.333333  0.736787  1
  Y  Y3  1  0.333333  0.666667  0.236787  1
  Y  Y4  1  0.000000  0.000000  0.768882  1
  Y  Y5  1  0.000000  0.000000  0.268882  1
  Sn  Sn6  1  0.666943  0.000000  0.500482  1
  Sn  Sn7  1  0.666943  0.666943  0.000482  1
  Sn  Sn8  1  0.000000  0.333057  0.000482  1
  Sn  Sn9  1  1.000000  0.666943  0.500482  1
  Sn  Sn10  1  0.333057  0.333057  0.500482  1
  Sn  Sn11  1  0.333057  0.000000  0.000482  1
  O  O12  1  0.666667  0.333333  0.025672  1
  O  O13  1  0.333333  0.666667  0.525672  1
  O  O14  1  0.666667  0.333333  0.525672  1
  O  O15  1  0.333333  0.666667  0.025672  1
  O  O16  1  0.000000  0.000000  0.971292  1
  O  O17  1  0.000000  0.000000  0.471292  1
  O  O18  1  0.359554  0.000000  0.828786  1
  O  O19  1  0.359554  0.359554  0.328786  1
  O  O20  1  0.000000  0.640446  0.328786  1
  O  O21  1  1.000000  0.359554  0.828786  1
  O  O22  1  0.640446  0.640446  0.828786  1
  O  O23  1  0.640446  0.000000  0.328786  1
  O  O24  1  0.309070  0.000000  0.174035  1
  O  O25  1  0.309070  0.309070  0.674035  1
  O  O26  1  1.000000  0.690930  0.674035  1
  O  O27  1  0.000000  0.309070  0.174035  1
  O  O28  1  0.690930  0.690930  0.174035  1
  O  O29  1  0.690930  0.000000  0.674035  1
