# generated using pymatgen
data_Mg2TaSnO6
_symmetry_space_group_name_H-M   'P 1'
_cell_length_a   5.45312624
_cell_length_b   5.53927517
_cell_length_c   7.82250752
_cell_angle_alpha   90.00000000
_cell_angle_beta   90.00000000
_cell_angle_gamma   88.00518692
_symmetry_Int_Tables_number   1
_chemical_formula_structural   Mg2TaSnO6
_chemical_formula_sum   'Mg4 Ta2 Sn2 O12'
_cell_volume   236.14633569
_cell_formula_units_Z   2
loop_
 _symmetry_equiv_pos_site_id
 _symmetry_equiv_pos_as_xyz
  1  'x, y, z'
loop_
 _atom_site_type_symbol
 _atom_site_label
 _atom_site_symmetry_multiplicity
 _atom_site_fract_x
 _atom_site_fract_y
 _atom_site_fract_z
 _atom_site_occupancy
  Mg  Mg0  1  0.988333  0.962836  0.250000  1
  Mg  Mg1  1  0.508236  0.460371  0.250000  1
  Mg  Mg2  1  0.491764  0.539629  0.750000  1
  Mg  Mg3  1  0.011667  0.037164  0.750000  1
  Ta  Ta4  1  0.000000  0.500000  0.000000  1
  Ta  Ta5  1  0.000000  0.500000  0.500000  1
  Sn  Sn6  1  0.500000  0.000000  0.000000  1
  Sn  Sn7  1  0.500000  0.000000  0.500000  1
  O  O8  1  0.858808  0.818117  0.569340  1
  O  O9  1  0.309968  0.651373  0.428775  1
  O  O10  1  0.141192  0.181883  0.430660  1
  O  O11  1  0.690032  0.348627  0.928775  1
  O  O12  1  0.132552  0.419387  0.750000  1
  O  O13  1  0.690032  0.348627  0.571225  1
  O  O14  1  0.309968  0.651373  0.071225  1
  O  O15  1  0.858808  0.818117  0.930660  1
  O  O16  1  0.627364  0.094398  0.250000  1
  O  O17  1  0.141192  0.181883  0.069340  1
  O  O18  1  0.372636  0.905602  0.750000  1
  O  O19  1  0.867448  0.580613  0.250000  1
