# generated using pymatgen
data_TeO3
_symmetry_space_group_name_H-M   'P 1'
_cell_length_a   6.47442518
_cell_length_b   6.47442511
_cell_length_c   11.34695977
_cell_angle_alpha   90.00000000
_cell_angle_beta   90.00000000
_cell_angle_gamma   120.00000704
_symmetry_Int_Tables_number   1
_chemical_formula_structural   TeO3
_chemical_formula_sum   'Te6 O18'
_cell_volume   411.91968238
_cell_formula_units_Z   6
loop_
 _symmetry_equiv_pos_site_id
 _symmetry_equiv_pos_as_xyz
  1  'x, y, z'
loop_
 _atom_site_type_symbol
 _atom_site_label
 _atom_site_symmetry_multiplicity
 _atom_site_fract_x
 _atom_site_fract_y
 _atom_site_fract_z
 _atom_site_occupancy
  Te  Te0  1  0.669490  1.000000  0.502421  1
  Te  Te1  1  0.669490  0.669490  0.002421  1
  Te  Te2  1  0.000000  0.330510  0.002421  1
  Te  Te3  1  1.000000  0.669490  0.502421  1
  Te  Te4  1  0.330510  0.330510  0.502421  1
  Te  Te5  1  0.330510  0.000000  0.002421  1
  O  O6  1  0.666667  0.333333  0.027291  1
  O  O7  1  0.333333  0.666667  0.527291  1
  O  O8  1  0.666667  0.333333  0.527291  1
  O  O9  1  0.333333  0.666667  0.027291  1
  O  O10  1  0.000000  0.000000  0.958351  1
  O  O11  1  0.000000  0.000000  0.458351  1
  O  O12  1  0.386216  1.000000  0.847110  1
  O  O13  1  0.386216  0.386216  0.347110  1
  O  O14  1  0.000000  0.613784  0.347110  1
  O  O15  1  1.000000  0.386216  0.847110  1
  O  O16  1  0.613784  0.613784  0.847110  1
  O  O17  1  0.613784  0.000000  0.347110  1
  O  O18  1  0.268644  1.000000  0.157136  1
  O  O19  1  0.268644  0.268644  0.657136  1
  O  O20  1  0.000000  0.731356  0.657136  1
  O  O21  1  1.000000  0.268644  0.157136  1
  O  O22  1  0.731356  0.731356  0.157136  1
  O  O23  1  0.731356  0.000000  0.657136  1
