# generated using pymatgen
data_Ca(TiN)2
_symmetry_space_group_name_H-M   'P 1'
_cell_length_a   3.24173638
_cell_length_b   3.24044806
_cell_length_c   8.23165480
_cell_angle_alpha   89.99987744
_cell_angle_beta   90.00041257
_cell_angle_gamma   89.99994326
_symmetry_Int_Tables_number   1
_chemical_formula_structural   Ca(TiN)2
_chemical_formula_sum   'Ca1 Ti2 N2'
_cell_volume   86.47088607
_cell_formula_units_Z   1
loop_
 _symmetry_equiv_pos_site_id
 _symmetry_equiv_pos_as_xyz
  1  'x, y, z'
loop_
 _atom_site_type_symbol
 _atom_site_label
 _atom_site_symmetry_multiplicity
 _atom_site_fract_x
 _atom_site_fract_y
 _atom_site_fract_z
 _atom_site_occupancy
  Ca  Ca0  1  0.999999  0.000000  0.249949  1
  Ti  Ti1  1  0.499995  0.500002  0.926078  1
  Ti  Ti2  1  0.500008  0.499998  0.574066  1
  N  N3  1  0.500001  0.999999  0.450974  1
  N  N4  1  0.999998  0.500001  0.048932  1
