# generated using pymatgen
data_Mg3Fe4(BiO4)6
_symmetry_space_group_name_H-M   'P 1'
_cell_length_a   6.60186351
_cell_length_b   7.99928570
_cell_length_c   11.63072303
_cell_angle_alpha   105.26220722
_cell_angle_beta   101.76488225
_cell_angle_gamma   109.57345841
_symmetry_Int_Tables_number   1
_chemical_formula_structural   Mg3Fe4(BiO4)6
_chemical_formula_sum   'Mg3 Fe4 Bi6 O24'
_cell_volume   528.70640264
_cell_formula_units_Z   1
loop_
 _symmetry_equiv_pos_site_id
 _symmetry_equiv_pos_as_xyz
  1  'x, y, z'
loop_
 _atom_site_type_symbol
 _atom_site_label
 _atom_site_symmetry_multiplicity
 _atom_site_fract_x
 _atom_site_fract_y
 _atom_site_fract_z
 _atom_site_occupancy
  Mg  Mg0  1  0.000000  0.500000  0.500000  1
  Mg  Mg1  1  0.316237  0.277913  0.799430  1
  Mg  Mg2  1  0.683763  0.722087  0.200570  1
  Fe  Fe3  1  0.359200  0.958794  0.589036  1
  Fe  Fe4  1  0.640800  0.041206  0.410964  1
  Fe  Fe5  1  0.012241  0.201387  0.983202  1
  Fe  Fe6  1  0.987759  0.798613  0.016798  1
  Bi  Bi7  1  0.868850  0.396577  0.732169  1
  Bi  Bi8  1  0.131150  0.603423  0.267831  1
  Bi  Bi9  1  0.823466  0.874424  0.686574  1
  Bi  Bi10  1  0.496481  0.801848  0.891057  1
  Bi  Bi11  1  0.176534  0.125576  0.313426  1
  Bi  Bi12  1  0.503519  0.198152  0.108943  1
  O  O13  1  0.845003  0.602101  0.631285  1
  O  O14  1  0.154997  0.397899  0.368715  1
  O  O15  1  0.255124  0.512075  0.790943  1
  O  O16  1  0.744876  0.487925  0.209057  1
  O  O17  1  0.888985  0.276512  0.549527  1
  O  O18  1  0.111015  0.723488  0.450473  1
  O  O19  1  0.619511  0.911259  0.539066  1
  O  O20  1  0.380489  0.088741  0.460934  1
  O  O21  1  0.673889  0.746361  0.033599  1
  O  O22  1  0.326111  0.253639  0.966401  1
  O  O23  1  0.467031  0.773825  0.289245  1
  O  O24  1  0.532969  0.226175  0.710755  1
  O  O25  1  0.146612  0.000644  0.673473  1
  O  O26  1  0.133049  0.103608  0.119233  1
  O  O27  1  0.866951  0.896392  0.880767  1
  O  O28  1  0.530951  0.185256  0.294134  1
  O  O29  1  0.469049  0.814744  0.705866  1
  O  O30  1  0.133718  0.451469  0.097381  1
  O  O31  1  0.866282  0.548531  0.902619  1
  O  O32  1  0.953953  0.191605  0.802537  1
  O  O33  1  0.046047  0.808395  0.197463  1
  O  O34  1  0.301195  0.884621  0.001660  1
  O  O35  1  0.698805  0.115379  0.998340  1
  O  O36  1  0.853388  0.999356  0.326527  1
