# generated using pymatgen
data_VZnF5
_symmetry_space_group_name_H-M   'P 1'
_cell_length_a   5.36526239
_cell_length_b   5.35283034
_cell_length_c   7.56955222
_cell_angle_alpha   98.06125999
_cell_angle_beta   110.03962232
_cell_angle_gamma   108.24056377
_symmetry_Int_Tables_number   1
_chemical_formula_structural   VZnF5
_chemical_formula_sum   'V2 Zn2 F10'
_cell_volume   186.35711210
_cell_formula_units_Z   2
loop_
 _symmetry_equiv_pos_site_id
 _symmetry_equiv_pos_as_xyz
  1  'x, y, z'
loop_
 _atom_site_type_symbol
 _atom_site_label
 _atom_site_symmetry_multiplicity
 _atom_site_fract_x
 _atom_site_fract_y
 _atom_site_fract_z
 _atom_site_occupancy
  V  V0  1  0.998302  0.999470  0.001288  1
  V  V1  1  0.500874  0.001672  0.501065  1
  Zn  Zn2  1  0.275838  0.528415  0.749098  1
  Zn  Zn3  1  0.721777  0.471463  0.252629  1
  F  F4  1  0.368354  0.118476  0.250418  1
  F  F5  1  0.630185  0.882346  0.751340  1
  F  F6  1  0.593402  0.726595  0.373083  1
  F  F7  1  0.856388  0.221435  0.133471  1
  F  F8  1  0.756610  0.683222  0.047617  1
  F  F9  1  0.138170  0.716760  0.454777  1
  F  F10  1  0.237293  0.315539  0.953560  1
  F  F11  1  0.862374  0.288743  0.543474  1
  F  F12  1  0.142201  0.777351  0.870858  1
  F  F13  1  0.414124  0.279542  0.632214  1
