# generated using pymatgen
data_MnZn(Si2O5)2
_symmetry_space_group_name_H-M   'P 1'
_cell_length_a   7.38279678
_cell_length_b   7.38280341
_cell_length_c   14.95312143
_cell_angle_alpha   90.00000000
_cell_angle_beta   90.00000000
_cell_angle_gamma   90.00041659
_symmetry_Int_Tables_number   1
_chemical_formula_structural   MnZn(Si2O5)2
_chemical_formula_sum   'Mn4 Zn4 Si16 O40'
_cell_volume   815.03090761
_cell_formula_units_Z   4
loop_
 _symmetry_equiv_pos_site_id
 _symmetry_equiv_pos_as_xyz
  1  'x, y, z'
loop_
 _atom_site_type_symbol
 _atom_site_label
 _atom_site_symmetry_multiplicity
 _atom_site_fract_x
 _atom_site_fract_y
 _atom_site_fract_z
 _atom_site_occupancy
  Mn  Mn0  1  0.250000  0.250000  0.558540  1
  Mn  Mn1  1  0.750000  0.750000  0.941944  1
  Mn  Mn2  1  0.750000  0.750000  0.441460  1
  Mn  Mn3  1  0.250000  0.250000  0.058056  1
  Zn  Zn4  1  0.250000  0.750000  0.500000  1
  Zn  Zn5  1  0.750000  0.250000  0.500000  1
  Zn  Zn6  1  0.750000  0.250000  1.000000  1
  Zn  Zn7  1  0.250000  0.750000  0.000000  1
  Si  Si8  1  0.901980  0.486821  0.645719  1
  Si  Si9  1  0.598020  0.013179  0.645719  1
  Si  Si10  1  0.986797  0.402014  0.854304  1
  Si  Si11  1  0.486820  0.598020  0.645719  1
  Si  Si12  1  0.013180  0.901980  0.645719  1
  Si  Si13  1  0.097985  0.986796  0.854304  1
  Si  Si14  1  0.402015  0.513204  0.854304  1
  Si  Si15  1  0.513203  0.097986  0.854304  1
  Si  Si16  1  0.098020  0.513179  0.354281  1
  Si  Si17  1  0.401980  0.986821  0.354281  1
  Si  Si18  1  0.013203  0.597986  0.145696  1
  Si  Si19  1  0.513180  0.401980  0.354281  1
  Si  Si20  1  0.986820  0.098020  0.354281  1
  Si  Si21  1  0.902015  0.013204  0.145696  1
  Si  Si22  1  0.597985  0.486796  0.145696  1
  Si  Si23  1  0.486797  0.902014  0.145696  1
  O  O24  1  0.972779  0.335469  0.575357  1
  O  O25  1  0.527221  0.164531  0.575357  1
  O  O26  1  0.835475  0.472792  0.924668  1
  O  O27  1  0.335468  0.527218  0.575357  1
  O  O28  1  0.164532  0.972782  0.575357  1
  O  O29  1  0.027205  0.835476  0.924671  1
  O  O30  1  0.472795  0.664524  0.924671  1
  O  O31  1  0.664525  0.027208  0.924668  1
  O  O32  1  0.027221  0.664531  0.424643  1
  O  O33  1  0.472779  0.835469  0.424643  1
  O  O34  1  0.164525  0.527208  0.075332  1
  O  O35  1  0.664532  0.472782  0.424643  1
  O  O36  1  0.835468  0.027218  0.424643  1
  O  O37  1  0.972795  0.164524  0.075329  1
  O  O38  1  0.527205  0.335476  0.075329  1
  O  O39  1  0.007607  0.315196  0.372881  1
  O  O40  1  0.335475  0.972792  0.075332  1
  O  O41  1  0.507607  0.815196  0.627119  1
  O  O42  1  0.184825  0.492364  0.872903  1
  O  O43  1  0.684803  0.507613  0.627119  1
  O  O44  1  0.815197  0.992387  0.627119  1
  O  O45  1  0.007639  0.184825  0.872901  1
  O  O46  1  0.492361  0.315175  0.872901  1
  O  O47  1  0.315175  0.007636  0.872903  1
  O  O48  1  0.434128  0.934123  0.250010  1
  O  O49  1  0.565875  0.434128  0.250010  1
  O  O50  1  0.934125  0.065873  0.250010  1
  O  O51  1  0.065873  0.565877  0.250010  1
  O  O52  1  0.565872  0.065878  0.749990  1
  O  O53  1  0.434125  0.565872  0.749990  1
  O  O54  1  0.065876  0.934128  0.749990  1
  O  O55  1  0.934128  0.434123  0.749990  1
  O  O56  1  0.684825  0.992364  0.127097  1
  O  O57  1  0.507639  0.684825  0.127099  1
  O  O58  1  0.992361  0.815175  0.127099  1
  O  O59  1  0.184803  0.007613  0.372881  1
  O  O60  1  0.315197  0.492387  0.372881  1
  O  O61  1  0.815175  0.507636  0.127097  1
  O  O62  1  0.492393  0.184804  0.372881  1
  O  O63  1  0.992393  0.684804  0.627119  1
