# generated using pymatgen
data_Mg2TiSbO6
_symmetry_space_group_name_H-M   'P 1'
_cell_length_a   5.25434638
_cell_length_b   5.41898535
_cell_length_c   7.77176312
_cell_angle_alpha   90.00000000
_cell_angle_beta   90.00000000
_cell_angle_gamma   91.41686526
_symmetry_Int_Tables_number   1
_chemical_formula_structural   Mg2TiSbO6
_chemical_formula_sum   'Mg4 Ti2 Sb2 O12'
_cell_volume   221.21951033
_cell_formula_units_Z   2
loop_
 _symmetry_equiv_pos_site_id
 _symmetry_equiv_pos_as_xyz
  1  'x, y, z'
loop_
 _atom_site_type_symbol
 _atom_site_label
 _atom_site_symmetry_multiplicity
 _atom_site_fract_x
 _atom_site_fract_y
 _atom_site_fract_z
 _atom_site_occupancy
  Mg  Mg0  1  0.512844  0.562508  0.750000  1
  Mg  Mg1  1  0.487156  0.437492  0.250000  1
  Mg  Mg2  1  0.005062  0.037598  0.750000  1
  Mg  Mg3  1  0.994938  0.962402  0.250000  1
  Ti  Ti4  1  0.500000  0.000000  0.500000  1
  Ti  Ti5  1  0.500000  0.000000  0.000000  1
  Sb  Sb6  1  0.000000  0.500000  0.500000  1
  Sb  Sb7  1  0.000000  0.500000  0.000000  1
  O  O8  1  0.338107  0.685144  0.429485  1
  O  O9  1  0.187305  0.174519  0.071608  1
  O  O10  1  0.661893  0.314856  0.929485  1
  O  O11  1  0.812695  0.825481  0.571608  1
  O  O12  1  0.187305  0.174519  0.428392  1
  O  O13  1  0.812695  0.825481  0.928392  1
  O  O14  1  0.867758  0.576388  0.250000  1
  O  O15  1  0.338107  0.685144  0.070515  1
  O  O16  1  0.370912  0.926778  0.750000  1
  O  O17  1  0.661893  0.314856  0.570515  1
  O  O18  1  0.132242  0.423612  0.750000  1
  O  O19  1  0.629088  0.073222  0.250000  1
