# generated using pymatgen
data_MgTi2O5
_symmetry_space_group_name_H-M   'P 1'
_cell_length_a   3.72952563
_cell_length_b   5.40853984
_cell_length_c   11.48057740
_cell_angle_alpha   90.00000000
_cell_angle_beta   90.00000000
_cell_angle_gamma   110.16843946
_symmetry_Int_Tables_number   1
_chemical_formula_structural   MgTi2O5
_chemical_formula_sum   'Mg2 Ti4 O10'
_cell_volume   217.37838154
_cell_formula_units_Z   2
loop_
 _symmetry_equiv_pos_site_id
 _symmetry_equiv_pos_as_xyz
  1  'x, y, z'
loop_
 _atom_site_type_symbol
 _atom_site_label
 _atom_site_symmetry_multiplicity
 _atom_site_fract_x
 _atom_site_fract_y
 _atom_site_fract_z
 _atom_site_occupancy
  Mg  Mg0  1  0.899089  0.798176  0.750000  1
  Mg  Mg1  1  0.100912  0.201825  0.250000  1
  Ti  Ti2  1  0.204032  0.408062  0.598689  1
  Ti  Ti3  1  0.795969  0.591939  0.401310  1
  Ti  Ti4  1  0.795969  0.591939  0.098690  1
  Ti  Ti5  1  0.204032  0.408062  0.901311  1
  O  O6  1  0.698879  0.397759  0.250000  1
  O  O7  1  0.301122  0.602242  0.750000  1
  O  O8  1  0.237794  0.475584  0.076770  1
  O  O9  1  0.762210  0.524417  0.923230  1
  O  O10  1  0.762210  0.524417  0.576770  1
  O  O11  1  0.237794  0.475584  0.423229  1
  O  O12  1  0.041405  0.082809  0.629943  1
  O  O13  1  0.958595  0.917190  0.370057  1
  O  O14  1  0.041405  0.082809  0.870057  1
  O  O15  1  0.958595  0.917190  0.129944  1
