# generated using pymatgen
data_CaBiMoO5
_symmetry_space_group_name_H-M   'P 1'
_cell_length_a   5.82108232
_cell_length_b   8.67934547
_cell_length_c   12.05354875
_cell_angle_alpha   90.00000000
_cell_angle_beta   90.00000000
_cell_angle_gamma   108.43851605
_symmetry_Int_Tables_number   1
_chemical_formula_structural   CaBiMoO5
_chemical_formula_sum   'Ca4 Bi4 Mo4 O20'
_cell_volume   577.72064262
_cell_formula_units_Z   4
loop_
 _symmetry_equiv_pos_site_id
 _symmetry_equiv_pos_as_xyz
  1  'x, y, z'
loop_
 _atom_site_type_symbol
 _atom_site_label
 _atom_site_symmetry_multiplicity
 _atom_site_fract_x
 _atom_site_fract_y
 _atom_site_fract_z
 _atom_site_occupancy
  Ca  Ca0  1  0.623003  0.183131  0.915229  1
  Ca  Ca1  1  0.376997  0.816869  0.084771  1
  Ca  Ca2  1  0.876997  0.316869  0.415229  1
  Ca  Ca3  1  0.123003  0.683131  0.584771  1
  Bi  Bi4  1  0.112352  0.144487  0.101989  1
  Bi  Bi5  1  0.887648  0.855513  0.898011  1
  Bi  Bi6  1  0.612352  0.644487  0.398011  1
  Bi  Bi7  1  0.387648  0.355513  0.601989  1
  Mo  Mo8  1  0.791771  0.975738  0.639005  1
  Mo  Mo9  1  0.208229  0.024262  0.360995  1
  Mo  Mo10  1  0.708229  0.524262  0.139005  1
  Mo  Mo11  1  0.291771  0.475738  0.860995  1
  O  O12  1  0.541885  0.328109  0.073498  1
  O  O13  1  0.040348  0.330701  0.932965  1
  O  O14  1  0.494922  0.632236  0.191568  1
  O  O15  1  0.740169  0.512245  0.528104  1
  O  O16  1  0.784474  0.492874  0.290527  1
  O  O17  1  0.284474  0.992874  0.209473  1
  O  O18  1  0.540348  0.830701  0.567035  1
  O  O19  1  0.459652  0.169299  0.432965  1
  O  O20  1  0.259831  0.487755  0.471896  1
  O  O21  1  0.958115  0.171890  0.573498  1
  O  O22  1  0.215526  0.507126  0.709473  1
  O  O23  1  0.458115  0.671890  0.926502  1
  O  O24  1  0.041885  0.828110  0.426502  1
  O  O25  1  0.715526  0.007126  0.790527  1
  O  O26  1  0.759831  0.987755  0.028104  1
  O  O27  1  0.240169  0.012245  0.971896  1
  O  O28  1  0.505078  0.367764  0.808432  1
  O  O29  1  0.959652  0.669299  0.067035  1
  O  O30  1  0.005078  0.867764  0.691568  1
  O  O31  1  0.994922  0.132236  0.308432  1
