# generated using pymatgen
data_BaMgNiF7
_symmetry_space_group_name_H-M   'P 1'
_cell_length_a   5.61792944
_cell_length_b   9.61638707
_cell_length_c   9.91852474
_cell_angle_alpha   90.00000000
_cell_angle_beta   90.00000000
_cell_angle_gamma   93.15822669
_symmetry_Int_Tables_number   1
_chemical_formula_structural   BaMgNiF7
_chemical_formula_sum   'Ba4 Mg4 Ni4 F28'
_cell_volume   535.02637068
_cell_formula_units_Z   4
loop_
 _symmetry_equiv_pos_site_id
 _symmetry_equiv_pos_as_xyz
  1  'x, y, z'
loop_
 _atom_site_type_symbol
 _atom_site_label
 _atom_site_symmetry_multiplicity
 _atom_site_fract_x
 _atom_site_fract_y
 _atom_site_fract_z
 _atom_site_occupancy
  Ba  Ba0  1  0.263716  0.500807  0.319035  1
  Ba  Ba1  1  0.736284  0.999193  0.819035  1
  Ba  Ba2  1  0.736284  0.499193  0.680965  1
  Ba  Ba3  1  0.263716  0.000807  0.180965  1
  Mg  Mg4  1  0.698301  0.811086  0.396718  1
  Mg  Mg5  1  0.301699  0.688914  0.896718  1
  Mg  Mg6  1  0.698301  0.311086  0.103282  1
  Mg  Mg7  1  0.301699  0.188914  0.603282  1
  Ni  Ni8  1  0.194416  0.811385  0.613131  1
  Ni  Ni9  1  0.805584  0.188615  0.386870  1
  Ni  Ni10  1  0.194416  0.311385  0.886869  1
  Ni  Ni11  1  0.805584  0.688615  0.113131  1
  F  F12  1  0.108827  0.126742  0.446802  1
  F  F13  1  0.371598  0.366803  0.047137  1
  F  F14  1  0.469186  0.749873  0.711399  1
  F  F15  1  0.530814  0.250127  0.288601  1
  F  F16  1  0.882929  0.363956  0.455498  1
  F  F17  1  0.256050  0.495087  0.813008  1
  F  F18  1  0.024330  0.751174  0.779379  1
  F  F19  1  0.117071  0.136044  0.955498  1
  F  F20  1  0.371598  0.866803  0.452863  1
  F  F21  1  0.530814  0.750127  0.211399  1
  F  F22  1  0.108827  0.626742  0.053198  1
  F  F23  1  0.891173  0.873258  0.553198  1
  F  F24  1  0.975670  0.748826  0.279379  1
  F  F25  1  0.378922  0.876182  0.957072  1
  F  F26  1  0.117071  0.636044  0.544502  1
  F  F27  1  0.882929  0.863956  0.044502  1
  F  F28  1  0.975670  0.248826  0.220621  1
  F  F29  1  0.891173  0.373258  0.946802  1
  F  F30  1  0.621078  0.623818  0.457072  1
  F  F31  1  0.628402  0.633197  0.952863  1
  F  F32  1  0.621078  0.123818  0.042928  1
  F  F33  1  0.024330  0.251174  0.720621  1
  F  F34  1  0.378922  0.376182  0.542928  1
  F  F35  1  0.743950  0.004913  0.313008  1
  F  F36  1  0.743950  0.504913  0.186992  1
  F  F37  1  0.256050  0.995087  0.686992  1
  F  F38  1  0.628402  0.133197  0.547137  1
  F  F39  1  0.469186  0.249873  0.788601  1
