# generated using pymatgen
data_TiSb(PO4)3
_symmetry_space_group_name_H-M   'P 1'
_cell_length_a   8.82512841
_cell_length_b   8.82512665
_cell_length_c   8.82512673
_cell_angle_alpha   58.61428490
_cell_angle_beta   58.61428745
_cell_angle_gamma   58.61429290
_symmetry_Int_Tables_number   1
_chemical_formula_structural   TiSb(PO4)3
_chemical_formula_sum   'Ti2 Sb2 P6 O24'
_cell_volume   470.61668190
_cell_formula_units_Z   2
loop_
 _symmetry_equiv_pos_site_id
 _symmetry_equiv_pos_as_xyz
  1  'x, y, z'
loop_
 _atom_site_type_symbol
 _atom_site_label
 _atom_site_symmetry_multiplicity
 _atom_site_fract_x
 _atom_site_fract_y
 _atom_site_fract_z
 _atom_site_occupancy
  Ti  Ti0  1  0.138359  0.138359  0.138359  1
  Ti  Ti1  1  0.638359  0.638359  0.638359  1
  Sb  Sb2  1  0.357045  0.357045  0.357045  1
  Sb  Sb3  1  0.857045  0.857045  0.857045  1
  P  P4  1  0.035351  0.465128  0.745480  1
  P  P5  1  0.465128  0.745480  0.035351  1
  P  P6  1  0.745480  0.035351  0.465128  1
  P  P7  1  0.245480  0.965128  0.535351  1
  P  P8  1  0.535351  0.245480  0.965128  1
  P  P9  1  0.965128  0.535351  0.245480  1
  O  O10  1  0.136711  0.516855  0.271644  1
  O  O11  1  0.271644  0.136711  0.516855  1
  O  O12  1  0.063503  0.286803  0.918146  1
  O  O13  1  0.516855  0.271644  0.136711  1
  O  O14  1  0.016855  0.636711  0.771644  1
  O  O15  1  0.220850  0.446477  0.572266  1
  O  O16  1  0.286803  0.918146  0.063503  1
  O  O17  1  0.446477  0.572266  0.220850  1
  O  O18  1  0.209286  0.000664  0.367171  1
  O  O19  1  0.572266  0.220850  0.446477  1
  O  O20  1  0.072266  0.946477  0.720850  1
  O  O21  1  0.367171  0.209286  0.000664  1
  O  O22  1  0.636711  0.771644  0.016855  1
  O  O23  1  0.918146  0.063503  0.286803  1
  O  O24  1  0.418146  0.786803  0.563503  1
  O  O25  1  0.771644  0.016855  0.636711  1
  O  O26  1  0.563503  0.418146  0.786803  1
  O  O27  1  0.720850  0.072266  0.946477  1
  O  O28  1  0.786803  0.563503  0.418146  1
  O  O29  1  0.000664  0.367171  0.209286  1
  O  O30  1  0.500664  0.709286  0.867171  1
  O  O31  1  0.946477  0.720850  0.072266  1
  O  O32  1  0.709286  0.867171  0.500664  1
  O  O33  1  0.867171  0.500664  0.709286  1
