# generated using pymatgen
data_Mo3O8
_symmetry_space_group_name_H-M   'P 1'
_cell_length_a   6.14638565
_cell_length_b   6.14638534
_cell_length_c   9.87561942
_cell_angle_alpha   90.00000000
_cell_angle_beta   90.00000000
_cell_angle_gamma   120.00000174
_symmetry_Int_Tables_number   1
_chemical_formula_structural   Mo3O8
_chemical_formula_sum   'Mo6 O16'
_cell_volume   323.09821556
_cell_formula_units_Z   2
loop_
 _symmetry_equiv_pos_site_id
 _symmetry_equiv_pos_as_xyz
  1  'x, y, z'
loop_
 _atom_site_type_symbol
 _atom_site_label
 _atom_site_symmetry_multiplicity
 _atom_site_fract_x
 _atom_site_fract_y
 _atom_site_fract_z
 _atom_site_occupancy
  Mo  Mo0  1  0.663151  0.831576  0.248453  1
  Mo  Mo1  1  0.831577  0.168425  0.748453  1
  Mo  Mo2  1  0.168425  0.336850  0.248453  1
  Mo  Mo3  1  0.831575  0.663151  0.748453  1
  Mo  Mo4  1  0.336850  0.168425  0.748453  1
  Mo  Mo5  1  0.168425  0.831576  0.248453  1
  O  O6  1  0.850614  0.149387  0.152084  1
  O  O7  1  0.701227  0.850614  0.652083  1
  O  O8  1  0.149387  0.298774  0.652083  1
  O  O9  1  0.850613  0.701227  0.152084  1
  O  O10  1  0.298773  0.149387  0.152084  1
  O  O11  1  0.149387  0.850614  0.652083  1
  O  O12  1  0.520136  0.479863  0.853200  1
  O  O13  1  0.040273  0.520136  0.353199  1
  O  O14  1  0.479864  0.959728  0.353199  1
  O  O15  1  0.520136  0.040273  0.853200  1
  O  O16  1  0.000000  0.000000  0.358738  1
  O  O17  1  0.000000  0.000000  0.858738  1
  O  O18  1  0.333333  0.666666  0.135196  1
  O  O19  1  0.959726  0.479863  0.853200  1
  O  O20  1  0.479863  0.520136  0.353199  1
  O  O21  1  0.666667  0.333334  0.635196  1
