# generated using pymatgen
data_Ca6Mn3Al2O15
_symmetry_space_group_name_H-M   'P 1'
_cell_length_a   16.24451631
_cell_length_b   5.57704282
_cell_length_c   8.23304948
_cell_angle_alpha   109.79988824
_cell_angle_beta   108.87158858
_cell_angle_gamma   89.99959835
_symmetry_Int_Tables_number   1
_chemical_formula_structural   Ca6Mn3Al2O15
_chemical_formula_sum   'Ca12 Mn6 Al4 O30'
_cell_volume   659.01768151
_cell_formula_units_Z   2
loop_
 _symmetry_equiv_pos_site_id
 _symmetry_equiv_pos_as_xyz
  1  'x, y, z'
loop_
 _atom_site_type_symbol
 _atom_site_label
 _atom_site_symmetry_multiplicity
 _atom_site_fract_x
 _atom_site_fract_y
 _atom_site_fract_z
 _atom_site_occupancy
  Ca  Ca0  1  0.027310  0.649244  0.228904  1
  Ca  Ca1  1  0.379363  0.616843  0.242958  1
  Ca  Ca2  1  0.712283  0.639219  0.223308  1
  Ca  Ca3  1  0.118597  0.916211  0.768183  1
  Ca  Ca4  1  0.466026  0.870920  0.761822  1
  Ca  Ca5  1  0.804460  0.924552  0.775957  1
  Ca  Ca6  1  0.304377  0.351450  0.775974  1
  Ca  Ca7  1  0.618655  0.351833  0.768034  1
  Ca  Ca8  1  0.966018  0.390971  0.762026  1
  Ca  Ca9  1  0.212521  0.084196  0.223409  1
  Ca  Ca10  1  0.527275  0.079555  0.228769  1
  Ca  Ca11  1  0.879282  0.126138  0.243042  1
  Mn  Mn12  1  0.164159  0.503937  0.003785  1
  Mn  Mn13  1  0.499525  0.485917  0.006621  1
  Mn  Mn14  1  0.826858  0.510162  0.988368  1
  Mn  Mn15  1  0.326856  0.978206  0.988139  1
  Mn  Mn16  1  0.664122  0.999912  0.003650  1
  Mn  Mn17  1  0.999558  0.020889  0.006973  1
  Al  Al18  1  0.103641  0.336696  0.503896  1
  Al  Al19  1  0.758570  0.325975  0.498052  1
  Al  Al20  1  0.258570  0.672008  0.498043  1
  Al  Al21  1  0.603650  0.667065  0.503829  1
  O  O22  1  0.214427  0.372300  0.500359  1
  O  O23  1  0.565717  0.375403  0.499229  1
  O  O24  1  0.865925  0.349926  0.502578  1
  O  O25  1  0.065757  0.623831  0.499332  1
  O  O26  1  0.365907  0.652482  0.502395  1
  O  O27  1  0.714436  0.628022  0.500403  1
  O  O28  1  0.202527  0.701161  0.275213  1
  O  O29  1  0.537833  0.708507  0.295339  1
  O  O30  1  0.863290  0.695717  0.234325  1
  O  O31  1  0.109562  0.307163  0.722333  1
  O  O32  1  0.459561  0.302074  0.761272  1
  O  O33  1  0.767053  0.287638  0.709809  1
  O  O34  1  0.037753  0.086846  0.295483  1
  O  O35  1  0.363432  0.038604  0.234182  1
  O  O36  1  0.702470  0.074150  0.275166  1
  O  O37  1  0.267070  0.922126  0.709742  1
  O  O38  1  0.609528  0.915054  0.722213  1
  O  O39  1  0.959604  0.959261  0.761545  1
  O  O40  1  0.077901  0.748199  0.980952  1
  O  O41  1  0.407362  0.724922  0.955279  1
  O  O42  1  0.735398  0.726282  0.946318  1
  O  O43  1  0.091733  0.276144  0.053600  1
  O  O44  1  0.418786  0.257319  0.033465  1
  O  O45  1  0.753096  0.254468  0.028038  1
  O  O46  1  0.253163  0.273671  0.028010  1
  O  O47  1  0.591640  0.277195  0.053295  1
  O  O48  1  0.918776  0.276361  0.033665  1
  O  O49  1  0.235396  0.720202  0.946325  1
  O  O50  1  0.577912  0.732523  0.980798  1
  O  O51  1  0.907386  0.730551  0.955601  1
