# generated using pymatgen
data_Ca(BiO2)2
_symmetry_space_group_name_H-M   'P 1'
_cell_length_a   3.41437217
_cell_length_b   10.25341509
_cell_length_c   12.54953561
_cell_angle_alpha   90.00020137
_cell_angle_beta   89.99987778
_cell_angle_gamma   89.99993995
_symmetry_Int_Tables_number   1
_chemical_formula_structural   Ca(BiO2)2
_chemical_formula_sum   'Ca4 Bi8 O16'
_cell_volume   439.34638007
_cell_formula_units_Z   4
loop_
 _symmetry_equiv_pos_site_id
 _symmetry_equiv_pos_as_xyz
  1  'x, y, z'
loop_
 _atom_site_type_symbol
 _atom_site_label
 _atom_site_symmetry_multiplicity
 _atom_site_fract_x
 _atom_site_fract_y
 _atom_site_fract_z
 _atom_site_occupancy
  Ca  Ca0  1  0.750000  0.239700  0.348947  1
  Ca  Ca1  1  0.249998  0.760278  0.651063  1
  Ca  Ca2  1  0.749999  0.739711  0.151063  1
  Ca  Ca3  1  0.250001  0.260280  0.848944  1
  Bi  Bi4  1  0.249999  0.416441  0.108601  1
  Bi  Bi5  1  0.749999  0.083556  0.608607  1
  Bi  Bi6  1  0.249998  0.916429  0.391396  1
  Bi  Bi7  1  0.750000  0.583571  0.891392  1
  Bi  Bi8  1  0.750000  0.570950  0.378775  1
  Bi  Bi9  1  0.249995  0.429035  0.621226  1
  Bi  Bi10  1  0.749995  0.070962  0.121227  1
  Bi  Bi11  1  0.250010  0.929036  0.878778  1
  O  O12  1  0.250002  0.917769  0.092869  1
  O  O13  1  0.749998  0.082231  0.907136  1
  O  O14  1  0.249999  0.417759  0.407126  1
  O  O15  1  0.750000  0.582227  0.592853  1
  O  O16  1  0.249999  0.017381  0.715815  1
  O  O17  1  0.749999  0.982610  0.284193  1
  O  O18  1  0.250000  0.517430  0.784171  1
  O  O19  1  0.749999  0.482628  0.215799  1
  O  O20  1  0.249999  0.628330  0.040978  1
  O  O21  1  0.750002  0.371680  0.959011  1
  O  O22  1  0.249998  0.128321  0.459030  1
  O  O23  1  0.749998  0.871672  0.540981  1
  O  O24  1  0.749999  0.791872  0.791005  1
  O  O25  1  0.250000  0.208132  0.208999  1
  O  O26  1  0.249998  0.708133  0.291009  1
  O  O27  1  0.750001  0.291875  0.709005  1
