# generated using pymatgen
data_CaSi4WO10
_symmetry_space_group_name_H-M   'P 1'
_cell_length_a   7.59949135
_cell_length_b   7.59949135
_cell_length_c   15.52793819
_cell_angle_alpha   90.00000000
_cell_angle_beta   90.00000000
_cell_angle_gamma   90.00000000
_symmetry_Int_Tables_number   1
_chemical_formula_structural   CaSi4WO10
_chemical_formula_sum   'Ca4 Si16 W4 O40'
_cell_volume   896.77365993
_cell_formula_units_Z   4
loop_
 _symmetry_equiv_pos_site_id
 _symmetry_equiv_pos_as_xyz
  1  'x, y, z'
loop_
 _atom_site_type_symbol
 _atom_site_label
 _atom_site_symmetry_multiplicity
 _atom_site_fract_x
 _atom_site_fract_y
 _atom_site_fract_z
 _atom_site_occupancy
  Ca  Ca0  1  0.250000  0.750000  0.500000  1
  Ca  Ca1  1  0.750000  0.250000  0.500000  1
  Ca  Ca2  1  0.750000  0.250000  0.000000  1
  Ca  Ca3  1  0.250000  0.750000  0.000000  1
  Si  Si4  1  0.911733  0.501949  0.650309  1
  Si  Si5  1  0.588267  0.998051  0.650309  1
  Si  Si6  1  0.001949  0.411733  0.849691  1
  Si  Si7  1  0.501949  0.588267  0.650309  1
  Si  Si8  1  0.998051  0.911733  0.650309  1
  Si  Si9  1  0.088267  0.001949  0.849691  1
  Si  Si10  1  0.411733  0.498051  0.849691  1
  Si  Si11  1  0.498051  0.088267  0.849691  1
  Si  Si12  1  0.088267  0.498051  0.349691  1
  Si  Si13  1  0.411733  0.001949  0.349691  1
  Si  Si14  1  0.998051  0.588267  0.150309  1
  Si  Si15  1  0.498051  0.411733  0.349691  1
  Si  Si16  1  0.001949  0.088267  0.349691  1
  Si  Si17  1  0.911733  0.998051  0.150309  1
  Si  Si18  1  0.588267  0.501949  0.150309  1
  Si  Si19  1  0.501949  0.911733  0.150309  1
  W  W20  1  0.250000  0.250000  0.582173  1
  W  W21  1  0.750000  0.750000  0.917827  1
  W  W22  1  0.750000  0.750000  0.417827  1
  W  W23  1  0.250000  0.250000  0.082173  1
  O  O24  1  0.985236  0.359597  0.582290  1
  O  O25  1  0.514764  0.140403  0.582290  1
  O  O26  1  0.859597  0.485236  0.917710  1
  O  O27  1  0.359597  0.514764  0.582290  1
  O  O28  1  0.140403  0.985236  0.582290  1
  O  O29  1  0.014764  0.859597  0.917710  1
  O  O30  1  0.485236  0.640403  0.917710  1
  O  O31  1  0.640403  0.014764  0.917710  1
  O  O32  1  0.014764  0.640403  0.417710  1
  O  O33  1  0.485236  0.859597  0.417710  1
  O  O34  1  0.140403  0.514764  0.082290  1
  O  O35  1  0.640403  0.485236  0.417710  1
  O  O36  1  0.859597  0.014764  0.417710  1
  O  O37  1  0.985236  0.140403  0.082290  1
  O  O38  1  0.514764  0.359597  0.082290  1
  O  O39  1  0.005858  0.301780  0.367713  1
  O  O40  1  0.359597  0.985236  0.082290  1
  O  O41  1  0.505858  0.801780  0.632287  1
  O  O42  1  0.198220  0.494142  0.867713  1
  O  O43  1  0.698220  0.505858  0.632287  1
  O  O44  1  0.801780  0.994142  0.632287  1
  O  O45  1  0.005858  0.198220  0.867713  1
  O  O46  1  0.494142  0.301780  0.867713  1
  O  O47  1  0.301780  0.005858  0.867713  1
  O  O48  1  0.448777  0.948777  0.250000  1
  O  O49  1  0.551223  0.448777  0.250000  1
  O  O50  1  0.948777  0.051224  0.250000  1
  O  O51  1  0.051224  0.551223  0.250000  1
  O  O52  1  0.551223  0.051224  0.750000  1
  O  O53  1  0.448777  0.551223  0.750000  1
  O  O54  1  0.051224  0.948777  0.750000  1
  O  O55  1  0.948777  0.448777  0.750000  1
  O  O56  1  0.698220  0.994142  0.132287  1
  O  O57  1  0.505858  0.698220  0.132287  1
  O  O58  1  0.994142  0.801780  0.132287  1
  O  O59  1  0.198220  0.005858  0.367713  1
  O  O60  1  0.301780  0.494142  0.367713  1
  O  O61  1  0.801780  0.505858  0.132287  1
  O  O62  1  0.494142  0.198220  0.367713  1
  O  O63  1  0.994142  0.698220  0.632287  1
