# generated using pymatgen
data_Ca2CoSbO6
_symmetry_space_group_name_H-M   'P 1'
_cell_length_a   5.50576477
_cell_length_b   5.66532080
_cell_length_c   7.68707106
_cell_angle_alpha   90.00000000
_cell_angle_beta   90.00000000
_cell_angle_gamma   89.91674932
_symmetry_Int_Tables_number   1
_chemical_formula_structural   Ca2CoSbO6
_chemical_formula_sum   'Ca4 Co2 Sb2 O12'
_cell_volume   239.77428044
_cell_formula_units_Z   2
loop_
 _symmetry_equiv_pos_site_id
 _symmetry_equiv_pos_as_xyz
  1  'x, y, z'
loop_
 _atom_site_type_symbol
 _atom_site_label
 _atom_site_symmetry_multiplicity
 _atom_site_fract_x
 _atom_site_fract_y
 _atom_site_fract_z
 _atom_site_occupancy
  Ca  Ca0  1  0.518987  0.566443  0.750000  1
  Ca  Ca1  1  0.481013  0.433557  0.250000  1
  Ca  Ca2  1  0.997679  0.043819  0.750000  1
  Ca  Ca3  1  0.002321  0.956181  0.250000  1
  Co  Co4  1  0.500000  0.000000  0.500000  1
  Co  Co5  1  0.500000  0.000000  0.000000  1
  Sb  Sb6  1  0.000000  0.500000  0.500000  1
  Sb  Sb7  1  0.000000  0.500000  0.000000  1
  O  O8  1  0.294197  0.693506  0.452785  1
  O  O9  1  0.189966  0.206343  0.049448  1
  O  O10  1  0.705803  0.306494  0.952785  1
  O  O11  1  0.810034  0.793657  0.549448  1
  O  O12  1  0.189966  0.206343  0.450552  1
  O  O13  1  0.810034  0.793657  0.950552  1
  O  O14  1  0.892297  0.536353  0.250000  1
  O  O15  1  0.294197  0.693506  0.047215  1
  O  O16  1  0.424229  0.975818  0.750000  1
  O  O17  1  0.705803  0.306494  0.547215  1
  O  O18  1  0.107703  0.463647  0.750000  1
  O  O19  1  0.575771  0.024182  0.250000  1
