# generated using pymatgen
data_LaFeSbO6
_symmetry_space_group_name_H-M   'P 1'
_cell_length_a   5.62067842
_cell_length_b   5.60015265
_cell_length_c   7.89252238
_cell_angle_alpha   90.12047302
_cell_angle_beta   90.00000000
_cell_angle_gamma   90.00000000
_symmetry_Int_Tables_number   1
_chemical_formula_structural   LaFeSbO6
_chemical_formula_sum   'La2 Fe2 Sb2 O12'
_cell_volume   248.42967200
_cell_formula_units_Z   2
loop_
 _symmetry_equiv_pos_site_id
 _symmetry_equiv_pos_as_xyz
  1  'x, y, z'
loop_
 _atom_site_type_symbol
 _atom_site_label
 _atom_site_symmetry_multiplicity
 _atom_site_fract_x
 _atom_site_fract_y
 _atom_site_fract_z
 _atom_site_occupancy
  La  La0  1  0.037368  0.991363  0.249982  1
  La  La1  1  0.462632  0.491363  0.749982  1
  Fe  Fe2  1  0.513800  0.998270  0.997206  1
  Fe  Fe3  1  0.986200  0.498270  0.497206  1
  Sb  Sb4  1  0.512213  0.996777  0.502773  1
  Sb  Sb5  1  0.987787  0.496777  0.002773  1
  O  O6  1  0.017794  0.544162  0.751525  1
  O  O7  1  0.229914  0.234115  0.973989  1
  O  O8  1  0.238113  0.230380  0.525121  1
  O  O9  1  0.261887  0.730380  0.025121  1
  O  O10  1  0.270086  0.734115  0.473989  1
  O  O11  1  0.482206  0.044162  0.251525  1
  O  O12  1  0.505552  0.921911  0.749156  1
  O  O13  1  0.713224  0.284542  0.539272  1
  O  O14  1  0.710968  0.288081  0.961163  1
  O  O15  1  0.789032  0.788081  0.461163  1
  O  O16  1  0.786776  0.784543  0.039272  1
  O  O17  1  0.994448  0.421911  0.249156  1
