# generated using pymatgen
data_Zn(SnO2)2
_symmetry_space_group_name_H-M   'P 1'
_cell_length_a   3.20820856
_cell_length_b   5.57568803
_cell_length_c   11.01140174
_cell_angle_alpha   90.00000000
_cell_angle_beta   90.00000000
_cell_angle_gamma   106.72008128
_symmetry_Int_Tables_number   1
_chemical_formula_structural   Zn(SnO2)2
_chemical_formula_sum   'Zn2 Sn4 O8'
_cell_volume   188.64400320
_cell_formula_units_Z   2
loop_
 _symmetry_equiv_pos_site_id
 _symmetry_equiv_pos_as_xyz
  1  'x, y, z'
loop_
 _atom_site_type_symbol
 _atom_site_label
 _atom_site_symmetry_multiplicity
 _atom_site_fract_x
 _atom_site_fract_y
 _atom_site_fract_z
 _atom_site_occupancy
  Zn  Zn0  1  0.399087  0.798174  0.750000  1
  Zn  Zn1  1  0.600913  0.201826  0.250000  1
  Sn  Sn2  1  0.867500  0.735003  0.076606  1
  Sn  Sn3  1  0.132500  0.264997  0.923394  1
  Sn  Sn4  1  0.867500  0.735003  0.423394  1
  Sn  Sn5  1  0.132500  0.264997  0.576606  1
  O  O6  1  0.227902  0.455805  0.384943  1
  O  O7  1  0.772098  0.544195  0.615057  1
  O  O8  1  0.772098  0.544195  0.884943  1
  O  O9  1  0.227902  0.455805  0.115057  1
  O  O10  1  0.980788  0.961578  0.250000  1
  O  O11  1  0.019212  0.038422  0.750000  1
  O  O12  1  0.500000  0.000000  -0.000000  1
  O  O13  1  0.500000  0.000000  0.500000  1
