# generated using pymatgen
data_Ca(CrS2)4
_symmetry_space_group_name_H-M   'P 1'
_cell_length_a   7.07666616
_cell_length_b   7.19540941
_cell_length_c   7.19541023
_cell_angle_alpha   60.00000101
_cell_angle_beta   59.44336375
_cell_angle_gamma   59.44335802
_symmetry_Int_Tables_number   1
_chemical_formula_structural   Ca(CrS2)4
_chemical_formula_sum   'Ca1 Cr4 S8'
_cell_volume   256.87337942
_cell_formula_units_Z   1
loop_
 _symmetry_equiv_pos_site_id
 _symmetry_equiv_pos_as_xyz
  1  'x, y, z'
loop_
 _atom_site_type_symbol
 _atom_site_label
 _atom_site_symmetry_multiplicity
 _atom_site_fract_x
 _atom_site_fract_y
 _atom_site_fract_z
 _atom_site_occupancy
  Ca  Ca0  1  0.500000  0.000000  0.000000  1
  Cr  Cr1  1  0.000000  0.500000  0.500000  1
  Cr  Cr2  1  0.500000  0.500000  0.000000  1
  Cr  Cr3  1  0.500000  0.500000  0.500000  1
  Cr  Cr4  1  0.500000  0.000000  0.500000  1
  S  S5  1  0.255525  0.266001  0.266001  1
  S  S6  1  0.255525  0.266001  0.712473  1
  S  S7  1  0.255525  0.712473  0.266001  1
  S  S8  1  0.713031  0.262323  0.262323  1
  S  S9  1  0.286969  0.737677  0.737677  1
  S  S10  1  0.744475  0.733999  0.287527  1
  S  S11  1  0.744475  0.287527  0.733999  1
  S  S12  1  0.744475  0.733999  0.733999  1
