# generated using pymatgen
data_Si2SbO6
_symmetry_space_group_name_H-M   'P 1'
_cell_length_a   5.20883269
_cell_length_b   10.28523241
_cell_length_c   19.74702772
_cell_angle_alpha   89.99749558
_cell_angle_beta   90.00880703
_cell_angle_gamma   90.00059832
_symmetry_Int_Tables_number   1
_chemical_formula_structural   Si2SbO6
_chemical_formula_sum   'Si16 Sb8 O48'
_cell_volume   1057.92833210
_cell_formula_units_Z   8
loop_
 _symmetry_equiv_pos_site_id
 _symmetry_equiv_pos_as_xyz
  1  'x, y, z'
loop_
 _atom_site_type_symbol
 _atom_site_label
 _atom_site_symmetry_multiplicity
 _atom_site_fract_x
 _atom_site_fract_y
 _atom_site_fract_z
 _atom_site_occupancy
  Si  Si0  1  0.592151  0.665288  0.238075  1
  Si  Si1  1  0.752026  0.835860  0.510831  1
  Si  Si2  1  0.748132  0.835860  0.010866  1
  Si  Si3  1  0.907822  0.165155  0.761896  1
  Si  Si4  1  0.092222  0.334898  0.261933  1
  Si  Si5  1  0.407753  0.834692  0.738079  1
  Si  Si6  1  0.251993  0.664023  0.510844  1
  Si  Si7  1  0.751879  0.335947  0.989135  1
  Si  Si8  1  0.748014  0.335961  0.489163  1
  Si  Si9  1  0.907746  0.665102  0.738072  1
  Si  Si10  1  0.407809  0.334720  0.761913  1
  Si  Si11  1  0.592210  0.165307  0.261930  1
  Si  Si12  1  0.247978  0.164117  0.489180  1
  Si  Si13  1  0.092143  0.834852  0.238090  1
  Si  Si14  1  0.248176  0.664065  0.010862  1
  Si  Si15  1  0.251925  0.164159  0.989131  1
  Sb  Sb16  1  0.429010  0.003680  0.125671  1
  Sb  Sb17  1  0.571002  0.996336  0.874322  1
  Sb  Sb18  1  0.928976  0.996409  0.374353  1
  Sb  Sb19  1  0.071025  0.003569  0.625658  1
  Sb  Sb20  1  0.429113  0.503702  0.374328  1
  Sb  Sb21  1  0.570896  0.496292  0.625671  1
  Sb  Sb22  1  0.928890  0.496410  0.125651  1
  Sb  Sb23  1  0.071124  0.503588  0.874348  1
  O  O24  1  0.863694  0.532595  0.693218  1
  O  O25  1  0.285584  0.031201  0.943893  1
  O  O26  1  0.136265  0.467398  0.306800  1
  O  O27  1  0.747331  0.369747  0.070075  1
  O  O28  1  0.247543  0.130292  0.070044  1
  O  O29  1  0.978350  0.232051  0.969163  1
  O  O30  1  0.893332  0.632832  0.819224  1
  O  O31  1  0.106645  0.867141  0.319227  1
  O  O32  1  0.747386  0.869755  0.429907  1
  O  O33  1  0.893320  0.132871  0.680766  1
  O  O34  1  0.363777  0.467208  0.806801  1
  O  O35  1  0.752720  0.369774  0.570094  1
  O  O36  1  0.714450  0.968802  0.056108  1
  O  O37  1  0.393270  0.867036  0.819205  1
  O  O38  1  0.636142  0.032851  0.306845  1
  O  O39  1  0.285600  0.530955  0.556027  1
  O  O40  1  0.363829  0.967149  0.693174  1
  O  O41  1  0.189346  0.726022  0.718366  1
  O  O42  1  0.310449  0.726137  0.218392  1
  O  O43  1  0.521704  0.731844  0.030856  1
  O  O44  1  0.752507  0.869757  0.929947  1
  O  O45  1  0.606800  0.633001  0.319217  1
  O  O46  1  0.785695  0.469014  0.943951  1
  O  O47  1  0.189495  0.226056  0.781632  1
  O  O48  1  0.252618  0.130217  0.570094  1
  O  O49  1  0.606698  0.132964  0.180812  1
  O  O50  1  0.714443  0.469028  0.443969  1
  O  O51  1  0.247303  0.630216  0.429905  1
  O  O52  1  0.214311  0.531015  0.056048  1
  O  O53  1  0.689335  0.773714  0.718365  1
  O  O54  1  0.136280  0.967320  0.193218  1
  O  O55  1  0.810439  0.773971  0.218366  1
  O  O56  1  0.810623  0.273975  0.281642  1
  O  O57  1  0.785605  0.968882  0.556030  1
  O  O58  1  0.252713  0.630226  0.929919  1
  O  O59  1  0.214452  0.031098  0.443966  1
  O  O60  1  0.310636  0.226288  0.281649  1
  O  O61  1  0.021731  0.767986  0.030824  1
  O  O62  1  0.478665  0.767852  0.530814  1
  O  O63  1  0.689492  0.273850  0.781601  1
  O  O64  1  0.478377  0.268161  0.969134  1
  O  O65  1  0.521313  0.232145  0.469190  1
  O  O66  1  0.021333  0.267980  0.469170  1
  O  O67  1  0.393165  0.366991  0.680776  1
  O  O68  1  0.636213  0.532816  0.193184  1
  O  O69  1  0.978653  0.731982  0.530831  1
  O  O70  1  0.106649  0.367169  0.180791  1
  O  O71  1  0.863710  0.032670  0.806769  1
