# generated using pymatgen
data_CaHo(SbO3)2
_symmetry_space_group_name_H-M   'P 1'
_cell_length_a   5.67014118
_cell_length_b   5.98808938
_cell_length_c   8.31548266
_cell_angle_alpha   89.94520547
_cell_angle_beta   89.99793320
_cell_angle_gamma   90.05938879
_symmetry_Int_Tables_number   1
_chemical_formula_structural   CaHo(SbO3)2
_chemical_formula_sum   'Ca2 Ho2 Sb4 O12'
_cell_volume   282.33789753
_cell_formula_units_Z   2
loop_
 _symmetry_equiv_pos_site_id
 _symmetry_equiv_pos_as_xyz
  1  'x, y, z'
loop_
 _atom_site_type_symbol
 _atom_site_label
 _atom_site_symmetry_multiplicity
 _atom_site_fract_x
 _atom_site_fract_y
 _atom_site_fract_z
 _atom_site_occupancy
  Ca  Ca0  1  0.491837  0.448773  0.749758  1
  Ca  Ca1  1  0.991589  0.051564  0.250255  1
  Ho  Ho2  1  0.029261  0.933513  0.749735  1
  Ho  Ho3  1  0.528749  0.565905  0.250251  1
  Sb  Sb4  1  0.002048  0.496283  0.999769  1
  Sb  Sb5  1  0.001967  0.496323  0.500254  1
  Sb  Sb6  1  0.501918  0.003632  0.499746  1
  Sb  Sb7  1  0.502008  0.003684  0.000245  1
  O  O8  1  0.155645  0.438971  0.249478  1
  O  O9  1  0.174401  0.176445  0.930933  1
  O  O10  1  0.174001  0.176170  0.569428  1
  O  O11  1  0.298838  0.707080  0.926035  1
  O  O12  1  0.298972  0.706781  0.574361  1
  O  O13  1  0.377461  0.927321  0.249439  1
  O  O14  1  0.653988  0.060762  0.750586  1
  O  O15  1  0.672627  0.322361  0.430704  1
  O  O16  1  0.672925  0.322036  0.068933  1
  O  O17  1  0.797488  0.794327  0.074000  1
  O  O18  1  0.797738  0.794583  0.425587  1
  O  O19  1  0.876538  0.573487  0.750502  1
