# generated using pymatgen
data_Ca2FeWO6
_symmetry_space_group_name_H-M   'P 1'
_cell_length_a   5.54635758
_cell_length_b   5.68450209
_cell_length_c   7.86072563
_cell_angle_alpha   90.00000000
_cell_angle_beta   90.56882688
_cell_angle_gamma   90.00000000
_symmetry_Int_Tables_number   1
_chemical_formula_structural   Ca2FeWO6
_chemical_formula_sum   'Ca4 Fe2 W2 O12'
_cell_volume   247.82295515
_cell_formula_units_Z   2
loop_
 _symmetry_equiv_pos_site_id
 _symmetry_equiv_pos_as_xyz
  1  'x, y, z'
loop_
 _atom_site_type_symbol
 _atom_site_label
 _atom_site_symmetry_multiplicity
 _atom_site_fract_x
 _atom_site_fract_y
 _atom_site_fract_z
 _atom_site_occupancy
  Ca  Ca0  1  0.986397  0.056068  0.254432  1
  Ca  Ca1  1  0.513603  0.556069  0.245568  1
  Ca  Ca2  1  0.013604  0.943933  0.745568  1
  Ca  Ca3  1  0.486396  0.443932  0.754432  1
  Fe  Fe4  1  0.500000  0.000000  0.000000  1
  Fe  Fe5  1  0.000001  0.499999  0.500000  1
  W  W6  1  0.500000  0.000000  0.499999  1
  W  W7  1  0.000000  0.499999  0.000000  1
  O  O8  1  0.684621  0.285213  0.446868  1
  O  O9  1  0.815379  0.785214  0.053132  1
  O  O10  1  0.315378  0.714787  0.553132  1
  O  O11  1  0.184622  0.214786  0.946868  1
  O  O12  1  0.214457  0.189456  0.548441  1
  O  O13  1  0.285543  0.689455  0.951559  1
  O  O14  1  0.785544  0.810544  0.451559  1
  O  O15  1  0.714456  0.310545  0.048441  1
  O  O16  1  0.098341  0.470057  0.239356  1
  O  O17  1  0.401660  0.970058  0.260643  1
  O  O18  1  0.598341  0.029942  0.739357  1
  O  O19  1  0.901660  0.529943  0.760644  1
