# generated using pymatgen
data_YSb3Se2ClO8
_symmetry_space_group_name_H-M   'P 1'
_cell_length_a   7.55450718
_cell_length_b   7.71359881
_cell_length_c   9.61940972
_cell_angle_alpha   89.95677481
_cell_angle_beta   90.01070879
_cell_angle_gamma   90.00090867
_symmetry_Int_Tables_number   1
_chemical_formula_structural   YSb3Se2ClO8
_chemical_formula_sum   'Y2 Sb6 Se4 Cl2 O16'
_cell_volume   560.54628313
_cell_formula_units_Z   2
loop_
 _symmetry_equiv_pos_site_id
 _symmetry_equiv_pos_as_xyz
  1  'x, y, z'
loop_
 _atom_site_type_symbol
 _atom_site_label
 _atom_site_symmetry_multiplicity
 _atom_site_fract_x
 _atom_site_fract_y
 _atom_site_fract_z
 _atom_site_occupancy
  Y  Y0  1  0.249944  0.330952  0.249951  1
  Y  Y1  1  0.749933  0.669120  0.750077  1
  Sb  Sb2  1  0.500534  0.000176  0.999642  1
  Sb  Sb3  1  0.500565  0.000208  0.500378  1
  Sb  Sb4  1  0.999507  0.000126  0.999661  1
  Sb  Sb5  1  0.749939  0.128569  0.750527  1
  Sb  Sb6  1  0.249966  0.872736  0.249407  1
  Sb  Sb7  1  0.999470  0.000145  0.500365  1
  Se  Se8  1  0.750023  0.412572  0.073775  1
  Se  Se9  1  0.249982  0.587410  0.926157  1
  Se  Se10  1  0.749989  0.412598  0.426357  1
  Se  Se11  1  0.250021  0.587466  0.573692  1
  Cl  Cl12  1  0.249964  0.083339  0.749881  1
  Cl  Cl13  1  0.749991  0.916482  0.250237  1
  O  O14  1  0.250040  0.099511  0.104962  1
  O  O15  1  0.250013  0.559779  0.105537  1
  O  O16  1  0.750009  0.440630  0.605527  1
  O  O17  1  0.566032  0.279514  0.095139  1
  O  O18  1  0.434001  0.720578  0.594662  1
  O  O19  1  0.066061  0.720588  0.594629  1
  O  O20  1  0.749995  0.899524  0.895355  1
  O  O21  1  0.934023  0.279523  0.095163  1
  O  O22  1  0.933985  0.279480  0.405279  1
  O  O23  1  0.066019  0.720470  0.904906  1
  O  O24  1  0.249995  0.098705  0.394668  1
  O  O25  1  0.750046  0.900264  0.604967  1
  O  O26  1  0.433960  0.720443  0.904917  1
  O  O27  1  0.565995  0.279459  0.405261  1
  O  O28  1  0.749996  0.440217  0.894454  1
  O  O29  1  0.250004  0.559419  0.394469  1
