# generated using pymatgen
data_Ca3Ti2(GeO4)3
_symmetry_space_group_name_H-M   'P 1'
_cell_length_a   10.85736029
_cell_length_b   10.85735970
_cell_length_c   10.85735985
_cell_angle_alpha   109.47122091
_cell_angle_beta   109.47121982
_cell_angle_gamma   109.47121991
_symmetry_Int_Tables_number   1
_chemical_formula_structural   Ca3Ti2(GeO4)3
_chemical_formula_sum   'Ca12 Ti8 Ge12 O48'
_cell_volume   985.25993759
_cell_formula_units_Z   4
loop_
 _symmetry_equiv_pos_site_id
 _symmetry_equiv_pos_as_xyz
  1  'x, y, z'
loop_
 _atom_site_type_symbol
 _atom_site_label
 _atom_site_symmetry_multiplicity
 _atom_site_fract_x
 _atom_site_fract_y
 _atom_site_fract_z
 _atom_site_occupancy
  Ca  Ca0  1  0.625000  0.250000  0.875000  1
  Ca  Ca1  1  0.875000  0.750000  0.625000  1
  Ca  Ca2  1  0.750000  0.625000  0.875000  1
  Ca  Ca3  1  0.250000  0.875000  0.625000  1
  Ca  Ca4  1  0.875000  0.625000  0.250000  1
  Ca  Ca5  1  0.625000  0.875000  0.750000  1
  Ca  Ca6  1  0.375000  0.750000  0.125000  1
  Ca  Ca7  1  0.125000  0.250000  0.375000  1
  Ca  Ca8  1  0.250000  0.375000  0.125000  1
  Ca  Ca9  1  0.750000  0.125000  0.375000  1
  Ca  Ca10  1  0.125000  0.375000  0.750000  1
  Ca  Ca11  1  0.375000  0.125000  0.250000  1
  Ti  Ti12  1  0.500000  0.500000  0.500000  1
  Ti  Ti13  1  0.500000  0.500000  0.000000  1
  Ti  Ti14  1  0.500000  0.000000  0.500000  1
  Ti  Ti15  1  0.000000  0.500000  0.500000  1
  Ti  Ti16  1  0.500000  0.000000  0.000000  1
  Ti  Ti17  1  0.000000  0.000000  0.500000  1
  Ti  Ti18  1  0.000000  0.500000  0.000000  1
  Ti  Ti19  1  0.000000  0.000000  0.000000  1
  Ge  Ge20  1  0.875000  0.125000  0.750000  1
  Ge  Ge21  1  0.125000  0.875000  0.250000  1
  Ge  Ge22  1  0.250000  0.625000  0.375000  1
  Ge  Ge23  1  0.125000  0.750000  0.875000  1
  Ge  Ge24  1  0.750000  0.875000  0.125000  1
  Ge  Ge25  1  0.375000  0.250000  0.625000  1
  Ge  Ge26  1  0.625000  0.750000  0.375000  1
  Ge  Ge27  1  0.875000  0.250000  0.125000  1
  Ge  Ge28  1  0.250000  0.125000  0.875000  1
  Ge  Ge29  1  0.750000  0.375000  0.625000  1
  Ge  Ge30  1  0.375000  0.625000  0.750000  1
  Ge  Ge31  1  0.625000  0.375000  0.250000  1
  O  O32  1  0.797258  0.415732  0.814444  1
  O  O33  1  0.084268  0.881526  0.398711  1
  O  O34  1  0.685556  0.101289  0.982814  1
  O  O35  1  0.702742  0.517186  0.618474  1
  O  O36  1  0.702742  0.685556  0.084268  1
  O  O37  1  0.517186  0.618474  0.702742  1
  O  O38  1  0.101289  0.618474  0.415732  1
  O  O39  1  0.618474  0.702742  0.517186  1
  O  O40  1  0.398711  0.814444  0.517186  1
  O  O41  1  0.881526  0.982814  0.797258  1
  O  O42  1  0.982814  0.797258  0.881526  1
  O  O43  1  0.084268  0.702742  0.685556  1
  O  O44  1  0.618474  0.415732  0.101289  1
  O  O45  1  0.517186  0.398711  0.814444  1
  O  O46  1  0.685556  0.084268  0.702742  1
  O  O47  1  0.415732  0.101289  0.618474  1
  O  O48  1  0.814444  0.517186  0.398711  1
  O  O49  1  0.398711  0.084268  0.881526  1
  O  O50  1  0.101289  0.982814  0.685556  1
  O  O51  1  0.601289  0.185556  0.482814  1
  O  O52  1  0.982814  0.685556  0.101289  1
  O  O53  1  0.814444  0.797258  0.415732  1
  O  O54  1  0.881526  0.398711  0.084268  1
  O  O55  1  0.797258  0.881526  0.982814  1
  O  O56  1  0.202741  0.584268  0.185556  1
  O  O57  1  0.915732  0.118474  0.601289  1
  O  O58  1  0.314444  0.898711  0.017186  1
  O  O59  1  0.297258  0.482814  0.381526  1
  O  O60  1  0.297258  0.314444  0.915732  1
  O  O61  1  0.482814  0.381526  0.297258  1
  O  O62  1  0.898711  0.381526  0.584268  1
  O  O63  1  0.381526  0.297258  0.482814  1
  O  O64  1  0.202741  0.118474  0.017186  1
  O  O65  1  0.118474  0.601289  0.915732  1
  O  O66  1  0.185556  0.202741  0.584268  1
  O  O67  1  0.584268  0.185556  0.202741  1
  O  O68  1  0.017186  0.314444  0.898711  1
  O  O69  1  0.898711  0.017186  0.314444  1
  O  O70  1  0.601289  0.915732  0.118474  1
  O  O71  1  0.185556  0.482814  0.601289  1
  O  O72  1  0.584268  0.898711  0.381526  1
  O  O73  1  0.314444  0.915732  0.297258  1
  O  O74  1  0.482814  0.601289  0.185556  1
  O  O75  1  0.381526  0.584268  0.898711  1
  O  O76  1  0.915732  0.297258  0.314444  1
  O  O77  1  0.017186  0.202741  0.118474  1
  O  O78  1  0.118474  0.017186  0.202741  1
  O  O79  1  0.415732  0.814444  0.797258  1
