# generated using pymatgen
data_Al4(FeO4)3
_symmetry_space_group_name_H-M   'P 1'
_cell_length_a   5.69414026
_cell_length_b   5.69413933
_cell_length_c   17.28637613
_cell_angle_alpha   60.32688585
_cell_angle_beta   60.32688492
_cell_angle_gamma   62.40786847
_symmetry_Int_Tables_number   1
_chemical_formula_structural   Al4(FeO4)3
_chemical_formula_sum   'Al8 Fe6 O24'
_cell_volume   405.07782349
_cell_formula_units_Z   2
loop_
 _symmetry_equiv_pos_site_id
 _symmetry_equiv_pos_as_xyz
  1  'x, y, z'
loop_
 _atom_site_type_symbol
 _atom_site_label
 _atom_site_symmetry_multiplicity
 _atom_site_fract_x
 _atom_site_fract_y
 _atom_site_fract_z
 _atom_site_occupancy
  Al  Al0  1  0.109820  0.109820  0.043586  1
  Al  Al1  1  0.113207  0.113207  0.382861  1
  Al  Al2  1  0.121361  0.121361  0.704406  1
  Al  Al3  1  0.496198  0.496198  0.002847  1
  Al  Al4  1  0.505796  0.505796  0.666216  1
  Al  Al5  1  0.507618  0.507618  0.493801  1
  Al  Al6  1  0.887499  0.887499  0.286199  1
  Al  Al7  1  0.883291  0.883291  0.962823  1
  Fe  Fe8  1  0.984498  0.495059  0.173152  1
  Fe  Fe9  1  0.002486  0.502314  0.497658  1
  Fe  Fe10  1  0.998259  0.502643  0.833801  1
  Fe  Fe11  1  0.495059  0.984498  0.173152  1
  Fe  Fe12  1  0.502314  0.002486  0.497658  1
  Fe  Fe13  1  0.502643  0.998259  0.833801  1
  O  O14  1  0.256432  0.256432  0.077765  1
  O  O15  1  0.240652  0.240652  0.427319  1
  O  O16  1  0.261474  0.261474  0.744063  1
  O  O17  1  0.227432  0.227432  0.254129  1
  O  O18  1  0.267164  0.267164  0.576909  1
  O  O19  1  0.242734  0.242734  0.911599  1
  O  O20  1  0.244502  0.728892  0.079423  1
  O  O21  1  0.246211  0.735705  0.429056  1
  O  O22  1  0.249534  0.740975  0.742164  1
  O  O23  1  0.728892  0.244502  0.079423  1
  O  O24  1  0.735705  0.246211  0.429056  1
  O  O25  1  0.740975  0.249534  0.742164  1
  O  O26  1  0.259107  0.765929  0.244304  1
  O  O27  1  0.311437  0.733527  0.574716  1
  O  O28  1  0.264855  0.752743  0.920841  1
  O  O29  1  0.765929  0.259107  0.244304  1
  O  O30  1  0.733527  0.311437  0.574716  1
  O  O31  1  0.752743  0.264855  0.920841  1
  O  O32  1  0.753018  0.753018  0.088926  1
  O  O33  1  0.747611  0.747611  0.413770  1
  O  O34  1  0.745048  0.745048  0.769632  1
  O  O35  1  0.767204  0.767204  0.240279  1
  O  O36  1  0.741617  0.741617  0.576176  1
  O  O37  1  0.741728  0.741728  0.924602  1
