# generated using pymatgen
data_AlCr3O6
_symmetry_space_group_name_H-M   'P 1'
_cell_length_a   17.71042004
_cell_length_b   5.89526547
_cell_length_c   5.89528073
_cell_angle_alpha   59.99925626
_cell_angle_beta   60.04304345
_cell_angle_gamma   60.04273711
_symmetry_Int_Tables_number   1
_chemical_formula_structural   AlCr3O6
_chemical_formula_sum   'Al4 Cr12 O24'
_cell_volume   435.51239506
_cell_formula_units_Z   4
loop_
 _symmetry_equiv_pos_site_id
 _symmetry_equiv_pos_as_xyz
  1  'x, y, z'
loop_
 _atom_site_type_symbol
 _atom_site_label
 _atom_site_symmetry_multiplicity
 _atom_site_fract_x
 _atom_site_fract_y
 _atom_site_fract_z
 _atom_site_occupancy
  Al  Al0  1  0.545353  0.621296  0.621302  1
  Al  Al1  1  0.872268  0.627692  0.627692  1
  Al  Al2  1  0.127732  0.372308  0.372308  1
  Al  Al3  1  0.454647  0.378704  0.378698  1
  Cr  Cr4  1  -0.000000  0.500000  0.000000  1
  Cr  Cr5  1  0.332731  0.506812  0.997558  1
  Cr  Cr6  1  0.667269  0.493188  0.002442  1
  Cr  Cr7  1  -0.000000  -0.000000  0.000000  1
  Cr  Cr8  1  0.332727  0.997567  0.997569  1
  Cr  Cr9  1  0.667273  0.002433  0.002431  1
  Cr  Cr10  1  0.171886  0.994838  0.994841  1
  Cr  Cr11  1  0.500000  -0.000000  0.000000  1
  Cr  Cr12  1  0.828114  0.005162  0.005159  1
  Cr  Cr13  1  -0.000000  -0.000000  0.500000  1
  Cr  Cr14  1  0.332723  0.997584  0.506805  1
  Cr  Cr15  1  0.667277  0.002416  0.493195  1
  O  O16  1  0.063460  0.769868  0.769868  1
  O  O17  1  0.419230  0.747468  0.747462  1
  O  O18  1  0.744192  0.755755  0.755762  1
  O  O19  1  0.084715  0.246643  0.752610  1
  O  O20  1  0.418409  0.243861  0.757161  1
  O  O21  1  0.740843  0.240691  0.795950  1
  O  O22  1  0.084714  0.752610  0.246643  1
  O  O23  1  0.418407  0.757167  0.243865  1
  O  O24  1  0.740849  0.795934  0.240677  1
  O  O25  1  0.084692  0.246711  0.246713  1
  O  O26  1  0.418420  0.243822  0.243822  1
  O  O27  1  0.740852  0.240675  0.240669  1
  O  O28  1  0.259157  0.759309  0.204050  1
  O  O29  1  0.581591  0.756139  0.242839  1
  O  O30  1  0.915285  0.753357  0.247390  1
  O  O31  1  0.255808  0.244245  0.244238  1
  O  O32  1  0.580770  0.252532  0.252538  1
  O  O33  1  0.936540  0.230132  0.230132  1
  O  O34  1  0.259151  0.204066  0.759323  1
  O  O35  1  0.581593  0.242833  0.756135  1
  O  O36  1  0.915286  0.247390  0.753357  1
  O  O37  1  0.259148  0.759325  0.759331  1
  O  O38  1  0.581580  0.756178  0.756178  1
  O  O39  1  0.915308  0.753289  0.753287  1
