# generated using pymatgen
data_Ge2SbO6
_symmetry_space_group_name_H-M   'P 1'
_cell_length_a   5.71082665
_cell_length_b   9.38167633
_cell_length_c   10.40833368
_cell_angle_alpha   90.00000000
_cell_angle_beta   106.14855009
_cell_angle_gamma   90.00000000
_symmetry_Int_Tables_number   1
_chemical_formula_structural   Ge2SbO6
_chemical_formula_sum   'Ge8 Sb4 O24'
_cell_volume   535.64593565
_cell_formula_units_Z   4
loop_
 _symmetry_equiv_pos_site_id
 _symmetry_equiv_pos_as_xyz
  1  'x, y, z'
loop_
 _atom_site_type_symbol
 _atom_site_label
 _atom_site_symmetry_multiplicity
 _atom_site_fract_x
 _atom_site_fract_y
 _atom_site_fract_z
 _atom_site_occupancy
  Ge  Ge0  1  0.813610  0.327287  0.051550  1
  Ge  Ge1  1  0.686390  0.827287  0.948450  1
  Ge  Ge2  1  0.186390  0.672713  0.948450  1
  Ge  Ge3  1  0.313610  0.172713  0.051550  1
  Ge  Ge4  1  0.142873  0.334403  0.466126  1
  Ge  Ge5  1  0.357127  0.834403  0.533874  1
  Ge  Ge6  1  0.857127  0.665597  0.533874  1
  Ge  Ge7  1  0.642873  0.165597  0.466126  1
  Sb  Sb8  1  0.988770  0.633164  0.241517  1
  Sb  Sb9  1  0.511230  0.133164  0.758483  1
  Sb  Sb10  1  0.011230  0.366836  0.758483  1
  Sb  Sb11  1  0.488770  0.866836  0.241517  1
  O  O12  1  0.362161  0.251499  0.400285  1
  O  O13  1  0.137839  0.751499  0.599715  1
  O  O14  1  0.637839  0.748501  0.599715  1
  O  O15  1  0.862161  0.248501  0.400285  1
  O  O16  1  0.133116  0.298388  0.108693  1
  O  O17  1  0.366884  0.798388  0.891307  1
  O  O18  1  0.866884  0.701612  0.891308  1
  O  O19  1  0.633116  0.201612  0.108692  1
  O  O20  1  0.632587  0.987925  0.408129  1
  O  O21  1  0.867413  0.487925  0.591871  1
  O  O22  1  0.367413  0.012075  0.591871  1
  O  O23  1  0.132587  0.512075  0.408129  1
  O  O24  1  0.267912  0.004022  0.111886  1
  O  O25  1  0.232088  0.504022  0.888114  1
  O  O26  1  0.732088  0.995978  0.888114  1
  O  O27  1  0.767912  0.495978  0.111886  1
  O  O28  1  0.736067  0.309385  0.870202  1
  O  O29  1  0.763933  0.809385  0.129798  1
  O  O30  1  0.263933  0.690615  0.129798  1
  O  O31  1  0.236067  0.190615  0.870202  1
  O  O32  1  0.250820  0.307157  0.648065  1
  O  O33  1  0.249180  0.807157  0.351935  1
  O  O34  1  0.749180  0.692843  0.351935  1
  O  O35  1  0.750820  0.192843  0.648065  1
