# generated using pymatgen
data_ZnCr2O4
_symmetry_space_group_name_H-M   'P 1'
_cell_length_a   6.00801493
_cell_length_b   6.02350330
_cell_length_c   23.93491781
_cell_angle_alpha   59.77987244
_cell_angle_beta   61.84011308
_cell_angle_gamma   59.91468550
_symmetry_Int_Tables_number   1
_chemical_formula_structural   ZnCr2O4
_chemical_formula_sum   'Zn8 Cr16 O32'
_cell_volume   619.06749685
_cell_formula_units_Z   8
loop_
 _symmetry_equiv_pos_site_id
 _symmetry_equiv_pos_as_xyz
  1  'x, y, z'
loop_
 _atom_site_type_symbol
 _atom_site_label
 _atom_site_symmetry_multiplicity
 _atom_site_fract_x
 _atom_site_fract_y
 _atom_site_fract_z
 _atom_site_occupancy
  Zn  Zn0  1  0.130025  0.124217  0.030386  1
  Zn  Zn1  1  0.004896  0.497792  0.124880  1
  Zn  Zn2  1  0.133148  0.121286  0.281070  1
  Zn  Zn3  1  0.005646  0.498671  0.374253  1
  Zn  Zn4  1  0.999950  0.501650  0.624187  1
  Zn  Zn5  1  0.502113  0.501145  0.498900  1
  Zn  Zn6  1  0.996579  0.502529  0.874591  1
  Zn  Zn7  1  0.499716  0.498654  0.750744  1
  Cr  Cr8  1  0.498152  0.498796  0.125071  1
  Cr  Cr9  1  0.498286  0.499260  0.250798  1
  Cr  Cr10  1  0.498152  0.002768  0.125071  1
  Cr  Cr11  1  0.128778  0.123049  0.531281  1
  Cr  Cr12  1  0.503999  0.499393  0.373846  1
  Cr  Cr13  1  0.867549  0.877107  0.219559  1
  Cr  Cr14  1  0.123103  0.127562  0.780443  1
  Cr  Cr15  1  0.503999  0.001225  0.373846  1
  Cr  Cr16  1  0.501200  0.500340  0.624537  1
  Cr  Cr17  1  0.877403  0.877508  0.466895  1
  Cr  Cr18  1  0.501200  0.000312  0.624537  1
  Cr  Cr19  1  0.493060  0.001659  0.876333  1
  Cr  Cr20  1  0.493060  0.499950  0.876333  1
  Cr  Cr21  1  0.874227  0.875580  0.718653  1
  Cr  Cr22  1  0.495402  0.498205  0.002047  1
  Cr  Cr23  1  0.862975  0.875891  0.971311  1
  O  O24  1  0.270329  0.259286  0.062658  1
  O  O25  1  0.278149  0.251457  0.179734  1
  O  O26  1  0.270329  0.719754  0.062658  1
  O  O27  1  0.717295  0.256806  0.067273  1
  O  O28  1  0.281532  0.745366  0.181933  1
  O  O29  1  0.271208  0.263714  0.312483  1
  O  O30  1  0.731965  0.271293  0.188508  1
  O  O31  1  0.294241  0.237134  0.432872  1
  O  O32  1  0.271208  0.715148  0.312483  1
  O  O33  1  0.723203  0.749681  0.069359  1
  O  O34  1  0.720225  0.258264  0.315813  1
  O  O35  1  0.731965  0.742709  0.188508  1
  O  O36  1  0.257561  0.256120  0.563786  1
  O  O37  1  0.274478  0.758251  0.427255  1
  O  O38  1  0.749954  0.268131  0.434523  1
  O  O39  1  0.286796  0.242800  0.681901  1
  O  O40  1  0.257561  0.731174  0.563786  1
  O  O41  1  0.718866  0.756300  0.317133  1
  O  O42  1  0.729909  0.243175  0.570935  1
  O  O43  1  0.749954  0.743825  0.434523  1
  O  O44  1  0.270286  0.757404  0.678726  1
  O  O45  1  0.255148  0.251171  0.814190  1
  O  O46  1  0.744487  0.267735  0.686161  1
  O  O47  1  0.267862  0.258308  0.928880  1
  O  O48  1  0.255148  0.736917  0.814190  1
  O  O49  1  0.714634  0.758979  0.566853  1
  O  O50  1  0.725309  0.241421  0.822962  1
  O  O51  1  0.744487  0.743134  0.686161  1
  O  O52  1  0.277913  0.743002  0.934021  1
  O  O53  1  0.724568  0.271308  0.940140  1
  O  O54  1  0.716243  0.752119  0.819879  1
  O  O55  1  0.724568  0.743564  0.940140  1
