# generated using pymatgen
data_Al4Bi2O9
_symmetry_space_group_name_H-M   'P 1'
_cell_length_a   5.76765148
_cell_length_b   7.78230982
_cell_length_c   8.24779449
_cell_angle_alpha   90.00000000
_cell_angle_beta   90.00000000
_cell_angle_gamma   90.00000000
_symmetry_Int_Tables_number   1
_chemical_formula_structural   Al4Bi2O9
_chemical_formula_sum   'Al8 Bi4 O18'
_cell_volume   370.20762295
_cell_formula_units_Z   2
loop_
 _symmetry_equiv_pos_site_id
 _symmetry_equiv_pos_as_xyz
  1  'x, y, z'
loop_
 _atom_site_type_symbol
 _atom_site_label
 _atom_site_symmetry_multiplicity
 _atom_site_fract_x
 _atom_site_fract_y
 _atom_site_fract_z
 _atom_site_occupancy
  O  O0  1  0.000000  0.355722  0.935477  1
  O  O1  1  0.000000  0.644278  0.064523  1
  O  O2  1  0.000000  0.855722  0.564523  1
  O  O3  1  0.000000  0.144278  0.435477  1
  O  O4  1  0.500000  0.361137  0.915478  1
  O  O5  1  0.500000  0.638863  0.084522  1
  O  O6  1  0.500000  0.861137  0.584522  1
  O  O7  1  0.500000  0.138863  0.415478  1
  O  O8  1  0.251673  0.876882  0.291694  1
  O  O9  1  0.251673  0.123118  0.708306  1
  O  O10  1  0.748327  0.376882  0.208306  1
  O  O11  1  0.748327  0.623118  0.791694  1
  O  O12  1  0.500000  0.000000  0.000000  1
  O  O13  1  0.500000  0.500000  0.500000  1
  O  O14  1  0.251673  0.376882  0.208306  1
  O  O15  1  0.251673  0.623118  0.791694  1
  O  O16  1  0.748327  0.876882  0.291694  1
  O  O17  1  0.748327  0.123118  0.708306  1
  Al  Al18  1  0.500000  0.147690  0.839450  1
  Al  Al19  1  0.500000  0.852310  0.160550  1
  Al  Al20  1  0.500000  0.647690  0.660550  1
  Al  Al21  1  0.500000  0.352310  0.339450  1
  Al  Al22  1  0.261126  0.000000  0.500000  1
  Al  Al23  1  0.738874  0.500000  0.000000  1
  Al  Al24  1  0.738874  0.000000  0.500000  1
  Al  Al25  1  0.261126  0.500000  0.000000  1
  Bi  Bi26  1  0.000000  0.329502  0.669590  1
  Bi  Bi27  1  0.000000  0.670498  0.330410  1
  Bi  Bi28  1  0.000000  0.829502  0.830410  1
  Bi  Bi29  1  0.000000  0.170498  0.169590  1
