# generated using pymatgen
data_ZnWO2
_symmetry_space_group_name_H-M   'P 1'
_cell_length_a   2.99614085
_cell_length_b   8.15927412
_cell_length_c   9.20541195
_cell_angle_alpha   87.94581908
_cell_angle_beta   70.39902619
_cell_angle_gamma   98.62410025
_symmetry_Int_Tables_number   1
_chemical_formula_structural   ZnWO2
_chemical_formula_sum   'Zn4 W4 O8'
_cell_volume   208.70251467
_cell_formula_units_Z   4
loop_
 _symmetry_equiv_pos_site_id
 _symmetry_equiv_pos_as_xyz
  1  'x, y, z'
loop_
 _atom_site_type_symbol
 _atom_site_label
 _atom_site_symmetry_multiplicity
 _atom_site_fract_x
 _atom_site_fract_y
 _atom_site_fract_z
 _atom_site_occupancy
  Zn  Zn0  1  0.421971  0.055858  0.304892  1
  Zn  Zn1  1  0.574331  0.924083  0.723231  1
  Zn  Zn2  1  0.124701  0.858768  0.061233  1
  Zn  Zn3  1  0.871340  0.120908  0.966969  1
  W  W4  1  0.351568  0.309085  0.596764  1
  W  W5  1  0.201024  0.421251  0.281078  1
  W  W6  1  0.794926  0.558693  0.747131  1
  W  W7  1  0.644353  0.670864  0.431461  1
  O  O8  1  0.030382  0.766841  0.578918  1
  O  O9  1  0.139010  0.379834  0.826865  1
  O  O10  1  0.856997  0.600133  0.201336  1
  O  O11  1  0.965497  0.213109  0.449310  1
  O  O12  1  0.133663  0.077371  0.726646  1
  O  O13  1  0.741193  0.275085  0.180192  1
  O  O14  1  0.862523  0.902567  0.301571  1
  O  O15  1  0.254797  0.704882  0.848024  1
