# generated using pymatgen
data_Ba2AlTlSn2O7
_symmetry_space_group_name_H-M   'P 1'
_cell_length_a   4.14734907
_cell_length_b   4.14734850
_cell_length_c   13.06277880
_cell_angle_alpha   89.99592191
_cell_angle_beta   89.99605430
_cell_angle_gamma   90.00868627
_symmetry_Int_Tables_number   1
_chemical_formula_structural   Ba2AlTlSn2O7
_chemical_formula_sum   'Ba2 Al1 Tl1 Sn2 O7'
_cell_volume   224.68634888
_cell_formula_units_Z   1
loop_
 _symmetry_equiv_pos_site_id
 _symmetry_equiv_pos_as_xyz
  1  'x, y, z'
loop_
 _atom_site_type_symbol
 _atom_site_label
 _atom_site_symmetry_multiplicity
 _atom_site_fract_x
 _atom_site_fract_y
 _atom_site_fract_z
 _atom_site_occupancy
  Ba  Ba0  1  0.500014  0.500002  0.190187  1
  Ba  Ba1  1  0.499994  0.499965  0.809822  1
  Al  Al2  1  0.499854  0.498902  0.499999  1
  Tl  Tl3  1  0.000004  0.999997  0.000002  1
  Sn  Sn4  1  0.999977  0.999910  0.371778  1
  Sn  Sn5  1  0.000019  0.999950  0.628221  1
  O  O6  1  0.000004  0.999971  0.214939  1
  O  O7  1  0.000009  0.500006  0.401480  1
  O  O8  1  0.499979  0.000587  0.401474  1
  O  O9  1  0.500022  0.000740  0.598518  1
  O  O10  1  0.499975  0.499962  0.000005  1
  O  O11  1  0.000161  0.500050  0.598518  1
  O  O12  1  0.999985  0.999960  0.785057  1
