# generated using pymatgen
data_ZnCr(SiO3)2
_symmetry_space_group_name_H-M   'P 1'
_cell_length_a   5.34347238
_cell_length_b   6.93126262
_cell_length_c   6.93126288
_cell_angle_alpha   87.18931165
_cell_angle_beta   74.89790675
_cell_angle_gamma   74.89791122
_symmetry_Int_Tables_number   1
_chemical_formula_structural   ZnCr(SiO3)2
_chemical_formula_sum   'Zn2 Cr2 Si4 O12'
_cell_volume   239.23840572
_cell_formula_units_Z   2
loop_
 _symmetry_equiv_pos_site_id
 _symmetry_equiv_pos_as_xyz
  1  'x, y, z'
loop_
 _atom_site_type_symbol
 _atom_site_label
 _atom_site_symmetry_multiplicity
 _atom_site_fract_x
 _atom_site_fract_y
 _atom_site_fract_z
 _atom_site_occupancy
  Zn  Zn0  1  0.750000  0.243674  0.756326  1
  Zn  Zn1  1  0.250001  0.756326  0.243675  1
  Cr  Cr2  1  0.249999  0.102124  0.897877  1
  Cr  Cr3  1  0.749999  0.897878  0.102123  1
  Si  Si4  1  0.233964  0.214423  0.384062  1
  Si  Si5  1  0.266035  0.615938  0.785577  1
  Si  Si6  1  0.733964  0.384062  0.214423  1
  Si  Si7  1  0.766036  0.785577  0.615938  1
  O  O8  1  0.481951  0.318530  0.374366  1
  O  O9  1  0.018049  0.625633  0.681471  1
  O  O10  1  0.518050  0.681471  0.625634  1
  O  O11  1  0.981950  0.374367  0.318529  1
  O  O12  1  0.121889  0.148563  0.611644  1
  O  O13  1  0.378111  0.388355  0.851436  1
  O  O14  1  0.878111  0.851437  0.388356  1
  O  O15  1  0.621888  0.611644  0.148564  1
  O  O16  1  0.850946  0.216661  0.029838  1
  O  O17  1  0.649054  0.970162  0.783338  1
  O  O18  1  0.350945  0.029838  0.216662  1
  O  O19  1  0.149055  0.783339  0.970162  1
