# generated using pymatgen
data_MgVSiO5
_symmetry_space_group_name_H-M   'P 1'
_cell_length_a   5.28068845
_cell_length_b   6.98676325
_cell_length_c   8.36395862
_cell_angle_alpha   89.71223641
_cell_angle_beta   142.11193115
_cell_angle_gamma   75.81436543
_symmetry_Int_Tables_number   1
_chemical_formula_structural   MgVSiO5
_chemical_formula_sum   'Mg2 V2 Si2 O10'
_cell_volume   173.22732673
_cell_formula_units_Z   2
loop_
 _symmetry_equiv_pos_site_id
 _symmetry_equiv_pos_as_xyz
  1  'x, y, z'
loop_
 _atom_site_type_symbol
 _atom_site_label
 _atom_site_symmetry_multiplicity
 _atom_site_fract_x
 _atom_site_fract_y
 _atom_site_fract_z
 _atom_site_occupancy
  Mg  Mg0  1  0.507470  0.234310  0.173504  1
  Mg  Mg1  1  0.510784  0.735531  0.835811  1
  V  V2  1  0.501212  0.491704  0.499281  1
  V  V3  1  0.498797  0.991770  0.499899  1
  Si  Si4  1  0.500438  0.244393  0.825179  1
  Si  Si5  1  0.496420  0.744470  0.171928  1
  O  O6  1  0.267585  0.122631  0.597166  1
  O  O7  1  0.743771  0.363886  0.835116  1
  O  O8  1  0.722757  0.871480  0.394335  1
  O  O9  1  0.255189  0.626615  0.165258  1
  O  O10  1  0.857448  0.579064  0.228871  1
  O  O11  1  0.146257  0.902133  0.866234  1
  O  O12  1  0.143673  0.409482  0.771534  1
  O  O13  1  0.851799  0.083666  0.129833  1
  O  O14  1  0.497815  0.744117  0.581361  1
  O  O15  1  0.502966  0.244531  0.419194  1
