# generated using pymatgen
data_Ba2ZnCuSn2F14
_symmetry_space_group_name_H-M   'P 1'
_cell_length_a   5.46625137
_cell_length_b   7.84296890
_cell_length_c   15.52183779
_cell_angle_alpha   90.08627882
_cell_angle_beta   91.50375175
_cell_angle_gamma   109.50953559
_symmetry_Int_Tables_number   1
_chemical_formula_structural   Ba2ZnCuSn2F14
_chemical_formula_sum   'Ba4 Zn2 Cu2 Sn4 F28'
_cell_volume   626.98737027
_cell_formula_units_Z   2
loop_
 _symmetry_equiv_pos_site_id
 _symmetry_equiv_pos_as_xyz
  1  'x, y, z'
loop_
 _atom_site_type_symbol
 _atom_site_label
 _atom_site_symmetry_multiplicity
 _atom_site_fract_x
 _atom_site_fract_y
 _atom_site_fract_z
 _atom_site_occupancy
  Ba  Ba0  1  0.085077  0.349744  0.616055  1
  Ba  Ba1  1  0.265753  0.349488  0.132359  1
  Ba  Ba2  1  0.896234  0.628155  0.371324  1
  Ba  Ba3  1  0.737345  0.646087  0.876427  1
  Zn  Zn4  1  0.471047  0.002211  0.751285  1
  Zn  Zn5  1  0.521845  0.010613  0.258038  1
  Cu  Cu6  1  0.507459  0.001339  0.003133  1
  Cu  Cu7  1  0.500543  0.014160  0.496598  1
  Sn  Sn8  1  0.106091  0.246831  0.874951  1
  Sn  Sn9  1  0.149746  0.230918  0.378147  1
  Sn  Sn10  1  0.904318  0.755926  0.122648  1
  Sn  Sn11  1  0.856480  0.759340  0.626698  1
  F  F12  1  0.798188  0.946261  0.312712  1
  F  F13  1  0.860697  0.319488  0.462340  1
  F  F14  1  0.115810  0.699136  0.551913  1
  F  F15  1  0.622000  0.504034  0.603573  1
  F  F16  1  0.631598  0.074583  0.639494  1
  F  F17  1  0.547242  0.923011  0.869459  1
  F  F18  1  0.432802  0.307958  0.952885  1
  F  F19  1  0.919182  0.007011  0.146332  1
  F  F20  1  0.355850  0.347333  0.777483  1
  F  F21  1  0.381741  0.518700  0.402638  1
  F  F22  1  0.811511  0.238939  0.789477  1
  F  F23  1  0.134204  0.508811  0.897977  1
  F  F24  1  0.471643  0.248339  0.270137  1
  F  F25  1  0.187131  0.767972  0.211295  1
  F  F26  1  0.459111  0.065919  0.125862  1
  F  F27  1  0.642420  0.640942  0.212477  1
  F  F28  1  0.094213  0.827570  0.010689  1
  F  F29  1  0.115917  0.995483  0.672109  1
  F  F30  1  0.899827  0.167780  0.982477  1
  F  F31  1  0.729185  0.848650  0.518108  1
  F  F32  1  0.581536  0.700211  0.042262  1
  F  F33  1  0.586393  0.764500  0.716395  1
  F  F34  1  0.009081  0.373133  0.268866  1
  F  F35  1  0.281900  0.166575  0.521053  1
  F  F36  1  0.333125  0.923493  0.374482  1
  F  F37  1  0.115792  0.998863  0.839802  1
  F  F38  1  0.008112  0.650197  0.726096  1
  F  F39  1  0.884919  0.501278  0.092632  1
