# generated using pymatgen
data_CaLaCrFeO6
_symmetry_space_group_name_H-M   'P 1'
_cell_length_a   5.53947855
_cell_length_b   5.51514598
_cell_length_c   7.72231974
_cell_angle_alpha   89.78017556
_cell_angle_beta   90.00000000
_cell_angle_gamma   90.00000000
_symmetry_Int_Tables_number   1
_chemical_formula_structural   CaLaCrFeO6
_chemical_formula_sum   'Ca2 La2 Cr2 Fe2 O12'
_cell_volume   235.92310781
_cell_formula_units_Z   2
loop_
 _symmetry_equiv_pos_site_id
 _symmetry_equiv_pos_as_xyz
  1  'x, y, z'
loop_
 _atom_site_type_symbol
 _atom_site_label
 _atom_site_symmetry_multiplicity
 _atom_site_fract_x
 _atom_site_fract_y
 _atom_site_fract_z
 _atom_site_occupancy
  Ca  Ca0  1  0.537147  0.511449  0.250446  1
  Ca  Ca1  1  0.962853  0.011449  0.750446  1
  La  La2  1  0.028140  0.991247  0.248485  1
  La  La3  1  0.471860  0.491247  0.748485  1
  Cr  Cr4  1  0.500427  0.999842  0.498976  1
  Cr  Cr5  1  0.999573  0.499842  0.998976  1
  Fe  Fe6  1  0.499626  0.999451  0.000075  1
  Fe  Fe7  1  0.000374  0.499451  0.500075  1
  O  O8  1  0.013421  0.580756  0.756932  1
  O  O9  1  0.216223  0.217062  0.955851  1
  O  O10  1  0.224282  0.208079  0.542438  1
  O  O11  1  0.275718  0.708079  0.042438  1
  O  O12  1  0.283777  0.717062  0.455851  1
  O  O13  1  0.486579  0.080756  0.256931  1
  O  O14  1  0.516949  0.926920  0.743795  1
  O  O15  1  0.720502  0.278609  0.541751  1
  O  O16  1  0.727493  0.286584  0.961251  1
  O  O17  1  0.772507  0.786584  0.461251  1
  O  O18  1  0.779498  0.778608  0.041751  1
  O  O19  1  0.983051  0.426920  0.243795  1
