# generated using pymatgen
data_Zn2Fe3O8
_symmetry_space_group_name_H-M   'P 1'
_cell_length_a   5.94454666
_cell_length_b   5.94454709
_cell_length_c   9.44058384
_cell_angle_alpha   90.00000000
_cell_angle_beta   90.00000000
_cell_angle_gamma   120.00000232
_symmetry_Int_Tables_number   1
_chemical_formula_structural   Zn2Fe3O8
_chemical_formula_sum   'Zn4 Fe6 O16'
_cell_volume   288.91293560
_cell_formula_units_Z   2
loop_
 _symmetry_equiv_pos_site_id
 _symmetry_equiv_pos_as_xyz
  1  'x, y, z'
loop_
 _atom_site_type_symbol
 _atom_site_label
 _atom_site_symmetry_multiplicity
 _atom_site_fract_x
 _atom_site_fract_y
 _atom_site_fract_z
 _atom_site_occupancy
  Zn  Zn0  1  0.666667  0.333334  0.028431  1
  Zn  Zn1  1  0.333333  0.666666  0.528432  1
  Zn  Zn2  1  0.666667  0.333334  0.420371  1
  Zn  Zn3  1  0.333333  0.666666  0.920372  1
  Fe  Fe4  1  0.671898  0.835949  0.243151  1
  Fe  Fe5  1  0.835950  0.164052  0.743151  1
  Fe  Fe6  1  0.164052  0.328103  0.243151  1
  Fe  Fe7  1  0.835948  0.671898  0.743151  1
  Fe  Fe8  1  0.328103  0.164052  0.743151  1
  Fe  Fe9  1  0.164052  0.835949  0.243151  1
  O  O10  1  0.835219  0.164782  0.142156  1
  O  O11  1  0.670436  0.835219  0.642155  1
  O  O12  1  0.164782  0.329565  0.642155  1
  O  O13  1  0.835218  0.670436  0.142156  1
  O  O14  1  0.329564  0.164782  0.142156  1
  O  O15  1  0.164782  0.835219  0.642155  1
  O  O16  1  0.518875  0.481124  0.868099  1
  O  O17  1  0.037752  0.518875  0.368098  1
  O  O18  1  0.481125  0.962249  0.368098  1
  O  O19  1  0.518875  0.037752  0.868099  1
  O  O20  1  0.000000  0.000000  0.351875  1
  O  O21  1  0.000000  0.000000  0.851875  1
  O  O22  1  0.333333  0.666666  0.132606  1
  O  O23  1  0.962247  0.481124  0.868099  1
  O  O24  1  0.481124  0.518875  0.368098  1
  O  O25  1  0.666667  0.333334  0.632606  1
