# generated using pymatgen
data_Ca(WN)2
_symmetry_space_group_name_H-M   'P 1'
_cell_length_a   3.35622082
_cell_length_b   3.35704114
_cell_length_c   7.67431700
_cell_angle_alpha   90.00006018
_cell_angle_beta   90.00000993
_cell_angle_gamma   90.00000461
_symmetry_Int_Tables_number   1
_chemical_formula_structural   Ca(WN)2
_chemical_formula_sum   'Ca1 W2 N2'
_cell_volume   86.46630991
_cell_formula_units_Z   1
loop_
 _symmetry_equiv_pos_site_id
 _symmetry_equiv_pos_as_xyz
  1  'x, y, z'
loop_
 _atom_site_type_symbol
 _atom_site_label
 _atom_site_symmetry_multiplicity
 _atom_site_fract_x
 _atom_site_fract_y
 _atom_site_fract_z
 _atom_site_occupancy
  Ca  Ca0  1  0.000000  0.000000  0.250113  1
  W  W1  1  0.500000  0.499999  0.916755  1
  W  W2  1  0.500000  0.500001  0.582996  1
  N  N3  1  0.500000  0.000000  0.461090  1
  N  N4  1  -0.000000  0.500000  0.039047  1
