# generated using pymatgen
data_Mg(TiS2)4
_symmetry_space_group_name_H-M   'P 1'
_cell_length_a   7.40216961
_cell_length_b   7.40216935
_cell_length_c   7.40217056
_cell_angle_alpha   54.93492344
_cell_angle_beta   54.93491813
_cell_angle_gamma   54.93492453
_symmetry_Int_Tables_number   1
_chemical_formula_structural   Mg(TiS2)4
_chemical_formula_sum   'Mg1 Ti4 S8'
_cell_volume   252.98199036
_cell_formula_units_Z   1
loop_
 _symmetry_equiv_pos_site_id
 _symmetry_equiv_pos_as_xyz
  1  'x, y, z'
loop_
 _atom_site_type_symbol
 _atom_site_label
 _atom_site_symmetry_multiplicity
 _atom_site_fract_x
 _atom_site_fract_y
 _atom_site_fract_z
 _atom_site_occupancy
  Mg  Mg0  1  0.500000  0.500001  0.499999  1
  Ti  Ti1  1  0.500001  0.999999  0.500001  1
  Ti  Ti2  1  0.999999  0.500000  0.500001  1
  Ti  Ti3  1  0.500000  0.500000  0.000000  1
  Ti  Ti4  1  0.000000  0.000000  0.000000  1
  S  S5  1  0.756013  0.254444  0.756013  1
  S  S6  1  0.243986  0.243987  0.745556  1
  S  S7  1  0.243986  0.745557  0.243986  1
  S  S8  1  0.745555  0.243987  0.243987  1
  S  S9  1  0.257933  0.257934  0.257933  1
  S  S10  1  0.742067  0.742067  0.742067  1
  S  S11  1  0.254445  0.756014  0.756013  1
  S  S12  1  0.756014  0.756014  0.254444  1
