# generated using pymatgen
data_LaTiCrO6
_symmetry_space_group_name_H-M   'P 1'
_cell_length_a   5.38739264
_cell_length_b   5.41205609
_cell_length_c   7.66880694
_cell_angle_alpha   90.00000000
_cell_angle_beta   89.93667442
_cell_angle_gamma   90.00000000
_symmetry_Int_Tables_number   1
_chemical_formula_structural   LaTiCrO6
_chemical_formula_sum   'La2 Ti2 Cr2 O12'
_cell_volume   223.59827954
_cell_formula_units_Z   2
loop_
 _symmetry_equiv_pos_site_id
 _symmetry_equiv_pos_as_xyz
  1  'x, y, z'
loop_
 _atom_site_type_symbol
 _atom_site_label
 _atom_site_symmetry_multiplicity
 _atom_site_fract_x
 _atom_site_fract_y
 _atom_site_fract_z
 _atom_site_occupancy
  La  La0  1  0.003904  0.978501  0.749668  1
  La  La1  1  0.503904  0.521499  0.249668  1
  Ti  Ti2  1  0.509015  0.003138  0.996601  1
  Ti  Ti3  1  0.009015  0.496862  0.496601  1
  Cr  Cr4  1  0.506165  0.008918  0.495264  1
  Cr  Cr5  1  0.006165  0.491082  0.995264  1
  O  O6  1  0.047443  0.493638  0.250473  1
  O  O7  1  0.225957  0.228983  0.977281  1
  O  O8  1  0.240022  0.216233  0.523408  1
  O  O9  1  0.251196  0.724597  0.982576  1
  O  O10  1  0.263253  0.733300  0.521363  1
  O  O11  1  0.463076  0.999188  0.253573  1
  O  O12  1  0.547443  0.006362  0.750473  1
  O  O13  1  0.725957  0.271017  0.477281  1
  O  O14  1  0.740022  0.283767  0.023408  1
  O  O15  1  0.751196  0.775403  0.482576  1
  O  O16  1  0.763253  0.766700  0.021363  1
  O  O17  1  0.963076  0.500812  0.753573  1
