# generated using pymatgen
data_BaCaSbF7
_symmetry_space_group_name_H-M   'P 1'
_cell_length_a   6.05096360
_cell_length_b   10.13950330
_cell_length_c   10.70726058
_cell_angle_alpha   90.00000000
_cell_angle_beta   90.00000000
_cell_angle_gamma   93.57338343
_symmetry_Int_Tables_number   1
_chemical_formula_structural   BaCaSbF7
_chemical_formula_sum   'Ba4 Ca4 Sb4 F28'
_cell_volume   655.65354190
_cell_formula_units_Z   4
loop_
 _symmetry_equiv_pos_site_id
 _symmetry_equiv_pos_as_xyz
  1  'x, y, z'
loop_
 _atom_site_type_symbol
 _atom_site_label
 _atom_site_symmetry_multiplicity
 _atom_site_fract_x
 _atom_site_fract_y
 _atom_site_fract_z
 _atom_site_occupancy
  Ba  Ba0  1  0.268254  0.496806  0.324635  1
  Ba  Ba1  1  0.731746  0.003194  0.824635  1
  Ba  Ba2  1  0.731746  0.503194  0.675365  1
  Ba  Ba3  1  0.268254  0.996806  0.175365  1
  Ca  Ca4  1  0.686652  0.821258  0.405598  1
  Ca  Ca5  1  0.313348  0.678742  0.905598  1
  Ca  Ca6  1  0.686652  0.321258  0.094402  1
  Ca  Ca7  1  0.313348  0.178742  0.594402  1
  Sb  Sb8  1  0.214152  0.801855  0.600996  1
  Sb  Sb9  1  0.785848  0.198145  0.399004  1
  Sb  Sb10  1  0.214152  0.301855  0.899004  1
  Sb  Sb11  1  0.785848  0.698145  0.100996  1
  F  F12  1  0.084175  0.118863  0.431172  1
  F  F13  1  0.355096  0.419313  0.077726  1
  F  F14  1  0.519524  0.761088  0.740439  1
  F  F15  1  0.480476  0.238912  0.259561  1
  F  F16  1  0.973641  0.362355  0.485797  1
  F  F17  1  0.246478  0.485705  0.788158  1
  F  F18  1  0.043418  0.733195  0.763006  1
  F  F19  1  0.026359  0.137645  0.985797  1
  F  F20  1  0.355096  0.919313  0.422274  1
  F  F21  1  0.480476  0.738912  0.240439  1
  F  F22  1  0.084175  0.618863  0.068828  1
  F  F23  1  0.915825  0.881137  0.568828  1
  F  F24  1  0.956582  0.766805  0.263006  1
  F  F25  1  0.477605  0.859851  0.992841  1
  F  F26  1  0.026359  0.637645  0.514203  1
  F  F27  1  0.973641  0.862355  0.014203  1
  F  F28  1  0.956582  0.266805  0.236994  1
  F  F29  1  0.915825  0.381137  0.931172  1
  F  F30  1  0.522395  0.640149  0.492841  1
  F  F31  1  0.644904  0.580687  0.922274  1
  F  F32  1  0.522395  0.140149  0.007159  1
  F  F33  1  0.043418  0.233195  0.736994  1
  F  F34  1  0.477605  0.359851  0.507159  1
  F  F35  1  0.753522  0.014295  0.288158  1
  F  F36  1  0.753522  0.514295  0.211842  1
  F  F37  1  0.246478  0.985705  0.711842  1
  F  F38  1  0.644904  0.080687  0.577726  1
  F  F39  1  0.519524  0.261088  0.759561  1
