# generated using pymatgen
data_CaTiNi(PO4)3
_symmetry_space_group_name_H-M   'P 1'
_cell_length_a   8.84315655
_cell_length_b   8.84288207
_cell_length_c   8.84308795
_cell_angle_alpha   58.61345132
_cell_angle_beta   58.61443949
_cell_angle_gamma   58.61528222
_symmetry_Int_Tables_number   1
_chemical_formula_structural   CaTiNi(PO4)3
_chemical_formula_sum   'Ca2 Ti2 Ni2 P6 O24'
_cell_volume   473.48970198
_cell_formula_units_Z   2
loop_
 _symmetry_equiv_pos_site_id
 _symmetry_equiv_pos_as_xyz
  1  'x, y, z'
loop_
 _atom_site_type_symbol
 _atom_site_label
 _atom_site_symmetry_multiplicity
 _atom_site_fract_x
 _atom_site_fract_y
 _atom_site_fract_z
 _atom_site_occupancy
  Ca  Ca0  1  0.996860  0.996831  0.996842  1
  Ca  Ca1  1  0.496861  0.496843  0.496843  1
  Ti  Ti2  1  0.147115  0.147126  0.147169  1
  Ti  Ti3  1  0.647132  0.647158  0.647118  1
  Ni  Ni4  1  0.353571  0.353589  0.353583  1
  Ni  Ni5  1  0.853576  0.853587  0.853583  1
  P  P6  1  0.039927  0.460953  0.751164  1
  P  P7  1  0.460934  0.751175  0.039922  1
  P  P8  1  0.751170  0.039941  0.460934  1
  P  P9  1  0.251179  0.960909  0.539921  1
  P  P10  1  0.539931  0.251161  0.960964  1
  P  P11  1  0.960939  0.539926  0.251175  1
  O  O12  1  0.122160  0.514677  0.290122  1
  O  O13  1  0.290145  0.122165  0.514650  1
  O  O14  1  0.055197  0.272283  0.922182  1
  O  O15  1  0.514709  0.290090  0.122126  1
  O  O16  1  0.014690  0.622139  0.790105  1
  O  O17  1  0.225637  0.437681  0.583180  1
  O  O18  1  0.272301  0.922169  0.055197  1
  O  O19  1  0.437667  0.583167  0.225658  1
  O  O20  1  0.206919  0.999787  0.370586  1
  O  O21  1  0.583168  0.225663  0.437668  1
  O  O22  1  0.083163  0.937662  0.725660  1
  O  O23  1  0.370568  0.206922  0.999781  1
  O  O24  1  0.622153  0.790113  0.014684  1
  O  O25  1  0.922160  0.055203  0.272311  1
  O  O26  1  0.422159  0.772311  0.555202  1
  O  O27  1  0.790133  0.014667  0.622158  1
  O  O28  1  0.555197  0.422184  0.772282  1
  O  O29  1  0.725635  0.083184  0.937685  1
  O  O30  1  0.772308  0.555198  0.422167  1
  O  O31  1  0.999790  0.370577  0.206922  1
  O  O32  1  0.499787  0.706923  0.870576  1
  O  O33  1  0.937666  0.725665  0.083163  1
  O  O34  1  0.706920  0.870583  0.499790  1
  O  O35  1  0.870570  0.499782  0.706922  1
