# generated using pymatgen
data_Ca(FeO2)2
_symmetry_space_group_name_H-M   'P 1'
_cell_length_a   6.29507662
_cell_length_b   6.28700173
_cell_length_c   6.27946082
_cell_angle_alpha   90.24564016
_cell_angle_beta   119.78673846
_cell_angle_gamma   119.81872596
_symmetry_Int_Tables_number   1
_chemical_formula_structural   Ca(FeO2)2
_chemical_formula_sum   'Ca2 Fe4 O8'
_cell_volume   176.40158392
_cell_formula_units_Z   2
loop_
 _symmetry_equiv_pos_site_id
 _symmetry_equiv_pos_as_xyz
  1  'x, y, z'
loop_
 _atom_site_type_symbol
 _atom_site_label
 _atom_site_symmetry_multiplicity
 _atom_site_fract_x
 _atom_site_fract_y
 _atom_site_fract_z
 _atom_site_occupancy
  Ca  Ca0  1  0.249158  0.124607  0.874907  1
  Ca  Ca1  1  0.750824  0.875388  0.125113  1
  Fe  Fe2  1  0.500104  0.000038  0.500038  1
  Fe  Fe3  1  0.500100  0.500064  0.500048  1
  Fe  Fe4  1  0.999946  0.499973  0.999971  1
  Fe  Fe5  1  0.999915  0.499961  0.499877  1
  O  O6  1  0.035850  0.733368  0.268625  1
  O  O7  1  0.463930  0.732798  0.697397  1
  O  O8  1  0.464151  0.731300  0.266167  1
  O  O9  1  0.964024  0.697553  0.732923  1
  O  O10  1  0.535832  0.268682  0.733856  1
  O  O11  1  0.536069  0.267200  0.302611  1
  O  O12  1  0.035964  0.302450  0.267088  1
  O  O13  1  0.964133  0.266618  0.731381  1
