# generated using pymatgen
data_Ca2CrN3
_symmetry_space_group_name_H-M   'P 1'
_cell_length_a   4.94690642
_cell_length_b   6.66035352
_cell_length_c   6.66035428
_cell_angle_alpha   106.27433962
_cell_angle_beta   90.00000000
_cell_angle_gamma   90.00000000
_symmetry_Int_Tables_number   1
_chemical_formula_structural   Ca2CrN3
_chemical_formula_sum   'Ca4 Cr2 N6'
_cell_volume   210.65330476
_cell_formula_units_Z   2
loop_
 _symmetry_equiv_pos_site_id
 _symmetry_equiv_pos_as_xyz
  1  'x, y, z'
loop_
 _atom_site_type_symbol
 _atom_site_label
 _atom_site_symmetry_multiplicity
 _atom_site_fract_x
 _atom_site_fract_y
 _atom_site_fract_z
 _atom_site_occupancy
  Ca  Ca0  1  0.750000  0.113776  0.886224  1
  Ca  Ca1  1  0.750000  0.194141  0.397794  1
  Ca  Ca2  1  0.250000  0.899915  0.100085  1
  Ca  Ca3  1  0.750000  0.602206  0.805859  1
  Cr  Cr4  1  0.750000  0.700384  0.299616  1
  Cr  Cr5  1  0.250000  0.285339  0.714661  1
  N  N6  1  0.750000  0.441120  0.193849  1
  N  N7  1  0.250000  0.124330  0.875670  1
  N  N8  1  0.750000  0.870873  0.129127  1
  N  N9  1  0.250000  0.175280  0.448438  1
  N  N10  1  0.250000  0.551562  0.824720  1
  N  N11  1  0.750000  0.806151  0.558880  1
