# generated using pymatgen
data_Mg3Fe2(GeO4)3
_symmetry_space_group_name_H-M   'P 1'
_cell_length_a   10.48803441
_cell_length_b   10.48803389
_cell_length_c   10.48803402
_cell_angle_alpha   109.47122088
_cell_angle_beta   109.47121987
_cell_angle_gamma   109.47121993
_symmetry_Int_Tables_number   1
_chemical_formula_structural   Mg3Fe2(GeO4)3
_chemical_formula_sum   'Mg12 Fe8 Ge12 O48'
_cell_volume   888.09697111
_cell_formula_units_Z   4
loop_
 _symmetry_equiv_pos_site_id
 _symmetry_equiv_pos_as_xyz
  1  'x, y, z'
loop_
 _atom_site_type_symbol
 _atom_site_label
 _atom_site_symmetry_multiplicity
 _atom_site_fract_x
 _atom_site_fract_y
 _atom_site_fract_z
 _atom_site_occupancy
  Mg  Mg0  1  0.625000  0.250000  0.875000  1
  Mg  Mg1  1  0.875000  0.750000  0.625000  1
  Mg  Mg2  1  0.750000  0.625000  0.875000  1
  Mg  Mg3  1  0.250000  0.875000  0.625000  1
  Mg  Mg4  1  0.875000  0.625000  0.250000  1
  Mg  Mg5  1  0.625000  0.875000  0.750000  1
  Mg  Mg6  1  0.375000  0.750000  0.125000  1
  Mg  Mg7  1  0.125000  0.250000  0.375000  1
  Mg  Mg8  1  0.250000  0.375000  0.125000  1
  Mg  Mg9  1  0.750000  0.125000  0.375000  1
  Mg  Mg10  1  0.125000  0.375000  0.750000  1
  Mg  Mg11  1  0.375000  0.125000  0.250000  1
  Fe  Fe12  1  0.500000  0.500000  0.500000  1
  Fe  Fe13  1  0.500000  0.500000  0.000000  1
  Fe  Fe14  1  0.500000  0.000000  0.500000  1
  Fe  Fe15  1  0.000000  0.500000  0.500000  1
  Fe  Fe16  1  0.500000  0.000000  0.000000  1
  Fe  Fe17  1  0.000000  0.000000  0.500000  1
  Fe  Fe18  1  0.000000  0.500000  0.000000  1
  Fe  Fe19  1  0.000000  0.000000  0.000000  1
  Ge  Ge20  1  0.875000  0.125000  0.750000  1
  Ge  Ge21  1  0.125000  0.875000  0.250000  1
  Ge  Ge22  1  0.250000  0.625000  0.375000  1
  Ge  Ge23  1  0.125000  0.750000  0.875000  1
  Ge  Ge24  1  0.750000  0.875000  0.125000  1
  Ge  Ge25  1  0.375000  0.250000  0.625000  1
  Ge  Ge26  1  0.625000  0.750000  0.375000  1
  Ge  Ge27  1  0.875000  0.250000  0.125000  1
  Ge  Ge28  1  0.250000  0.125000  0.875000  1
  Ge  Ge29  1  0.750000  0.375000  0.625000  1
  Ge  Ge30  1  0.375000  0.625000  0.750000  1
  Ge  Ge31  1  0.625000  0.375000  0.250000  1
  O  O32  1  0.789564  0.417010  0.817341  1
  O  O33  1  0.082990  0.872554  0.400330  1
  O  O34  1  0.682659  0.099670  0.972223  1
  O  O35  1  0.710436  0.527777  0.627446  1
  O  O36  1  0.710436  0.682659  0.082990  1
  O  O37  1  0.527777  0.627446  0.710436  1
  O  O38  1  0.099670  0.627446  0.417010  1
  O  O39  1  0.627446  0.710436  0.527777  1
  O  O40  1  0.400330  0.817341  0.527777  1
  O  O41  1  0.872554  0.972223  0.789564  1
  O  O42  1  0.972223  0.789564  0.872554  1
  O  O43  1  0.082990  0.710436  0.682659  1
  O  O44  1  0.627446  0.417010  0.099670  1
  O  O45  1  0.527777  0.400330  0.817341  1
  O  O46  1  0.682659  0.082990  0.710436  1
  O  O47  1  0.417010  0.099670  0.627446  1
  O  O48  1  0.817341  0.527777  0.400330  1
  O  O49  1  0.400330  0.082990  0.872554  1
  O  O50  1  0.099670  0.972223  0.682659  1
  O  O51  1  0.599670  0.182659  0.472223  1
  O  O52  1  0.972223  0.682659  0.099670  1
  O  O53  1  0.817341  0.789564  0.417010  1
  O  O54  1  0.872554  0.400330  0.082990  1
  O  O55  1  0.789564  0.872554  0.972223  1
  O  O56  1  0.210436  0.582990  0.182659  1
  O  O57  1  0.917010  0.127446  0.599670  1
  O  O58  1  0.317341  0.900330  0.027777  1
  O  O59  1  0.289564  0.472223  0.372554  1
  O  O60  1  0.289564  0.317341  0.917010  1
  O  O61  1  0.472223  0.372554  0.289564  1
  O  O62  1  0.900330  0.372554  0.582990  1
  O  O63  1  0.372554  0.289564  0.472223  1
  O  O64  1  0.210436  0.127446  0.027777  1
  O  O65  1  0.127446  0.599670  0.917010  1
  O  O66  1  0.182659  0.210436  0.582990  1
  O  O67  1  0.582990  0.182659  0.210436  1
  O  O68  1  0.027777  0.317341  0.900330  1
  O  O69  1  0.900330  0.027777  0.317341  1
  O  O70  1  0.599670  0.917010  0.127446  1
  O  O71  1  0.182659  0.472223  0.599670  1
  O  O72  1  0.582990  0.900330  0.372554  1
  O  O73  1  0.317341  0.917010  0.289564  1
  O  O74  1  0.472223  0.599670  0.182659  1
  O  O75  1  0.372554  0.582990  0.900330  1
  O  O76  1  0.917010  0.289564  0.317341  1
  O  O77  1  0.027777  0.210436  0.127446  1
  O  O78  1  0.127446  0.027777  0.210436  1
  O  O79  1  0.417010  0.817341  0.789564  1
