# generated using pymatgen
data_LaMgFeAgO6
_symmetry_space_group_name_H-M   'P 1'
_cell_length_a   5.51836940
_cell_length_b   5.23124119
_cell_length_c   8.67634220
_cell_angle_alpha   92.07195355
_cell_angle_beta   90.00000000
_cell_angle_gamma   90.00000000
_symmetry_Int_Tables_number   1
_chemical_formula_structural   LaMgFeAgO6
_chemical_formula_sum   'La2 Mg2 Fe2 Ag2 O12'
_cell_volume   250.30421073
_cell_formula_units_Z   2
loop_
 _symmetry_equiv_pos_site_id
 _symmetry_equiv_pos_as_xyz
  1  'x, y, z'
loop_
 _atom_site_type_symbol
 _atom_site_label
 _atom_site_symmetry_multiplicity
 _atom_site_fract_x
 _atom_site_fract_y
 _atom_site_fract_z
 _atom_site_occupancy
  La  La0  1  0.063408  0.975554  0.255935  1
  La  La1  1  0.436592  0.475554  0.755935  1
  Mg  Mg2  1  0.567787  0.540869  0.243978  1
  Mg  Mg3  1  0.932213  0.040869  0.743978  1
  Fe  Fe4  1  0.510391  0.005256  0.002936  1
  Fe  Fe5  1  0.989609  0.505256  0.502936  1
  Ag  Ag6  1  0.498609  0.991715  0.504559  1
  Ag  Ag7  1  0.001391  0.491715  0.004559  1
  O  O8  1  0.034778  0.664530  0.694846  1
  O  O9  1  0.200969  0.186393  0.912698  1
  O  O10  1  0.189164  0.198104  0.565063  1
  O  O11  1  0.310836  0.698104  0.065063  1
  O  O12  1  0.299031  0.686393  0.412698  1
  O  O13  1  0.465222  0.164530  0.194845  1
  O  O14  1  0.567997  0.892916  0.801014  1
  O  O15  1  0.727758  0.273418  0.592404  1
  O  O16  1  0.727945  0.271246  0.926566  1
  O  O17  1  0.772055  0.771246  0.426566  1
  O  O18  1  0.772242  0.773418  0.092404  1
  O  O19  1  0.932003  0.392916  0.301014  1
