# generated using pymatgen
data_SrMo(PO4)2
_symmetry_space_group_name_H-M   'P 1'
_cell_length_a   5.72047447
_cell_length_b   7.13519806
_cell_length_c   9.33753905
_cell_angle_alpha   111.17624166
_cell_angle_beta   100.85610210
_cell_angle_gamma   98.01423576
_symmetry_Int_Tables_number   1
_chemical_formula_structural   SrMo(PO4)2
_chemical_formula_sum   'Sr2 Mo2 P4 O16'
_cell_volume   339.95760479
_cell_formula_units_Z   2
loop_
 _symmetry_equiv_pos_site_id
 _symmetry_equiv_pos_as_xyz
  1  'x, y, z'
loop_
 _atom_site_type_symbol
 _atom_site_label
 _atom_site_symmetry_multiplicity
 _atom_site_fract_x
 _atom_site_fract_y
 _atom_site_fract_z
 _atom_site_occupancy
  Sr  Sr0  1  0.243958  0.758890  0.025850  1
  Sr  Sr1  1  0.756042  0.241110  0.974150  1
  Mo  Mo2  1  0.663672  0.843625  0.562726  1
  Mo  Mo3  1  0.336328  0.156375  0.437274  1
  P  P4  1  0.392032  0.440288  0.230146  1
  P  P5  1  0.607968  0.559712  0.769854  1
  P  P6  1  0.845483  0.033531  0.302329  1
  P  P7  1  0.154517  0.966469  0.697671  1
  O  O8  1  0.830126  0.557427  0.887605  1
  O  O9  1  0.626731  0.475751  0.183100  1
  O  O10  1  0.645471  0.773776  0.748663  1
  O  O11  1  0.951838  0.099423  0.705967  1
  O  O12  1  0.373269  0.524249  0.816900  1
  O  O13  1  0.992426  0.752400  0.573988  1
  O  O14  1  0.007574  0.247600  0.426012  1
  O  O15  1  0.281294  0.987484  0.861892  1
  O  O16  1  0.354529  0.226224  0.251337  1
  O  O17  1  0.718706  0.012516  0.138108  1
  O  O18  1  0.169874  0.442573  0.112395  1
  O  O19  1  0.407422  0.610461  0.400147  1
  O  O20  1  0.592578  0.389539  0.599853  1
  O  O21  1  0.639540  0.970625  0.382561  1
  O  O22  1  0.048162  0.900577  0.294033  1
  O  O23  1  0.360460  0.029376  0.617439  1
