# generated using pymatgen
data_Ba2Ti2TlO7
_symmetry_space_group_name_H-M   'P 1'
_cell_length_a   3.80607770
_cell_length_b   3.80596070
_cell_length_c   13.35816941
_cell_angle_alpha   90.00022713
_cell_angle_beta   90.00043157
_cell_angle_gamma   89.99972240
_symmetry_Int_Tables_number   1
_chemical_formula_structural   Ba2Ti2TlO7
_chemical_formula_sum   'Ba2 Ti2 Tl1 O7'
_cell_volume   193.50353196
_cell_formula_units_Z   1
loop_
 _symmetry_equiv_pos_site_id
 _symmetry_equiv_pos_as_xyz
  1  'x, y, z'
loop_
 _atom_site_type_symbol
 _atom_site_label
 _atom_site_symmetry_multiplicity
 _atom_site_fract_x
 _atom_site_fract_y
 _atom_site_fract_z
 _atom_site_occupancy
  Ba  Ba0  1  0.999995  0.999998  0.701389  1
  Ba  Ba1  1  -0.000001  0.000007  0.298601  1
  Ti  Ti2  1  0.499996  0.499999  0.878912  1
  Ti  Ti3  1  0.500003  0.500000  0.121087  1
  Tl  Tl4  1  0.499968  0.500004  0.499993  1
  O  O5  1  0.000032  0.999993  0.499994  1
  O  O6  1  0.500005  0.999999  0.859959  1
  O  O7  1  0.000007  0.499998  0.859923  1
  O  O8  1  0.499992  -0.000001  0.140072  1
  O  O9  1  0.999994  0.500001  0.140051  1
  O  O10  1  0.499999  0.500003  0.660129  1
  O  O11  1  0.500006  0.500001  0.339856  1
