# generated using pymatgen
data_Y(WF5)3
_symmetry_space_group_name_H-M   'P 1'
_cell_length_a   10.09149041
_cell_length_b   6.12264411
_cell_length_c   10.63965606
_cell_angle_alpha   90.00000000
_cell_angle_beta   90.00000000
_cell_angle_gamma   102.71004965
_symmetry_Int_Tables_number   1
_chemical_formula_structural   Y(WF5)3
_chemical_formula_sum   'Y2 W6 F30'
_cell_volume   641.27955722
_cell_formula_units_Z   2
loop_
 _symmetry_equiv_pos_site_id
 _symmetry_equiv_pos_as_xyz
  1  'x, y, z'
loop_
 _atom_site_type_symbol
 _atom_site_label
 _atom_site_symmetry_multiplicity
 _atom_site_fract_x
 _atom_site_fract_y
 _atom_site_fract_z
 _atom_site_occupancy
  Y  Y0  1  0.917510  0.456418  0.250000  1
  Y  Y1  1  0.415823  0.543582  0.750000  1
  W  W2  1  0.166667  -0.000000  0.500000  1
  W  W3  1  0.508772  0.018366  0.448136  1
  W  W4  1  0.824561  0.981634  0.551864  1
  W  W5  1  0.166667  -0.000000  0.000000  1
  W  W6  1  0.508772  0.018366  0.051864  1
  W  W7  1  0.824561  0.981634  0.948136  1
  F  F8  1  0.091149  0.699049  0.250000  1
  F  F9  1  0.496403  0.964412  0.250000  1
  F  F10  1  0.793303  0.666044  0.250000  1
  F  F11  1  0.242184  0.300951  0.750000  1
  F  F12  1  0.540031  0.333956  0.750000  1
  F  F13  1  0.836930  0.035588  0.750000  1
  F  F14  1  0.031135  0.134966  0.602532  1
  F  F15  1  0.368508  0.176592  0.541130  1
  F  F16  1  0.655650  0.121570  0.588967  1
  F  F17  1  0.302199  0.865034  0.397468  1
  F  F18  1  0.677683  0.878430  0.411033  1
  F  F19  1  0.964825  0.823408  0.458870  1
  F  F20  1  0.166229  0.760416  0.879260  1
  F  F21  1  0.455271  0.759822  0.921180  1
  F  F22  1  0.742547  0.684900  0.886243  1
  F  F23  1  0.167105  0.239584  0.120740  1
  F  F24  1  0.590786  0.315100  0.113757  1
  F  F25  1  0.878062  0.240178  0.078820  1
  F  F26  1  0.167105  0.239584  0.379260  1
  F  F27  1  0.590786  0.315100  0.386243  1
  F  F28  1  0.878062  0.240178  0.421180  1
  F  F29  1  0.166229  0.760416  0.620740  1
  F  F30  1  0.455271  0.759822  0.578820  1
  F  F31  1  0.742547  0.684900  0.613757  1
  F  F32  1  0.031135  0.134966  0.897468  1
  F  F33  1  0.368508  0.176592  0.958870  1
  F  F34  1  0.655650  0.121570  0.911033  1
  F  F35  1  0.302199  0.865034  0.102532  1
  F  F36  1  0.677683  0.878430  0.088967  1
  F  F37  1  0.964825  0.823408  0.041130  1
