# generated using pymatgen
data_Mg2Cu2O5
_symmetry_space_group_name_H-M   'P 1'
_cell_length_a   3.75074592
_cell_length_b   4.75644274
_cell_length_c   10.30535089
_cell_angle_alpha   90.01523858
_cell_angle_beta   90.00119891
_cell_angle_gamma   90.00025938
_symmetry_Int_Tables_number   1
_chemical_formula_structural   Mg2Cu2O5
_chemical_formula_sum   'Mg4 Cu4 O10'
_cell_volume   183.84959901
_cell_formula_units_Z   2
loop_
 _symmetry_equiv_pos_site_id
 _symmetry_equiv_pos_as_xyz
  1  'x, y, z'
loop_
 _atom_site_type_symbol
 _atom_site_label
 _atom_site_symmetry_multiplicity
 _atom_site_fract_x
 _atom_site_fract_y
 _atom_site_fract_z
 _atom_site_occupancy
  Mg  Mg0  1  0.499975  0.210774  0.900729  1
  Mg  Mg1  1  0.500011  0.788298  0.099396  1
  Mg  Mg2  1  0.499992  0.711188  0.599372  1
  Mg  Mg3  1  0.500001  0.288560  0.400738  1
  Cu  Cu4  1  0.000001  0.212356  0.634293  1
  Cu  Cu5  1  0.000037  0.787945  0.365811  1
  Cu  Cu6  1  -0.000044  0.287540  0.134055  1
  Cu  Cu7  1  0.000159  0.712313  0.865877  1
  O  O8  1  0.000000  0.499702  0.499788  1
  O  O9  1  -0.000003  0.177869  0.326064  1
  O  O10  1  0.000017  0.677838  0.173834  1
  O  O11  1  0.999963  0.322229  0.826161  1
  O  O12  1  0.500035  0.273058  0.106705  1
  O  O13  1  0.499901  0.727216  0.893318  1
  O  O14  1  -0.000006  0.822006  0.673826  1
  O  O15  1  0.499994  0.227201  0.606869  1
  O  O16  1  0.000005  0.000388  0.999800  1
  O  O17  1  0.499971  0.773517  0.393363  1
