# generated using pymatgen
data_CaAgBiO5
_symmetry_space_group_name_H-M   'P 1'
_cell_length_a   5.55286315
_cell_length_b   10.75765795
_cell_length_c   16.61079734
_cell_angle_alpha   90.00000000
_cell_angle_beta   90.00000000
_cell_angle_gamma   90.00000000
_symmetry_Int_Tables_number   1
_chemical_formula_structural   CaAgBiO5
_chemical_formula_sum   'Ca8 Ag8 Bi8 O40'
_cell_volume   992.25930779
_cell_formula_units_Z   8
loop_
 _symmetry_equiv_pos_site_id
 _symmetry_equiv_pos_as_xyz
  1  'x, y, z'
loop_
 _atom_site_type_symbol
 _atom_site_label
 _atom_site_symmetry_multiplicity
 _atom_site_fract_x
 _atom_site_fract_y
 _atom_site_fract_z
 _atom_site_occupancy
  Ca  Ca0  1  0.563055  0.368252  0.447594  1
  Ca  Ca1  1  0.063055  0.131748  0.447594  1
  Ca  Ca2  1  0.063055  0.631748  0.052406  1
  Ca  Ca3  1  0.936945  0.368252  0.947594  1
  Ca  Ca4  1  0.436945  0.131748  0.947594  1
  Ca  Ca5  1  0.936945  0.868252  0.552406  1
  Ca  Ca6  1  0.436945  0.631748  0.552406  1
  Ca  Ca7  1  0.563055  0.868252  0.052406  1
  Ag  Ag8  1  0.991298  0.364202  0.586801  1
  Ag  Ag9  1  0.508702  0.864202  0.413199  1
  Ag  Ag10  1  0.008702  0.635798  0.413199  1
  Ag  Ag11  1  0.491298  0.135798  0.586801  1
  Ag  Ag12  1  0.008702  0.135798  0.086801  1
  Ag  Ag13  1  0.991298  0.864202  0.913199  1
  Ag  Ag14  1  0.508702  0.364202  0.086801  1
  Ag  Ag15  1  0.491298  0.635798  0.913199  1
  Bi  Bi16  1  0.973962  0.844028  0.217429  1
  Bi  Bi17  1  0.026038  0.155972  0.782571  1
  Bi  Bi18  1  0.526038  0.344028  0.782571  1
  Bi  Bi19  1  0.026038  0.655972  0.717429  1
  Bi  Bi20  1  0.473962  0.155972  0.282571  1
  Bi  Bi21  1  0.473962  0.655972  0.217429  1
  Bi  Bi22  1  0.526038  0.844028  0.717429  1
  Bi  Bi23  1  0.973962  0.344028  0.282571  1
  O  O24  1  0.842558  0.298246  0.710582  1
  O  O25  1  0.286846  0.024135  0.061517  1
  O  O26  1  0.213155  0.524135  0.938483  1
  O  O27  1  0.275801  0.779258  0.141604  1
  O  O28  1  0.224199  0.279258  0.858396  1
  O  O29  1  0.842558  0.798246  0.789418  1
  O  O30  1  0.224199  0.779258  0.641604  1
  O  O31  1  0.657442  0.798246  0.289418  1
  O  O32  1  0.286846  0.524135  0.438483  1
  O  O33  1  0.157442  0.701754  0.289418  1
  O  O34  1  0.657442  0.298246  0.210582  1
  O  O35  1  0.789040  0.228661  0.535081  1
  O  O36  1  0.786845  0.975865  0.438483  1
  O  O37  1  0.724199  0.720742  0.641604  1
  O  O38  1  0.186322  0.003866  0.852957  1
  O  O39  1  0.786845  0.475865  0.061517  1
  O  O40  1  0.157442  0.201754  0.210582  1
  O  O41  1  0.775801  0.220742  0.358396  1
  O  O42  1  0.289040  0.771339  0.964919  1
  O  O43  1  0.213155  0.024135  0.561517  1
  O  O44  1  0.210960  0.771339  0.464919  1
  O  O45  1  0.813678  0.996134  0.147043  1
  O  O46  1  0.724199  0.220742  0.858396  1
  O  O47  1  0.686322  0.996134  0.647043  1
  O  O48  1  0.210960  0.271339  0.035081  1
  O  O49  1  0.289040  0.271339  0.535081  1
  O  O50  1  0.713155  0.475865  0.561517  1
  O  O51  1  0.713155  0.975865  0.938483  1
  O  O52  1  0.686322  0.496134  0.852957  1
  O  O53  1  0.710960  0.728661  0.464919  1
  O  O54  1  0.710960  0.228661  0.035081  1
  O  O55  1  0.789040  0.728661  0.964919  1
  O  O56  1  0.813678  0.496134  0.352957  1
  O  O57  1  0.775801  0.720742  0.141604  1
  O  O58  1  0.275801  0.279258  0.358396  1
  O  O59  1  0.186322  0.503866  0.647043  1
  O  O60  1  0.313678  0.503866  0.147043  1
  O  O61  1  0.342558  0.201754  0.710582  1
  O  O62  1  0.313678  0.003866  0.352957  1
  O  O63  1  0.342558  0.701754  0.789418  1
