# generated using pymatgen
data_ZnCo(GeO3)2
_symmetry_space_group_name_H-M   'P 1'
_cell_length_a   5.39734569
_cell_length_b   6.88776934
_cell_length_c   6.88776908
_cell_angle_alpha   85.21906022
_cell_angle_beta   76.83427417
_cell_angle_gamma   76.83427307
_symmetry_Int_Tables_number   1
_chemical_formula_structural   ZnCo(GeO3)2
_chemical_formula_sum   'Zn2 Co2 Ge4 O12'
_cell_volume   242.63982669
_cell_formula_units_Z   2
loop_
 _symmetry_equiv_pos_site_id
 _symmetry_equiv_pos_as_xyz
  1  'x, y, z'
loop_
 _atom_site_type_symbol
 _atom_site_label
 _atom_site_symmetry_multiplicity
 _atom_site_fract_x
 _atom_site_fract_y
 _atom_site_fract_z
 _atom_site_occupancy
  Zn  Zn0  1  0.750000  0.244720  0.755280  1
  Zn  Zn1  1  0.250000  0.755280  0.244720  1
  Co  Co2  1  0.750000  0.902103  0.097897  1
  Co  Co3  1  0.250000  0.097897  0.902103  1
  Ge  Ge4  1  0.755149  0.389574  0.209972  1
  Ge  Ge5  1  0.744851  0.790028  0.610426  1
  Ge  Ge6  1  0.244851  0.610426  0.790028  1
  Ge  Ge7  1  0.255149  0.209972  0.389574  1
  O  O8  1  0.530049  0.302940  0.413468  1
  O  O9  1  0.969951  0.586532  0.697060  1
  O  O10  1  0.469951  0.697060  0.586532  1
  O  O11  1  0.030049  0.413468  0.302940  1
  O  O12  1  0.111991  0.133868  0.629560  1
  O  O13  1  0.388009  0.370440  0.866132  1
  O  O14  1  0.888009  0.866132  0.370440  1
  O  O15  1  0.611991  0.629560  0.133868  1
  O  O16  1  0.864841  0.201365  0.029191  1
  O  O17  1  0.635159  0.970809  0.798635  1
  O  O18  1  0.135159  0.798635  0.970809  1
  O  O19  1  0.364841  0.029191  0.201365  1
