# generated using pymatgen
data_Ba2MgCo2CuF14
_symmetry_space_group_name_H-M   'P 1'
_cell_length_a   5.33058726
_cell_length_b   7.45494070
_cell_length_c   14.58894944
_cell_angle_alpha   92.44254711
_cell_angle_beta   89.96842285
_cell_angle_gamma   110.98534131
_symmetry_Int_Tables_number   1
_chemical_formula_structural   Ba2MgCo2CuF14
_chemical_formula_sum   'Ba4 Mg2 Co4 Cu2 F28'
_cell_volume   540.74046755
_cell_formula_units_Z   2
loop_
 _symmetry_equiv_pos_site_id
 _symmetry_equiv_pos_as_xyz
  1  'x, y, z'
loop_
 _atom_site_type_symbol
 _atom_site_label
 _atom_site_symmetry_multiplicity
 _atom_site_fract_x
 _atom_site_fract_y
 _atom_site_fract_z
 _atom_site_occupancy
  Ba  Ba0  1  0.110967  0.376672  0.624635  1
  Ba  Ba1  1  0.261854  0.374801  0.124241  1
  Ba  Ba2  1  0.889425  0.624667  0.374471  1
  Ba  Ba3  1  0.734555  0.623522  0.874823  1
  Mg  Mg4  1  0.439756  0.999268  0.749856  1
  Mg  Mg5  1  0.559140  0.001182  0.249948  1
  Co  Co6  1  0.097866  0.235682  0.872736  1
  Co  Co7  1  0.899672  0.763688  0.126379  1
  Co  Co8  1  0.137701  0.236441  0.372801  1
  Co  Co9  1  0.862561  0.765091  0.626566  1
  Cu  Cu10  1  0.498939  0.999696  0.999683  1
  Cu  Cu11  1  0.499629  0.000658  0.500020  1
  F  F12  1  0.895036  0.992042  0.338451  1
  F  F13  1  0.870977  0.279032  0.456502  1
  F  F14  1  0.128842  0.721983  0.543504  1
  F  F15  1  0.655511  0.507453  0.598315  1
  F  F16  1  0.599496  0.099600  0.622983  1
  F  F17  1  0.499945  0.899833  0.876361  1
  F  F18  1  0.406261  0.278044  0.956101  1
  F  F19  1  0.906868  0.008899  0.161165  1
  F  F20  1  0.361462  0.321092  0.773864  1
  F  F21  1  0.347442  0.493783  0.401370  1
  F  F22  1  0.802083  0.219090  0.788459  1
  F  F23  1  0.147215  0.493121  0.900950  1
  F  F24  1  0.417893  0.220501  0.288129  1
  F  F25  1  0.195299  0.783835  0.211539  1
  F  F26  1  0.499395  0.099212  0.123001  1
  F  F27  1  0.636034  0.678781  0.225316  1
  F  F28  1  0.122643  0.837295  0.016761  1
  F  F29  1  0.103409  0.009229  0.661174  1
  F  F30  1  0.875791  0.161082  0.982237  1
  F  F31  1  0.715634  0.839755  0.516727  1
  F  F32  1  0.591211  0.719907  0.042803  1
  F  F33  1  0.583327  0.780458  0.710873  1
  F  F34  1  0.959595  0.322851  0.273423  1
  F  F35  1  0.285122  0.162331  0.482918  1
  F  F36  1  0.399899  0.901807  0.376418  1
  F  F37  1  0.094708  0.991296  0.838679  1
  F  F38  1  0.040962  0.679976  0.725642  1
  F  F39  1  0.845568  0.506067  0.097298  1
