# generated using pymatgen
data_Ti3Zn(P2O7)2
_symmetry_space_group_name_H-M   'P 1'
_cell_length_a   7.62851636
_cell_length_b   7.89131035
_cell_length_c   9.78191788
_cell_angle_alpha   90.00000000
_cell_angle_beta   112.03760676
_cell_angle_gamma   90.00000000
_symmetry_Int_Tables_number   1
_chemical_formula_structural   Ti3Zn(P2O7)2
_chemical_formula_sum   'Ti6 Zn2 P8 O28'
_cell_volume   545.83804150
_cell_formula_units_Z   2
loop_
 _symmetry_equiv_pos_site_id
 _symmetry_equiv_pos_as_xyz
  1  'x, y, z'
loop_
 _atom_site_type_symbol
 _atom_site_label
 _atom_site_symmetry_multiplicity
 _atom_site_fract_x
 _atom_site_fract_y
 _atom_site_fract_z
 _atom_site_occupancy
  Ti  Ti0  1  0.184265  0.864605  0.527153  1
  Ti  Ti1  1  0.815735  0.364605  0.972847  1
  Ti  Ti2  1  0.815735  0.135395  0.472847  1
  Ti  Ti3  1  0.184265  0.635395  0.027153  1
  Ti  Ti4  1  0.000000  -0.000000  -0.000000  1
  Ti  Ti5  1  0.000000  0.500000  0.500000  1
  Zn  Zn6  1  0.500000  -0.000000  -0.000000  1
  Zn  Zn7  1  0.500000  0.500000  0.500000  1
  P  P8  1  0.606520  0.049306  0.698827  1
  P  P9  1  0.393480  0.549306  0.801173  1
  P  P10  1  0.393480  0.950694  0.301173  1
  P  P11  1  0.606520  0.450694  0.198827  1
  P  P12  1  0.883303  0.794110  0.690962  1
  P  P13  1  0.116697  0.294110  0.809038  1
  P  P14  1  0.116697  0.205890  0.309038  1
  P  P15  1  0.883303  0.705890  0.190962  1
  O  O16  1  0.863676  0.622857  0.616377  1
  O  O17  1  0.136324  0.122857  0.883623  1
  O  O18  1  0.136324  0.377143  0.383623  1
  O  O19  1  0.863676  0.877143  0.116377  1
  O  O20  1  0.267032  0.608164  0.641224  1
  O  O21  1  0.732968  0.108164  0.858776  1
  O  O22  1  0.732968  0.391836  0.358776  1
  O  O23  1  0.267032  0.891836  0.141224  1
  O  O24  1  0.647767  0.164458  0.589361  1
  O  O25  1  0.352233  0.664458  0.910639  1
  O  O26  1  0.352233  0.835542  0.410639  1
  O  O27  1  0.647767  0.335542  0.089361  1
  O  O28  1  0.680534  0.859972  0.677736  1
  O  O29  1  0.319466  0.359971  0.822264  1
  O  O30  1  0.319466  0.140028  0.322264  1
  O  O31  1  0.680534  0.640028  0.177736  1
  O  O32  1  0.399377  0.478846  0.170892  1
  O  O33  1  0.600623  0.978846  0.329108  1
  O  O34  1  0.600623  0.521154  0.829108  1
  O  O35  1  0.399377  0.021154  0.670892  1
  O  O36  1  0.007569  0.209574  0.139761  1
  O  O37  1  0.992431  0.709574  0.360239  1
  O  O38  1  0.992431  0.790426  0.860239  1
  O  O39  1  0.007569  0.290426  0.639761  1
  O  O40  1  0.967044  0.577177  0.111350  1
  O  O41  1  0.032956  0.077177  0.388650  1
  O  O42  1  0.032956  0.422823  0.888650  1
  O  O43  1  0.967044  0.922823  0.611350  1
