# generated using pymatgen
data_CaCrBiO5
_symmetry_space_group_name_H-M   'P 1'
_cell_length_a   5.53877113
_cell_length_b   11.40502951
_cell_length_c   15.59634759
_cell_angle_alpha   90.00000000
_cell_angle_beta   90.00000000
_cell_angle_gamma   90.00000000
_symmetry_Int_Tables_number   1
_chemical_formula_structural   CaCrBiO5
_chemical_formula_sum   'Ca8 Cr8 Bi8 O40'
_cell_volume   985.21890953
_cell_formula_units_Z   8
loop_
 _symmetry_equiv_pos_site_id
 _symmetry_equiv_pos_as_xyz
  1  'x, y, z'
loop_
 _atom_site_type_symbol
 _atom_site_label
 _atom_site_symmetry_multiplicity
 _atom_site_fract_x
 _atom_site_fract_y
 _atom_site_fract_z
 _atom_site_occupancy
  Ca  Ca0  1  0.503412  0.358953  0.448060  1
  Ca  Ca1  1  0.003412  0.141047  0.448060  1
  Ca  Ca2  1  0.003412  0.641047  0.051940  1
  Ca  Ca3  1  0.996588  0.358953  0.948060  1
  Ca  Ca4  1  0.496588  0.141047  0.948060  1
  Ca  Ca5  1  0.996588  0.858953  0.551940  1
  Ca  Ca6  1  0.496588  0.641047  0.551940  1
  Ca  Ca7  1  0.503412  0.858953  0.051940  1
  Cr  Cr8  1  0.983222  0.405193  0.597064  1
  Cr  Cr9  1  0.516778  0.905193  0.402936  1
  Cr  Cr10  1  0.016778  0.594807  0.402936  1
  Cr  Cr11  1  0.483222  0.094807  0.597064  1
  Cr  Cr12  1  0.016778  0.094807  0.097064  1
  Cr  Cr13  1  0.983222  0.905193  0.902936  1
  Cr  Cr14  1  0.516778  0.405193  0.097064  1
  Cr  Cr15  1  0.483222  0.594807  0.902936  1
  Bi  Bi16  1  0.950646  0.844890  0.232941  1
  Bi  Bi17  1  0.049354  0.155110  0.767059  1
  Bi  Bi18  1  0.549354  0.344890  0.767059  1
  Bi  Bi19  1  0.049354  0.655110  0.732941  1
  Bi  Bi20  1  0.450646  0.155110  0.267059  1
  Bi  Bi21  1  0.450646  0.655110  0.232941  1
  Bi  Bi22  1  0.549354  0.844890  0.732941  1
  Bi  Bi23  1  0.950646  0.344890  0.267059  1
  O  O24  1  0.939689  0.328552  0.694763  1
  O  O25  1  0.294632  0.043638  0.066363  1
  O  O26  1  0.205368  0.543638  0.933637  1
  O  O27  1  0.238803  0.766533  0.151630  1
  O  O28  1  0.261197  0.266533  0.848370  1
  O  O29  1  0.939689  0.828552  0.805237  1
  O  O30  1  0.261197  0.766533  0.651630  1
  O  O31  1  0.560311  0.828552  0.305237  1
  O  O32  1  0.294632  0.543638  0.433637  1
  O  O33  1  0.060311  0.671448  0.305237  1
  O  O34  1  0.560311  0.328552  0.194763  1
  O  O35  1  0.623724  0.185448  0.527083  1
  O  O36  1  0.794632  0.956362  0.433637  1
  O  O37  1  0.761197  0.733467  0.651630  1
  O  O38  1  0.164637  0.025178  0.875147  1
  O  O39  1  0.794632  0.456362  0.066363  1
  O  O40  1  0.060311  0.171448  0.194763  1
  O  O41  1  0.738803  0.233467  0.348370  1
  O  O42  1  0.123724  0.814552  0.972917  1
  O  O43  1  0.205368  0.043638  0.566363  1
  O  O44  1  0.376276  0.814552  0.472917  1
  O  O45  1  0.835363  0.974822  0.124853  1
  O  O46  1  0.761197  0.233467  0.848370  1
  O  O47  1  0.664637  0.974822  0.624853  1
  O  O48  1  0.376276  0.314552  0.027083  1
  O  O49  1  0.123724  0.314552  0.527083  1
  O  O50  1  0.705368  0.456362  0.566363  1
  O  O51  1  0.705368  0.956362  0.933637  1
  O  O52  1  0.664637  0.474822  0.875147  1
  O  O53  1  0.876276  0.685448  0.472917  1
  O  O54  1  0.876276  0.185448  0.027083  1
  O  O55  1  0.623724  0.685448  0.972917  1
  O  O56  1  0.835363  0.474822  0.375147  1
  O  O57  1  0.738803  0.733467  0.151630  1
  O  O58  1  0.238803  0.266533  0.348370  1
  O  O59  1  0.164637  0.525178  0.624853  1
  O  O60  1  0.335363  0.525178  0.124853  1
  O  O61  1  0.439689  0.171448  0.694763  1
  O  O62  1  0.335363  0.025178  0.375147  1
  O  O63  1  0.439689  0.671448  0.805237  1
