# generated using pymatgen
data_Zn2MoWO6
_symmetry_space_group_name_H-M   'P 1'
_cell_length_a   5.68632384
_cell_length_b   5.68207605
_cell_length_c   7.77283409
_cell_angle_alpha   84.83916275
_cell_angle_beta   136.70813782
_cell_angle_gamma   124.07780940
_symmetry_Int_Tables_number   1
_chemical_formula_structural   Zn2MoWO6
_chemical_formula_sum   'Zn2 Mo1 W1 O6'
_cell_volume   118.20428508
_cell_formula_units_Z   1
loop_
 _symmetry_equiv_pos_site_id
 _symmetry_equiv_pos_as_xyz
  1  'x, y, z'
loop_
 _atom_site_type_symbol
 _atom_site_label
 _atom_site_symmetry_multiplicity
 _atom_site_fract_x
 _atom_site_fract_y
 _atom_site_fract_z
 _atom_site_occupancy
  Zn  Zn0  1  0.998222  0.517569  0.263054  1
  Zn  Zn1  1  0.996069  0.533218  0.772455  1
  Mo  Mo2  1  0.997222  0.981353  0.495657  1
  W  W3  1  0.997853  0.983568  0.997192  1
  O  O4  1  0.276846  0.115028  0.375211  1
  O  O5  1  0.717267  0.822444  0.618219  1
  O  O6  1  0.343389  0.460699  0.098954  1
  O  O7  1  0.365721  0.831424  0.747560  1
  O  O8  1  0.604465  0.108653  0.221831  1
  O  O9  1  0.676397  0.502578  0.893051  1
