# generated using pymatgen
data_Mg2CuIrO6
_symmetry_space_group_name_H-M   'P 1'
_cell_length_a   5.07294821
_cell_length_b   5.30347802
_cell_length_c   7.71843830
_cell_angle_alpha   90.00000000
_cell_angle_beta   90.95313600
_cell_angle_gamma   90.00000000
_symmetry_Int_Tables_number   1
_chemical_formula_structural   Mg2CuIrO6
_chemical_formula_sum   'Mg4 Cu2 Ir2 O12'
_cell_volume   207.63021008
_cell_formula_units_Z   2
loop_
 _symmetry_equiv_pos_site_id
 _symmetry_equiv_pos_as_xyz
  1  'x, y, z'
loop_
 _atom_site_type_symbol
 _atom_site_label
 _atom_site_symmetry_multiplicity
 _atom_site_fract_x
 _atom_site_fract_y
 _atom_site_fract_z
 _atom_site_occupancy
  Mg  Mg0  1  0.015541  0.930751  0.247081  1
  Mg  Mg1  1  0.484459  0.430751  0.252919  1
  Mg  Mg2  1  0.515541  0.569249  0.747081  1
  Mg  Mg3  1  0.984459  0.069249  0.752919  1
  Cu  Cu4  1  0.000000  0.500000  0.000000  1
  Cu  Cu5  1  0.500000  0.000000  0.500000  1
  Ir  Ir6  1  0.000000  0.500000  0.500000  1
  Ir  Ir7  1  0.500000  0.000000  0.000000  1
  O  O8  1  0.143539  0.426566  0.735037  1
  O  O9  1  0.184311  0.182472  0.072017  1
  O  O10  1  0.171277  0.189256  0.420971  1
  O  O11  1  0.328723  0.689256  0.079029  1
  O  O12  1  0.315689  0.682472  0.427983  1
  O  O13  1  0.356461  0.926566  0.764963  1
  O  O14  1  0.643539  0.073434  0.235037  1
  O  O15  1  0.684311  0.317528  0.572017  1
  O  O16  1  0.671277  0.310744  0.920971  1
  O  O17  1  0.815689  0.817528  0.927983  1
  O  O18  1  0.828723  0.810744  0.579029  1
  O  O19  1  0.856461  0.573434  0.264963  1
