# generated using pymatgen
data_BaTiZnF7
_symmetry_space_group_name_H-M   'P 1'
_cell_length_a   5.71604525
_cell_length_b   9.68163115
_cell_length_c   10.08126219
_cell_angle_alpha   90.00000000
_cell_angle_beta   90.00000000
_cell_angle_gamma   92.69840468
_symmetry_Int_Tables_number   1
_chemical_formula_structural   BaTiZnF7
_chemical_formula_sum   'Ba4 Ti4 Zn4 F28'
_cell_volume   557.28490833
_cell_formula_units_Z   4
loop_
 _symmetry_equiv_pos_site_id
 _symmetry_equiv_pos_as_xyz
  1  'x, y, z'
loop_
 _atom_site_type_symbol
 _atom_site_label
 _atom_site_symmetry_multiplicity
 _atom_site_fract_x
 _atom_site_fract_y
 _atom_site_fract_z
 _atom_site_occupancy
  Ba  Ba0  1  0.265091  0.498969  0.315414  1
  Ba  Ba1  1  0.734909  0.001031  0.815414  1
  Ba  Ba2  1  0.734909  0.501031  0.684586  1
  Ba  Ba3  1  0.265091  0.998969  0.184586  1
  Ti  Ti4  1  0.196279  0.810896  0.610730  1
  Ti  Ti5  1  0.803721  0.189104  0.389270  1
  Ti  Ti6  1  0.196279  0.310896  0.889270  1
  Ti  Ti7  1  0.803721  0.689104  0.110730  1
  Zn  Zn8  1  0.696226  0.809674  0.399049  1
  Zn  Zn9  1  0.303774  0.690326  0.899049  1
  Zn  Zn10  1  0.696226  0.309674  0.100951  1
  Zn  Zn11  1  0.303774  0.190326  0.600951  1
  F  F12  1  0.117998  0.120421  0.444232  1
  F  F13  1  0.367342  0.373192  0.054972  1
  F  F14  1  0.483852  0.751907  0.710382  1
  F  F15  1  0.516148  0.248093  0.289618  1
  F  F16  1  0.892404  0.367137  0.457738  1
  F  F17  1  0.257517  0.495155  0.806440  1
  F  F18  1  0.022696  0.750007  0.780739  1
  F  F19  1  0.107596  0.132863  0.957738  1
  F  F20  1  0.367342  0.873192  0.445028  1
  F  F21  1  0.516148  0.748093  0.210382  1
  F  F22  1  0.117998  0.620421  0.055768  1
  F  F23  1  0.882002  0.879579  0.555768  1
  F  F24  1  0.977304  0.749993  0.280739  1
  F  F25  1  0.389533  0.878074  0.958889  1
  F  F26  1  0.107596  0.632863  0.542262  1
  F  F27  1  0.892404  0.867137  0.042262  1
  F  F28  1  0.977304  0.249993  0.219261  1
  F  F29  1  0.882002  0.379579  0.944232  1
  F  F30  1  0.610467  0.621926  0.458889  1
  F  F31  1  0.632658  0.626808  0.945028  1
  F  F32  1  0.610467  0.121926  0.041111  1
  F  F33  1  0.022696  0.250007  0.719261  1
  F  F34  1  0.389533  0.378074  0.541111  1
  F  F35  1  0.742483  0.004845  0.306440  1
  F  F36  1  0.742483  0.504845  0.193560  1
  F  F37  1  0.257517  0.995155  0.693560  1
  F  F38  1  0.632658  0.126808  0.554972  1
  F  F39  1  0.483852  0.251907  0.789618  1
