# generated using pymatgen
data_ZnCu3P3O13
_symmetry_space_group_name_H-M   'P 1'
_cell_length_a   6.12522866
_cell_length_b   7.59059542
_cell_length_c   10.07667170
_cell_angle_alpha   100.71314548
_cell_angle_beta   90.00000000
_cell_angle_gamma   90.00000000
_symmetry_Int_Tables_number   1
_chemical_formula_structural   ZnCu3P3O13
_chemical_formula_sum   'Zn2 Cu6 P6 O26'
_cell_volume   460.34012942
_cell_formula_units_Z   2
loop_
 _symmetry_equiv_pos_site_id
 _symmetry_equiv_pos_as_xyz
  1  'x, y, z'
loop_
 _atom_site_type_symbol
 _atom_site_label
 _atom_site_symmetry_multiplicity
 _atom_site_fract_x
 _atom_site_fract_y
 _atom_site_fract_z
 _atom_site_occupancy
  Zn  Zn0  1  0.750000  0.640128  0.175546  1
  Zn  Zn1  1  0.250000  0.359872  0.824454  1
  Cu  Cu2  1  0.250000  0.350080  0.202493  1
  Cu  Cu3  1  0.750000  0.649920  0.797507  1
  Cu  Cu4  1  0.250000  0.764272  0.431883  1
  Cu  Cu5  1  0.500000  0.000000  0.000000  1
  Cu  Cu6  1  0.750000  0.235728  0.568117  1
  Cu  Cu7  1  -0.000000  0.000000  0.000000  1
  P  P8  1  0.250000  0.209526  0.488656  1
  P  P9  1  0.750000  0.790474  0.511344  1
  P  P10  1  0.250000  0.737304  0.759564  1
  P  P11  1  0.750000  0.262696  0.240436  1
  P  P12  1  0.750000  0.320908  0.885623  1
  P  P13  1  0.250000  0.679092  0.114377  1
  O  O14  1  0.750000  0.379515  0.744161  1
  O  O15  1  0.561143  0.750316  0.404591  1
  O  O16  1  0.250000  0.797725  0.625589  1
  O  O17  1  0.534724  0.215874  0.893746  1
  O  O18  1  0.750000  0.646872  0.601228  1
  O  O19  1  0.750000  0.881875  0.906250  1
  O  O20  1  0.250000  0.353128  0.398772  1
  O  O21  1  0.034724  0.784126  0.106254  1
  O  O22  1  0.250000  0.024245  0.400632  1
  O  O23  1  0.750000  0.975755  0.599368  1
  O  O24  1  0.061795  0.611738  0.788787  1
  O  O25  1  0.250000  0.118125  0.093750  1
  O  O26  1  0.561795  0.388262  0.211213  1
  O  O27  1  0.750000  0.508134  0.977092  1
  O  O28  1  0.750000  0.202275  0.374411  1
  O  O29  1  0.465276  0.784126  0.106254  1
  O  O30  1  0.938857  0.750316  0.404591  1
  O  O31  1  0.438857  0.249685  0.595409  1
  O  O32  1  0.438205  0.611738  0.788787  1
  O  O33  1  0.250000  0.620485  0.255839  1
  O  O34  1  0.750000  0.089507  0.127833  1
  O  O35  1  0.250000  0.910493  0.872167  1
  O  O36  1  0.938205  0.388262  0.211213  1
  O  O37  1  0.965276  0.215874  0.893746  1
  O  O38  1  0.061143  0.249685  0.595409  1
  O  O39  1  0.250000  0.491866  0.022908  1
