# generated using pymatgen
data_Ba2Mn2AlTlO7
_symmetry_space_group_name_H-M   'P 1'
_cell_length_a   3.76434208
_cell_length_b   3.76436487
_cell_length_c   13.98750774
_cell_angle_alpha   89.94056998
_cell_angle_beta   89.99726945
_cell_angle_gamma   90.03962616
_symmetry_Int_Tables_number   1
_chemical_formula_structural   Ba2Mn2AlTlO7
_chemical_formula_sum   'Ba2 Mn2 Al1 Tl1 O7'
_cell_volume   198.20782470
_cell_formula_units_Z   1
loop_
 _symmetry_equiv_pos_site_id
 _symmetry_equiv_pos_as_xyz
  1  'x, y, z'
loop_
 _atom_site_type_symbol
 _atom_site_label
 _atom_site_symmetry_multiplicity
 _atom_site_fract_x
 _atom_site_fract_y
 _atom_site_fract_z
 _atom_site_occupancy
  Ba  Ba0  1  0.500008  0.500029  0.194610  1
  Ba  Ba1  1  0.499996  0.499968  0.805492  1
  Mn  Mn2  1  0.999985  0.999750  0.371782  1
  Mn  Mn3  1  0.000012  0.000273  0.628150  1
  Al  Al4  1  0.500063  0.499689  0.500000  1
  Tl  Tl5  1  0.000006  0.000001  0.000088  1
  O  O6  1  0.000008  0.000022  0.224229  1
  O  O7  1  0.999931  0.499570  0.412817  1
  O  O8  1  0.499975  0.999375  0.412767  1
  O  O9  1  0.500019  0.000894  0.587113  1
  O  O10  1  0.499984  0.500005  0.000059  1
  O  O11  1  0.000009  0.500451  0.587161  1
  O  O12  1  0.000001  0.999972  0.775733  1
