# generated using pymatgen
data_Mg(TiN)2
_symmetry_space_group_name_H-M   'P 1'
_cell_length_a   3.13929634
_cell_length_b   3.14028356
_cell_length_c   7.76144867
_cell_angle_alpha   90.00354648
_cell_angle_beta   89.99485785
_cell_angle_gamma   89.99977254
_symmetry_Int_Tables_number   1
_chemical_formula_structural   Mg(TiN)2
_chemical_formula_sum   'Mg1 Ti2 N2'
_cell_volume   76.51453920
_cell_formula_units_Z   1
loop_
 _symmetry_equiv_pos_site_id
 _symmetry_equiv_pos_as_xyz
  1  'x, y, z'
loop_
 _atom_site_type_symbol
 _atom_site_label
 _atom_site_symmetry_multiplicity
 _atom_site_fract_x
 _atom_site_fract_y
 _atom_site_fract_z
 _atom_site_occupancy
  Mg  Mg0  1  0.000027  0.000014  0.250011  1
  Ti  Ti1  1  0.500072  0.499957  0.936063  1
  Ti  Ti2  1  0.499916  0.500044  0.563896  1
  N  N3  1  0.499991  -0.000004  0.426507  1
  N  N4  1  -0.000006  0.499988  0.073523  1
