# generated using pymatgen
data_Sb2O5
_symmetry_space_group_name_H-M   'P 1'
_cell_length_a   5.83487053
_cell_length_b   10.25104206
_cell_length_c   3.71696645
_cell_angle_alpha   90.00000680
_cell_angle_beta   90.00000321
_cell_angle_gamma   89.99977822
_symmetry_Int_Tables_number   1
_chemical_formula_structural   Sb2O5
_chemical_formula_sum   'Sb4 O10'
_cell_volume   222.32478472
_cell_formula_units_Z   2
loop_
 _symmetry_equiv_pos_site_id
 _symmetry_equiv_pos_as_xyz
  1  'x, y, z'
loop_
 _atom_site_type_symbol
 _atom_site_label
 _atom_site_symmetry_multiplicity
 _atom_site_fract_x
 _atom_site_fract_y
 _atom_site_fract_z
 _atom_site_occupancy
  Sb  Sb0  1  0.722852  0.360278  1.000000  1
  Sb  Sb1  1  0.277148  0.639723  -0.000000  1
  Sb  Sb2  1  0.222837  0.139742  -0.000000  1
  Sb  Sb3  1  0.777163  0.860258  0.000000  1
  O  O4  1  0.795294  0.403065  0.500000  1
  O  O5  1  0.204706  0.596935  0.500000  1
  O  O6  1  0.295286  0.096940  0.500000  1
  O  O7  1  0.704714  0.903060  0.500000  1
  O  O8  1  0.049231  0.298338  0.000000  1
  O  O9  1  0.950769  0.701662  0.000000  1
  O  O10  1  0.549216  0.201648  0.000000  1
  O  O11  1  0.450784  0.798352  1.000000  1
  O  O12  1  0.500000  0.500000  0.000000  1
  O  O13  1  -0.000000  0.000000  1.000000  1
