# generated using pymatgen
data_ZnAgBiO5
_symmetry_space_group_name_H-M   'P 1'
_cell_length_a   5.33596001
_cell_length_b   10.32952451
_cell_length_c   15.44322812
_cell_angle_alpha   90.00000000
_cell_angle_beta   90.00000000
_cell_angle_gamma   90.00000000
_symmetry_Int_Tables_number   1
_chemical_formula_structural   ZnAgBiO5
_chemical_formula_sum   'Zn8 Ag8 Bi8 O40'
_cell_volume   851.19876198
_cell_formula_units_Z   8
loop_
 _symmetry_equiv_pos_site_id
 _symmetry_equiv_pos_as_xyz
  1  'x, y, z'
loop_
 _atom_site_type_symbol
 _atom_site_label
 _atom_site_symmetry_multiplicity
 _atom_site_fract_x
 _atom_site_fract_y
 _atom_site_fract_z
 _atom_site_occupancy
  Zn  Zn0  1  0.549982  0.371271  0.440853  1
  Zn  Zn1  1  0.049982  0.128729  0.440853  1
  Zn  Zn2  1  0.049982  0.628729  0.059147  1
  Zn  Zn3  1  0.950018  0.371271  0.940853  1
  Zn  Zn4  1  0.450018  0.128729  0.940853  1
  Zn  Zn5  1  0.950018  0.871271  0.559147  1
  Zn  Zn6  1  0.450018  0.628729  0.559147  1
  Zn  Zn7  1  0.549982  0.871271  0.059147  1
  Ag  Ag8  1  0.029441  0.384987  0.580503  1
  Ag  Ag9  1  0.470559  0.884987  0.419497  1
  Ag  Ag10  1  0.970559  0.615013  0.419497  1
  Ag  Ag11  1  0.529441  0.115013  0.580503  1
  Ag  Ag12  1  0.970559  0.115013  0.080503  1
  Ag  Ag13  1  0.029441  0.884987  0.919497  1
  Ag  Ag14  1  0.470559  0.384987  0.080503  1
  Ag  Ag15  1  0.529441  0.615013  0.919497  1
  Bi  Bi16  1  0.038816  0.855598  0.245335  1
  Bi  Bi17  1  0.961184  0.144402  0.754665  1
  Bi  Bi18  1  0.461184  0.355598  0.754665  1
  Bi  Bi19  1  0.961184  0.644402  0.745335  1
  Bi  Bi20  1  0.538816  0.144402  0.254665  1
  Bi  Bi21  1  0.538816  0.644402  0.245335  1
  Bi  Bi22  1  0.461184  0.855598  0.745335  1
  Bi  Bi23  1  0.038816  0.355598  0.254665  1
  O  O24  1  0.787301  0.300904  0.671929  1
  O  O25  1  0.269504  0.975572  0.004655  1
  O  O26  1  0.230496  0.475572  0.995345  1
  O  O27  1  0.376587  0.809682  0.172608  1
  O  O28  1  0.123413  0.309682  0.827392  1
  O  O29  1  0.787301  0.800904  0.828071  1
  O  O30  1  0.123413  0.809682  0.672608  1
  O  O31  1  0.712699  0.800904  0.328071  1
  O  O32  1  0.269504  0.475572  0.495345  1
  O  O33  1  0.212699  0.699096  0.328071  1
  O  O34  1  0.712699  0.300904  0.171929  1
  O  O35  1  0.854440  0.280730  0.489547  1
  O  O36  1  0.769504  0.024428  0.495345  1
  O  O37  1  0.623413  0.690318  0.672608  1
  O  O38  1  0.214749  0.000063  0.828782  1
  O  O39  1  0.769504  0.524428  0.004655  1
  O  O40  1  0.212699  0.199096  0.171929  1
  O  O41  1  0.876587  0.190318  0.327392  1
  O  O42  1  0.354440  0.719270  0.010453  1
  O  O43  1  0.230496  0.975572  0.504655  1
  O  O44  1  0.145560  0.719270  0.510453  1
  O  O45  1  0.785251  -0.000063  0.171218  1
  O  O46  1  0.623413  0.190318  0.827392  1
  O  O47  1  0.714749  -0.000063  0.671218  1
  O  O48  1  0.145560  0.219270  0.989547  1
  O  O49  1  0.354440  0.219270  0.489547  1
  O  O50  1  0.730496  0.524428  0.504655  1
  O  O51  1  0.730496  0.024428  0.995345  1
  O  O52  1  0.714749  0.499937  0.828782  1
  O  O53  1  0.645560  0.780730  0.510453  1
  O  O54  1  0.645560  0.280730  0.989547  1
  O  O55  1  0.854440  0.780730  0.010453  1
  O  O56  1  0.785251  0.499937  0.328782  1
  O  O57  1  0.876587  0.690318  0.172608  1
  O  O58  1  0.376587  0.309682  0.327392  1
  O  O59  1  0.214749  0.500063  0.671218  1
  O  O60  1  0.285251  0.500063  0.171218  1
  O  O61  1  0.287301  0.199096  0.671929  1
  O  O62  1  0.285251  0.000063  0.328782  1
  O  O63  1  0.287301  0.699096  0.828071  1
