# generated using pymatgen
data_Ba2ZnCu3F14
_symmetry_space_group_name_H-M   'P 1'
_cell_length_a   5.28552412
_cell_length_b   7.40503742
_cell_length_c   14.56251780
_cell_angle_alpha   91.30245262
_cell_angle_beta   89.83640782
_cell_angle_gamma   110.95263466
_symmetry_Int_Tables_number   1
_chemical_formula_structural   Ba2ZnCu3F14
_chemical_formula_sum   'Ba4 Zn2 Cu6 F28'
_cell_volume   532.13524289
_cell_formula_units_Z   2
loop_
 _symmetry_equiv_pos_site_id
 _symmetry_equiv_pos_as_xyz
  1  'x, y, z'
loop_
 _atom_site_type_symbol
 _atom_site_label
 _atom_site_symmetry_multiplicity
 _atom_site_fract_x
 _atom_site_fract_y
 _atom_site_fract_z
 _atom_site_occupancy
  Ba  Ba0  1  0.119041  0.381172  0.623369  1
  Ba  Ba1  1  0.262559  0.383236  0.123250  1
  Ba  Ba2  1  0.881555  0.619396  0.376846  1
  Ba  Ba3  1  0.739977  0.618085  0.877219  1
  Zn  Zn4  1  0.423339  0.998776  0.750265  1
  Zn  Zn5  1  0.576030  -0.000130  0.249899  1
  Cu  Cu6  1  0.100689  0.237612  0.872814  1
  Cu  Cu7  1  0.899449  0.763445  0.127346  1
  Cu  Cu8  1  0.139449  0.236552  0.372965  1
  Cu  Cu9  1  0.864156  0.764625  0.627722  1
  Cu  Cu10  1  0.500107  -0.000033  -0.000725  1
  Cu  Cu11  1  0.501863  0.002073  0.500222  1
  F  F12  1  0.898806  0.982979  0.339442  1
  F  F13  1  0.851145  0.256855  0.456962  1
  F  F14  1  0.146872  0.741248  0.543470  1
  F  F15  1  0.662829  0.499445  0.596555  1
  F  F16  1  0.607545  0.100712  0.623118  1
  F  F17  1  0.504522  0.897739  0.878919  1
  F  F18  1  0.405317  0.263075  0.956595  1
  F  F19  1  0.914707  0.018599  0.160512  1
  F  F20  1  0.366984  0.326043  0.775010  1
  F  F21  1  0.339536  0.500798  0.405699  1
  F  F22  1  0.806655  0.230581  0.789859  1
  F  F23  1  0.163502  0.501604  0.906727  1
  F  F24  1  0.426273  0.228838  0.287420  1
  F  F25  1  0.194947  0.771708  0.211275  1
  F  F26  1  0.496711  0.103312  0.121522  1
  F  F27  1  0.632342  0.676698  0.225977  1
  F  F28  1  0.131626  0.839202  0.018680  1
  F  F29  1  0.102958  0.018521  0.660525  1
  F  F30  1  0.872907  0.162994  0.982662  1
  F  F31  1  0.709019  0.835189  0.517398  1
  F  F32  1  0.595940  0.738027  0.043283  1
  F  F33  1  0.579953  0.771605  0.712892  1
  F  F34  1  0.962526  0.327342  0.275756  1
  F  F35  1  0.289776  0.166174  0.484786  1
  F  F36  1  0.393257  0.899574  0.377958  1
  F  F37  1  0.086439  0.983142  0.839622  1
  F  F38  1  0.045949  0.677383  0.725243  1
  F  F39  1  0.838189  0.500411  0.094563  1
