# generated using pymatgen
data_CrBiO5
_symmetry_space_group_name_H-M   'P 1'
_cell_length_a   6.20284376
_cell_length_b   11.70533690
_cell_length_c   15.89320707
_cell_angle_alpha   90.00000000
_cell_angle_beta   90.00000000
_cell_angle_gamma   90.00000000
_symmetry_Int_Tables_number   1
_chemical_formula_structural   CrBiO5
_chemical_formula_sum   'Cr8 Bi8 O40'
_cell_volume   1153.94816756
_cell_formula_units_Z   8
loop_
 _symmetry_equiv_pos_site_id
 _symmetry_equiv_pos_as_xyz
  1  'x, y, z'
loop_
 _atom_site_type_symbol
 _atom_site_label
 _atom_site_symmetry_multiplicity
 _atom_site_fract_x
 _atom_site_fract_y
 _atom_site_fract_z
 _atom_site_occupancy
  Cr  Cr0  1  0.978169  0.400315  0.617571  1
  Cr  Cr1  1  0.521831  0.900315  0.382429  1
  Cr  Cr2  1  0.021831  0.599685  0.382429  1
  Cr  Cr3  1  0.478169  0.099685  0.617571  1
  Cr  Cr4  1  0.021831  0.099685  0.117572  1
  Cr  Cr5  1  0.978169  0.900315  0.882429  1
  Cr  Cr6  1  0.521831  0.400315  0.117572  1
  Cr  Cr7  1  0.478169  0.599685  0.882429  1
  Bi  Bi8  1  0.927695  0.822229  0.214343  1
  Bi  Bi9  1  0.072305  0.177771  0.785657  1
  Bi  Bi10  1  0.572305  0.322229  0.785657  1
  Bi  Bi11  1  0.072305  0.677771  0.714343  1
  Bi  Bi12  1  0.427695  0.177771  0.285657  1
  Bi  Bi13  1  0.427695  0.677771  0.214343  1
  Bi  Bi14  1  0.572305  0.822229  0.714343  1
  Bi  Bi15  1  0.927695  0.322229  0.285657  1
  O  O16  1  0.889797  0.304025  0.698920  1
  O  O17  1  0.236505  0.045326  0.078794  1
  O  O18  1  0.263495  0.545326  0.921206  1
  O  O19  1  0.227015  0.793328  0.152136  1
  O  O20  1  0.272985  0.293328  0.847864  1
  O  O21  1  0.889797  0.804025  0.801080  1
  O  O22  1  0.272985  0.793328  0.652136  1
  O  O23  1  0.610203  0.804025  0.301080  1
  O  O24  1  0.236505  0.545326  0.421206  1
  O  O25  1  0.110203  0.695975  0.301080  1
  O  O26  1  0.610203  0.304025  0.198920  1
  O  O27  1  0.610693  0.168391  0.547423  1
  O  O28  1  0.736505  0.954674  0.421206  1
  O  O29  1  0.772985  0.706672  0.652136  1
  O  O30  1  0.143776  0.003726  0.838130  1
  O  O31  1  0.736505  0.454674  0.078794  1
  O  O32  1  0.110203  0.195975  0.198920  1
  O  O33  1  0.727015  0.206672  0.347864  1
  O  O34  1  0.110693  0.831609  0.952577  1
  O  O35  1  0.263495  0.045326  0.578794  1
  O  O36  1  0.389307  0.831609  0.452577  1
  O  O37  1  0.856224  0.996274  0.161870  1
  O  O38  1  0.772985  0.206672  0.847864  1
  O  O39  1  0.643776  0.996274  0.661870  1
  O  O40  1  0.389307  0.331609  0.047423  1
  O  O41  1  0.110693  0.331609  0.547423  1
  O  O42  1  0.763495  0.454674  0.578794  1
  O  O43  1  0.763495  0.954674  0.921206  1
  O  O44  1  0.643776  0.496274  0.838130  1
  O  O45  1  0.889307  0.668391  0.452577  1
  O  O46  1  0.889307  0.168391  0.047423  1
  O  O47  1  0.610693  0.668391  0.952577  1
  O  O48  1  0.856224  0.496274  0.338130  1
  O  O49  1  0.727015  0.706672  0.152136  1
  O  O50  1  0.227015  0.293328  0.347864  1
  O  O51  1  0.143776  0.503726  0.661870  1
  O  O52  1  0.356224  0.503726  0.161870  1
  O  O53  1  0.389797  0.195975  0.698920  1
  O  O54  1  0.356224  0.003726  0.338130  1
  O  O55  1  0.389797  0.695975  0.801080  1
