# generated using pymatgen
data_ZnNiBiO5
_symmetry_space_group_name_H-M   'P 1'
_cell_length_a   5.36201969
_cell_length_b   8.22653892
_cell_length_c   10.45852245
_cell_angle_alpha   90.00000000
_cell_angle_beta   90.00000000
_cell_angle_gamma   107.40968400
_symmetry_Int_Tables_number   1
_chemical_formula_structural   ZnNiBiO5
_chemical_formula_sum   'Zn4 Ni4 Bi4 O20'
_cell_volume   440.20062077
_cell_formula_units_Z   4
loop_
 _symmetry_equiv_pos_site_id
 _symmetry_equiv_pos_as_xyz
  1  'x, y, z'
loop_
 _atom_site_type_symbol
 _atom_site_label
 _atom_site_symmetry_multiplicity
 _atom_site_fract_x
 _atom_site_fract_y
 _atom_site_fract_z
 _atom_site_occupancy
  Zn  Zn0  1  0.642548  0.172845  0.908716  1
  Zn  Zn1  1  0.357452  0.827155  0.091284  1
  Zn  Zn2  1  0.857452  0.327155  0.408716  1
  Zn  Zn3  1  0.142548  0.672845  0.591284  1
  Ni  Ni4  1  0.814619  0.943112  0.614764  1
  Ni  Ni5  1  0.185381  0.056888  0.385236  1
  Ni  Ni6  1  0.685381  0.556888  0.114764  1
  Ni  Ni7  1  0.314619  0.443112  0.885236  1
  Bi  Bi8  1  0.133897  0.157303  0.104028  1
  Bi  Bi9  1  0.866103  0.842697  0.895972  1
  Bi  Bi10  1  0.633897  0.657303  0.395972  1
  Bi  Bi11  1  0.366103  0.342697  0.604028  1
  O  O12  1  0.496040  0.342311  0.044274  1
  O  O13  1  0.012183  0.318442  0.968760  1
  O  O14  1  0.510161  0.689550  0.207122  1
  O  O15  1  0.751840  0.505080  0.544258  1
  O  O16  1  0.786305  0.493362  0.280320  1
  O  O17  1  0.286305  0.993362  0.219680  1
  O  O18  1  0.512183  0.818442  0.531240  1
  O  O19  1  0.487817  0.181558  0.468760  1
  O  O20  1  0.248160  0.494920  0.455742  1
  O  O21  1  0.003960  0.157689  0.544274  1
  O  O22  1  0.213695  0.506638  0.719680  1
  O  O23  1  0.503960  0.657689  0.955726  1
  O  O24  1  0.996040  0.842311  0.455726  1
  O  O25  1  0.713695  0.006638  0.780320  1
  O  O26  1  0.748160  0.994920  0.044258  1
  O  O27  1  0.251840  0.005080  0.955742  1
  O  O28  1  0.489839  0.310450  0.792878  1
  O  O29  1  0.987817  0.681558  0.031240  1
  O  O30  1  0.989839  0.810450  0.707122  1
  O  O31  1  0.010161  0.189550  0.292878  1
