# generated using pymatgen
data_CaNi2O5
_symmetry_space_group_name_H-M   'P 1'
_cell_length_a   3.71921099
_cell_length_b   5.40423074
_cell_length_c   10.85334273
_cell_angle_alpha   90.27217496
_cell_angle_beta   89.99997904
_cell_angle_gamma   90.00013715
_symmetry_Int_Tables_number   1
_chemical_formula_structural   CaNi2O5
_chemical_formula_sum   'Ca2 Ni4 O10'
_cell_volume   218.14402271
_cell_formula_units_Z   2
loop_
 _symmetry_equiv_pos_site_id
 _symmetry_equiv_pos_as_xyz
  1  'x, y, z'
loop_
 _atom_site_type_symbol
 _atom_site_label
 _atom_site_symmetry_multiplicity
 _atom_site_fract_x
 _atom_site_fract_y
 _atom_site_fract_z
 _atom_site_occupancy
  Ca  Ca0  1  0.750000  0.867161  0.251098  1
  Ca  Ca1  1  0.249999  0.128574  0.749072  1
  Ni  Ni2  1  0.249999  0.469196  0.099580  1
  Ni  Ni3  1  0.750000  0.533755  0.900070  1
  Ni  Ni4  1  0.750000  0.528134  0.600381  1
  Ni  Ni5  1  0.249999  0.470156  0.400396  1
  O  O6  1  0.750000  0.373248  0.749854  1
  O  O7  1  0.249999  0.625990  0.250788  1
  O  O8  1  0.749999  0.566976  0.074007  1
  O  O9  1  0.249999  0.437749  0.925186  1
  O  O10  1  0.750000  0.569852  0.426990  1
  O  O11  1  0.250000  0.427315  0.573888  1
  O  O12  1  0.250000  0.137207  0.316991  1
  O  O13  1  0.749999  0.863038  0.682128  1
  O  O14  1  0.749999  0.865875  0.816302  1
  O  O15  1  0.250000  0.135774  0.183269  1
