# generated using pymatgen
data_Ca3(FeN2)2
_symmetry_space_group_name_H-M   'P 1'
_cell_length_a   4.85749585
_cell_length_b   6.36500792
_cell_length_c   6.39906916
_cell_angle_alpha   55.27496536
_cell_angle_beta   67.81675138
_cell_angle_gamma   67.70635251
_symmetry_Int_Tables_number   1
_chemical_formula_structural   Ca3(FeN2)2
_chemical_formula_sum   'Ca3 Fe2 N4'
_cell_volume   147.02332900
_cell_formula_units_Z   1
loop_
 _symmetry_equiv_pos_site_id
 _symmetry_equiv_pos_as_xyz
  1  'x, y, z'
loop_
 _atom_site_type_symbol
 _atom_site_label
 _atom_site_symmetry_multiplicity
 _atom_site_fract_x
 _atom_site_fract_y
 _atom_site_fract_z
 _atom_site_occupancy
  Ca  Ca0  1  0.695737  0.274507  0.334300  1
  Ca  Ca1  1  0.317118  0.668441  0.700857  1
  Ca  Ca2  1  0.007199  0.687104  0.300265  1
  Fe  Fe3  1  0.391351  0.104986  0.115047  1
  Fe  Fe4  1  0.620675  0.876473  0.882524  1
  N  N5  1  0.224972  0.318854  0.232407  1
  N  N6  1  0.785692  0.771469  0.658064  1
  N  N7  1  0.504182  0.211995  0.781029  1
  N  N8  1  0.508766  0.752677  0.233291  1
