# generated using pymatgen
data_BiO2
_symmetry_space_group_name_H-M   'P 1'
_cell_length_a   7.05557601
_cell_length_b   6.98909366
_cell_length_c   7.37527750
_cell_angle_alpha   58.76216808
_cell_angle_beta   57.90865564
_cell_angle_gamma   56.26463943
_symmetry_Int_Tables_number   1
_chemical_formula_structural   BiO2
_chemical_formula_sum   'Bi4 O8'
_cell_volume   242.99519296
_cell_formula_units_Z   4
loop_
 _symmetry_equiv_pos_site_id
 _symmetry_equiv_pos_as_xyz
  1  'x, y, z'
loop_
 _atom_site_type_symbol
 _atom_site_label
 _atom_site_symmetry_multiplicity
 _atom_site_fract_x
 _atom_site_fract_y
 _atom_site_fract_z
 _atom_site_occupancy
  Bi  Bi0  1  0.500000  0.500000  0.000000  1
  Bi  Bi1  1  0.500000  0.000000  0.500000  1
  Bi  Bi2  1  0.500000  0.500000  0.500001  1
  Bi  Bi3  1  0.000001  0.500000  0.499999  1
  O  O4  1  0.262644  0.253706  0.295171  1
  O  O5  1  0.309255  0.766471  0.715862  1
  O  O6  1  0.746251  0.737616  0.311439  1
  O  O7  1  0.690744  0.233531  0.284139  1
  O  O8  1  0.766416  0.309494  0.708514  1
  O  O9  1  0.233585  0.690506  0.291486  1
  O  O10  1  0.253749  0.262384  0.688561  1
  O  O11  1  0.737356  0.746293  0.704829  1
