# generated using pymatgen
data_Ca3V3(AsO4)4
_symmetry_space_group_name_H-M   'P 1'
_cell_length_a   5.29487520
_cell_length_b   9.11683056
_cell_length_c   15.90381340
_cell_angle_alpha   96.54179902
_cell_angle_beta   90.00000000
_cell_angle_gamma   90.00000000
_symmetry_Int_Tables_number   1
_chemical_formula_structural   Ca3V3(AsO4)4
_chemical_formula_sum   'Ca6 V6 As8 O32'
_cell_volume   762.71791711
_cell_formula_units_Z   2
loop_
 _symmetry_equiv_pos_site_id
 _symmetry_equiv_pos_as_xyz
  1  'x, y, z'
loop_
 _atom_site_type_symbol
 _atom_site_label
 _atom_site_symmetry_multiplicity
 _atom_site_fract_x
 _atom_site_fract_y
 _atom_site_fract_z
 _atom_site_occupancy
  Ca  Ca0  1  0.960053  0.023363  0.732238  1
  Ca  Ca1  1  0.460053  0.476637  0.767762  1
  Ca  Ca2  1  0.039947  0.976637  0.267762  1
  Ca  Ca3  1  0.539947  0.523363  0.232238  1
  Ca  Ca4  1  -0.000000  0.000000  -0.000000  1
  Ca  Ca5  1  0.500000  0.500000  0.500000  1
  V  V6  1  0.041058  0.338399  0.121668  1
  V  V7  1  0.958942  0.661601  0.878332  1
  V  V8  1  0.541058  0.161601  0.378332  1
  V  V9  1  0.458942  0.838399  0.621668  1
  V  V10  1  0.500000  0.500000  -0.000000  1
  V  V11  1  -0.000000  0.000000  0.500000  1
  As  As12  1  0.477926  0.886401  0.844731  1
  As  As13  1  0.025514  0.339359  0.899439  1
  As  As14  1  0.525514  0.160641  0.600561  1
  As  As15  1  0.474486  0.839359  0.399439  1
  As  As16  1  0.522074  0.113599  0.155269  1
  As  As17  1  0.974486  0.660641  0.100561  1
  As  As18  1  0.022074  0.386401  0.344731  1
  As  As19  1  0.977926  0.613599  0.655269  1
  O  O20  1  0.031117  0.558347  0.754657  1
  O  O21  1  0.562874  0.245768  0.510900  1
  O  O22  1  0.100446  0.232320  0.809748  1
  O  O23  1  0.085115  0.792996  0.656894  1
  O  O24  1  0.899554  0.767680  0.190252  1
  O  O25  1  0.468883  0.058347  0.254657  1
  O  O26  1  0.600446  0.267680  0.690252  1
  O  O27  1  0.759350  0.937430  0.396925  1
  O  O28  1  0.855363  0.505482  0.413089  1
  O  O29  1  0.968883  0.441653  0.245343  1
  O  O30  1  0.414885  0.292996  0.156894  1
  O  O31  1  0.240650  0.062570  0.603075  1
  O  O32  1  0.231214  0.492102  0.905634  1
  O  O33  1  0.144637  0.494518  0.586911  1
  O  O34  1  0.847683  0.118816  0.137047  1
  O  O35  1  0.347683  0.381184  0.362953  1
  O  O36  1  0.731214  0.007898  0.594366  1
  O  O37  1  0.399554  0.732320  0.309748  1
  O  O38  1  0.355363  0.994518  0.086911  1
  O  O39  1  0.259350  0.562570  0.103075  1
  O  O40  1  0.652317  0.618816  0.637047  1
  O  O41  1  0.152317  0.881184  0.862953  1
  O  O42  1  0.437126  0.754232  0.489100  1
  O  O43  1  0.062874  0.254232  0.989100  1
  O  O44  1  0.768786  0.507898  0.094366  1
  O  O45  1  0.531117  0.941653  0.745343  1
  O  O46  1  0.914885  0.207004  0.343106  1
  O  O47  1  0.644637  0.005482  0.913089  1
  O  O48  1  0.937126  0.745768  0.010900  1
  O  O49  1  0.740650  0.437430  0.896925  1
  O  O50  1  0.268786  0.992102  0.405634  1
  O  O51  1  0.585115  0.707004  0.843106  1
