# generated using pymatgen
data_MgCo2(CuO4)2
_symmetry_space_group_name_H-M   'P 1'
_cell_length_a   6.45463020
_cell_length_b   8.30304422
_cell_length_c   11.71318091
_cell_angle_alpha   90.00000000
_cell_angle_beta   91.05165149
_cell_angle_gamma   90.00000000
_symmetry_Int_Tables_number   1
_chemical_formula_structural   MgCo2(CuO4)2
_chemical_formula_sum   'Mg4 Co8 Cu8 O32'
_cell_volume   627.63970133
_cell_formula_units_Z   4
loop_
 _symmetry_equiv_pos_site_id
 _symmetry_equiv_pos_as_xyz
  1  'x, y, z'
loop_
 _atom_site_type_symbol
 _atom_site_label
 _atom_site_symmetry_multiplicity
 _atom_site_fract_x
 _atom_site_fract_y
 _atom_site_fract_z
 _atom_site_occupancy
  Mg  Mg0  1  0.115070  0.159142  0.047446  1
  Mg  Mg1  1  0.884930  0.840858  0.952554  1
  Mg  Mg2  1  0.884930  0.659142  0.452554  1
  Mg  Mg3  1  0.115070  0.340858  0.547446  1
  Co  Co4  1  0.103852  0.464532  0.842757  1
  Co  Co5  1  0.103852  0.035468  0.342757  1
  Co  Co6  1  0.609283  0.091147  0.132731  1
  Co  Co7  1  0.896148  0.964532  0.657243  1
  Co  Co8  1  0.390717  0.908853  0.867269  1
  Co  Co9  1  0.390717  0.591147  0.367269  1
  Co  Co10  1  0.609283  0.408853  0.632731  1
  Co  Co11  1  0.896148  0.535468  0.157243  1
  Cu  Cu12  1  0.757874  0.188854  0.878009  1
  Cu  Cu13  1  0.377368  0.059538  0.631874  1
  Cu  Cu14  1  0.622632  0.940462  0.368126  1
  Cu  Cu15  1  0.242126  0.811146  0.121991  1
  Cu  Cu16  1  0.757874  0.311146  0.378009  1
  Cu  Cu17  1  0.377368  0.440462  0.131874  1
  Cu  Cu18  1  0.242126  0.688854  0.621991  1
  Cu  Cu19  1  0.622632  0.559538  0.868126  1
  O  O20  1  0.028962  0.229335  0.395004  1
  O  O21  1  0.652752  0.009456  0.599652  1
  O  O22  1  0.188039  0.576067  0.477287  1
  O  O23  1  0.811961  0.076067  0.022713  1
  O  O24  1  0.028962  0.270665  0.895004  1
  O  O25  1  0.971038  0.770665  0.604996  1
  O  O26  1  0.094230  0.108444  0.620950  1
  O  O27  1  0.507582  0.897819  0.141498  1
  O  O28  1  0.507582  0.602181  0.641498  1
  O  O29  1  0.317902  0.870453  0.716558  1
  O  O30  1  0.682098  0.370453  0.783442  1
  O  O31  1  0.492418  0.102181  0.858502  1
  O  O32  1  0.905770  0.891556  0.379050  1
  O  O33  1  0.872791  0.519909  0.300788  1
  O  O34  1  0.414067  0.271290  0.583431  1
  O  O35  1  0.414067  0.228710  0.083431  1
  O  O36  1  0.127209  0.019909  0.199212  1
  O  O37  1  0.492418  0.397819  0.358502  1
  O  O38  1  0.127209  0.480091  0.699212  1
  O  O39  1  0.811961  0.423933  0.522713  1
  O  O40  1  0.652752  0.490544  0.099652  1
  O  O41  1  0.682098  0.129547  0.283442  1
  O  O42  1  0.971038  0.729335  0.104996  1
  O  O43  1  0.094230  0.391556  0.120950  1
  O  O44  1  0.188039  0.923933  0.977287  1
  O  O45  1  0.585933  0.771290  0.916569  1
  O  O46  1  0.347248  0.990544  0.400348  1
  O  O47  1  0.347248  0.509456  0.900348  1
  O  O48  1  0.905770  0.608444  0.879050  1
  O  O49  1  0.585933  0.728710  0.416569  1
  O  O50  1  0.317902  0.629547  0.216558  1
  O  O51  1  0.872791  0.980091  0.800788  1
