# generated using pymatgen
data_Ba2Ti3O7
_symmetry_space_group_name_H-M   'P 1'
_cell_length_a   3.95812318
_cell_length_b   4.00940327
_cell_length_c   12.05891564
_cell_angle_alpha   89.82867170
_cell_angle_beta   90.36244248
_cell_angle_gamma   90.03392726
_symmetry_Int_Tables_number   1
_chemical_formula_structural   Ba2Ti3O7
_chemical_formula_sum   'Ba2 Ti3 O7'
_cell_volume   191.36680290
_cell_formula_units_Z   1
loop_
 _symmetry_equiv_pos_site_id
 _symmetry_equiv_pos_as_xyz
  1  'x, y, z'
loop_
 _atom_site_type_symbol
 _atom_site_label
 _atom_site_symmetry_multiplicity
 _atom_site_fract_x
 _atom_site_fract_y
 _atom_site_fract_z
 _atom_site_occupancy
  Ba  Ba0  1  0.501257  0.492044  0.821971  1
  Ba  Ba1  1  0.506636  0.489272  0.178338  1
  Ti  Ti2  1  0.008658  0.975884  0.672501  1
  Ti  Ti3  1  0.019927  0.970420  0.327862  1
  Ti  Ti4  1  0.002687  0.991624  0.000177  1
  O  O5  1  0.001618  0.492800  0.000152  1
  O  O6  1  0.482834  0.013410  0.663329  1
  O  O7  1  0.493803  0.008128  0.337043  1
  O  O8  1  0.987519  0.522113  0.661925  1
  O  O9  1  0.998281  0.516519  0.338401  1
  O  O10  1  0.999491  0.995926  0.834493  1
  O  O11  1  0.004212  0.993333  0.165824  1
