# generated using pymatgen
data_ZnMo2P2O9
_symmetry_space_group_name_H-M   'P 1'
_cell_length_a   6.65291709
_cell_length_b   7.53933530
_cell_length_c   14.80563561
_cell_angle_alpha   90.00001420
_cell_angle_beta   89.99977523
_cell_angle_gamma   90.00000691
_symmetry_Int_Tables_number   1
_chemical_formula_structural   ZnMo2P2O9
_chemical_formula_sum   'Zn4 Mo8 P8 O36'
_cell_volume   742.62954959
_cell_formula_units_Z   4
loop_
 _symmetry_equiv_pos_site_id
 _symmetry_equiv_pos_as_xyz
  1  'x, y, z'
loop_
 _atom_site_type_symbol
 _atom_site_label
 _atom_site_symmetry_multiplicity
 _atom_site_fract_x
 _atom_site_fract_y
 _atom_site_fract_z
 _atom_site_occupancy
  Zn  Zn0  1  0.749994  0.957465  0.765802  1
  Zn  Zn1  1  0.750000  0.542508  0.265732  1
  Zn  Zn2  1  0.250006  0.457465  0.734196  1
  Zn  Zn3  1  0.250010  0.042507  0.234268  1
  Mo  Mo4  1  0.750001  0.367323  0.876526  1
  Mo  Mo5  1  0.250000  0.632659  0.123459  1
  Mo  Mo6  1  0.250000  0.867325  0.623474  1
  Mo  Mo7  1  0.750001  0.132660  0.376541  1
  Mo  Mo8  1  0.499996  0.000008  0.000001  1
  Mo  Mo9  1  0.500004  0.500009  0.499999  1
  Mo  Mo10  1  0.999996  0.500009  0.499999  1
  Mo  Mo11  1  0.000004  0.000008  0.000001  1
  P  P12  1  0.250000  0.371572  0.923121  1
  P  P13  1  0.750000  0.628442  0.076860  1
  P  P14  1  0.750001  0.871573  0.576879  1
  P  P15  1  0.250000  0.128443  0.423140  1
  P  P16  1  0.750000  0.394695  0.690377  1
  P  P17  1  0.749999  0.105300  0.190382  1
  P  P18  1  0.250001  0.894695  0.809623  1
  P  P19  1  0.250000  0.605301  0.309618  1
  O  O20  1  0.052173  0.605444  0.365635  1
  O  O21  1  0.552166  0.394576  0.634364  1
  O  O22  1  0.947824  0.105443  0.134364  1
  O  O23  1  0.447835  0.894577  0.865635  1
  O  O24  1  0.947830  0.394575  0.634363  1
  O  O25  1  0.447829  0.605443  0.365634  1
  O  O26  1  0.052170  0.894576  0.865636  1
  O  O27  1  0.552168  0.105442  0.134367  1
  O  O28  1  0.250000  0.315555  0.470622  1
  O  O29  1  0.750000  0.684465  0.529386  1
  O  O30  1  0.749999  0.815554  0.029378  1
  O  O31  1  0.250000  0.184463  0.970615  1
  O  O32  1  0.750000  0.118269  0.936924  1
  O  O33  1  0.250000  0.881711  0.063058  1
  O  O34  1  0.250000  0.618269  0.563077  1
  O  O35  1  0.750000  0.381713  0.436941  1
  O  O36  1  0.750000  0.221742  0.751264  1
  O  O37  1  0.250000  0.778239  0.248720  1
  O  O38  1  0.250001  0.721745  0.748736  1
  O  O39  1  0.750000  0.278239  0.251280  1
  O  O40  1  0.429470  0.115335  0.356105  1
  O  O41  1  0.929473  0.884658  0.643916  1
  O  O42  1  0.570532  0.615334  0.143894  1
  O  O43  1  0.070528  0.384657  0.856084  1
  O  O44  1  0.570526  0.884659  0.643916  1
  O  O45  1  0.070532  0.115335  0.356105  1
  O  O46  1  0.429475  0.384657  0.856084  1
  O  O47  1  0.929470  0.615335  0.143895  1
  O  O48  1  0.750001  0.483018  0.006802  1
  O  O49  1  0.250001  0.048240  0.740033  1
  O  O50  1  0.250000  0.451756  0.240033  1
  O  O51  1  0.750000  0.548238  0.759967  1
  O  O52  1  0.750001  0.016997  0.506832  1
  O  O53  1  0.250000  0.983020  0.493198  1
  O  O54  1  0.250000  0.516994  0.993168  1
  O  O55  1  0.750000  0.951756  0.259967  1
