# generated using pymatgen
data_Be3V2(SiO4)3
_symmetry_space_group_name_H-M   'P 1'
_cell_length_a   7.54685369
_cell_length_b   8.04145584
_cell_length_c   13.77986142
_cell_angle_alpha   89.65189004
_cell_angle_beta   89.99960006
_cell_angle_gamma   89.99972674
_symmetry_Int_Tables_number   1
_chemical_formula_structural   Be3V2(SiO4)3
_chemical_formula_sum   'Be12 V8 Si12 O48'
_cell_volume   836.25253194
_cell_formula_units_Z   4
loop_
 _symmetry_equiv_pos_site_id
 _symmetry_equiv_pos_as_xyz
  1  'x, y, z'
loop_
 _atom_site_type_symbol
 _atom_site_label
 _atom_site_symmetry_multiplicity
 _atom_site_fract_x
 _atom_site_fract_y
 _atom_site_fract_z
 _atom_site_occupancy
  Be  Be0  1  0.851527  0.925288  0.765712  1
  Be  Be1  1  0.653397  0.929123  0.402546  1
  Be  Be2  1  0.153388  0.570865  0.097464  1
  Be  Be3  1  0.346590  0.070882  0.597458  1
  Be  Be4  1  0.846601  0.429130  0.902530  1
  Be  Be5  1  0.148441  0.614214  0.415313  1
  Be  Be6  1  0.648431  0.885783  0.084687  1
  Be  Be7  1  0.851549  0.385774  0.584669  1
  Be  Be8  1  0.351552  0.114219  0.915331  1
  Be  Be9  1  0.648489  0.425277  0.265715  1
  Be  Be10  1  0.148480  0.074723  0.234286  1
  Be  Be11  1  0.351517  0.574713  0.734289  1
  V  V12  1  0.455557  0.242926  0.091247  1
  V  V13  1  0.044411  0.742897  0.591251  1
  V  V14  1  0.544451  0.757108  0.908742  1
  V  V15  1  0.955558  0.257083  0.408757  1
  V  V16  1  0.559855  0.249163  0.429530  1
  V  V17  1  0.059861  0.250821  0.070457  1
  V  V18  1  0.440146  0.750845  0.570476  1
  V  V19  1  0.940143  0.749178  0.929541  1
  Si  Si20  1  0.231128  0.928987  0.765610  1
  Si  Si21  1  0.731133  0.571024  0.734393  1
  Si  Si22  1  0.768884  0.071006  0.234394  1
  Si  Si23  1  0.268877  0.428979  0.265604  1
  Si  Si24  1  0.732252  0.115350  0.917388  1
  Si  Si25  1  0.232265  0.384656  0.582610  1
  Si  Si26  1  0.267751  0.884639  0.082618  1
  Si  Si27  1  0.767732  0.615355  0.417382  1
  Si  Si28  1  0.235163  0.439824  0.901531  1
  Si  Si29  1  0.735169  0.060185  0.598462  1
  Si  Si30  1  0.764840  0.560183  0.098469  1
  Si  Si31  1  0.264829  0.939810  0.401536  1
  O  O32  1  0.122237  0.750568  0.037745  1
  O  O33  1  0.042229  0.893918  0.823448  1
  O  O34  1  0.542236  0.606090  0.676553  1
  O  O35  1  0.957780  0.106091  0.176555  1
  O  O36  1  0.457774  0.393902  0.323443  1
  O  O37  1  0.539721  0.186748  0.956768  1
  O  O38  1  0.039720  0.313248  0.543237  1
  O  O39  1  0.460282  0.813248  0.043228  1
  O  O40  1  0.960278  0.686753  0.456764  1
  O  O41  1  0.037313  0.527102  0.889677  1
  O  O42  1  0.537323  0.972911  0.610323  1
  O  O43  1  0.962686  0.472893  0.110320  1
  O  O44  1  0.123822  0.078455  0.354261  1
  O  O45  1  0.623819  0.421539  0.145739  1
  O  O46  1  0.876178  0.921545  0.645736  1
  O  O47  1  0.376191  0.578462  0.854265  1
  O  O48  1  0.622240  0.749438  0.462256  1
  O  O49  1  0.462676  0.027093  0.389681  1
  O  O50  1  0.377750  0.250558  0.537744  1
  O  O51  1  0.877751  0.249437  0.962256  1
  O  O52  1  0.761624  0.076377  0.475571  1
  O  O53  1  0.618850  0.065967  0.145280  1
  O  O54  1  0.881155  0.565956  0.645269  1
  O  O55  1  0.381157  0.934047  0.854727  1
  O  O56  1  0.735847  0.420736  0.808988  1
  O  O57  1  0.235853  0.079267  0.691011  1
  O  O58  1  0.264163  0.579259  0.191002  1
  O  O59  1  0.764158  0.920736  0.309001  1
  O  O60  1  0.745082  0.071546  0.805699  1
  O  O61  1  0.245080  0.428450  0.694300  1
  O  O62  1  0.254900  0.928440  0.194307  1
  O  O63  1  0.754903  0.571560  0.305693  1
  O  O64  1  0.239628  0.251335  0.867704  1
  O  O65  1  0.739623  0.248675  0.632298  1
  O  O66  1  0.760366  0.748666  0.132310  1
  O  O67  1  0.260373  0.751323  0.367690  1
  O  O68  1  0.751070  0.743452  0.805776  1
  O  O69  1  0.251074  0.756560  0.694218  1
  O  O70  1  0.248954  0.256551  0.194210  1
  O  O71  1  0.748946  0.243437  0.305793  1
  O  O72  1  0.750451  0.926644  0.973323  1
  O  O73  1  0.250446  0.573366  0.526679  1
  O  O74  1  0.249552  0.073350  0.026680  1
  O  O75  1  0.749556  0.426638  0.473318  1
  O  O76  1  0.738377  0.576397  0.975570  1
  O  O77  1  0.238374  0.923613  0.524433  1
  O  O78  1  0.261620  0.423612  0.024427  1
  O  O79  1  0.118848  0.434025  0.354725  1
