# generated using pymatgen
data_Sr2YCr2O7
_symmetry_space_group_name_H-M   'P 1'
_cell_length_a   13.11173571
_cell_length_b   13.11173571
_cell_length_c   13.11173571
_cell_angle_alpha   33.60584589
_cell_angle_beta   156.59118832
_cell_angle_gamma   156.23005675
_symmetry_Int_Tables_number   1
_chemical_formula_structural   Sr2YCr2O7
_chemical_formula_sum   'Sr4 Y2 Cr4 O14'
_cell_volume   360.61958288
_cell_formula_units_Z   2
loop_
 _symmetry_equiv_pos_site_id
 _symmetry_equiv_pos_as_xyz
  1  'x, y, z'
loop_
 _atom_site_type_symbol
 _atom_site_label
 _atom_site_symmetry_multiplicity
 _atom_site_fract_x
 _atom_site_fract_y
 _atom_site_fract_z
 _atom_site_occupancy
  Sr  Sr0  1  0.961155  0.831644  0.773710  1
  Sr  Sr1  1  0.057933  0.187444  0.226290  1
  Sr  Sr2  1  0.961155  0.687444  0.629512  1
  Sr  Sr3  1  0.057933  0.331644  0.370488  1
  Y  Y4  1  0.016124  0.516124  0.500000  1
  Y  Y5  1  0.016124  0.016124  -0.000000  1
  Cr  Cr6  1  0.523967  0.436154  0.928190  1
  Cr  Cr7  1  0.507963  0.595777  0.071810  1
  Cr  Cr8  1  0.523967  0.095777  0.587814  1
  Cr  Cr9  1  0.507963  0.936154  0.412186  1
  O  O10  1  0.015291  0.010739  0.504550  1
  O  O11  1  0.506189  0.510739  0.495450  1
  O  O12  1  0.515755  0.212689  0.196560  1
  O  O13  1  0.016130  0.319197  0.803440  1
  O  O14  1  0.515755  0.819195  0.803065  1
  O  O15  1  0.016130  0.712689  0.196935  1
  O  O16  1  0.517201  0.705604  0.689491  1
  O  O17  1  0.016113  0.827708  0.310509  1
  O  O18  1  0.517201  0.327708  0.311598  1
  O  O19  1  0.016113  0.205604  0.688402  1
  O  O20  1  0.486157  0.863284  0.317755  1
  O  O21  1  0.545529  0.168401  0.682245  1
  O  O22  1  0.486157  0.668401  0.122874  1
  O  O23  1  0.545529  0.363284  0.877126  1
