# generated using pymatgen
data_Y(CuO2)3
_symmetry_space_group_name_H-M   'P 1'
_cell_length_a   10.23241661
_cell_length_b   3.54149876
_cell_length_c   11.73784714
_cell_angle_alpha   89.73222377
_cell_angle_beta   90.74660801
_cell_angle_gamma   121.32556642
_symmetry_Int_Tables_number   1
_chemical_formula_structural   Y(CuO2)3
_chemical_formula_sum   'Y2 Cu6 O12'
_cell_volume   363.31959983
_cell_formula_units_Z   2
loop_
 _symmetry_equiv_pos_site_id
 _symmetry_equiv_pos_as_xyz
  1  'x, y, z'
loop_
 _atom_site_type_symbol
 _atom_site_label
 _atom_site_symmetry_multiplicity
 _atom_site_fract_x
 _atom_site_fract_y
 _atom_site_fract_z
 _atom_site_occupancy
  Y  Y0  1  0.017007  0.023378  0.003015  1
  Y  Y1  1  0.650308  0.973254  0.500542  1
  Cu  Cu2  1  0.228076  0.337424  0.741612  1
  Cu  Cu3  1  0.553914  0.328220  0.758307  1
  Cu  Cu4  1  0.892820  0.338675  0.752371  1
  Cu  Cu5  1  0.117587  0.668521  0.258836  1
  Cu  Cu6  1  0.434062  0.655984  0.243590  1
  Cu  Cu7  1  0.769928  0.654062  0.250594  1
  O  O8  1  0.119651  0.668668  0.402777  1
  O  O9  1  0.453801  0.689313  0.388314  1
  O  O10  1  0.745513  0.618738  0.396151  1
  O  O11  1  0.203449  0.299432  0.884506  1
  O  O12  1  0.553043  0.328909  0.902364  1
  O  O13  1  0.916781  0.374007  0.897806  1
  O  O14  1  0.084792  0.623340  0.111360  1
  O  O15  1  0.436128  0.653199  0.100495  1
  O  O16  1  0.797015  0.692054  0.108064  1
  O  O17  1  0.221578  0.327344  0.598434  1
  O  O18  1  0.587047  0.376653  0.611894  1
  O  O19  1  0.871316  0.307343  0.608831  1
