# generated using pymatgen
data_YV(WO4)2
_symmetry_space_group_name_H-M   'P 1'
_cell_length_a   5.31587864
_cell_length_b   5.76462100
_cell_length_c   9.81485330
_cell_angle_alpha   89.99731246
_cell_angle_beta   93.17967816
_cell_angle_gamma   89.98329110
_symmetry_Int_Tables_number   1
_chemical_formula_structural   YV(WO4)2
_chemical_formula_sum   'Y2 V2 W4 O16'
_cell_volume   300.30357291
_cell_formula_units_Z   2
loop_
 _symmetry_equiv_pos_site_id
 _symmetry_equiv_pos_as_xyz
  1  'x, y, z'
loop_
 _atom_site_type_symbol
 _atom_site_label
 _atom_site_symmetry_multiplicity
 _atom_site_fract_x
 _atom_site_fract_y
 _atom_site_fract_z
 _atom_site_occupancy
  Y  Y0  1  0.250029  0.668251  0.250023  1
  Y  Y1  1  0.749970  0.331748  0.749977  1
  V  V2  1  0.749969  0.336112  0.249970  1
  V  V3  1  0.250031  0.663887  0.750030  1
  W  W4  1  0.252696  0.158545  0.496002  1
  W  W5  1  0.247229  0.158544  0.003954  1
  W  W6  1  0.747304  0.841455  0.503998  1
  W  W7  1  0.752771  0.841456  0.996046  1
  O  O8  1  0.426068  0.358598  0.142519  1
  O  O9  1  0.073897  0.358650  0.357383  1
  O  O10  1  0.573932  0.641401  0.857481  1
  O  O11  1  0.926102  0.641349  0.642617  1
  O  O12  1  0.439262  0.895652  0.613856  1
  O  O13  1  0.060813  0.895577  0.886214  1
  O  O14  1  0.560738  0.104348  0.386144  1
  O  O15  1  0.939187  0.104423  0.113786  1
  O  O16  1  0.874394  0.613862  0.124224  1
  O  O17  1  0.625748  0.613844  0.375808  1
  O  O18  1  0.125606  0.386139  0.875776  1
  O  O19  1  0.374252  0.386157  0.624192  1
  O  O20  1  0.422403  0.884435  0.096337  1
  O  O21  1  0.577597  0.115566  0.903663  1
  O  O22  1  0.077629  0.884495  0.403681  1
  O  O23  1  0.922371  0.115506  0.596319  1
