# generated using pymatgen
data_Zn3Cu2(SiO4)3
_symmetry_space_group_name_H-M   'P 1'
_cell_length_a   10.17652986
_cell_length_b   10.17653012
_cell_length_c   10.17652980
_cell_angle_alpha   109.47122178
_cell_angle_beta   109.47122231
_cell_angle_gamma   109.47121849
_symmetry_Int_Tables_number   1
_chemical_formula_structural   Zn3Cu2(SiO4)3
_chemical_formula_sum   'Zn12 Cu8 Si12 O48'
_cell_volume   811.29210147
_cell_formula_units_Z   4
loop_
 _symmetry_equiv_pos_site_id
 _symmetry_equiv_pos_as_xyz
  1  'x, y, z'
loop_
 _atom_site_type_symbol
 _atom_site_label
 _atom_site_symmetry_multiplicity
 _atom_site_fract_x
 _atom_site_fract_y
 _atom_site_fract_z
 _atom_site_occupancy
  Zn  Zn0  1  0.375000  0.750000  0.125000  1
  Zn  Zn1  1  0.125000  0.250000  0.375000  1
  Zn  Zn2  1  0.375000  0.125000  0.250000  1
  Zn  Zn3  1  0.125000  0.375000  0.750000  1
  Zn  Zn4  1  0.875000  0.750000  0.625000  1
  Zn  Zn5  1  0.750000  0.125000  0.375000  1
  Zn  Zn6  1  0.750000  0.625000  0.875000  1
  Zn  Zn7  1  0.625000  0.250000  0.875000  1
  Zn  Zn8  1  0.250000  0.875000  0.625000  1
  Zn  Zn9  1  0.875000  0.625000  0.250000  1
  Zn  Zn10  1  0.625000  0.875000  0.750000  1
  Zn  Zn11  1  0.250000  0.375000  0.125000  1
  Cu  Cu12  1  0.000000  0.000000  0.000000  1
  Cu  Cu13  1  0.000000  0.500000  0.000000  1
  Cu  Cu14  1  0.000000  0.000000  0.500000  1
  Cu  Cu15  1  0.000000  0.500000  0.500000  1
  Cu  Cu16  1  0.500000  0.000000  0.500000  1
  Cu  Cu17  1  0.500000  0.500000  0.000000  1
  Cu  Cu18  1  0.500000  0.500000  0.500000  1
  Cu  Cu19  1  0.500000  0.000000  0.000000  1
  Si  Si20  1  0.250000  0.125000  0.875000  1
  Si  Si21  1  0.750000  0.875000  0.125000  1
  Si  Si22  1  0.375000  0.250000  0.625000  1
  Si  Si23  1  0.625000  0.375000  0.250000  1
  Si  Si24  1  0.125000  0.750000  0.875000  1
  Si  Si25  1  0.875000  0.125000  0.750000  1
  Si  Si26  1  0.750000  0.375000  0.625000  1
  Si  Si27  1  0.375000  0.625000  0.750000  1
  Si  Si28  1  0.125000  0.875000  0.250000  1
  Si  Si29  1  0.875000  0.250000  0.125000  1
  Si  Si30  1  0.625000  0.750000  0.375000  1
  Si  Si31  1  0.250000  0.625000  0.375000  1
  O  O32  1  0.289940  0.479670  0.374786  1
  O  O33  1  0.020330  0.310270  0.895116  1
  O  O34  1  0.125214  0.604884  0.915154  1
  O  O35  1  0.210060  0.584846  0.189730  1
  O  O36  1  0.210060  0.125214  0.020330  1
  O  O37  1  0.584846  0.189730  0.210060  1
  O  O38  1  0.604884  0.189730  0.479670  1
  O  O39  1  0.189730  0.210060  0.584846  1
  O  O40  1  0.895116  0.374786  0.584846  1
  O  O41  1  0.310270  0.915154  0.289940  1
  O  O42  1  0.915154  0.289940  0.310270  1
  O  O43  1  0.020330  0.210060  0.125214  1
  O  O44  1  0.189730  0.479670  0.604884  1
  O  O45  1  0.584846  0.895116  0.374786  1
  O  O46  1  0.125214  0.020330  0.210060  1
  O  O47  1  0.479670  0.604884  0.189730  1
  O  O48  1  0.374786  0.584846  0.895116  1
  O  O49  1  0.895116  0.020330  0.310270  1
  O  O50  1  0.604884  0.915154  0.125214  1
  O  O51  1  0.104884  0.625214  0.415154  1
  O  O52  1  0.915154  0.125214  0.604884  1
  O  O53  1  0.374786  0.289940  0.479670  1
  O  O54  1  0.310270  0.895116  0.020330  1
  O  O55  1  0.289940  0.310270  0.915154  1
  O  O56  1  0.710060  0.520330  0.625214  1
  O  O57  1  0.979670  0.689730  0.104884  1
  O  O58  1  0.874786  0.395116  0.084846  1
  O  O59  1  0.789940  0.415154  0.810270  1
  O  O60  1  0.789940  0.874786  0.979670  1
  O  O61  1  0.415154  0.810270  0.789940  1
  O  O62  1  0.395116  0.810270  0.520330  1
  O  O63  1  0.810270  0.789940  0.415154  1
  O  O64  1  0.710060  0.689730  0.084846  1
  O  O65  1  0.689730  0.104884  0.979670  1
  O  O66  1  0.625214  0.710060  0.520330  1
  O  O67  1  0.520330  0.625214  0.710060  1
  O  O68  1  0.084846  0.874786  0.395116  1
  O  O69  1  0.395116  0.084846  0.874786  1
  O  O70  1  0.104884  0.979670  0.689730  1
  O  O71  1  0.625214  0.415154  0.104884  1
  O  O72  1  0.520330  0.395116  0.810270  1
  O  O73  1  0.874786  0.979670  0.789940  1
  O  O74  1  0.415154  0.104884  0.625214  1
  O  O75  1  0.810270  0.520330  0.395116  1
  O  O76  1  0.979670  0.789940  0.874786  1
  O  O77  1  0.084846  0.710060  0.689730  1
  O  O78  1  0.689730  0.084846  0.710060  1
  O  O79  1  0.479670  0.374786  0.289940  1
