# generated using pymatgen
data_TaZn2BiO6
_symmetry_space_group_name_H-M   'P 1'
_cell_length_a   5.61488107
_cell_length_b   5.53203206
_cell_length_c   8.09106105
_cell_angle_alpha   90.00000000
_cell_angle_beta   90.00000000
_cell_angle_gamma   87.23103024
_symmetry_Int_Tables_number   1
_chemical_formula_structural   TaZn2BiO6
_chemical_formula_sum   'Ta2 Zn4 Bi2 O12'
_cell_volume   251.02869595
_cell_formula_units_Z   2
loop_
 _symmetry_equiv_pos_site_id
 _symmetry_equiv_pos_as_xyz
  1  'x, y, z'
loop_
 _atom_site_type_symbol
 _atom_site_label
 _atom_site_symmetry_multiplicity
 _atom_site_fract_x
 _atom_site_fract_y
 _atom_site_fract_z
 _atom_site_occupancy
  Ta  Ta0  1  0.000000  0.500000  0.000000  1
  Ta  Ta1  1  0.000000  0.500000  0.500000  1
  Zn  Zn2  1  0.975713  0.982715  0.250000  1
  Zn  Zn3  1  0.516874  0.480346  0.250000  1
  Zn  Zn4  1  0.483126  0.519654  0.750000  1
  Zn  Zn5  1  0.024287  0.017285  0.750000  1
  Bi  Bi6  1  0.500000  0.000000  0.000000  1
  Bi  Bi7  1  0.500000  0.000000  0.500000  1
  O  O8  1  0.875044  0.819752  0.571778  1
  O  O9  1  0.306735  0.633865  0.427584  1
  O  O10  1  0.124956  0.180248  0.428222  1
  O  O11  1  0.693265  0.366135  0.927584  1
  O  O12  1  0.124332  0.406012  0.750000  1
  O  O13  1  0.693265  0.366135  0.572416  1
  O  O14  1  0.306735  0.633865  0.072416  1
  O  O15  1  0.875044  0.819752  0.928222  1
  O  O16  1  0.638072  0.129610  0.250000  1
  O  O17  1  0.124956  0.180248  0.071778  1
  O  O18  1  0.361928  0.870390  0.750000  1
  O  O19  1  0.875668  0.593988  0.250000  1
