# generated using pymatgen
data_MgCoPO5
_symmetry_space_group_name_H-M   'P 1'
_cell_length_a   5.34162803
_cell_length_b   6.81307322
_cell_length_c   8.28938077
_cell_angle_alpha   89.76769295
_cell_angle_beta   38.54124727
_cell_angle_gamma   75.78661606
_symmetry_Int_Tables_number   1
_chemical_formula_structural   MgCoPO5
_chemical_formula_sum   'Mg2 Co2 P2 O10'
_cell_volume   173.16230051
_cell_formula_units_Z   2
loop_
 _symmetry_equiv_pos_site_id
 _symmetry_equiv_pos_as_xyz
  1  'x, y, z'
loop_
 _atom_site_type_symbol
 _atom_site_label
 _atom_site_symmetry_multiplicity
 _atom_site_fract_x
 _atom_site_fract_y
 _atom_site_fract_z
 _atom_site_occupancy
  Mg  Mg0  1  0.495272  0.235191  0.669856  1
  Mg  Mg1  1  0.514007  0.728109  0.315945  1
  Co  Co2  1  0.499075  0.485698  0.995721  1
  Co  Co3  1  0.499484  0.985687  0.995612  1
  P  P4  1  0.505224  0.234566  0.329842  1
  P  P5  1  0.490734  0.737360  0.662916  1
  O  O6  1  0.294998  0.113445  0.328703  1
  O  O7  1  0.721903  0.356332  0.115075  1
  O  O8  1  0.700351  0.859989  0.663289  1
  O  O9  1  0.271811  0.617837  0.879911  1
  O  O10  1  0.830614  0.577628  0.376414  1
  O  O11  1  0.162147  0.891452  0.706536  1
  O  O12  1  0.167157  0.392541  0.616937  1
  O  O13  1  0.836514  0.079366  0.283567  1
  O  O14  1  0.495745  0.735448  0.085140  1
  O  O15  1  0.501695  0.236481  0.906551  1
