# generated using pymatgen
data_CaCu2(SnO4)2
_symmetry_space_group_name_H-M   'P 1'
_cell_length_a   6.31695920
_cell_length_b   9.00564181
_cell_length_c   12.96868280
_cell_angle_alpha   90.00000000
_cell_angle_beta   86.00248041
_cell_angle_gamma   90.00000000
_symmetry_Int_Tables_number   1
_chemical_formula_structural   CaCu2(SnO4)2
_chemical_formula_sum   'Ca4 Cu8 Sn8 O32'
_cell_volume   735.97101908
_cell_formula_units_Z   4
loop_
 _symmetry_equiv_pos_site_id
 _symmetry_equiv_pos_as_xyz
  1  'x, y, z'
loop_
 _atom_site_type_symbol
 _atom_site_label
 _atom_site_symmetry_multiplicity
 _atom_site_fract_x
 _atom_site_fract_y
 _atom_site_fract_z
 _atom_site_occupancy
  Ca  Ca0  1  0.123480  0.169316  0.015206  1
  Ca  Ca1  1  0.876520  0.830684  0.984794  1
  Ca  Ca2  1  0.876520  0.669316  0.484794  1
  Ca  Ca3  1  0.123480  0.330684  0.515206  1
  Cu  Cu4  1  0.736243  0.192836  0.833065  1
  Cu  Cu5  1  0.390109  0.060443  0.621783  1
  Cu  Cu6  1  0.609891  0.939557  0.378217  1
  Cu  Cu7  1  0.263757  0.807164  0.166935  1
  Cu  Cu8  1  0.736243  0.307164  0.333065  1
  Cu  Cu9  1  0.390109  0.439557  0.121783  1
  Cu  Cu10  1  0.263757  0.692836  0.666935  1
  Cu  Cu11  1  0.609891  0.560443  0.878217  1
  Sn  Sn12  1  0.087162  0.453020  0.827428  1
  Sn  Sn13  1  0.087162  0.046980  0.327428  1
  Sn  Sn14  1  0.563092  0.076427  0.152530  1
  Sn  Sn15  1  0.912838  0.953020  0.672572  1
  Sn  Sn16  1  0.436908  0.923573  0.847470  1
  Sn  Sn17  1  0.436908  0.576427  0.347470  1
  Sn  Sn18  1  0.563092  0.423573  0.652530  1
  Sn  Sn19  1  0.912838  0.546980  0.172572  1
  O  O20  1  0.015970  0.258827  0.354402  1
  O  O21  1  0.664692  0.995079  0.591224  1
  O  O22  1  0.196459  0.561873  0.449237  1
  O  O23  1  0.803541  0.061873  0.050763  1
  O  O24  1  0.015970  0.241173  0.854402  1
  O  O25  1  0.984030  0.741173  0.645598  1
  O  O26  1  0.106044  0.108746  0.613129  1
  O  O27  1  0.541247  0.852245  0.173568  1
  O  O28  1  0.541247  0.647755  0.673568  1
  O  O29  1  0.300879  0.892228  0.705477  1
  O  O30  1  0.699121  0.392228  0.794523  1
  O  O31  1  0.458753  0.147755  0.826432  1
  O  O32  1  0.893956  0.891254  0.386871  1
  O  O33  1  0.784579  0.517173  0.321977  1
  O  O34  1  0.450571  0.250068  0.575679  1
  O  O35  1  0.450571  0.249932  0.075679  1
  O  O36  1  0.215421  0.017173  0.178023  1
  O  O37  1  0.458753  0.352245  0.326432  1
  O  O38  1  0.215421  0.482827  0.678023  1
  O  O39  1  0.803541  0.438127  0.550763  1
  O  O40  1  0.664692  0.504921  0.091224  1
  O  O41  1  0.699121  0.107772  0.294523  1
  O  O42  1  0.984030  0.758827  0.145598  1
  O  O43  1  0.106044  0.391254  0.113129  1
  O  O44  1  0.196459  0.938127  0.949237  1
  O  O45  1  0.549429  0.750068  0.924321  1
  O  O46  1  0.335308  0.004921  0.408776  1
  O  O47  1  0.335308  0.495079  0.908776  1
  O  O48  1  0.893956  0.608746  0.886871  1
  O  O49  1  0.549429  0.749932  0.424321  1
  O  O50  1  0.300879  0.607772  0.205477  1
  O  O51  1  0.784579  0.982827  0.821977  1
