# generated using pymatgen
data_CaMn2S5
_symmetry_space_group_name_H-M   'P 1'
_cell_length_a   4.25199247
_cell_length_b   6.27009304
_cell_length_c   13.74402116
_cell_angle_alpha   89.98332161
_cell_angle_beta   90.00012520
_cell_angle_gamma   90.00028547
_symmetry_Int_Tables_number   1
_chemical_formula_structural   CaMn2S5
_chemical_formula_sum   'Ca2 Mn4 S10'
_cell_volume   366.42092639
_cell_formula_units_Z   2
loop_
 _symmetry_equiv_pos_site_id
 _symmetry_equiv_pos_as_xyz
  1  'x, y, z'
loop_
 _atom_site_type_symbol
 _atom_site_label
 _atom_site_symmetry_multiplicity
 _atom_site_fract_x
 _atom_site_fract_y
 _atom_site_fract_z
 _atom_site_occupancy
  Ca  Ca0  1  0.749998  0.867988  0.249821  1
  Ca  Ca1  1  0.250000  0.133979  0.750172  1
  Mn  Mn2  1  0.250001  0.412643  0.096587  1
  Mn  Mn3  1  0.750002  0.585889  0.904223  1
  Mn  Mn4  1  0.749999  0.585325  0.595161  1
  Mn  Mn5  1  0.249999  0.412027  0.403127  1
  S  S6  1  0.750000  0.439754  0.750367  1
  S  S7  1  0.249999  0.559178  0.249757  1
  S  S8  1  0.749998  0.569712  0.073260  1
  S  S9  1  0.250001  0.431076  0.927085  1
  S  S10  1  0.749997  0.569140  0.427443  1
  S  S11  1  0.249998  0.431462  0.572767  1
  S  S12  1  0.250001  0.087662  0.350853  1
  S  S13  1  0.749998  -0.086555  0.650170  1
  S  S14  1  0.750001  -0.087286  0.850214  1
  S  S15  1  0.249999  0.088008  0.148992  1
