# generated using pymatgen
data_Zn(CoS2)2
_symmetry_space_group_name_H-M   'P 1'
_cell_length_a   6.80699498
_cell_length_b   6.80340045
_cell_length_c   6.80331490
_cell_angle_alpha   60.00763855
_cell_angle_beta   60.02630115
_cell_angle_gamma   60.02654780
_symmetry_Int_Tables_number   1
_chemical_formula_structural   Zn(CoS2)2
_chemical_formula_sum   'Zn2 Co4 S8'
_cell_volume   222.88737522
_cell_formula_units_Z   2
loop_
 _symmetry_equiv_pos_site_id
 _symmetry_equiv_pos_as_xyz
  1  'x, y, z'
loop_
 _atom_site_type_symbol
 _atom_site_label
 _atom_site_symmetry_multiplicity
 _atom_site_fract_x
 _atom_site_fract_y
 _atom_site_fract_z
 _atom_site_occupancy
  Zn  Zn0  1  0.874830  0.875077  0.875079  1
  Zn  Zn1  1  0.125172  0.124921  0.124922  1
  Co  Co2  1  0.500000  0.500000  0.500000  1
  Co  Co3  1  0.500000  0.500000  0.000000  1
  Co  Co4  1  0.000000  0.500000  0.500000  1
  Co  Co5  1  0.500000  0.999999  0.500000  1
  S  S6  1  0.733876  0.733852  0.733854  1
  S  S7  1  0.266100  0.266138  0.701635  1
  S  S8  1  0.266099  0.701637  0.266137  1
  S  S9  1  0.701494  0.266171  0.266169  1
  S  S10  1  0.733901  0.298364  0.733863  1
  S  S11  1  0.298508  0.733828  0.733831  1
  S  S12  1  0.266122  0.266148  0.266146  1
  S  S13  1  0.733901  0.733860  0.298367  1
