# generated using pymatgen
data_ZnSbF5
_symmetry_space_group_name_H-M   'P 1'
_cell_length_a   5.64594626
_cell_length_b   5.63757000
_cell_length_c   8.44283182
_cell_angle_alpha   101.79230649
_cell_angle_beta   103.66661269
_cell_angle_gamma   109.39419327
_symmetry_Int_Tables_number   1
_chemical_formula_structural   ZnSbF5
_chemical_formula_sum   'Zn2 Sb2 F10'
_cell_volume   234.28532941
_cell_formula_units_Z   2
loop_
 _symmetry_equiv_pos_site_id
 _symmetry_equiv_pos_as_xyz
  1  'x, y, z'
loop_
 _atom_site_type_symbol
 _atom_site_label
 _atom_site_symmetry_multiplicity
 _atom_site_fract_x
 _atom_site_fract_y
 _atom_site_fract_z
 _atom_site_occupancy
  Zn  Zn0  1  0.240208  0.500311  0.743246  1
  Zn  Zn1  1  0.747703  0.501933  0.247118  1
  Sb  Sb2  1  0.004483  0.021517  -0.011055  1
  Sb  Sb3  1  0.468347  0.985083  0.487814  1
  F  F4  1  0.335019  0.141597  0.191022  1
  F  F5  1  0.551095  0.856457  0.691707  1
  F  F6  1  0.570471  0.674953  0.368924  1
  F  F7  1  0.858552  0.221529  0.168648  1
  F  F8  1  0.844506  0.699494  0.085987  1
  F  F9  1  0.087383  0.691708  0.456481  1
  F  F10  1  0.263947  0.368403  0.953076  1
  F  F11  1  0.883104  0.245559  0.584189  1
  F  F12  1  0.190146  0.799291  0.868306  1
  F  F13  1  0.436973  0.303957  0.662484  1
