# generated using pymatgen
data_Zn(SbO2)2
_symmetry_space_group_name_H-M   'P 1'
_cell_length_a   5.97983836
_cell_length_b   6.04485605
_cell_length_c   23.20043041
_cell_angle_alpha   66.47589762
_cell_angle_beta   73.53208993
_cell_angle_gamma   67.42370741
_symmetry_Int_Tables_number   1
_chemical_formula_structural   Zn(SbO2)2
_chemical_formula_sum   'Zn6 Sb12 O24'
_cell_volume   701.55898210
_cell_formula_units_Z   6
loop_
 _symmetry_equiv_pos_site_id
 _symmetry_equiv_pos_as_xyz
  1  'x, y, z'
loop_
 _atom_site_type_symbol
 _atom_site_label
 _atom_site_symmetry_multiplicity
 _atom_site_fract_x
 _atom_site_fract_y
 _atom_site_fract_z
 _atom_site_occupancy
  Zn  Zn0  1  0.060484  0.110673  0.062550  1
  Zn  Zn1  1  0.074966  0.096222  0.415562  1
  Zn  Zn2  1  0.573849  0.504674  0.969895  1
  Zn  Zn3  1  0.123144  0.082797  0.697552  1
  Zn  Zn4  1  0.921471  0.895214  0.284033  1
  Zn  Zn5  1  0.945933  0.830811  0.631492  1
  Sb  Sb6  1  0.030932  0.475543  0.165158  1
  Sb  Sb7  1  0.599840  0.609625  0.092680  1
  Sb  Sb8  1  0.988974  0.406451  0.542968  1
  Sb  Sb9  1  0.476535  0.964141  0.182197  1
  Sb  Sb10  1  0.574236  0.467235  0.309219  1
  Sb  Sb11  1  0.648084  0.659077  0.429670  1
  Sb  Sb12  1  0.982968  0.429579  0.786230  1
  Sb  Sb13  1  0.484353  0.969983  0.543495  1
  Sb  Sb14  1  0.596342  0.978177  0.822123  1
  Sb  Sb15  1  0.476268  0.492480  0.675704  1
  Sb  Sb16  1  0.259562  0.409863  0.905512  1
  Sb  Sb17  1  0.937089  0.953165  0.939473  1
  O  O18  1  0.137222  0.178163  0.132460  1
  O  O19  1  0.351927  0.292207  0.199412  1
  O  O20  1  0.256628  0.741672  0.079520  1
  O  O21  1  0.710296  0.353849  0.048907  1
  O  O22  1  0.278434  0.756169  0.250859  1
  O  O23  1  0.147267  0.154449  0.495340  1
  O  O24  1  0.826619  0.284260  0.249643  1
  O  O25  1  0.729632  0.879856  0.021877  1
  O  O26  1  0.328880  0.814425  0.400246  1
  O  O27  1  0.273483  0.199495  0.594480  1
  O  O28  1  0.701073  0.770397  0.260507  1
  O  O29  1  0.804584  0.390890  0.385747  1
  O  O30  1  0.306633  0.710411  0.596489  1
  O  O31  1  0.107865  0.413938  0.696583  1
  O  O32  1  0.800157  0.202585  0.613495  1
  O  O33  1  0.824000  0.893127  0.372924  1
  O  O34  1  0.121990  0.137488  0.968123  1
  O  O35  1  0.224739  0.722772  0.725191  1
  O  O36  1  0.684199  0.740912  0.620917  1
  O  O37  1  0.852095  0.150659  0.781247  1
  O  O38  1  0.209606  0.565873  0.971111  1
  O  O39  1  0.711498  0.757002  0.766910  1
  O  O40  1  0.617418  0.300952  0.911823  1
  O  O41  1  0.738725  0.752739  0.900674  1
