# generated using pymatgen
data_BaCa3(CuN2)2
_symmetry_space_group_name_H-M   'P 1'
_cell_length_a   8.38334873
_cell_length_b   8.20826857
_cell_length_c   12.49616595
_cell_angle_alpha   90.00000000
_cell_angle_beta   90.00000000
_cell_angle_gamma   90.00000000
_symmetry_Int_Tables_number   1
_chemical_formula_structural   BaCa3(CuN2)2
_chemical_formula_sum   'Ba4 Ca12 Cu8 N16'
_cell_volume   859.89589202
_cell_formula_units_Z   4
loop_
 _symmetry_equiv_pos_site_id
 _symmetry_equiv_pos_as_xyz
  1  'x, y, z'
loop_
 _atom_site_type_symbol
 _atom_site_label
 _atom_site_symmetry_multiplicity
 _atom_site_fract_x
 _atom_site_fract_y
 _atom_site_fract_z
 _atom_site_occupancy
  Ba  Ba0  1  0.263003  0.277665  0.648365  1
  Ba  Ba1  1  0.763003  0.722335  0.851635  1
  Ba  Ba2  1  0.263003  0.222335  0.148365  1
  Ba  Ba3  1  0.763003  0.777665  0.351635  1
  Ca  Ca4  1  0.642618  0.072909  0.579410  1
  Ca  Ca5  1  0.085719  0.877259  0.586042  1
  Ca  Ca6  1  0.585719  0.377259  0.413958  1
  Ca  Ca7  1  0.085719  0.622741  0.086042  1
  Ca  Ca8  1  0.142618  0.927091  0.920590  1
  Ca  Ca9  1  0.585719  0.122741  0.913958  1
  Ca  Ca10  1  0.642618  0.427091  0.079410  1
  Ca  Ca11  1  0.369867  0.601484  0.914532  1
  Ca  Ca12  1  0.369867  0.898516  0.414532  1
  Ca  Ca13  1  0.869867  0.398516  0.585468  1
  Ca  Ca14  1  0.142618  0.572909  0.420590  1
  Ca  Ca15  1  0.869867  0.101484  0.085468  1
  Cu  Cu16  1  0.901805  0.413166  0.262756  1
  Cu  Cu17  1  0.401805  0.586834  0.237244  1
  Cu  Cu18  1  0.901805  0.086834  0.762756  1
  Cu  Cu19  1  0.591876  0.107186  0.247219  1
  Cu  Cu20  1  0.591876  0.392814  0.747219  1
  Cu  Cu21  1  0.401805  0.913166  0.737244  1
  Cu  Cu22  1  0.091876  0.892814  0.252781  1
  Cu  Cu23  1  0.091876  0.607186  0.752781  1
  N  N24  1  0.591510  0.426822  0.890145  1
  N  N25  1  0.086064  0.651978  0.894649  1
  N  N26  1  0.363587  0.965270  0.600083  1
  N  N27  1  0.937109  0.380022  0.123722  1
  N  N28  1  0.086064  0.848022  0.394649  1
  N  N29  1  0.937109  0.119978  0.623722  1
  N  N30  1  0.437109  0.880022  0.876278  1
  N  N31  1  0.586064  0.348022  0.605351  1
  N  N32  1  0.586064  0.151978  0.105351  1
  N  N33  1  0.863587  0.465270  0.399917  1
  N  N34  1  0.591510  0.073178  0.390145  1
  N  N35  1  0.437109  0.619978  0.376278  1
  N  N36  1  0.363587  0.534730  0.100083  1
  N  N37  1  0.863587  0.034730  0.899917  1
  N  N38  1  0.091510  0.573178  0.609855  1
  N  N39  1  0.091510  0.926822  0.109855  1
