# generated using pymatgen
data_AlCrO3
_symmetry_space_group_name_H-M   'P 1'
_cell_length_a   5.51592843
_cell_length_b   5.51592821
_cell_length_c   11.63125641
_cell_angle_alpha   90.00000000
_cell_angle_beta   90.00000000
_cell_angle_gamma   120.00000128
_symmetry_Int_Tables_number   1
_chemical_formula_structural   AlCrO3
_chemical_formula_sum   'Al6 Cr6 O18'
_cell_volume   306.47459744
_cell_formula_units_Z   6
loop_
 _symmetry_equiv_pos_site_id
 _symmetry_equiv_pos_as_xyz
  1  'x, y, z'
loop_
 _atom_site_type_symbol
 _atom_site_label
 _atom_site_symmetry_multiplicity
 _atom_site_fract_x
 _atom_site_fract_y
 _atom_site_fract_z
 _atom_site_occupancy
  Al  Al0  1  0.666667  0.333333  0.249246  1
  Al  Al1  1  0.333333  0.666667  0.749246  1
  Al  Al2  1  0.666667  0.333333  0.749246  1
  Al  Al3  1  0.333333  0.666667  0.249246  1
  Al  Al4  1  0.000000  0.000000  0.753617  1
  Al  Al5  1  0.000000  0.000000  0.253617  1
  Cr  Cr6  1  0.669410  0.000000  0.500919  1
  Cr  Cr7  1  0.669410  0.669410  0.000919  1
  Cr  Cr8  1  0.000000  0.330590  0.000919  1
  Cr  Cr9  1  1.000000  0.669410  0.500919  1
  Cr  Cr10  1  0.330590  0.330590  0.500919  1
  Cr  Cr11  1  0.330590  0.000000  0.000919  1
  O  O12  1  0.666667  0.333333  0.019445  1
  O  O13  1  0.333333  0.666667  0.519445  1
  O  O14  1  0.666667  0.333333  0.519445  1
  O  O15  1  0.333333  0.666667  0.019445  1
  O  O16  1  0.000000  0.000000  0.970596  1
  O  O17  1  0.000000  0.000000  0.470596  1
  O  O18  1  0.355230  0.000000  0.828205  1
  O  O19  1  0.355230  0.355230  0.328205  1
  O  O20  1  1.000000  0.644770  0.328205  1
  O  O21  1  0.000000  0.355230  0.828205  1
  O  O22  1  0.644770  0.644770  0.828205  1
  O  O23  1  0.644770  0.000000  0.328205  1
  O  O24  1  0.314468  0.000000  0.175345  1
  O  O25  1  0.314468  0.314468  0.675345  1
  O  O26  1  0.000000  0.685532  0.675345  1
  O  O27  1  1.000000  0.314468  0.175345  1
  O  O28  1  0.685532  0.685532  0.175345  1
  O  O29  1  0.685532  0.000000  0.675345  1
