# generated using pymatgen
data_CaFe3(P2O7)2
_symmetry_space_group_name_H-M   'P 1'
_cell_length_a   7.56659341
_cell_length_b   7.78143706
_cell_length_c   9.59935436
_cell_angle_alpha   90.08586414
_cell_angle_beta   111.84831771
_cell_angle_gamma   89.93052314
_symmetry_Int_Tables_number   1
_chemical_formula_structural   CaFe3(P2O7)2
_chemical_formula_sum   'Ca2 Fe6 P8 O28'
_cell_volume   524.60236978
_cell_formula_units_Z   2
loop_
 _symmetry_equiv_pos_site_id
 _symmetry_equiv_pos_as_xyz
  1  'x, y, z'
loop_
 _atom_site_type_symbol
 _atom_site_label
 _atom_site_symmetry_multiplicity
 _atom_site_fract_x
 _atom_site_fract_y
 _atom_site_fract_z
 _atom_site_occupancy
  Ca  Ca0  1  0.500000  0.000000  -0.000000  1
  Ca  Ca1  1  0.500000  0.500000  0.500000  1
  Fe  Fe2  1  0.189926  0.875680  0.526854  1
  Fe  Fe3  1  0.809810  0.375721  0.972528  1
  Fe  Fe4  1  0.810074  0.124320  0.473146  1
  Fe  Fe5  1  0.190190  0.624279  0.027472  1
  Fe  Fe6  1  0.000000  0.000000  -0.000000  1
  Fe  Fe7  1  0.000000  0.500000  0.500000  1
  P  P8  1  0.597292  0.063970  0.704545  1
  P  P9  1  0.401600  0.564164  0.795123  1
  P  P10  1  0.402708  0.936030  0.295455  1
  P  P11  1  0.598400  0.435836  0.204877  1
  P  P12  1  0.877540  0.797617  0.689663  1
  P  P13  1  0.122562  0.296597  0.810156  1
  P  P14  1  0.122460  0.202383  0.310337  1
  P  P15  1  0.877438  0.703403  0.189844  1
  O  O16  1  0.825674  0.626127  0.607367  1
  O  O17  1  0.177023  0.125647  0.892883  1
  O  O18  1  0.174327  0.373873  0.392633  1
  O  O19  1  0.822977  0.874353  0.107117  1
  O  O20  1  0.281526  0.613416  0.629078  1
  O  O21  1  0.717976  0.112952  0.870457  1
  O  O22  1  0.718474  0.386584  0.370922  1
  O  O23  1  0.282024  0.887048  0.129543  1
  O  O24  1  0.618301  0.193119  0.592908  1
  O  O25  1  0.380651  0.693211  0.907346  1
  O  O26  1  0.381699  0.806881  0.407092  1
  O  O27  1  0.619349  0.306789  0.092654  1
  O  O28  1  0.675530  0.879878  0.673907  1
  O  O29  1  0.323574  0.380485  0.824761  1
  O  O30  1  0.324470  0.120122  0.326093  1
  O  O31  1  0.676426  0.619515  0.175239  1
  O  O32  1  0.397072  0.480908  0.194770  1
  O  O33  1  0.603866  0.980964  0.305688  1
  O  O34  1  0.602928  0.519092  0.805230  1
  O  O35  1  0.396134  0.019036  0.694312  1
  O  O36  1  0.012115  0.211419  0.139446  1
  O  O37  1  0.988549  0.712975  0.360228  1
  O  O38  1  0.987885  0.788581  0.860554  1
  O  O39  1  0.011451  0.287025  0.639772  1
  O  O40  1  0.968120  0.580205  0.110765  1
  O  O41  1  0.031521  0.079302  0.388620  1
  O  O42  1  0.031880  0.419795  0.889235  1
  O  O43  1  0.968479  0.920698  0.611380  1
