# generated using pymatgen
data_ZnCrF5
_symmetry_space_group_name_H-M   'P 1'
_cell_length_a   5.22931415
_cell_length_b   7.47944891
_cell_length_c   9.81967078
_cell_angle_alpha   90.00000000
_cell_angle_beta   90.00000000
_cell_angle_gamma   110.30832522
_symmetry_Int_Tables_number   1
_chemical_formula_structural   ZnCrF5
_chemical_formula_sum   'Zn4 Cr4 F20'
_cell_volume   360.19636395
_cell_formula_units_Z   4
loop_
 _symmetry_equiv_pos_site_id
 _symmetry_equiv_pos_as_xyz
  1  'x, y, z'
loop_
 _atom_site_type_symbol
 _atom_site_label
 _atom_site_symmetry_multiplicity
 _atom_site_fract_x
 _atom_site_fract_y
 _atom_site_fract_z
 _atom_site_occupancy
  Zn  Zn0  1  0.487596  0.751009  0.006166  1
  Zn  Zn1  1  0.512404  0.748991  0.506166  1
  Zn  Zn2  1  0.512404  0.248991  0.993834  1
  Zn  Zn3  1  0.487596  0.251009  0.493834  1
  Cr  Cr4  1  0.902771  0.602871  0.754392  1
  Cr  Cr5  1  0.097229  0.897129  0.254392  1
  Cr  Cr6  1  0.097229  0.397129  0.245608  1
  Cr  Cr7  1  0.902771  0.102871  0.745608  1
  F  F8  1  0.605542  0.561783  0.885638  1
  F  F9  1  0.394458  0.938217  0.385638  1
  F  F10  1  0.394458  0.438217  0.114362  1
  F  F11  1  0.605542  0.061783  0.614362  1
  F  F12  1  0.641837  0.501521  0.608326  1
  F  F13  1  0.358163  0.998479  0.108326  1
  F  F14  1  0.358163  0.498479  0.391674  1
  F  F15  1  0.641837  0.001521  0.891674  1
  F  F16  1  0.852152  0.804263  0.406603  1
  F  F17  1  0.147848  0.695737  0.906603  1
  F  F18  1  0.147848  0.195737  0.593397  1
  F  F19  1  0.852152  0.304263  0.093397  1
  F  F20  1  0.793267  0.849374  0.129876  1
  F  F21  1  0.206733  0.650626  0.629876  1
  F  F22  1  0.206733  0.150626  0.870124  1
  F  F23  1  0.793267  0.349374  0.370124  1
  F  F24  1  0.866229  0.842932  0.697002  1
  F  F25  1  0.133771  0.657068  0.197002  1
  F  F26  1  0.133771  0.157068  0.302998  1
  F  F27  1  0.866229  0.342932  0.802998  1
