# generated using pymatgen
data_Sr2YFe2O7
_symmetry_space_group_name_H-M   'P 1'
_cell_length_a   13.33679949
_cell_length_b   13.33679949
_cell_length_c   13.33679949
_cell_angle_alpha   32.72688117
_cell_angle_beta   157.09112523
_cell_angle_gamma   156.94540257
_symmetry_Int_Tables_number   1
_chemical_formula_structural   Sr2YFe2O7
_chemical_formula_sum   'Sr4 Y2 Fe4 O14'
_cell_volume   361.31214821
_cell_formula_units_Z   2
loop_
 _symmetry_equiv_pos_site_id
 _symmetry_equiv_pos_as_xyz
  1  'x, y, z'
loop_
 _atom_site_type_symbol
 _atom_site_label
 _atom_site_symmetry_multiplicity
 _atom_site_fract_x
 _atom_site_fract_y
 _atom_site_fract_z
 _atom_site_occupancy
  Sr  Sr0  1  0.968941  0.832700  0.781177  1
  Sr  Sr1  1  0.051524  0.187765  0.218823  1
  Sr  Sr2  1  0.968941  0.687765  0.636240  1
  Sr  Sr3  1  0.051524  0.332700  0.363760  1
  Y  Y4  1  0.015962  0.515962  0.500000  1
  Y  Y5  1  0.015962  0.015962  -0.000000  1
  Fe  Fe6  1  0.524471  0.434376  0.927506  1
  Fe  Fe7  1  0.506868  0.596964  0.072494  1
  Fe  Fe8  1  0.524471  0.096964  0.590097  1
  Fe  Fe9  1  0.506868  0.934376  0.409903  1
  O  O10  1  0.013723  0.010984  0.502739  1
  O  O11  1  0.508245  0.510984  0.497261  1
  O  O12  1  0.515635  0.213325  0.197344  1
  O  O13  1  0.015980  0.318292  0.802656  1
  O  O14  1  0.515635  0.818291  0.802311  1
  O  O15  1  0.015980  0.713325  0.197689  1
  O  O16  1  0.517121  0.706480  0.690540  1
  O  O17  1  0.015941  0.826580  0.309460  1
  O  O18  1  0.517121  0.326580  0.310641  1
  O  O19  1  0.015941  0.206480  0.689359  1
  O  O20  1  0.485776  0.862084  0.316520  1
  O  O21  1  0.545563  0.169254  0.683480  1
  O  O22  1  0.485776  0.669254  0.123692  1
  O  O23  1  0.545563  0.362084  0.876308  1
