# generated using pymatgen
data_Ca(BiO2)4
_symmetry_space_group_name_H-M   'P 1'
_cell_length_a   6.93933864
_cell_length_b   6.93933876
_cell_length_c   6.93933986
_cell_angle_alpha   61.85210186
_cell_angle_beta   61.85209133
_cell_angle_gamma   61.85210576
_symmetry_Int_Tables_number   1
_chemical_formula_structural   Ca(BiO2)4
_chemical_formula_sum   'Ca1 Bi4 O8'
_cell_volume   246.08582086
_cell_formula_units_Z   1
loop_
 _symmetry_equiv_pos_site_id
 _symmetry_equiv_pos_as_xyz
  1  'x, y, z'
loop_
 _atom_site_type_symbol
 _atom_site_label
 _atom_site_symmetry_multiplicity
 _atom_site_fract_x
 _atom_site_fract_y
 _atom_site_fract_z
 _atom_site_occupancy
  Ca  Ca0  1  0.500000  0.500001  0.499999  1
  Bi  Bi1  1  0.500001  0.999999  0.500001  1
  Bi  Bi2  1  0.999999  0.500000  0.500001  1
  Bi  Bi3  1  0.500000  0.500000  0.000000  1
  Bi  Bi4  1  -0.000000  -0.000000  0.000000  1
  O  O5  1  0.751051  0.282793  0.751051  1
  O  O6  1  0.248948  0.248949  0.717207  1
  O  O7  1  0.248948  0.717208  0.248948  1
  O  O8  1  0.717206  0.248949  0.248949  1
  O  O9  1  0.271076  0.271077  0.271076  1
  O  O10  1  0.728924  0.728924  0.728924  1
  O  O11  1  0.282794  0.751052  0.751051  1
  O  O12  1  0.751052  0.751052  0.282793  1
