# generated using pymatgen
data_ZnBiWO5
_symmetry_space_group_name_H-M   'P 1'
_cell_length_a   5.47619262
_cell_length_b   10.89349234
_cell_length_c   16.42524535
_cell_angle_alpha   90.00000000
_cell_angle_beta   90.00000000
_cell_angle_gamma   90.00000000
_symmetry_Int_Tables_number   1
_chemical_formula_structural   ZnBiWO5
_chemical_formula_sum   'Zn8 Bi8 W8 O40'
_cell_volume   979.84575056
_cell_formula_units_Z   8
loop_
 _symmetry_equiv_pos_site_id
 _symmetry_equiv_pos_as_xyz
  1  'x, y, z'
loop_
 _atom_site_type_symbol
 _atom_site_label
 _atom_site_symmetry_multiplicity
 _atom_site_fract_x
 _atom_site_fract_y
 _atom_site_fract_z
 _atom_site_occupancy
  Zn  Zn0  1  0.462521  0.374026  0.460489  1
  Zn  Zn1  1  0.962521  0.125974  0.460489  1
  Zn  Zn2  1  0.962521  0.625974  0.039511  1
  Zn  Zn3  1  0.037479  0.374026  0.960489  1
  Zn  Zn4  1  0.537479  0.125974  0.960489  1
  Zn  Zn5  1  0.037479  0.874026  0.539511  1
  Zn  Zn6  1  0.537479  0.625974  0.539511  1
  Zn  Zn7  1  0.462521  0.874026  0.039511  1
  Bi  Bi8  1  0.033659  0.857164  0.208454  1
  Bi  Bi9  1  0.966341  0.142836  0.791546  1
  Bi  Bi10  1  0.466341  0.357164  0.791546  1
  Bi  Bi11  1  0.966341  0.642836  0.708454  1
  Bi  Bi12  1  0.533659  0.142836  0.291546  1
  Bi  Bi13  1  0.533659  0.642836  0.208454  1
  Bi  Bi14  1  0.466341  0.857164  0.708454  1
  Bi  Bi15  1  0.033659  0.357164  0.291546  1
  W  W16  1  0.931513  0.358522  0.593244  1
  W  W17  1  0.568487  0.858522  0.406756  1
  W  W18  1  0.068487  0.641478  0.406756  1
  W  W19  1  0.431513  0.141478  0.593244  1
  W  W20  1  0.068487  0.141478  0.093244  1
  W  W21  1  0.931513  0.858522  0.906756  1
  W  W22  1  0.568487  0.358522  0.093244  1
  W  W23  1  0.431513  0.641478  0.906756  1
  O  O24  1  0.807440  0.310361  0.693091  1
  O  O25  1  0.298884  0.042226  0.035966  1
  O  O26  1  0.201116  0.542226  0.964034  1
  O  O27  1  0.372627  0.797806  0.144946  1
  O  O28  1  0.127373  0.297806  0.855054  1
  O  O29  1  0.807440  0.810361  0.806909  1
  O  O30  1  0.127373  0.797806  0.644946  1
  O  O31  1  0.692560  0.810361  0.306909  1
  O  O32  1  0.298884  0.542226  0.464034  1
  O  O33  1  0.192560  0.689639  0.306909  1
  O  O34  1  0.692560  0.310361  0.193091  1
  O  O35  1  0.706564  0.215678  0.532528  1
  O  O36  1  0.798884  0.957774  0.464034  1
  O  O37  1  0.627373  0.702194  0.644946  1
  O  O38  1  0.126897  0.996055  0.866768  1
  O  O39  1  0.798884  0.457774  0.035966  1
  O  O40  1  0.192560  0.189639  0.193091  1
  O  O41  1  0.872627  0.202194  0.355054  1
  O  O42  1  0.206564  0.784322  0.967472  1
  O  O43  1  0.201116  0.042226  0.535966  1
  O  O44  1  0.293436  0.784322  0.467472  1
  O  O45  1  0.873103  0.003945  0.133232  1
  O  O46  1  0.627373  0.202194  0.855054  1
  O  O47  1  0.626897  0.003945  0.633232  1
  O  O48  1  0.293436  0.284322  0.032528  1
  O  O49  1  0.206564  0.284322  0.532528  1
  O  O50  1  0.701116  0.457774  0.535966  1
  O  O51  1  0.701116  0.957774  0.964034  1
  O  O52  1  0.626897  0.503945  0.866768  1
  O  O53  1  0.793436  0.715678  0.467472  1
  O  O54  1  0.793436  0.215678  0.032528  1
  O  O55  1  0.706564  0.715678  0.967472  1
  O  O56  1  0.873103  0.503945  0.366768  1
  O  O57  1  0.872627  0.702194  0.144946  1
  O  O58  1  0.372627  0.297806  0.355054  1
  O  O59  1  0.126897  0.496055  0.633232  1
  O  O60  1  0.373103  0.496055  0.133232  1
  O  O61  1  0.307440  0.189639  0.693091  1
  O  O62  1  0.373103  0.996055  0.366768  1
  O  O63  1  0.307440  0.689639  0.806909  1
