# generated using pymatgen
data_Mn13Si2(SbO14)2
_symmetry_space_group_name_H-M   'P 1'
_cell_length_a   5.58741780
_cell_length_b   8.84550620
_cell_length_c   11.75375328
_cell_angle_alpha   87.52253280
_cell_angle_beta   76.10954960
_cell_angle_gamma   79.00803641
_symmetry_Int_Tables_number   1
_chemical_formula_structural   Mn13Si2(SbO14)2
_chemical_formula_sum   'Mn13 Si2 Sb2 O28'
_cell_volume   553.57641618
_cell_formula_units_Z   1
loop_
 _symmetry_equiv_pos_site_id
 _symmetry_equiv_pos_as_xyz
  1  'x, y, z'
loop_
 _atom_site_type_symbol
 _atom_site_label
 _atom_site_symmetry_multiplicity
 _atom_site_fract_x
 _atom_site_fract_y
 _atom_site_fract_z
 _atom_site_occupancy
  Mn  Mn0  1  0.958837  0.630553  0.683566  1
  Mn  Mn1  1  0.649007  0.353530  0.148469  1
  Mn  Mn2  1  0.357257  0.365678  0.683328  1
  Mn  Mn3  1  0.035704  0.368200  0.319083  1
  Mn  Mn4  1  0.355521  0.645552  0.850679  1
  Mn  Mn5  1  0.285993  -0.001853  0.428456  1
  Mn  Mn6  1  0.203893  0.643612  0.148968  1
  Mn  Mn7  1  0.001008  -0.000549  0.000901  1
  Mn  Mn8  1  0.423905  0.000957  0.148648  1
  Mn  Mn9  1  0.794253  0.353660  0.853712  1
  Mn  Mn10  1  0.636151  0.632558  0.314989  1
  Mn  Mn11  1  0.578483  0.998772  0.851580  1
  Mn  Mn12  1  0.714011  0.000661  0.571306  1
  Si  Si13  1  0.233598  0.317192  0.000429  1
  Si  Si14  1  0.771142  0.682432  0.000490  1
  Sb  Sb15  1  0.853596  -0.000172  0.292273  1
  Sb  Sb16  1  0.148739  0.997494  0.708294  1
  O  O17  1  0.703624  0.406751  0.300265  1
  O  O18  1  0.191671  0.359484  0.426770  1
  O  O19  1  0.936219  0.348757  0.000937  1
  O  O20  1  0.317517  0.126442  0.000588  1
  O  O21  1  0.820531  0.639129  0.570300  1
  O  O22  1  0.290831  0.590506  0.700800  1
  O  O23  1  0.002388  0.098588  0.577648  1
  O  O24  1  0.008046  0.897559  0.419626  1
  O  O25  1  0.687179  0.872570  0.000224  1
  O  O26  1  0.118545  0.883903  0.160256  1
  O  O27  1  0.285310  0.385975  0.119989  1
  O  O28  1  0.984943  0.593049  0.298786  1
  O  O29  1  0.430298  0.895523  0.580524  1
  O  O30  1  0.722631  0.113867  0.159406  1
  O  O31  1  0.600019  0.615179  0.121342  1
  O  O32  1  0.069416  0.649724  -0.001037  1
  O  O33  1  0.284055  0.885739  0.841544  1
  O  O34  1  0.880208  0.113678  0.839750  1
  O  O35  1  0.575205  0.099634  0.422892  1
  O  O36  1  0.114356  0.136932  0.289195  1
  O  O37  1  0.884070  0.862093  0.711194  1
  O  O38  1  0.402368  0.384183  0.879385  1
  O  O39  1  0.406617  0.134861  0.710859  1
  O  O40  1  0.610787  0.354626  0.569675  1
  O  O41  1  0.720000  0.613321  0.880932  1
  O  O42  1  0.585755  0.866499  0.289794  1
  O  O43  1  0.006393  0.405539  0.703388  1
  O  O44  1  0.380948  0.641539  0.427305  1
