# generated using pymatgen
data_CaW5O7
_symmetry_space_group_name_H-M   'P 1'
_cell_length_a   3.27187767
_cell_length_b   5.63792174
_cell_length_c   18.66979181
_cell_angle_alpha   90.00000000
_cell_angle_beta   90.00000000
_cell_angle_gamma   106.86795437
_symmetry_Int_Tables_number   1
_chemical_formula_structural   CaW5O7
_chemical_formula_sum   'Ca2 W10 O14'
_cell_volume   329.57680031
_cell_formula_units_Z   2
loop_
 _symmetry_equiv_pos_site_id
 _symmetry_equiv_pos_as_xyz
  1  'x, y, z'
loop_
 _atom_site_type_symbol
 _atom_site_label
 _atom_site_symmetry_multiplicity
 _atom_site_fract_x
 _atom_site_fract_y
 _atom_site_fract_z
 _atom_site_occupancy
  Ca  Ca0  1  0.816733  0.633463  0.750000  1
  Ca  Ca1  1  0.183268  0.366536  0.250000  1
  W  W2  1  0.314836  0.629671  0.573233  1
  W  W3  1  0.441188  0.882374  0.147293  1
  W  W4  1  0.000000  0.000000  0.500000  1
  W  W5  1  0.000000  0.000000  0.000000  1
  W  W6  1  0.558812  0.117625  0.852708  1
  W  W7  1  0.685164  0.370328  0.426767  1
  W  W8  1  0.685164  0.370328  0.073233  1
  W  W9  1  0.314836  0.629671  0.926767  1
  W  W10  1  0.558812  0.117625  0.647292  1
  W  W11  1  0.441188  0.882374  0.352708  1
  O  O12  1  0.698300  0.396599  0.952933  1
  O  O13  1  0.301701  0.603402  0.047067  1
  O  O14  1  0.301701  0.603402  0.452933  1
  O  O15  1  0.698300  0.396599  0.547067  1
  O  O16  1  0.189057  0.378116  0.831427  1
  O  O17  1  0.810943  0.621884  0.168573  1
  O  O18  1  0.810943  0.621884  0.331428  1
  O  O19  1  0.189057  0.378116  0.668573  1
  O  O20  1  0.906830  0.813659  0.863848  1
  O  O21  1  0.093170  0.186341  0.136152  1
  O  O22  1  0.093170  0.186341  0.363848  1
  O  O23  1  0.906830  0.813659  0.636152  1
  O  O24  1  0.473515  0.947031  0.750000  1
  O  O25  1  0.526486  0.052971  0.250000  1
