# generated using pymatgen
data_CaNiWO6
_symmetry_space_group_name_H-M   'P 1'
_cell_length_a   5.24234616
_cell_length_b   5.33934140
_cell_length_c   7.46990465
_cell_angle_alpha   90.00000000
_cell_angle_beta   90.19815606
_cell_angle_gamma   90.00000000
_symmetry_Int_Tables_number   1
_chemical_formula_structural   CaNiWO6
_chemical_formula_sum   'Ca2 Ni2 W2 O12'
_cell_volume   209.08642943
_cell_formula_units_Z   2
loop_
 _symmetry_equiv_pos_site_id
 _symmetry_equiv_pos_as_xyz
  1  'x, y, z'
loop_
 _atom_site_type_symbol
 _atom_site_label
 _atom_site_symmetry_multiplicity
 _atom_site_fract_x
 _atom_site_fract_y
 _atom_site_fract_z
 _atom_site_occupancy
  Ca  Ca0  1  0.487382  0.447341  0.250568  1
  Ca  Ca1  1  0.987382  0.052659  0.750568  1
  Ni  Ni2  1  0.998096  0.498498  0.999369  1
  Ni  Ni3  1  0.498096  0.001502  0.499369  1
  W  W4  1  0.498821  0.985826  0.000299  1
  W  W5  1  0.998821  0.514174  0.500299  1
  O  O6  1  0.081812  0.491053  0.753531  1
  O  O7  1  0.423933  0.988906  0.747471  1
  O  O8  1  0.923933  0.511094  0.247471  1
  O  O9  1  0.581812  0.008947  0.253531  1
  O  O10  1  0.709619  0.291308  0.959966  1
  O  O11  1  0.785463  0.794449  0.542470  1
  O  O12  1  0.285463  0.705551  0.042470  1
  O  O13  1  0.209619  0.208692  0.459966  1
  O  O14  1  0.205320  0.210487  0.037885  1
  O  O15  1  0.296717  0.712998  0.461209  1
  O  O16  1  0.796717  0.787002  0.961209  1
  O  O17  1  0.705320  0.289513  0.537885  1
