# generated using pymatgen
data_TaNiP2O9
_symmetry_space_group_name_H-M   'P 1'
_cell_length_a   6.45644914
_cell_length_b   7.97633724
_cell_length_c   14.29875803
_cell_angle_alpha   90.06793557
_cell_angle_beta   90.00877478
_cell_angle_gamma   89.98522884
_symmetry_Int_Tables_number   1
_chemical_formula_structural   TaNiP2O9
_chemical_formula_sum   'Ta4 Ni4 P8 O36'
_cell_volume   736.36855476
_cell_formula_units_Z   4
loop_
 _symmetry_equiv_pos_site_id
 _symmetry_equiv_pos_as_xyz
  1  'x, y, z'
loop_
 _atom_site_type_symbol
 _atom_site_label
 _atom_site_symmetry_multiplicity
 _atom_site_fract_x
 _atom_site_fract_y
 _atom_site_fract_z
 _atom_site_occupancy
  Ta  Ta0  1  0.750029  0.344601  0.880190  1
  Ta  Ta1  1  0.249968  0.655389  0.119804  1
  Ta  Ta2  1  0.250173  0.844925  0.619804  1
  Ta  Ta3  1  0.749846  0.155088  0.380193  1
  Ni  Ni4  1  0.499997  0.999919  0.999961  1
  Ni  Ni5  1  0.500047  0.499953  0.499974  1
  Ni  Ni6  1  0.999932  0.499941  0.499986  1
  Ni  Ni7  1  0.000010  0.999907  0.999961  1
  P  P8  1  0.250061  0.343607  0.943196  1
  P  P9  1  0.749930  0.656367  0.056805  1
  P  P10  1  0.749950  0.843689  0.556727  1
  P  P11  1  0.250065  0.156307  0.443291  1
  P  P12  1  0.749733  0.393041  0.686535  1
  P  P13  1  0.250273  0.606969  0.313458  1
  P  P14  1  0.250004  0.893066  0.813638  1
  P  P15  1  0.749968  0.107029  0.186355  1
  O  O16  1  0.055332  0.604136  0.374477  1
  O  O17  1  0.553134  0.397342  0.626451  1
  O  O18  1  0.946334  0.103687  0.126193  1
  O  O19  1  0.446336  0.896238  0.873833  1
  O  O20  1  0.944703  0.395869  0.625532  1
  O  O21  1  0.446872  0.602649  0.373540  1
  O  O22  1  0.053635  0.896316  0.873773  1
  O  O23  1  0.553618  0.103759  0.126152  1
  O  O24  1  0.250323  0.335208  0.482389  1
  O  O25  1  0.749677  0.664797  0.517616  1
  O  O26  1  0.749940  0.835231  0.017757  1
  O  O27  1  0.250039  0.164744  0.982240  1
  O  O28  1  0.750189  0.149973  0.947538  1
  O  O29  1  0.249791  0.850015  0.052434  1
  O  O30  1  0.250785  0.650243  0.552227  1
  O  O31  1  0.749233  0.349782  0.447784  1
  O  O32  1  0.749992  0.234917  0.752955  1
  O  O33  1  0.250037  0.765107  0.247044  1
  O  O34  1  0.250073  0.735170  0.746793  1
  O  O35  1  0.749926  0.264846  0.253255  1
  O  O36  1  0.443284  0.129785  0.381049  1
  O  O37  1  0.943488  0.869754  0.618884  1
  O  O38  1  0.556616  0.630258  0.118974  1
  O  O39  1  0.056692  0.369968  0.881016  1
  O  O40  1  0.556758  0.870188  0.619007  1
  O  O41  1  0.056504  0.130214  0.381167  1
  O  O42  1  0.443382  0.369725  0.881025  1
  O  O43  1  0.943298  0.630032  0.118981  1
  O  O44  1  0.750108  0.963396  0.260443  1
  O  O45  1  0.249899  0.036749  0.739583  1
  O  O46  1  0.250241  0.463667  0.239014  1
  O  O47  1  0.749763  0.536361  0.760969  1
  O  O48  1  0.749982  0.975547  0.478090  1
  O  O49  1  0.250035  0.024490  0.521968  1
  O  O50  1  0.250142  0.475513  0.021936  1
  O  O51  1  0.749855  0.524531  0.978031  1
