# generated using pymatgen
data_MgTi2(PO5)2
_symmetry_space_group_name_H-M   'P 1'
_cell_length_a   6.72734632
_cell_length_b   6.72734617
_cell_length_c   8.99840205
_cell_angle_alpha   102.33881556
_cell_angle_beta   102.33881896
_cell_angle_gamma   115.36204744
_symmetry_Int_Tables_number   1
_chemical_formula_structural   MgTi2(PO5)2
_chemical_formula_sum   'Mg2 Ti4 P4 O20'
_cell_volume   337.31850113
_cell_formula_units_Z   2
loop_
 _symmetry_equiv_pos_site_id
 _symmetry_equiv_pos_as_xyz
  1  'x, y, z'
loop_
 _atom_site_type_symbol
 _atom_site_label
 _atom_site_symmetry_multiplicity
 _atom_site_fract_x
 _atom_site_fract_y
 _atom_site_fract_z
 _atom_site_occupancy
  Mg  Mg0  1  0.504099  0.004099  0.500000  1
  Mg  Mg1  1  0.254099  0.254099  0.000000  1
  Ti  Ti2  1  0.880104  0.616152  0.262840  1
  Ti  Ti3  1  0.353312  0.617263  0.737160  1
  Ti  Ti4  1  0.867263  0.103312  0.237160  1
  Ti  Ti5  1  0.866152  0.630104  0.762840  1
  P  P6  1  0.034126  0.037174  0.582839  1
  P  P7  1  0.701287  0.204335  0.917161  1
  P  P8  1  0.454335  0.451287  0.417161  1
  P  P9  1  0.287174  0.784126  0.082839  1
  O  O10  1  0.587083  0.554980  0.308064  1
  O  O11  1  0.660929  0.665211  0.838090  1
  O  O12  1  0.304063  0.584620  0.971693  1
  O  O13  1  0.804980  0.337083  0.808064  1
  O  O14  1  0.215108  0.242802  0.300329  1
  O  O15  1  0.429438  0.649629  0.525862  1
  O  O16  1  0.072838  0.577121  0.661910  1
  O  O17  1  0.827121  0.822838  0.161910  1
  O  O18  1  0.915211  0.410929  0.338090  1
  O  O19  1  0.164779  0.692473  0.199671  1
  O  O20  1  0.246916  0.279020  0.691936  1
  O  O21  1  0.492802  0.965108  0.800329  1
  O  O22  1  0.942473  0.914779  0.699671  1
  O  O23  1  0.153576  0.873768  0.974138  1
  O  O24  1  0.123768  0.903576  0.474138  1
  O  O25  1  0.899629  0.179438  0.025862  1
  O  O26  1  0.834620  0.054063  0.471693  1
  O  O27  1  0.612926  0.332370  0.028307  1
  O  O28  1  0.529020  0.996916  0.191936  1
  O  O29  1  0.582370  0.362926  0.528307  1
