# generated using pymatgen
data_Zn(AgO2)2
_symmetry_space_group_name_H-M   'P 1'
_cell_length_a   6.35951548
_cell_length_b   6.35951727
_cell_length_c   6.37717315
_cell_angle_alpha   119.90845794
_cell_angle_beta   119.90845519
_cell_angle_gamma   89.99999486
_symmetry_Int_Tables_number   1
_chemical_formula_structural   Zn(AgO2)2
_chemical_formula_sum   'Zn2 Ag4 O8'
_cell_volume   182.87689536
_cell_formula_units_Z   2
loop_
 _symmetry_equiv_pos_site_id
 _symmetry_equiv_pos_as_xyz
  1  'x, y, z'
loop_
 _atom_site_type_symbol
 _atom_site_label
 _atom_site_symmetry_multiplicity
 _atom_site_fract_x
 _atom_site_fract_y
 _atom_site_fract_z
 _atom_site_occupancy
  Zn  Zn0  1  0.375000  0.625000  0.750000  1
  Zn  Zn1  1  0.625000  0.375000  0.250000  1
  Ag  Ag2  1  0.000000  0.000000  0.500000  1
  Ag  Ag3  1  0.000000  0.500000  0.000000  1
  Ag  Ag4  1  0.500000  0.000000  0.500000  1
  Ag  Ag5  1  0.000000  0.000000  0.000000  1
  O  O6  1  0.753427  0.760746  0.506856  1
  O  O7  1  0.753891  0.246573  0.993144  1
  O  O8  1  0.239254  0.246573  0.993144  1
  O  O9  1  0.246573  0.239254  0.493144  1
  O  O10  1  0.246573  0.753891  0.493144  1
  O  O11  1  0.246109  0.753427  0.006856  1
  O  O12  1  0.753427  0.246109  0.506856  1
  O  O13  1  0.760746  0.753427  0.006856  1
