# generated using pymatgen
data_VAsO5
_symmetry_space_group_name_H-M   'P 1'
_cell_length_a   8.40051136
_cell_length_b   7.20450378
_cell_length_c   7.42073812
_cell_angle_alpha   89.98532314
_cell_angle_beta   90.03722115
_cell_angle_gamma   89.99443750
_symmetry_Int_Tables_number   1
_chemical_formula_structural   VAsO5
_chemical_formula_sum   'V4 As4 O20'
_cell_volume   449.11420747
_cell_formula_units_Z   4
loop_
 _symmetry_equiv_pos_site_id
 _symmetry_equiv_pos_as_xyz
  1  'x, y, z'
loop_
 _atom_site_type_symbol
 _atom_site_label
 _atom_site_symmetry_multiplicity
 _atom_site_fract_x
 _atom_site_fract_y
 _atom_site_fract_z
 _atom_site_occupancy
  V  V0  1  0.061660  0.508990  0.704250  1
  V  V1  1  0.438662  0.490813  0.204499  1
  V  V2  1  0.561308  0.990952  0.295517  1
  V  V3  1  0.938421  0.009101  0.795726  1
  As  As4  1  0.607544  0.240031  0.925502  1
  As  As5  1  0.892372  0.760200  0.425451  1
  As  As6  1  0.107639  0.259957  0.074601  1
  As  As7  1  0.392445  0.739977  0.574375  1
  O  O8  1  0.879148  0.820637  0.889693  1
  O  O9  1  0.620680  0.179247  0.389428  1
  O  O10  1  0.379208  0.678905  0.110470  1
  O  O11  1  0.120867  0.320950  0.610457  1
  O  O12  1  0.805170  0.198057  0.850644  1
  O  O13  1  0.694473  0.801967  0.350455  1
  O  O14  1  0.305541  0.301692  0.149541  1
  O  O15  1  0.194786  0.698076  0.649398  1
  O  O16  1  0.484674  0.284136  0.760033  1
  O  O17  1  0.014976  0.716353  0.260165  1
  O  O18  1  0.985088  0.216096  0.239968  1
  O  O19  1  0.515340  0.784052  0.739905  1
  O  O20  1  0.567282  0.038519  0.055964  1
  O  O21  1  0.932435  0.961579  0.556131  1
  O  O22  1  0.067542  0.461468  0.943927  1
  O  O23  1  0.432688  0.538483  0.444022  1
  O  O24  1  0.623714  0.419264  0.087416  1
  O  O25  1  0.876405  0.580671  0.587221  1
  O  O26  1  0.123632  0.080621  0.912842  1
  O  O27  1  0.376242  0.919263  0.412501  1
