# generated using pymatgen
data_ZnNiF4
_symmetry_space_group_name_H-M   'P 1'
_cell_length_a   5.09345324
_cell_length_b   5.12046173
_cell_length_c   6.22595735
_cell_angle_alpha   114.98236508
_cell_angle_beta   113.66901769
_cell_angle_gamma   89.91406456
_symmetry_Int_Tables_number   1
_chemical_formula_structural   ZnNiF4
_chemical_formula_sum   'Zn2 Ni2 F8'
_cell_volume   132.01370545
_cell_formula_units_Z   2
loop_
 _symmetry_equiv_pos_site_id
 _symmetry_equiv_pos_as_xyz
  1  'x, y, z'
loop_
 _atom_site_type_symbol
 _atom_site_label
 _atom_site_symmetry_multiplicity
 _atom_site_fract_x
 _atom_site_fract_y
 _atom_site_fract_z
 _atom_site_occupancy
  Zn  Zn0  1  0.250389  0.252049  0.500263  1
  Zn  Zn1  1  0.749521  0.751757  0.500672  1
  Ni  Ni2  1  0.000472  0.504225  0.003336  1
  Ni  Ni3  1  0.498105  0.000707  0.997784  1
  F  F4  1  0.926997  0.424883  0.261268  1
  F  F5  1  0.660583  0.177583  0.743376  1
  F  F6  1  0.077633  0.580015  0.745209  1
  F  F7  1  0.159955  0.079707  0.743694  1
  F  F8  1  0.339473  0.831912  0.263704  1
  F  F9  1  0.428043  0.330797  0.262077  1
  F  F10  1  0.834618  0.918399  0.250834  1
  F  F11  1  0.570324  0.673054  0.733270  1
