# generated using pymatgen
data_Mg(CoS2)4
_symmetry_space_group_name_H-M   'P 1'
_cell_length_a   6.70305745
_cell_length_b   6.77725764
_cell_length_c   6.77725833
_cell_angle_alpha   60.00000098
_cell_angle_beta   59.63313678
_cell_angle_gamma   59.63313172
_symmetry_Int_Tables_number   1
_chemical_formula_structural   Mg(CoS2)4
_chemical_formula_sum   'Mg1 Co4 S8'
_cell_volume   216.48876097
_cell_formula_units_Z   1
loop_
 _symmetry_equiv_pos_site_id
 _symmetry_equiv_pos_as_xyz
  1  'x, y, z'
loop_
 _atom_site_type_symbol
 _atom_site_label
 _atom_site_symmetry_multiplicity
 _atom_site_fract_x
 _atom_site_fract_y
 _atom_site_fract_z
 _atom_site_occupancy
  Mg  Mg0  1  0.500000  0.000000  0.000000  1
  Co  Co1  1  0.000000  0.500000  0.500000  1
  Co  Co2  1  0.500000  0.500000  0.000000  1
  Co  Co3  1  0.500000  0.500000  0.500000  1
  Co  Co4  1  0.500000  0.000000  0.500000  1
  S  S5  1  0.265428  0.263692  0.263692  1
  S  S6  1  0.265428  0.263692  0.707189  1
  S  S7  1  0.265428  0.707189  0.263692  1
  S  S8  1  0.709114  0.263628  0.263628  1
  S  S9  1  0.290886  0.736372  0.736372  1
  S  S10  1  0.734572  0.736308  0.292811  1
  S  S11  1  0.734572  0.292811  0.736308  1
  S  S12  1  0.734572  0.736308  0.736308  1
