# generated using pymatgen
data_MgTiF5
_symmetry_space_group_name_H-M   'P 1'
_cell_length_a   5.34868861
_cell_length_b   5.34868820
_cell_length_c   7.51569850
_cell_angle_alpha   97.99002145
_cell_angle_beta   111.12898486
_cell_angle_gamma   107.34782018
_symmetry_Int_Tables_number   1
_chemical_formula_structural   MgTiF5
_chemical_formula_sum   'Mg2 Ti2 F10'
_cell_volume   183.95266146
_cell_formula_units_Z   2
loop_
 _symmetry_equiv_pos_site_id
 _symmetry_equiv_pos_as_xyz
  1  'x, y, z'
loop_
 _atom_site_type_symbol
 _atom_site_label
 _atom_site_symmetry_multiplicity
 _atom_site_fract_x
 _atom_site_fract_y
 _atom_site_fract_z
 _atom_site_occupancy
  Mg  Mg0  1  0.273199  0.523199  0.750000  1
  Mg  Mg1  1  0.726801  0.476801  0.250000  1
  Ti  Ti2  1  0.000000  0.000000  0.000000  1
  Ti  Ti3  1  0.500000  0.000000  0.500000  1
  F  F4  1  0.386587  0.136587  0.250000  1
  F  F5  1  0.613413  0.863413  0.750000  1
  F  F6  1  0.593003  0.730043  0.371928  1
  F  F7  1  0.858113  0.221074  0.128072  1
  F  F8  1  0.752571  0.680756  0.050485  1
  F  F9  1  0.130271  0.702086  0.449515  1
  F  F10  1  0.247429  0.319244  0.949515  1
  F  F11  1  0.869729  0.297914  0.550485  1
  F  F12  1  0.141887  0.778926  0.871928  1
  F  F13  1  0.406997  0.269957  0.628072  1
