# generated using pymatgen
data_Ti2AlO4
_symmetry_space_group_name_H-M   'P 1'
_cell_length_a   5.66494974
_cell_length_b   5.81804395
_cell_length_c   5.81351315
_cell_angle_alpha   88.71808760
_cell_angle_beta   119.19054868
_cell_angle_gamma   119.18338442
_symmetry_Int_Tables_number   1
_chemical_formula_structural   Ti2AlO4
_chemical_formula_sum   'Ti4 Al2 O8'
_cell_volume   140.08480587
_cell_formula_units_Z   2
loop_
 _symmetry_equiv_pos_site_id
 _symmetry_equiv_pos_as_xyz
  1  'x, y, z'
loop_
 _atom_site_type_symbol
 _atom_site_label
 _atom_site_symmetry_multiplicity
 _atom_site_fract_x
 _atom_site_fract_y
 _atom_site_fract_z
 _atom_site_occupancy
  Ti  Ti0  1  0.500243  0.000382  0.500086  1
  Ti  Ti1  1  0.500419  0.499896  0.500099  1
  Ti  Ti2  1  0.999782  0.499919  0.999638  1
  Ti  Ti3  1  0.999584  0.499891  0.500104  1
  Al  Al4  1  0.999992  0.999990  0.000004  1
  Al  Al5  1  0.500006  0.999999  0.000000  1
  O  O6  1  0.013045  0.765104  0.233882  1
  O  O7  1  0.531668  0.778568  0.784035  1
  O  O8  1  0.487284  0.766131  0.234972  1
  O  O9  1  0.031169  0.783879  0.777966  1
  O  O10  1  0.512572  0.233755  0.765156  1
  O  O11  1  0.468223  0.221395  0.215780  1
  O  O12  1  0.968937  0.216291  0.222069  1
  O  O13  1  0.987125  0.234767  0.766251  1
