# generated using pymatgen
data_Ca3Co2O7
_symmetry_space_group_name_H-M   'P 1'
_cell_length_a   5.30808539
_cell_length_b   5.25814374
_cell_length_c   10.00815775
_cell_angle_alpha   105.22990351
_cell_angle_beta   90.00000000
_cell_angle_gamma   90.00000000
_symmetry_Int_Tables_number   1
_chemical_formula_structural   Ca3Co2O7
_chemical_formula_sum   'Ca6 Co4 O14'
_cell_volume   269.52408900
_cell_formula_units_Z   2
loop_
 _symmetry_equiv_pos_site_id
 _symmetry_equiv_pos_as_xyz
  1  'x, y, z'
loop_
 _atom_site_type_symbol
 _atom_site_label
 _atom_site_symmetry_multiplicity
 _atom_site_fract_x
 _atom_site_fract_y
 _atom_site_fract_z
 _atom_site_occupancy
  Ca  Ca0  1  0.705391  0.757435  1.000000  1
  Ca  Ca1  1  0.205391  0.242565  0.000000  1
  Ca  Ca2  1  0.789003  0.569235  0.627195  1
  Ca  Ca3  1  0.289003  0.430765  0.372805  1
  Ca  Ca4  1  0.789003  0.942039  0.372805  1
  Ca  Ca5  1  0.289003  0.057961  0.627195  1
  Co  Co6  1  0.748324  0.346846  0.194489  1
  Co  Co7  1  0.248324  0.653154  0.805511  1
  Co  Co8  1  0.248324  0.847643  0.194489  1
  Co  Co9  1  0.748324  0.152357  0.805511  1
  O  O10  1  0.742829  0.007341  0.610123  1
  O  O11  1  0.242829  0.992659  0.389877  1
  O  O12  1  0.242829  0.602782  0.610123  1
  O  O13  1  0.742829  0.397218  0.389877  1
  O  O14  1  0.038792  0.347808  0.776835  1
  O  O15  1  0.538792  0.652192  0.223165  1
  O  O16  1  0.538792  0.429027  0.776835  1
  O  O17  1  0.038792  0.570973  0.223165  1
  O  O18  1  0.956151  0.874483  0.834675  1
  O  O19  1  0.456151  0.125517  0.165325  1
  O  O20  1  0.764413  0.325370  1.000000  1
  O  O21  1  0.264413  0.674630  0.000000  1
  O  O22  1  0.956151  0.039808  0.165325  1
  O  O23  1  0.456151  0.960192  0.834675  1
