# generated using pymatgen
data_Ca(AgO2)2
_symmetry_space_group_name_H-M   'P 1'
_cell_length_a   6.58967970
_cell_length_b   5.93077324
_cell_length_c   11.42309374
_cell_angle_alpha   89.99998605
_cell_angle_beta   90.01325918
_cell_angle_gamma   89.99335649
_symmetry_Int_Tables_number   1
_chemical_formula_structural   Ca(AgO2)2
_chemical_formula_sum   'Ca4 Ag8 O16'
_cell_volume   446.43614665
_cell_formula_units_Z   4
loop_
 _symmetry_equiv_pos_site_id
 _symmetry_equiv_pos_as_xyz
  1  'x, y, z'
loop_
 _atom_site_type_symbol
 _atom_site_label
 _atom_site_symmetry_multiplicity
 _atom_site_fract_x
 _atom_site_fract_y
 _atom_site_fract_z
 _atom_site_occupancy
  Ca  Ca0  1  0.751135  0.250027  0.749995  1
  Ca  Ca1  1  0.248768  0.749969  0.250010  1
  Ca  Ca2  1  0.661939  0.249996  0.249958  1
  Ca  Ca3  1  0.337981  0.749990  0.749999  1
  Ag  Ag4  1  0.524421  0.750010  0.495876  1
  Ag  Ag5  1  0.524305  0.749991  0.004129  1
  Ag  Ag6  1  0.475642  0.250003  0.504084  1
  Ag  Ag7  1  0.475454  0.249996  0.995902  1
  Ag  Ag8  1  0.000155  0.500443  0.500044  1
  Ag  Ag9  1  0.000029  -0.000356  0.000016  1
  Ag  Ag10  1  0.000152  -0.000448  0.500049  1
  Ag  Ag11  1  0.000017  0.500361  0.000014  1
  O  O12  1  0.977968  0.750006  0.379306  1
  O  O13  1  0.978042  0.750008  0.120685  1
  O  O14  1  0.022268  0.249998  0.620945  1
  O  O15  1  0.021980  0.250002  0.879127  1
  O  O16  1  0.097870  0.749981  0.606512  1
  O  O17  1  0.097363  0.749990  0.893328  1
  O  O18  1  0.902071  0.250010  0.393399  1
  O  O19  1  0.902524  0.250018  0.106733  1
  O  O20  1  0.545788  0.500753  0.621100  1
  O  O21  1  0.545565  0.999253  0.878893  1
  O  O22  1  0.454280  0.000777  0.378903  1
  O  O23  1  0.454321  0.499248  0.121054  1
  O  O24  1  0.454296  0.499248  0.378897  1
  O  O25  1  0.454325  0.000754  0.121054  1
  O  O26  1  0.545786  0.999246  0.621097  1
  O  O27  1  0.545556  0.500725  0.878889  1
