# generated using pymatgen
data_Ba2YCo3O8
_symmetry_space_group_name_H-M   'P 1'
_cell_length_a   3.92359022
_cell_length_b   3.92411381
_cell_length_c   12.09250277
_cell_angle_alpha   90.00003839
_cell_angle_beta   89.99998061
_cell_angle_gamma   90.00002950
_symmetry_Int_Tables_number   1
_chemical_formula_structural   Ba2YCo3O8
_chemical_formula_sum   'Ba2 Y1 Co3 O8'
_cell_volume   186.18360430
_cell_formula_units_Z   1
loop_
 _symmetry_equiv_pos_site_id
 _symmetry_equiv_pos_as_xyz
  1  'x, y, z'
loop_
 _atom_site_type_symbol
 _atom_site_label
 _atom_site_symmetry_multiplicity
 _atom_site_fract_x
 _atom_site_fract_y
 _atom_site_fract_z
 _atom_site_occupancy
  Ba  Ba0  1  0.499999  0.500000  0.166792  1
  Ba  Ba1  1  0.499999  0.500000  0.833420  1
  Y  Y2  1  0.500001  0.500000  0.499974  1
  Co  Co3  1  -0.000000  0.000001  0.339402  1
  Co  Co4  1  0.000000  -0.000000  0.000147  1
  Co  Co5  1  0.000000  0.999999  0.660523  1
  O  O6  1  1.000000  0.500001  0.383306  1
  O  O7  1  0.500000  0.000001  0.383314  1
  O  O8  1  0.500001  -0.000000  0.000087  1
  O  O9  1  0.999999  0.000000  0.191974  1
  O  O10  1  0.000000  0.500000  0.616510  1
  O  O11  1  0.500001  0.999999  0.616503  1
  O  O12  1  0.999999  1.000000  0.807960  1
  O  O13  1  0.000001  0.500000  0.000086  1
