# generated using pymatgen
data_ZnCoSn2O7
_symmetry_space_group_name_H-M   'P 1'
_cell_length_a   7.09539947
_cell_length_b   11.50772525
_cell_length_c   14.36546331
_cell_angle_alpha   90.00000000
_cell_angle_beta   90.00000000
_cell_angle_gamma   108.16566029
_symmetry_Int_Tables_number   1
_chemical_formula_structural   ZnCoSn2O7
_chemical_formula_sum   'Zn8 Co8 Sn16 O56'
_cell_volume   1114.50570075
_cell_formula_units_Z   8
loop_
 _symmetry_equiv_pos_site_id
 _symmetry_equiv_pos_as_xyz
  1  'x, y, z'
loop_
 _atom_site_type_symbol
 _atom_site_label
 _atom_site_symmetry_multiplicity
 _atom_site_fract_x
 _atom_site_fract_y
 _atom_site_fract_z
 _atom_site_occupancy
  Zn  Zn0  1  0.068967  0.840609  0.500922  1
  Zn  Zn1  1  0.317625  0.922744  0.894308  1
  Zn  Zn2  1  0.682375  0.577256  0.394308  1
  Zn  Zn3  1  0.682375  0.077256  0.105692  1
  Zn  Zn4  1  0.317625  0.422744  0.605692  1
  Zn  Zn5  1  0.068967  0.340609  0.999078  1
  Zn  Zn6  1  0.931033  0.159391  0.499078  1
  Zn  Zn7  1  0.931033  0.659391  0.000922  1
  Co  Co8  1  0.641417  0.096163  0.654844  1
  Co  Co9  1  0.358583  0.403837  0.154844  1
  Co  Co10  1  0.358583  0.903837  0.345156  1
  Co  Co11  1  0.641417  0.596163  0.845156  1
  Co  Co12  1  0.986421  0.270880  0.758267  1
  Co  Co13  1  0.013579  0.229120  0.258267  1
  Co  Co14  1  0.013579  0.729120  0.241733  1
  Co  Co15  1  0.986421  0.770880  0.741733  1
  Sn  Sn16  1  0.880282  0.005891  0.900694  1
  Sn  Sn17  1  0.397513  0.677644  0.018541  1
  Sn  Sn18  1  0.397513  0.177644  0.481459  1
  Sn  Sn19  1  0.602487  0.322356  0.981459  1
  Sn  Sn20  1  0.496553  0.795182  0.740015  1
  Sn  Sn21  1  0.503447  0.704818  0.240015  1
  Sn  Sn22  1  0.503447  0.204818  0.259985  1
  Sn  Sn23  1  0.496553  0.295182  0.759985  1
  Sn  Sn24  1  0.602487  0.822356  0.518541  1
  Sn  Sn25  1  0.902232  0.467676  0.177514  1
  Sn  Sn26  1  0.097768  0.032324  0.677514  1
  Sn  Sn27  1  0.097768  0.532324  0.822486  1
  Sn  Sn28  1  0.119718  0.494109  0.400694  1
  Sn  Sn29  1  0.880282  0.505891  0.599306  1
  Sn  Sn30  1  0.119718  0.994109  0.099306  1
  Sn  Sn31  1  0.902232  0.967676  0.322486  1
  O  O32  1  0.832539  0.986625  0.039303  1
  O  O33  1  0.167461  0.513375  0.539303  1
  O  O34  1  0.167461  0.013375  0.960697  1
  O  O35  1  0.832539  0.486625  0.460697  1
  O  O36  1  0.971290  0.919518  0.792792  1
  O  O37  1  0.028710  0.580482  0.292792  1
  O  O38  1  0.028710  0.080482  0.207208  1
  O  O39  1  0.971290  0.419518  0.707208  1
  O  O40  1  0.039573  0.146229  0.819505  1
  O  O41  1  0.960427  0.353771  0.319505  1
  O  O42  1  0.960427  0.853771  0.180495  1
  O  O43  1  0.039573  0.646229  0.680495  1
  O  O44  1  0.616445  0.867589  0.312836  1
  O  O45  1  0.383555  0.632411  0.812836  1
  O  O46  1  0.383555  0.132411  0.687164  1
  O  O47  1  0.616445  0.367589  0.187164  1
  O  O48  1  0.014328  0.146236  0.366570  1
  O  O49  1  0.985672  0.353764  0.866570  1
  O  O50  1  0.985672  0.853764  0.633430  1
  O  O51  1  0.014328  0.646236  0.133430  1
  O  O52  1  0.050700  0.845860  0.353932  1
  O  O53  1  0.341553  0.824437  0.461817  1
  O  O54  1  0.949300  0.654140  0.853932  1
  O  O55  1  0.050700  0.345860  0.146068  1
  O  O56  1  0.775199  0.713730  0.490219  1
  O  O57  1  0.224801  0.786270  0.990219  1
  O  O58  1  0.224801  0.286270  0.509781  1
  O  O59  1  0.775199  0.213730  0.009781  1
  O  O60  1  0.811770  0.969405  0.465830  1
  O  O61  1  0.188230  0.530595  0.965830  1
  O  O62  1  0.188230  0.030595  0.534170  1
  O  O63  1  0.811770  0.469405  0.034170  1
  O  O64  1  0.462376  0.192565  0.884456  1
  O  O65  1  0.537624  0.307435  0.384456  1
  O  O66  1  0.537624  0.807435  0.115544  1
  O  O67  1  0.462376  0.692565  0.615544  1
  O  O68  1  0.719203  0.211066  0.753613  1
  O  O69  1  0.280797  0.288934  0.253613  1
  O  O70  1  0.280797  0.788934  0.246387  1
  O  O71  1  0.719203  0.711066  0.746387  1
  O  O72  1  0.593413  0.421027  0.644151  1
  O  O73  1  0.406587  0.078973  0.144151  1
  O  O74  1  0.406587  0.578973  0.355849  1
  O  O75  1  0.593413  0.921027  0.855849  1
  O  O76  1  0.255485  0.349840  0.734669  1
  O  O77  1  0.744515  0.150160  0.234669  1
  O  O78  1  0.744515  0.650160  0.265331  1
  O  O79  1  0.255485  0.849840  0.765331  1
  O  O80  1  0.605331  0.432972  0.858967  1
  O  O81  1  0.394669  0.067028  0.358967  1
  O  O82  1  0.394669  0.567028  0.141033  1
  O  O83  1  0.605331  0.932972  0.641033  1
  O  O84  1  0.341553  0.324438  0.038183  1
  O  O85  1  0.658447  0.175563  0.538183  1
  O  O86  1  0.658447  0.675563  0.961817  1
  O  O87  1  0.949300  0.154140  0.646068  1
