# generated using pymatgen
data_ZnFeBiO5
_symmetry_space_group_name_H-M   'P 1'
_cell_length_a   5.34908458
_cell_length_b   8.47176108
_cell_length_c   10.49931650
_cell_angle_alpha   90.00000000
_cell_angle_beta   90.00000000
_cell_angle_gamma   107.78352396
_symmetry_Int_Tables_number   1
_chemical_formula_structural   ZnFeBiO5
_chemical_formula_sum   'Zn4 Fe4 Bi4 O20'
_cell_volume   453.05428356
_cell_formula_units_Z   4
loop_
 _symmetry_equiv_pos_site_id
 _symmetry_equiv_pos_as_xyz
  1  'x, y, z'
loop_
 _atom_site_type_symbol
 _atom_site_label
 _atom_site_symmetry_multiplicity
 _atom_site_fract_x
 _atom_site_fract_y
 _atom_site_fract_z
 _atom_site_occupancy
  Zn  Zn0  1  0.634979  0.162726  0.900531  1
  Zn  Zn1  1  0.365021  0.837274  0.099469  1
  Zn  Zn2  1  0.865021  0.337274  0.400531  1
  Zn  Zn3  1  0.134979  0.662726  0.599469  1
  Fe  Fe4  1  0.806695  0.941532  0.612442  1
  Fe  Fe5  1  0.193305  0.058468  0.387558  1
  Fe  Fe6  1  0.693305  0.558468  0.112442  1
  Fe  Fe7  1  0.306695  0.441532  0.887558  1
  Bi  Bi8  1  0.121298  0.157313  0.103296  1
  Bi  Bi9  1  0.878702  0.842687  0.896704  1
  Bi  Bi10  1  0.621298  0.657313  0.396704  1
  Bi  Bi11  1  0.378702  0.342687  0.603296  1
  O  O12  1  0.477036  0.346123  0.046679  1
  O  O13  1  0.985136  0.309514  0.971433  1
  O  O14  1  0.513026  0.695502  0.209174  1
  O  O15  1  0.754264  0.516154  0.543527  1
  O  O16  1  0.786937  0.503230  0.280957  1
  O  O17  1  0.286937  0.003230  0.219043  1
  O  O18  1  0.485136  0.809514  0.528567  1
  O  O19  1  0.514864  0.190486  0.471433  1
  O  O20  1  0.245736  0.483846  0.456473  1
  O  O21  1  0.022964  0.153877  0.546679  1
  O  O22  1  0.213063  0.496770  0.719043  1
  O  O23  1  0.522964  0.653877  0.953321  1
  O  O24  1  0.977036  0.846123  0.453321  1
  O  O25  1  0.713063  0.996770  0.780957  1
  O  O26  1  0.745736  0.983846  0.043527  1
  O  O27  1  0.254264  0.016154  0.956473  1
  O  O28  1  0.486974  0.304498  0.790826  1
  O  O29  1  0.014864  0.690486  0.028567  1
  O  O30  1  0.986974  0.804498  0.709174  1
  O  O31  1  0.013026  0.195502  0.290826  1
