# generated using pymatgen
data_AlAg(WO4)2
_symmetry_space_group_name_H-M   'P 1'
_cell_length_a   5.14487268
_cell_length_b   5.69749549
_cell_length_c   6.20775734
_cell_angle_alpha   111.02270649
_cell_angle_beta   120.44930866
_cell_angle_gamma   88.15524253
_symmetry_Int_Tables_number   1
_chemical_formula_structural   AlAg(WO4)2
_chemical_formula_sum   'Al1 Ag1 W2 O8'
_cell_volume   143.87549089
_cell_formula_units_Z   1
loop_
 _symmetry_equiv_pos_site_id
 _symmetry_equiv_pos_as_xyz
  1  'x, y, z'
loop_
 _atom_site_type_symbol
 _atom_site_label
 _atom_site_symmetry_multiplicity
 _atom_site_fract_x
 _atom_site_fract_y
 _atom_site_fract_z
 _atom_site_occupancy
  Al  Al0  1  0.624616  0.724012  0.099898  1
  Ag  Ag1  1  0.125792  0.226257  0.101038  1
  W  W2  1  0.871194  0.409271  0.599377  1
  W  W3  1  0.377993  0.036560  0.599836  1
  O  O4  1  0.198399  0.665364  0.889109  1
  O  O5  1  0.651207  0.554244  0.353409  1
  O  O6  1  0.181234  0.182848  0.787369  1
  O  O7  1  0.592445  0.037462  0.395263  1
  O  O8  1  0.598271  0.891964  0.846131  1
  O  O9  1  0.050944  0.780151  0.309991  1
  O  O10  1  0.067404  0.262289  0.411375  1
  O  O11  1  0.656500  0.408072  0.803300  1
