# generated using pymatgen
data_CaSn2O5
_symmetry_space_group_name_H-M   'P 1'
_cell_length_a   3.61734911
_cell_length_b   5.47686261
_cell_length_c   12.46773322
_cell_angle_alpha   89.90485222
_cell_angle_beta   90.00059616
_cell_angle_gamma   89.95948427
_symmetry_Int_Tables_number   1
_chemical_formula_structural   CaSn2O5
_chemical_formula_sum   'Ca2 Sn4 O10'
_cell_volume   247.00688828
_cell_formula_units_Z   2
loop_
 _symmetry_equiv_pos_site_id
 _symmetry_equiv_pos_as_xyz
  1  'x, y, z'
loop_
 _atom_site_type_symbol
 _atom_site_label
 _atom_site_symmetry_multiplicity
 _atom_site_fract_x
 _atom_site_fract_y
 _atom_site_fract_z
 _atom_site_occupancy
  Ca  Ca0  1  0.747985  0.897240  0.251237  1
  Ca  Ca1  1  0.248316  0.105652  0.748334  1
  Sn  Sn2  1  0.247431  0.401217  0.103805  1
  Sn  Sn3  1  0.747019  0.604195  0.894970  1
  Sn  Sn4  1  0.748205  0.602104  0.603693  1
  Sn  Sn5  1  0.248307  0.399148  0.395337  1
  O  O6  1  0.747039  0.423547  0.749574  1
  O  O7  1  0.248358  0.579292  0.249853  1
  O  O8  1  0.747105  0.570694  0.070053  1
  O  O9  1  0.247008  0.435116  0.928988  1
  O  O10  1  0.748163  0.569532  0.428779  1
  O  O11  1  0.248478  0.431623  0.570404  1
  O  O12  1  0.251486  0.056181  0.363593  1
  O  O13  1  0.755965  0.943906  0.637224  1
  O  O14  1  0.741380  0.946210  0.861013  1
  O  O15  1  0.243672  0.059997  0.139447  1
