# generated using pymatgen
data_Ca2FeRhO6
_symmetry_space_group_name_H-M   'P 1'
_cell_length_a   6.49085909
_cell_length_b   6.49085870
_cell_length_c   6.36092212
_cell_angle_alpha   92.69033106
_cell_angle_beta   92.69033323
_cell_angle_gamma   91.56890105
_symmetry_Int_Tables_number   1
_chemical_formula_structural   Ca2FeRhO6
_chemical_formula_sum   'Ca4 Fe2 Rh2 O12'
_cell_volume   267.28561371
_cell_formula_units_Z   2
loop_
 _symmetry_equiv_pos_site_id
 _symmetry_equiv_pos_as_xyz
  1  'x, y, z'
loop_
 _atom_site_type_symbol
 _atom_site_label
 _atom_site_symmetry_multiplicity
 _atom_site_fract_x
 _atom_site_fract_y
 _atom_site_fract_z
 _atom_site_occupancy
  Ca  Ca0  1  0.616118  0.883882  0.250000  1
  Ca  Ca1  1  0.378989  0.121011  0.750000  1
  Ca  Ca2  1  0.119156  0.737551  0.387107  1
  Ca  Ca3  1  0.762449  0.380844  0.112893  1
  Fe  Fe4  1  0.249862  0.250138  0.250000  1
  Fe  Fe5  1  0.750140  0.749860  0.750000  1
  Rh  Rh6  1  0.000146  0.996097  0.996803  1
  Rh  Rh7  1  0.503903  0.499854  0.503197  1
  O  O8  1  0.791459  0.615979  0.457050  1
  O  O9  1  0.599378  0.465536  0.792048  1
  O  O10  1  0.467258  0.803605  0.582222  1
  O  O11  1  0.034464  0.900622  0.707952  1
  O  O12  1  0.884021  0.708541  0.042950  1
  O  O13  1  0.696395  0.032742  0.917778  1
  O  O14  1  0.212852  0.401660  0.522622  1
  O  O15  1  0.415980  0.536784  0.210779  1
  O  O16  1  0.529420  0.205424  0.399014  1
  O  O17  1  0.963216  0.084020  0.289221  1
  O  O18  1  0.294576  0.970580  0.100986  1
  O  O19  1  0.098340  0.287148  0.977378  1
