# generated using pymatgen
data_ZnCu(Si2O5)2
_symmetry_space_group_name_H-M   'P 1'
_cell_length_a   7.22982580
_cell_length_b   7.22982797
_cell_length_c   14.92624412
_cell_angle_alpha   90.00000000
_cell_angle_beta   90.00000000
_cell_angle_gamma   90.00000000
_symmetry_Int_Tables_number   1
_chemical_formula_structural   ZnCu(Si2O5)2
_chemical_formula_sum   'Zn4 Cu4 Si16 O40'
_cell_volume   780.20070269
_cell_formula_units_Z   4
loop_
 _symmetry_equiv_pos_site_id
 _symmetry_equiv_pos_as_xyz
  1  'x, y, z'
loop_
 _atom_site_type_symbol
 _atom_site_label
 _atom_site_symmetry_multiplicity
 _atom_site_fract_x
 _atom_site_fract_y
 _atom_site_fract_z
 _atom_site_occupancy
  Zn  Zn0  1  0.250000  0.750000  0.500000  1
  Zn  Zn1  1  0.750000  0.250000  0.500000  1
  Zn  Zn2  1  0.750000  0.250000  0.000000  1
  Zn  Zn3  1  0.250000  0.750000  1.000000  1
  Cu  Cu4  1  0.250000  0.250000  0.571982  1
  Cu  Cu5  1  0.750000  0.750000  0.928018  1
  Cu  Cu6  1  0.750000  0.750000  0.428018  1
  Cu  Cu7  1  0.250000  0.250000  0.071982  1
  Si  Si8  1  0.914631  0.489831  0.644526  1
  Si  Si9  1  0.585369  0.010169  0.644526  1
  Si  Si10  1  0.989831  0.414631  0.855474  1
  Si  Si11  1  0.489831  0.585369  0.644526  1
  Si  Si12  1  0.010169  0.914631  0.644526  1
  Si  Si13  1  0.085369  0.989831  0.855474  1
  Si  Si14  1  0.414631  0.510169  0.855474  1
  Si  Si15  1  0.510169  0.085369  0.855474  1
  Si  Si16  1  0.085369  0.510169  0.355474  1
  Si  Si17  1  0.414631  0.989831  0.355474  1
  Si  Si18  1  0.010169  0.585369  0.144526  1
  Si  Si19  1  0.510169  0.414631  0.355474  1
  Si  Si20  1  0.989831  0.085369  0.355474  1
  Si  Si21  1  0.914631  0.010169  0.144526  1
  Si  Si22  1  0.585369  0.489831  0.144526  1
  Si  Si23  1  0.489831  0.914631  0.144526  1
  O  O24  1  0.987344  0.332282  0.575285  1
  O  O25  1  0.512656  0.167718  0.575285  1
  O  O26  1  0.832282  0.487344  0.924715  1
  O  O27  1  0.332282  0.512656  0.575285  1
  O  O28  1  0.167718  0.987344  0.575285  1
  O  O29  1  0.012656  0.832282  0.924715  1
  O  O30  1  0.487344  0.667718  0.924715  1
  O  O31  1  0.667718  0.012656  0.924715  1
  O  O32  1  0.012656  0.667718  0.424715  1
  O  O33  1  0.487344  0.832282  0.424715  1
  O  O34  1  0.167718  0.512656  0.075285  1
  O  O35  1  0.667718  0.487344  0.424715  1
  O  O36  1  0.832282  0.012656  0.424715  1
  O  O37  1  0.987344  0.167718  0.075285  1
  O  O38  1  0.512656  0.332282  0.075285  1
  O  O39  1  0.997706  0.307064  0.375581  1
  O  O40  1  0.332282  0.987344  0.075285  1
  O  O41  1  0.497706  0.807064  0.624419  1
  O  O42  1  0.192936  0.502294  0.875581  1
  O  O43  1  0.692936  0.497706  0.624419  1
  O  O44  1  0.807064  0.002294  0.624419  1
  O  O45  1  0.997706  0.192936  0.875581  1
  O  O46  1  0.502294  0.307064  0.875581  1
  O  O47  1  0.307064  0.997706  0.875581  1
  O  O48  1  0.445056  0.945056  0.250000  1
  O  O49  1  0.554944  0.445056  0.250000  1
  O  O50  1  0.945056  0.054945  0.250000  1
  O  O51  1  0.054945  0.554944  0.250000  1
  O  O52  1  0.554944  0.054945  0.750000  1
  O  O53  1  0.445056  0.554944  0.750000  1
  O  O54  1  0.054945  0.945056  0.750000  1
  O  O55  1  0.945056  0.445056  0.750000  1
  O  O56  1  0.692936  0.002294  0.124419  1
  O  O57  1  0.497706  0.692936  0.124419  1
  O  O58  1  0.002294  0.807064  0.124419  1
  O  O59  1  0.192936  0.997706  0.375581  1
  O  O60  1  0.307064  0.502294  0.375581  1
  O  O61  1  0.807064  0.497706  0.124419  1
  O  O62  1  0.502294  0.192936  0.375581  1
  O  O63  1  0.002294  0.692936  0.624419  1
