# generated using pymatgen
data_CaLa2WO6
_symmetry_space_group_name_H-M   'P 1'
_cell_length_a   5.85725204
_cell_length_b   5.85725163
_cell_length_c   5.85725230
_cell_angle_alpha   61.60214183
_cell_angle_beta   61.60214305
_cell_angle_gamma   61.60214630
_symmetry_Int_Tables_number   1
_chemical_formula_structural   CaLa2WO6
_chemical_formula_sum   'Ca1 La2 W1 O6'
_cell_volume   147.19754708
_cell_formula_units_Z   1
loop_
 _symmetry_equiv_pos_site_id
 _symmetry_equiv_pos_as_xyz
  1  'x, y, z'
loop_
 _atom_site_type_symbol
 _atom_site_label
 _atom_site_symmetry_multiplicity
 _atom_site_fract_x
 _atom_site_fract_y
 _atom_site_fract_z
 _atom_site_occupancy
  Ca  Ca0  1  0.500000  0.500000  0.500000  1
  La  La1  1  0.765596  0.765596  0.765596  1
  La  La2  1  0.234404  0.234404  0.234404  1
  W  W3  1  0.000000  0.000000  0.000000  1
  O  O4  1  0.345526  0.783064  0.125601  1
  O  O5  1  0.783064  0.125601  0.345526  1
  O  O6  1  0.125601  0.345526  0.783064  1
  O  O7  1  0.654474  0.216936  0.874399  1
  O  O8  1  0.874399  0.654474  0.216936  1
  O  O9  1  0.216936  0.874399  0.654474  1
