# generated using pymatgen
data_MgTi2(PO4)2
_symmetry_space_group_name_H-M   'P 1'
_cell_length_a   4.88131021
_cell_length_b   8.59988330
_cell_length_c   15.60720594
_cell_angle_alpha   87.25220845
_cell_angle_beta   81.00316602
_cell_angle_gamma   73.51280672
_symmetry_Int_Tables_number   1
_chemical_formula_structural   MgTi2(PO4)2
_chemical_formula_sum   'Mg4 Ti8 P8 O32'
_cell_volume   620.49815600
_cell_formula_units_Z   4
loop_
 _symmetry_equiv_pos_site_id
 _symmetry_equiv_pos_as_xyz
  1  'x, y, z'
loop_
 _atom_site_type_symbol
 _atom_site_label
 _atom_site_symmetry_multiplicity
 _atom_site_fract_x
 _atom_site_fract_y
 _atom_site_fract_z
 _atom_site_occupancy
  Mg  Mg0  1  0.489365  0.818679  0.851012  1
  Mg  Mg1  1  0.159055  0.681321  0.648988  1
  Mg  Mg2  1  0.840945  0.318679  0.351012  1
  Mg  Mg3  1  0.510635  0.181321  0.148988  1
  Ti  Ti4  1  0.192456  0.232127  0.964032  1
  Ti  Ti5  1  0.388613  0.267873  0.535968  1
  Ti  Ti6  1  0.807544  0.767873  0.035968  1
  Ti  Ti7  1  0.500000  0.500000  -0.000000  1
  Ti  Ti8  1  0.611387  0.732127  0.464032  1
  Ti  Ti9  1  0.615495  0.750000  0.250000  1
  Ti  Ti10  1  0.384505  0.250000  0.750000  1
  Ti  Ti11  1  -0.000000  0.000000  0.500000  1
  P  P12  1  0.053701  0.577378  0.856278  1
  P  P13  1  0.785787  0.423989  0.613337  1
  P  P14  1  0.946299  0.422622  0.143723  1
  P  P15  1  0.176887  0.923989  0.113337  1
  P  P16  1  0.512643  0.077378  0.356278  1
  P  P17  1  0.487357  0.922622  0.643722  1
  P  P18  1  0.214213  0.576011  0.386663  1
  P  P19  1  0.823113  0.076011  0.886663  1
  O  O20  1  0.697236  0.372109  0.113787  1
  O  O21  1  0.728147  0.926226  0.925370  1
  O  O22  1  0.816868  0.872109  0.613787  1
  O  O23  1  0.860137  0.275095  0.550273  1
  O  O24  1  0.215008  0.375594  0.070663  1
  O  O25  1  0.637126  0.394166  0.703788  1
  O  O26  1  0.685508  0.224905  0.949727  1
  O  O27  1  0.840692  0.957473  0.119220  1
  O  O28  1  0.139863  0.724905  0.449727  1
  O  O29  1  0.579742  0.573774  0.574630  1
  O  O30  1  0.869498  0.611278  0.150873  1
  O  O31  1  0.600201  0.164633  0.273402  1
  O  O32  1  0.271853  0.073774  0.074630  1
  O  O33  1  0.082616  0.457473  0.619220  1
  O  O34  1  0.302763  0.627891  0.886213  1
  O  O35  1  0.130502  0.388722  0.849127  1
  O  O36  1  0.961764  0.664633  0.773402  1
  O  O37  1  0.314492  0.775095  0.050273  1
  O  O38  1  0.368351  0.111278  0.650873  1
  O  O39  1  0.399799  0.835367  0.726598  1
  O  O40  1  0.917384  0.542527  0.380780  1
  O  O41  1  0.338733  0.875594  0.570663  1
  O  O42  1  0.159308  0.042527  0.880780  1
  O  O43  1  0.264920  0.894166  0.203788  1
  O  O44  1  0.420258  0.426226  0.425370  1
  O  O45  1  0.183132  0.127891  0.386213  1
  O  O46  1  0.038236  0.335366  0.226598  1
  O  O47  1  0.661267  0.124406  0.429337  1
  O  O48  1  0.784992  0.624406  0.929337  1
  O  O49  1  0.735080  0.105834  0.796212  1
  O  O50  1  0.362874  0.605834  0.296212  1
  O  O51  1  0.631649  0.888722  0.349127  1
