# generated using pymatgen
data_CaMnBiO5
_symmetry_space_group_name_H-M   'P 1'
_cell_length_a   5.84839408
_cell_length_b   8.28905146
_cell_length_c   11.74476936
_cell_angle_alpha   90.00000000
_cell_angle_beta   90.00000000
_cell_angle_gamma   111.33581384
_symmetry_Int_Tables_number   1
_chemical_formula_structural   CaMnBiO5
_chemical_formula_sum   'Ca4 Mn4 Bi4 O20'
_cell_volume   530.33712017
_cell_formula_units_Z   4
loop_
 _symmetry_equiv_pos_site_id
 _symmetry_equiv_pos_as_xyz
  1  'x, y, z'
loop_
 _atom_site_type_symbol
 _atom_site_label
 _atom_site_symmetry_multiplicity
 _atom_site_fract_x
 _atom_site_fract_y
 _atom_site_fract_z
 _atom_site_occupancy
  Ca  Ca0  1  0.639165  0.191524  0.913188  1
  Ca  Ca1  1  0.360835  0.808476  0.086812  1
  Ca  Ca2  1  0.860835  0.308476  0.413188  1
  Ca  Ca3  1  0.139165  0.691524  0.586812  1
  Mn  Mn4  1  0.798583  0.972484  0.646613  1
  Mn  Mn5  1  0.201417  0.027516  0.353387  1
  Mn  Mn6  1  0.701417  0.527516  0.146613  1
  Mn  Mn7  1  0.298583  0.472484  0.853387  1
  Bi  Bi8  1  0.131634  0.163936  0.097289  1
  Bi  Bi9  1  0.868366  0.836064  0.902711  1
  Bi  Bi10  1  0.631634  0.663936  0.402711  1
  Bi  Bi11  1  0.368366  0.336064  0.597289  1
  O  O12  1  0.562707  0.332747  0.079142  1
  O  O13  1  0.070875  0.332140  0.936487  1
  O  O14  1  0.491725  0.617274  0.185769  1
  O  O15  1  0.741181  0.511607  0.525958  1
  O  O16  1  0.804809  0.503131  0.281628  1
  O  O17  1  0.304809  0.003131  0.218372  1
  O  O18  1  0.570875  0.832140  0.563513  1
  O  O19  1  0.429125  0.167860  0.436487  1
  O  O20  1  0.258819  0.488393  0.474042  1
  O  O21  1  0.937293  0.167253  0.579142  1
  O  O22  1  0.195191  0.496869  0.718372  1
  O  O23  1  0.437293  0.667253  0.920858  1
  O  O24  1  0.062707  0.832747  0.420858  1
  O  O25  1  0.695191  0.996869  0.781628  1
  O  O26  1  0.758819  0.988393  0.025958  1
  O  O27  1  0.241181  0.011607  0.974042  1
  O  O28  1  0.508275  0.382726  0.814231  1
  O  O29  1  0.929125  0.667860  0.063513  1
  O  O30  1  0.008275  0.882726  0.685769  1
  O  O31  1  0.991725  0.117274  0.314231  1
