# generated using pymatgen
data_CaTi(PO3)4
_symmetry_space_group_name_H-M   'P 1'
_cell_length_a   7.61961616
_cell_length_b   7.62379130
_cell_length_c   10.15834993
_cell_angle_alpha   99.13664321
_cell_angle_beta   109.83330083
_cell_angle_gamma   109.66903351
_symmetry_Int_Tables_number   1
_chemical_formula_structural   CaTi(PO3)4
_chemical_formula_sum   'Ca2 Ti2 P8 O24'
_cell_volume   497.26900411
_cell_formula_units_Z   2
loop_
 _symmetry_equiv_pos_site_id
 _symmetry_equiv_pos_as_xyz
  1  'x, y, z'
loop_
 _atom_site_type_symbol
 _atom_site_label
 _atom_site_symmetry_multiplicity
 _atom_site_fract_x
 _atom_site_fract_y
 _atom_site_fract_z
 _atom_site_occupancy
  Ca  Ca0  1  0.703396  0.953209  0.750166  1
  Ca  Ca1  1  0.297875  0.047314  0.249628  1
  Ti  Ti2  1  0.500949  0.500502  0.500279  1
  Ti  Ti3  1  0.500877  0.001298  0.000419  1
  P  P4  1  0.503104  0.319738  0.804662  1
  P  P5  1  0.015394  0.697757  0.695279  1
  P  P6  1  0.498711  0.681498  0.194874  1
  P  P7  1  0.986806  0.301391  0.305849  1
  P  P8  1  0.754475  0.720162  0.023190  1
  P  P9  1  0.194627  0.730020  0.475664  1
  P  P10  1  0.245895  0.282107  0.975508  1
  P  P11  1  0.805969  0.270145  0.524144  1
  O  O12  1  0.317303  0.322561  0.846191  1
  O  O13  1  0.977643  0.470622  0.653185  1
  O  O14  1  0.684322  0.678654  0.152914  1
  O  O15  1  0.024217  0.528269  0.347772  1
  O  O16  1  0.704001  0.504039  0.931311  1
  O  O17  1  0.070777  0.771902  0.567806  1
  O  O18  1  0.297505  0.498761  0.067052  1
  O  O19  1  0.930499  0.227022  0.432911  1
  O  O20  1  0.462234  0.350691  0.658186  1
  O  O21  1  0.194032  0.804082  0.841074  1
  O  O22  1  0.538305  0.648237  0.340507  1
  O  O23  1  0.808781  0.195286  0.159697  1
  O  O24  1  0.537091  0.139594  0.826674  1
  O  O25  1  0.813376  0.709231  0.674817  1
  O  O26  1  0.465826  0.862597  0.174294  1
  O  O27  1  0.189051  0.290227  0.326863  1
  O  O28  1  0.620614  0.802558  0.927777  1
  O  O29  1  0.374784  0.694515  0.571136  1
  O  O30  1  0.377845  0.198318  0.071109  1
  O  O31  1  0.628095  0.308248  0.428383  1
  O  O32  1  0.980092  0.833716  0.086904  1
  O  O33  1  0.240575  0.889801  0.409471  1
  O  O34  1  0.019969  0.170463  0.910880  1
  O  O35  1  0.755855  0.109168  0.588660  1
