# generated using pymatgen
data_TiZnF5
_symmetry_space_group_name_H-M   'P 1'
_cell_length_a   5.31969417
_cell_length_b   7.58628007
_cell_length_c   9.94808757
_cell_angle_alpha   90.00000000
_cell_angle_beta   90.00000000
_cell_angle_gamma   110.04058550
_symmetry_Int_Tables_number   1
_chemical_formula_structural   TiZnF5
_chemical_formula_sum   'Ti4 Zn4 F20'
_cell_volume   377.16280851
_cell_formula_units_Z   4
loop_
 _symmetry_equiv_pos_site_id
 _symmetry_equiv_pos_as_xyz
  1  'x, y, z'
loop_
 _atom_site_type_symbol
 _atom_site_label
 _atom_site_symmetry_multiplicity
 _atom_site_fract_x
 _atom_site_fract_y
 _atom_site_fract_z
 _atom_site_occupancy
  Ti  Ti0  1  0.909681  0.605580  0.754385  1
  Ti  Ti1  1  0.090319  0.894420  0.254385  1
  Ti  Ti2  1  0.090319  0.394420  0.245615  1
  Ti  Ti3  1  0.909681  0.105580  0.745615  1
  Zn  Zn4  1  0.493022  0.750645  0.001590  1
  Zn  Zn5  1  0.506978  0.749355  0.501590  1
  Zn  Zn6  1  0.506978  0.249355  0.998410  1
  Zn  Zn7  1  0.493022  0.250645  0.498410  1
  F  F8  1  0.612374  0.570057  0.887312  1
  F  F9  1  0.387626  0.929943  0.387312  1
  F  F10  1  0.387626  0.429943  0.112688  1
  F  F11  1  0.612374  0.070057  0.612688  1
  F  F12  1  0.655441  0.496548  0.608172  1
  F  F13  1  0.344559  0.003452  0.108172  1
  F  F14  1  0.344559  0.503452  0.391828  1
  F  F15  1  0.655441  0.996548  0.891828  1
  F  F16  1  0.843880  0.799770  0.403733  1
  F  F17  1  0.156120  0.700230  0.903733  1
  F  F18  1  0.156120  0.200230  0.596267  1
  F  F19  1  0.843880  0.299770  0.096267  1
  F  F20  1  0.770391  0.840335  0.137414  1
  F  F21  1  0.229609  0.659665  0.637414  1
  F  F22  1  0.229609  0.159665  0.862586  1
  F  F23  1  0.770391  0.340335  0.362586  1
  F  F24  1  0.856725  0.841017  0.691224  1
  F  F25  1  0.143275  0.658983  0.191224  1
  F  F26  1  0.143275  0.158983  0.308776  1
  F  F27  1  0.856725  0.341017  0.808776  1
