# generated using pymatgen
data_BaAlW4O7
_symmetry_space_group_name_H-M   'P 1'
_cell_length_a   6.03355999
_cell_length_b   6.05434455
_cell_length_c   11.20546965
_cell_angle_alpha   90.00025913
_cell_angle_beta   90.00229191
_cell_angle_gamma   120.11372719
_symmetry_Int_Tables_number   1
_chemical_formula_structural   BaAlW4O7
_chemical_formula_sum   'Ba2 Al2 W8 O14'
_cell_volume   354.08100089
_cell_formula_units_Z   2
loop_
 _symmetry_equiv_pos_site_id
 _symmetry_equiv_pos_as_xyz
  1  'x, y, z'
loop_
 _atom_site_type_symbol
 _atom_site_label
 _atom_site_symmetry_multiplicity
 _atom_site_fract_x
 _atom_site_fract_y
 _atom_site_fract_z
 _atom_site_occupancy
  Ba  Ba0  1  0.665871  0.332945  0.470901  1
  Ba  Ba1  1  0.334079  0.667043  0.970901  1
  Al  Al2  1  0.671590  0.335797  0.868104  1
  Al  Al3  1  0.328467  0.664230  0.368131  1
  W  W4  1  0.828531  0.164601  0.172572  1
  W  W5  1  0.654731  0.827364  0.671348  1
  W  W6  1  0.171446  0.336092  0.672549  1
  W  W7  1  0.828530  0.663919  0.172568  1
  W  W8  1  0.345301  0.172650  0.171355  1
  W  W9  1  0.171442  0.835353  0.672549  1
  W  W10  1  0.997490  0.998743  0.485713  1
  W  W11  1  0.002528  0.001258  0.985687  1
  O  O12  1  0.811554  0.192910  0.982645  1
  O  O13  1  0.616482  0.808256  0.482602  1
  O  O14  1  0.188443  0.381409  0.482630  1
  O  O15  1  0.811580  0.618620  0.982660  1
  O  O16  1  0.383503  0.191746  0.982605  1
  O  O17  1  0.188463  0.807058  0.482625  1
  O  O18  1  0.999478  0.999742  0.789437  1
  O  O19  1  0.000447  0.000237  0.289389  1
  O  O20  1  0.490425  0.499169  0.286076  1
  O  O21  1  0.989509  0.494756  0.783305  1
  O  O22  1  0.509612  0.008759  0.786117  1
  O  O23  1  0.490445  0.991272  0.286094  1
  O  O24  1  0.509611  0.500864  0.786119  1
  O  O25  1  0.010446  0.505209  0.283311  1
