# generated using pymatgen
data_LaMgCrSnO6
_symmetry_space_group_name_H-M   'P 1'
_cell_length_a   5.44576085
_cell_length_b   5.61920492
_cell_length_c   7.88579062
_cell_angle_alpha   90.00000000
_cell_angle_beta   89.63601387
_cell_angle_gamma   90.00000000
_symmetry_Int_Tables_number   1
_chemical_formula_structural   LaMgCrSnO6
_chemical_formula_sum   'La2 Mg2 Cr2 Sn2 O12'
_cell_volume   241.30699599
_cell_formula_units_Z   2
loop_
 _symmetry_equiv_pos_site_id
 _symmetry_equiv_pos_as_xyz
  1  'x, y, z'
loop_
 _atom_site_type_symbol
 _atom_site_label
 _atom_site_symmetry_multiplicity
 _atom_site_fract_x
 _atom_site_fract_y
 _atom_site_fract_z
 _atom_site_occupancy
  La  La0  1  0.010035  0.958687  0.750266  1
  La  La1  1  0.510035  0.541313  0.250266  1
  Mg  Mg2  1  0.477954  0.443691  0.751380  1
  Mg  Mg3  1  0.977954  0.056309  0.251380  1
  Cr  Cr4  1  0.500231  0.001715  0.499472  1
  Cr  Cr5  1  0.000231  0.498285  0.999472  1
  Sn  Sn6  1  0.498816  0.000844  0.002351  1
  Sn  Sn7  1  0.998816  0.499156  0.502351  1
  O  O8  1  0.091597  0.438363  0.245885  1
  O  O9  1  0.210825  0.221958  0.937663  1
  O  O10  1  0.217012  0.212081  0.559013  1
  O  O11  1  0.312351  0.687197  0.937390  1
  O  O12  1  0.318380  0.691558  0.563369  1
  O  O13  1  0.362797  0.967393  0.253213  1
  O  O14  1  0.591597  0.061637  0.745885  1
  O  O15  1  0.710825  0.278042  0.437663  1
  O  O16  1  0.717012  0.287919  0.059013  1
  O  O17  1  0.812351  0.812803  0.437390  1
  O  O18  1  0.818380  0.808442  0.063369  1
  O  O19  1  0.862797  0.532607  0.753213  1
