# generated using pymatgen
data_Sr2Ti2AlGaO7
_symmetry_space_group_name_H-M   'P 1'
_cell_length_a   5.15037442
_cell_length_b   5.32880864
_cell_length_c   13.76000156
_cell_angle_alpha   101.83846644
_cell_angle_beta   100.76766495
_cell_angle_gamma   90.08219825
_symmetry_Int_Tables_number   1
_chemical_formula_structural   Sr2Ti2AlGaO7
_chemical_formula_sum   'Sr4 Ti4 Al2 Ga2 O14'
_cell_volume   362.79705648
_cell_formula_units_Z   2
loop_
 _symmetry_equiv_pos_site_id
 _symmetry_equiv_pos_as_xyz
  1  'x, y, z'
loop_
 _atom_site_type_symbol
 _atom_site_label
 _atom_site_symmetry_multiplicity
 _atom_site_fract_x
 _atom_site_fract_y
 _atom_site_fract_z
 _atom_site_occupancy
  Sr  Sr0  1  0.168031  0.173555  0.316017  1
  Sr  Sr1  1  0.851291  0.840656  0.676311  1
  Sr  Sr2  1  0.656171  0.652833  0.318745  1
  Sr  Sr3  1  0.326281  0.361918  0.672983  1
  Ti  Ti4  1  0.378323  0.966319  0.896946  1
  Ti  Ti5  1  0.117410  0.536852  0.112084  1
  Ti  Ti6  1  0.034240  0.465732  0.897036  1
  Ti  Ti7  1  0.509738  0.033627  0.112034  1
  Al  Al8  1  0.582607  0.519638  0.990454  1
  Al  Al9  1  0.922606  0.018760  0.991633  1
  Ga  Ga10  1  0.202279  0.824047  0.496464  1
  Ga  Ga11  1  0.701371  0.189767  0.497150  1
  O  O12  1  0.851046  0.207177  0.108862  1
  O  O13  1  0.831829  0.854111  0.499712  1
  O  O14  1  0.375437  0.332176  0.175746  1
  O  O15  1  0.823124  0.359756  0.630618  1
  O  O16  1  0.707735  0.227386  0.911143  1
  O  O17  1  0.163093  0.176857  0.820703  1
  O  O18  1  0.328581  0.160942  0.495257  1
  O  O19  1  0.173428  0.677609  0.821444  1
  O  O20  1  0.718280  0.727250  0.910034  1
  O  O21  1  0.340275  0.799570  0.629597  1
  O  O22  1  0.192148  0.653674  0.364072  1
  O  O23  1  0.708913  0.214215  0.365081  1
  O  O24  1  0.772770  0.707485  0.107614  1
  O  O25  1  0.317970  0.833627  0.179157  1
