# generated using pymatgen
data_Mg(CoO2)2
_symmetry_space_group_name_H-M   'P 1'
_cell_length_a   2.82374058
_cell_length_b   8.62027212
_cell_length_c   9.95900575
_cell_angle_alpha   90.00608472
_cell_angle_beta   89.99984773
_cell_angle_gamma   90.00013937
_symmetry_Int_Tables_number   1
_chemical_formula_structural   Mg(CoO2)2
_chemical_formula_sum   'Mg4 Co8 O16'
_cell_volume   242.41626281
_cell_formula_units_Z   4
loop_
 _symmetry_equiv_pos_site_id
 _symmetry_equiv_pos_as_xyz
  1  'x, y, z'
loop_
 _atom_site_type_symbol
 _atom_site_label
 _atom_site_symmetry_multiplicity
 _atom_site_fract_x
 _atom_site_fract_y
 _atom_site_fract_z
 _atom_site_occupancy
  Mg  Mg0  1  0.750000  0.239915  0.337388  1
  Mg  Mg1  1  0.249998  0.760093  0.662608  1
  Mg  Mg2  1  0.750000  0.740007  0.162524  1
  Mg  Mg3  1  0.250000  0.260039  0.837497  1
  Co  Co4  1  0.249999  0.407493  0.097326  1
  Co  Co5  1  0.749999  0.092442  0.597280  1
  Co  Co6  1  0.249999  0.907529  0.402721  1
  Co  Co7  1  0.749999  0.592443  0.902628  1
  Co  Co8  1  0.750001  0.551140  0.382326  1
  Co  Co9  1  0.249999  0.448867  0.617651  1
  Co  Co10  1  0.749999  0.051195  0.117637  1
  Co  Co11  1  0.250000  0.948860  0.882309  1
  O  O12  1  0.250000  0.908634  0.071006  1
  O  O13  1  0.750000  0.091340  0.929020  1
  O  O14  1  0.250002  0.408684  0.429048  1
  O  O15  1  0.749997  0.591260  0.571015  1
  O  O16  1  0.249998  0.054516  0.715435  1
  O  O17  1  0.750001  0.945509  0.284562  1
  O  O18  1  0.249999  0.554464  0.784516  1
  O  O19  1  0.750000  0.445494  0.215507  1
  O  O20  1  0.250000  0.617525  0.038293  1
  O  O21  1  0.749999  0.382500  0.961662  1
  O  O22  1  0.250001  0.117573  0.461708  1
  O  O23  1  0.749999  0.882431  0.538346  1
  O  O24  1  0.750000  0.805542  0.829126  1
  O  O25  1  0.249998  0.194386  0.170906  1
  O  O26  1  0.250000  0.694354  0.329108  1
  O  O27  1  0.749997  0.305763  0.670848  1
