# generated using pymatgen
data_Mn3AlO6
_symmetry_space_group_name_H-M   'P 1'
_cell_length_a   17.82481099
_cell_length_b   5.99795704
_cell_length_c   5.99795774
_cell_angle_alpha   59.12790683
_cell_angle_beta   60.87761668
_cell_angle_gamma   60.87761948
_symmetry_Int_Tables_number   1
_chemical_formula_structural   Mn3AlO6
_chemical_formula_sum   'Mn12 Al4 O24'
_cell_volume   456.17939784
_cell_formula_units_Z   4
loop_
 _symmetry_equiv_pos_site_id
 _symmetry_equiv_pos_as_xyz
  1  'x, y, z'
loop_
 _atom_site_type_symbol
 _atom_site_label
 _atom_site_symmetry_multiplicity
 _atom_site_fract_x
 _atom_site_fract_y
 _atom_site_fract_z
 _atom_site_occupancy
  Mn  Mn0  1  0.002127  0.505006  0.992881  1
  Mn  Mn1  1  0.331206  0.494994  0.007119  1
  Mn  Mn2  1  0.666667  0.500000  -0.000000  1
  Mn  Mn3  1  0.999298  0.998281  0.998281  1
  Mn  Mn4  1  0.334035  0.001719  0.001719  1
  Mn  Mn5  1  0.666667  -0.000000  0.000000  1
  Mn  Mn6  1  0.166667  -0.000000  0.000000  1
  Mn  Mn7  1  0.493706  0.008851  0.008851  1
  Mn  Mn8  1  0.839627  0.991149  0.991149  1
  Mn  Mn9  1  0.002127  0.992881  0.505006  1
  Mn  Mn10  1  0.331206  0.007119  0.494994  1
  Mn  Mn11  1  0.666667  -0.000000  0.500000  1
  Al  Al12  1  0.220897  0.611456  0.611456  1
  Al  Al13  1  0.535964  0.628842  0.628842  1
  Al  Al14  1  0.112436  0.388544  0.388544  1
  Al  Al15  1  0.797370  0.371158  0.371158  1
  O  O16  1  0.099957  0.732531  0.732531  1
  O  O17  1  0.415629  0.751964  0.751964  1
  O  O18  1  0.722515  0.781622  0.781622  1
  O  O19  1  0.074255  0.255972  0.764052  1
  O  O20  1  0.406147  0.241066  0.808392  1
  O  O21  1  0.757926  0.237933  0.748393  1
  O  O22  1  0.074255  0.764052  0.255972  1
  O  O23  1  0.406147  0.808392  0.241066  1
  O  O24  1  0.757926  0.748393  0.237933  1
  O  O25  1  0.073610  0.258369  0.258369  1
  O  O26  1  0.399462  0.250543  0.250543  1
  O  O27  1  0.748576  0.254798  0.254798  1
  O  O28  1  0.259078  0.744028  0.235948  1
  O  O29  1  0.575408  0.762067  0.251607  1
  O  O30  1  0.927186  0.758934  0.191608  1
  O  O31  1  0.233376  0.267469  0.267469  1
  O  O32  1  0.610819  0.218378  0.218378  1
  O  O33  1  0.917704  0.248036  0.248036  1
  O  O34  1  0.259078  0.235948  0.744028  1
  O  O35  1  0.575408  0.251607  0.762067  1
  O  O36  1  0.927186  0.191608  0.758934  1
  O  O37  1  0.259724  0.741631  0.741631  1
  O  O38  1  0.584757  0.745202  0.745202  1
  O  O39  1  0.933871  0.749457  0.749457  1
