# generated using pymatgen
data_YVF5
_symmetry_space_group_name_H-M   'P 1'
_cell_length_a   4.18748390
_cell_length_b   5.86272735
_cell_length_c   5.86272694
_cell_angle_alpha   72.97474145
_cell_angle_beta   69.07610846
_cell_angle_gamma   69.07609490
_symmetry_Int_Tables_number   1
_chemical_formula_structural   YVF5
_chemical_formula_sum   'Y1 V1 F5'
_cell_volume   123.30035692
_cell_formula_units_Z   1
loop_
 _symmetry_equiv_pos_site_id
 _symmetry_equiv_pos_as_xyz
  1  'x, y, z'
loop_
 _atom_site_type_symbol
 _atom_site_label
 _atom_site_symmetry_multiplicity
 _atom_site_fract_x
 _atom_site_fract_y
 _atom_site_fract_z
 _atom_site_occupancy
  Y  Y0  1  0.500000  0.500000  0.500000  1
  V  V1  1  0.000000  0.000000  0.000000  1
  F  F2  1  0.500000  0.819585  0.180415  1
  F  F3  1  0.500000  0.180415  0.819585  1
  F  F4  1  0.759003  0.240997  0.240997  1
  F  F5  1  0.240997  0.759003  0.759003  1
  F  F6  1  0.000000  0.500000  0.500000  1
