# generated using pymatgen
data_ZnCu2(SbO4)2
_symmetry_space_group_name_H-M   'P 1'
_cell_length_a   6.59246716
_cell_length_b   8.82418191
_cell_length_c   12.26042847
_cell_angle_alpha   90.00000000
_cell_angle_beta   92.04854493
_cell_angle_gamma   90.00000000
_symmetry_Int_Tables_number   1
_chemical_formula_structural   ZnCu2(SbO4)2
_chemical_formula_sum   'Zn4 Cu8 Sb8 O32'
_cell_volume   712.77166800
_cell_formula_units_Z   4
loop_
 _symmetry_equiv_pos_site_id
 _symmetry_equiv_pos_as_xyz
  1  'x, y, z'
loop_
 _atom_site_type_symbol
 _atom_site_label
 _atom_site_symmetry_multiplicity
 _atom_site_fract_x
 _atom_site_fract_y
 _atom_site_fract_z
 _atom_site_occupancy
  Zn  Zn0  1  0.103134  0.169928  0.053956  1
  Zn  Zn1  1  0.896866  0.830072  0.946044  1
  Zn  Zn2  1  0.896866  0.669928  0.446044  1
  Zn  Zn3  1  0.103134  0.330072  0.553956  1
  Cu  Cu4  1  0.758588  0.178861  0.870607  1
  Cu  Cu5  1  0.380454  0.056215  0.622894  1
  Cu  Cu6  1  0.619546  0.943785  0.377106  1
  Cu  Cu7  1  0.241412  0.821139  0.129393  1
  Cu  Cu8  1  0.758588  0.321139  0.370607  1
  Cu  Cu9  1  0.380454  0.443785  0.122894  1
  Cu  Cu10  1  0.241412  0.678861  0.629393  1
  Cu  Cu11  1  0.619546  0.556215  0.877106  1
  Sb  Sb12  1  0.097711  0.450154  0.843730  1
  Sb  Sb13  1  0.097711  0.049846  0.343730  1
  Sb  Sb14  1  0.604372  0.087483  0.135104  1
  Sb  Sb15  1  0.902289  0.950154  0.656270  1
  Sb  Sb16  1  0.395628  0.912517  0.864896  1
  Sb  Sb17  1  0.395628  0.587483  0.364896  1
  Sb  Sb18  1  0.604372  0.412517  0.635104  1
  Sb  Sb19  1  0.902289  0.549846  0.156270  1
  O  O20  1  0.033592  0.249706  0.397220  1
  O  O21  1  0.656068  0.021382  0.587531  1
  O  O22  1  0.190042  0.581469  0.474384  1
  O  O23  1  0.809958  0.081469  0.025616  1
  O  O24  1  0.033592  0.250294  0.897220  1
  O  O25  1  0.966408  0.750294  0.602780  1
  O  O26  1  0.092803  0.102842  0.611122  1
  O  O27  1  0.516489  0.883058  0.149323  1
  O  O28  1  0.516489  0.616942  0.649323  1
  O  O29  1  0.297120  0.872412  0.714401  1
  O  O30  1  0.702880  0.372412  0.785599  1
  O  O31  1  0.483511  0.116942  0.850677  1
  O  O32  1  0.907197  0.897158  0.388878  1
  O  O33  1  0.871884  0.537074  0.309943  1
  O  O34  1  0.404336  0.271742  0.579741  1
  O  O35  1  0.404336  0.228259  0.079741  1
  O  O36  1  0.128116  0.037074  0.190057  1
  O  O37  1  0.483511  0.383058  0.350677  1
  O  O38  1  0.128116  0.462926  0.690057  1
  O  O39  1  0.809958  0.418531  0.525616  1
  O  O40  1  0.656068  0.478618  0.087531  1
  O  O41  1  0.702880  0.127588  0.285599  1
  O  O42  1  0.966408  0.749706  0.102779  1
  O  O43  1  0.092803  0.397158  0.111122  1
  O  O44  1  0.190042  0.918531  0.974384  1
  O  O45  1  0.595664  0.771741  0.920259  1
  O  O46  1  0.343932  0.978618  0.412469  1
  O  O47  1  0.343932  0.521382  0.912469  1
  O  O48  1  0.907197  0.602842  0.888878  1
  O  O49  1  0.595664  0.728259  0.420259  1
  O  O50  1  0.297120  0.627588  0.214401  1
  O  O51  1  0.871884  0.962926  0.809943  1
