# generated using pymatgen
data_Mg(SbO2)2
_symmetry_space_group_name_H-M   'P 1'
_cell_length_a   6.59119718
_cell_length_b   6.59119649
_cell_length_c   7.04484632
_cell_angle_alpha   57.69585960
_cell_angle_beta   57.69586127
_cell_angle_gamma   56.98416201
_symmetry_Int_Tables_number   1
_chemical_formula_structural   Mg(SbO2)2
_chemical_formula_sum   'Mg2 Sb4 O8'
_cell_volume   203.73916593
_cell_formula_units_Z   2
loop_
 _symmetry_equiv_pos_site_id
 _symmetry_equiv_pos_as_xyz
  1  'x, y, z'
loop_
 _atom_site_type_symbol
 _atom_site_label
 _atom_site_symmetry_multiplicity
 _atom_site_fract_x
 _atom_site_fract_y
 _atom_site_fract_z
 _atom_site_occupancy
  Mg  Mg0  1  0.125000  0.625000  0.625000  1
  Mg  Mg1  1  0.625000  0.125000  0.625000  1
  Sb  Sb2  1  0.979575  0.979575  0.020425  1
  Sb  Sb3  1  0.270425  0.270425  0.229575  1
  Sb  Sb4  1  0.625000  0.625000  0.125000  1
  Sb  Sb5  1  0.625000  0.625000  0.625000  1
  O  O6  1  0.382672  0.382672  0.414288  1
  O  O7  1  0.366552  0.874218  0.379615  1
  O  O8  1  0.382672  0.382672  0.820369  1
  O  O9  1  0.874218  0.366552  0.379615  1
  O  O10  1  0.375782  0.883448  0.870385  1
  O  O11  1  0.883448  0.375782  0.870385  1
  O  O12  1  0.867328  0.867328  0.429631  1
  O  O13  1  0.867328  0.867328  0.835712  1
