# generated using pymatgen
data_Zn(CuO2)2
_symmetry_space_group_name_H-M   'P 1'
_cell_length_a   5.04604632
_cell_length_b   5.80477992
_cell_length_c   10.11238129
_cell_angle_alpha   89.88338326
_cell_angle_beta   89.75441795
_cell_angle_gamma   89.67875860
_symmetry_Int_Tables_number   1
_chemical_formula_structural   Zn(CuO2)2
_chemical_formula_sum   'Zn4 Cu8 O16'
_cell_volume   296.19568955
_cell_formula_units_Z   4
loop_
 _symmetry_equiv_pos_site_id
 _symmetry_equiv_pos_as_xyz
  1  'x, y, z'
loop_
 _atom_site_type_symbol
 _atom_site_label
 _atom_site_symmetry_multiplicity
 _atom_site_fract_x
 _atom_site_fract_y
 _atom_site_fract_z
 _atom_site_occupancy
  Zn  Zn0  1  0.845052  0.250002  0.749835  1
  Zn  Zn1  1  0.155108  0.749855  0.249919  1
  Zn  Zn2  1  0.518936  0.249649  0.249966  1
  Zn  Zn3  1  0.481828  0.749547  0.749677  1
  Cu  Cu4  1  0.515159  0.747440  0.482755  1
  Cu  Cu5  1  0.514014  0.750205  0.016561  1
  Cu  Cu6  1  0.484896  0.248395  0.516409  1
  Cu  Cu7  1  0.486053  0.249904  0.983775  1
  Cu  Cu8  1  0.000803  0.501540  0.499999  1
  Cu  Cu9  1  -0.000247  -0.000040  0.999858  1
  Cu  Cu10  1  0.998754  0.000992  0.500118  1
  Cu  Cu11  1  -0.000279  0.499765  0.999974  1
  O  O12  1  0.863211  0.749090  0.396262  1
  O  O13  1  0.862830  0.749519  0.104462  1
  O  O14  1  0.138792  0.252460  0.603788  1
  O  O15  1  0.137530  0.250569  0.894873  1
  O  O16  1  0.200545  0.751911  0.597011  1
  O  O17  1  0.197092  0.750268  0.902540  1
  O  O18  1  0.798885  0.249465  0.403212  1
  O  O19  1  0.803047  0.249565  0.097854  1
  O  O20  1  0.664731  0.501014  0.616414  1
  O  O21  1  0.666435  0.998869  0.882718  1
  O  O22  1  0.332353  0.002799  0.383669  1
  O  O23  1  0.333674  0.498351  0.117405  1
  O  O24  1  0.332700  0.496474  0.382229  1
  O  O25  1  0.332805  0.001498  0.117439  1
  O  O26  1  0.669785  0.000543  0.618167  1
  O  O27  1  0.665509  0.500350  0.883108  1
