# generated using pymatgen
data_CuSbAs2O7
_symmetry_space_group_name_H-M   'P 1'
_cell_length_a   11.27397721
_cell_length_b   12.79134470
_cell_length_c   12.81359473
_cell_angle_alpha   78.76240623
_cell_angle_beta   63.84380186
_cell_angle_gamma   63.84514912
_symmetry_Int_Tables_number   1
_chemical_formula_structural   CuSbAs2O7
_chemical_formula_sum   'Cu8 Sb8 As16 O56'
_cell_volume   1488.78062747
_cell_formula_units_Z   8
loop_
 _symmetry_equiv_pos_site_id
 _symmetry_equiv_pos_as_xyz
  1  'x, y, z'
loop_
 _atom_site_type_symbol
 _atom_site_label
 _atom_site_symmetry_multiplicity
 _atom_site_fract_x
 _atom_site_fract_y
 _atom_site_fract_z
 _atom_site_occupancy
  Cu  Cu0  1  0.716783  0.476174  0.545528  1
  Cu  Cu1  1  0.743933  0.021721  0.949766  1
  Cu  Cu2  1  0.735374  0.048503  0.522309  1
  Cu  Cu3  1  0.692899  0.550275  0.022039  1
  Cu  Cu4  1  0.264626  0.951497  0.477691  1
  Cu  Cu5  1  0.283217  0.523826  0.454472  1
  Cu  Cu6  1  0.307101  0.449725  0.977961  1
  Cu  Cu7  1  0.256067  0.978279  0.050234  1
  Sb  Sb8  1  0.342897  0.604410  0.763328  1
  Sb  Sb9  1  0.709851  0.894817  0.736899  1
  Sb  Sb10  1  0.657103  0.395590  0.236672  1
  Sb  Sb11  1  0.894690  0.262390  0.394143  1
  Sb  Sb12  1  0.290149  0.105183  0.263101  1
  Sb  Sb13  1  0.105310  0.737610  0.605857  1
  Sb  Sb14  1  0.552985  0.237160  0.105124  1
  Sb  Sb15  1  0.447015  0.762840  0.894876  1
  As  As16  1  0.643912  0.460824  0.835014  1
  As  As17  1  0.989013  0.554913  0.207973  1
  As  As18  1  0.247745  0.056242  0.707786  1
  As  As19  1  0.481817  0.663374  0.459441  1
  As  As20  1  0.195370  0.292032  0.554712  1
  As  As21  1  0.938359  0.039824  0.664685  1
  As  As22  1  0.396058  0.165207  0.961231  1
  As  As23  1  0.804630  0.707968  0.445288  1
  As  As24  1  0.603942  0.834793  0.038769  1
  As  As25  1  0.061641  0.960176  0.335315  1
  As  As26  1  0.010987  0.445087  0.792027  1
  As  As27  1  0.044078  0.208328  0.944684  1
  As  As28  1  0.356088  0.539176  0.164986  1
  As  As29  1  0.752255  0.943757  0.292214  1
  As  As30  1  0.955922  0.791672  0.055316  1
  As  As31  1  0.518183  0.336626  0.540559  1
  O  O32  1  0.796279  0.874781  0.031489  1
  O  O33  1  0.073684  0.131161  0.825629  1
  O  O34  1  0.642832  0.948235  0.612131  1
  O  O35  1  0.085954  0.005488  0.195375  1
  O  O36  1  0.093169  0.610234  0.553087  1
  O  O37  1  0.745408  0.112396  0.051140  1
  O  O38  1  0.472262  0.469528  0.832396  1
  O  O39  1  0.710237  0.507006  0.695463  1
  O  O40  1  0.177435  0.713345  0.723488  1
  O  O41  1  0.280207  0.305267  0.005801  1
  O  O42  1  0.609587  0.276636  0.213475  1
  O  O43  1  0.406078  0.803067  0.507217  1
  O  O44  1  0.926316  0.868839  0.174371  1
  O  O45  1  0.254592  0.887604  0.948860  1
  O  O46  1  0.828521  0.467970  0.874895  1
  O  O47  1  0.078343  0.901275  0.566801  1
  O  O48  1  0.969781  0.631408  0.325471  1
  O  O49  1  0.227005  0.969040  0.331516  1
  O  O50  1  0.171479  0.532030  0.125105  1
  O  O51  1  0.203721  0.125219  0.968511  1
  O  O52  1  0.557381  0.168611  0.969812  1
  O  O53  1  0.030219  0.368592  0.674529  1
  O  O54  1  0.914046  0.994512  0.804625  1
  O  O55  1  0.295758  0.375984  0.531136  1
  O  O56  1  0.453645  0.400953  0.065814  1
  O  O57  1  0.390413  0.723364  0.786525  1
  O  O58  1  0.613599  0.786504  0.776666  1
  O  O59  1  0.480192  0.566484  0.598732  1
  O  O60  1  0.099045  0.224301  0.287543  1
  O  O61  1  0.898714  0.674589  0.131686  1
  O  O62  1  0.822565  0.286655  0.276512  1
  O  O63  1  0.442619  0.831389  0.030188  1
  O  O64  1  0.519808  0.433516  0.401268  1
  O  O65  1  0.703740  0.824557  0.368968  1
  O  O66  1  0.593923  0.196933  0.492783  1
  O  O67  1  0.697528  0.332529  0.531660  1
  O  O68  1  0.357168  0.051765  0.387869  1
  O  O69  1  0.354161  0.066846  0.099329  1
  O  O70  1  0.645839  0.933154  0.900671  1
  O  O71  1  0.796254  0.449347  0.113002  1
  O  O72  1  0.527738  0.530472  0.167604  1
  O  O73  1  0.203746  0.550653  0.886998  1
  O  O74  1  0.900955  0.775699  0.712457  1
  O  O75  1  0.302472  0.667471  0.468340  1
  O  O76  1  0.921657  0.098725  0.433199  1
  O  O77  1  0.704242  0.624016  0.468864  1
  O  O78  1  0.546355  0.599047  0.934186  1
  O  O79  1  0.296260  0.175443  0.631032  1
  O  O80  1  0.289763  0.492994  0.304537  1
  O  O81  1  0.772995  0.030960  0.668484  1
  O  O82  1  0.172240  0.031971  0.625080  1
  O  O83  1  0.827760  0.968029  0.374920  1
  O  O84  1  0.906831  0.389766  0.446913  1
  O  O85  1  0.101286  0.325411  0.868314  1
  O  O86  1  0.386401  0.213496  0.223334  1
  O  O87  1  0.719793  0.694733  0.994199  1
