# generated using pymatgen
data_Ba2Mn3Tl2O10
_symmetry_space_group_name_H-M   'P 1'
_cell_length_a   3.78371276
_cell_length_b   3.78638904
_cell_length_c   18.17573923
_cell_angle_alpha   90.20725913
_cell_angle_beta   90.52485784
_cell_angle_gamma   90.14778537
_symmetry_Int_Tables_number   1
_chemical_formula_structural   Ba2Mn3Tl2O10
_chemical_formula_sum   'Ba2 Mn3 Tl2 O10'
_cell_volume   260.38318283
_cell_formula_units_Z   1
loop_
 _symmetry_equiv_pos_site_id
 _symmetry_equiv_pos_as_xyz
  1  'x, y, z'
loop_
 _atom_site_type_symbol
 _atom_site_label
 _atom_site_symmetry_multiplicity
 _atom_site_fract_x
 _atom_site_fract_y
 _atom_site_fract_z
 _atom_site_occupancy
  Ba  Ba0  1  0.217453  0.196510  0.269637  1
  Ba  Ba1  1  0.781111  0.708846  0.729164  1
  Mn  Mn2  1  0.292989  0.207680  0.858934  1
  Mn  Mn3  1  0.719583  0.693497  0.139290  1
  Mn  Mn4  1  0.233614  0.706613  0.997867  1
  Tl  Tl5  1  0.726464  0.705111  0.435834  1
  Tl  Tl6  1  0.248261  0.207755  0.565519  1
  O  O7  1  0.288763  0.708822  0.838303  1
  O  O8  1  0.271506  0.205592  0.676218  1
  O  O9  1  0.787174  0.210685  0.830261  1
  O  O10  1  0.731339  0.731702  0.550619  1
  O  O11  1  0.733985  0.705562  0.032870  1
  O  O12  1  0.218465  0.692889  0.160409  1
  O  O13  1  0.715960  0.702665  0.324578  1
  O  O14  1  0.714744  0.195082  0.168609  1
  O  O15  1  0.224367  0.233717  0.450667  1
  O  O16  1  0.244688  0.205976  0.964274  1
