# generated using pymatgen
data_Ca2Sn2O5
_symmetry_space_group_name_H-M   'P 1'
_cell_length_a   4.17369530
_cell_length_b   5.58238256
_cell_length_c   10.56626807
_cell_angle_alpha   90.00030961
_cell_angle_beta   90.00001101
_cell_angle_gamma   90.00009221
_symmetry_Int_Tables_number   1
_chemical_formula_structural   Ca2Sn2O5
_chemical_formula_sum   'Ca4 Sn4 O10'
_cell_volume   246.18521108
_cell_formula_units_Z   2
loop_
 _symmetry_equiv_pos_site_id
 _symmetry_equiv_pos_as_xyz
  1  'x, y, z'
loop_
 _atom_site_type_symbol
 _atom_site_label
 _atom_site_symmetry_multiplicity
 _atom_site_fract_x
 _atom_site_fract_y
 _atom_site_fract_z
 _atom_site_occupancy
  Ca  Ca0  1  0.499993  0.155043  0.859549  1
  Ca  Ca1  1  0.500002  0.844946  0.140446  1
  Ca  Ca2  1  0.500002  0.655056  0.640443  1
  Ca  Ca3  1  0.499997  0.344947  0.359551  1
  Sn  Sn4  1  -0.000000  0.169386  0.605965  1
  Sn  Sn5  1  0.000001  0.830615  0.394036  1
  Sn  Sn6  1  0.000001  0.330611  0.105961  1
  Sn  Sn7  1  0.000001  0.669384  0.894038  1
  O  O8  1  0.999999  0.500005  0.500002  1
  O  O9  1  0.000002  0.148158  0.280518  1
  O  O10  1  0.000002  0.648161  0.219484  1
  O  O11  1  0.999998  0.351840  0.780514  1
  O  O12  1  0.500001  0.275182  0.120875  1
  O  O13  1  0.500004  0.724819  0.879130  1
  O  O14  1  0.000002  0.851846  0.719486  1
  O  O15  1  0.500001  0.224819  0.620870  1
  O  O16  1  0.000004  0.000002  1.000000  1
  O  O17  1  0.499999  0.775180  0.379132  1
