# generated using pymatgen
data_Ti2ZnO5
_symmetry_space_group_name_H-M   'P 1'
_cell_length_a   3.68968276
_cell_length_b   5.40983201
_cell_length_c   11.72817305
_cell_angle_alpha   90.00000000
_cell_angle_beta   90.00000000
_cell_angle_gamma   109.93840190
_symmetry_Int_Tables_number   1
_chemical_formula_structural   Ti2ZnO5
_chemical_formula_sum   'Ti4 Zn2 O10'
_cell_volume   220.06888513
_cell_formula_units_Z   2
loop_
 _symmetry_equiv_pos_site_id
 _symmetry_equiv_pos_as_xyz
  1  'x, y, z'
loop_
 _atom_site_type_symbol
 _atom_site_label
 _atom_site_symmetry_multiplicity
 _atom_site_fract_x
 _atom_site_fract_y
 _atom_site_fract_z
 _atom_site_occupancy
  Ti  Ti0  1  0.206135  0.412261  0.598873  1
  Ti  Ti1  1  0.793866  0.587740  0.401126  1
  Ti  Ti2  1  0.793866  0.587740  0.098874  1
  Ti  Ti3  1  0.206135  0.412261  0.901127  1
  Zn  Zn4  1  0.907709  0.815387  0.750000  1
  Zn  Zn5  1  0.092292  0.184614  0.250000  1
  O  O6  1  0.698610  0.397194  0.250000  1
  O  O7  1  0.301391  0.602807  0.750000  1
  O  O8  1  0.239177  0.478349  0.072967  1
  O  O9  1  0.760825  0.521652  0.927033  1
  O  O10  1  0.760825  0.521652  0.572967  1
  O  O11  1  0.239177  0.478349  0.427032  1
  O  O12  1  0.042677  0.085278  0.629909  1
  O  O13  1  0.957323  0.914721  0.370091  1
  O  O14  1  0.042677  0.085278  0.870091  1
  O  O15  1  0.957323  0.914721  0.129910  1
