# generated using pymatgen
data_MgVSF5
_symmetry_space_group_name_H-M   'P 1'
_cell_length_a   5.61330762
_cell_length_b   8.47474298
_cell_length_c   9.14323131
_cell_angle_alpha   86.62206905
_cell_angle_beta   137.19938697
_cell_angle_gamma   69.72313073
_symmetry_Int_Tables_number   1
_chemical_formula_structural   MgVSF5
_chemical_formula_sum   'Mg2 V2 S2 F10'
_cell_volume   241.43481087
_cell_formula_units_Z   2
loop_
 _symmetry_equiv_pos_site_id
 _symmetry_equiv_pos_as_xyz
  1  'x, y, z'
loop_
 _atom_site_type_symbol
 _atom_site_label
 _atom_site_symmetry_multiplicity
 _atom_site_fract_x
 _atom_site_fract_y
 _atom_site_fract_z
 _atom_site_occupancy
  Mg  Mg0  1  0.361792  0.311758  0.086828  1
  Mg  Mg1  1  0.403835  0.768110  0.784575  1
  V  V2  1  0.428179  0.549945  0.501324  1
  V  V3  1  0.523552  0.054029  0.544350  1
  S  S4  1  0.428994  0.301756  0.639357  1
  S  S5  1  0.608501  0.640648  0.344766  1
  F  F6  1  0.589352  0.911393  0.756474  1
  F  F7  1  0.750272  0.524763  0.843016  1
  F  F8  1  0.845892  0.772205  0.586145  1
  F  F9  1  0.436920  0.530917  0.155828  1
  F  F10  1  0.942092  0.610122  0.168610  1
  F  F11  1  0.121038  0.956157  0.803899  1
  F  F12  1  0.038669  0.337717  0.762180  1
  F  F13  1  0.918293  0.152947  0.257176  1
  F  F14  1  0.114863  0.791103  0.434085  1
  F  F15  1  0.452048  0.172672  0.312152  1
