# generated using pymatgen
data_ZnBi2O5
_symmetry_space_group_name_H-M   'P 1'
_cell_length_a   5.62706967
_cell_length_b   10.24730041
_cell_length_c   16.41202368
_cell_angle_alpha   90.00000000
_cell_angle_beta   90.00000000
_cell_angle_gamma   90.00000000
_symmetry_Int_Tables_number   1
_chemical_formula_structural   ZnBi2O5
_chemical_formula_sum   'Zn8 Bi16 O40'
_cell_volume   946.35459544
_cell_formula_units_Z   8
loop_
 _symmetry_equiv_pos_site_id
 _symmetry_equiv_pos_as_xyz
  1  'x, y, z'
loop_
 _atom_site_type_symbol
 _atom_site_label
 _atom_site_symmetry_multiplicity
 _atom_site_fract_x
 _atom_site_fract_y
 _atom_site_fract_z
 _atom_site_occupancy
  Zn  Zn0  1  0.459394  0.390049  0.403959  1
  Zn  Zn1  1  0.959394  0.109951  0.403959  1
  Zn  Zn2  1  0.959394  0.609951  0.096041  1
  Zn  Zn3  1  0.040606  0.390049  0.903959  1
  Zn  Zn4  1  0.540606  0.109951  0.903959  1
  Zn  Zn5  1  0.040606  0.890049  0.596041  1
  Zn  Zn6  1  0.540606  0.609951  0.596041  1
  Zn  Zn7  1  0.459394  0.890049  0.096041  1
  Bi  Bi8  1  0.096722  0.372934  0.562302  1
  Bi  Bi9  1  0.403278  0.872934  0.437698  1
  Bi  Bi10  1  0.903278  0.627066  0.437698  1
  Bi  Bi11  1  0.596722  0.127066  0.562302  1
  Bi  Bi12  1  0.903278  0.127066  0.062302  1
  Bi  Bi13  1  0.096722  0.872934  0.937698  1
  Bi  Bi14  1  0.403278  0.372934  0.062302  1
  Bi  Bi15  1  0.596722  0.627066  0.937698  1
  Bi  Bi16  1  0.958443  0.857778  0.252822  1
  Bi  Bi17  1  0.041557  0.142222  0.747178  1
  Bi  Bi18  1  0.541557  0.357778  0.747178  1
  Bi  Bi19  1  0.041557  0.642222  0.752822  1
  Bi  Bi20  1  0.458443  0.142222  0.247178  1
  Bi  Bi21  1  0.458443  0.642222  0.252822  1
  Bi  Bi22  1  0.541557  0.857778  0.752822  1
  Bi  Bi23  1  0.958443  0.357778  0.247178  1
  O  O24  1  0.887145  0.293445  0.662987  1
  O  O25  1  0.195745  0.992995  0.044221  1
  O  O26  1  0.304255  0.492995  0.955779  1
  O  O27  1  0.287283  0.802343  0.186494  1
  O  O28  1  0.212717  0.302343  0.813506  1
  O  O29  1  0.887145  0.793445  0.837013  1
  O  O30  1  0.212717  0.802343  0.686494  1
  O  O31  1  0.612855  0.793445  0.337013  1
  O  O32  1  0.195745  0.492995  0.455779  1
  O  O33  1  0.112855  0.706555  0.337013  1
  O  O34  1  0.612855  0.293445  0.162987  1
  O  O35  1  0.905661  0.220236  0.501229  1
  O  O36  1  0.695745  0.007005  0.455779  1
  O  O37  1  0.712717  0.697657  0.686494  1
  O  O38  1  0.292351  0.997398  0.858959  1
  O  O39  1  0.695745  0.507005  0.044221  1
  O  O40  1  0.112855  0.206555  0.162987  1
  O  O41  1  0.787283  0.197657  0.313506  1
  O  O42  1  0.405661  0.779764  0.998771  1
  O  O43  1  0.304255  0.992995  0.544221  1
  O  O44  1  0.094339  0.779764  0.498771  1
  O  O45  1  0.707649  0.002602  0.141041  1
  O  O46  1  0.712717  0.197657  0.813506  1
  O  O47  1  0.792351  0.002602  0.641041  1
  O  O48  1  0.094339  0.279764  0.001229  1
  O  O49  1  0.405661  0.279764  0.501229  1
  O  O50  1  0.804255  0.507005  0.544221  1
  O  O51  1  0.804255  0.007005  0.955779  1
  O  O52  1  0.792351  0.502602  0.858959  1
  O  O53  1  0.594339  0.720236  0.498771  1
  O  O54  1  0.594339  0.220236  0.001229  1
  O  O55  1  0.905661  0.720236  0.998771  1
  O  O56  1  0.707649  0.502602  0.358959  1
  O  O57  1  0.787283  0.697657  0.186494  1
  O  O58  1  0.287283  0.302343  0.313506  1
  O  O59  1  0.292351  0.497398  0.641041  1
  O  O60  1  0.207649  0.497398  0.141041  1
  O  O61  1  0.387145  0.206555  0.662987  1
  O  O62  1  0.207649  0.997398  0.358959  1
  O  O63  1  0.387145  0.706555  0.837013  1
