# generated using pymatgen
data_Zn(FeO2)2
_symmetry_space_group_name_H-M   'P 1'
_cell_length_a   2.94649210
_cell_length_b   8.04640851
_cell_length_c   7.74670969
_cell_angle_alpha   71.78640883
_cell_angle_beta   79.03748618
_cell_angle_gamma   79.44325601
_symmetry_Int_Tables_number   1
_chemical_formula_structural   Zn(FeO2)2
_chemical_formula_sum   'Zn2 Fe4 O8'
_cell_volume   169.76345145
_cell_formula_units_Z   2
loop_
 _symmetry_equiv_pos_site_id
 _symmetry_equiv_pos_as_xyz
  1  'x, y, z'
loop_
 _atom_site_type_symbol
 _atom_site_label
 _atom_site_symmetry_multiplicity
 _atom_site_fract_x
 _atom_site_fract_y
 _atom_site_fract_z
 _atom_site_occupancy
  Zn  Zn0  1  0.309188  0.155359  0.226460  1
  Zn  Zn1  1  0.686214  0.822018  0.805569  1
  Fe  Fe2  1  0.601534  0.192706  0.604380  1
  Fe  Fe3  1  0.146187  0.509339  0.198322  1
  Fe  Fe4  1  0.848879  0.468121  0.834340  1
  Fe  Fe5  1  0.393828  0.784987  0.427305  1
  O  O6  1  0.855361  0.685752  0.603541  1
  O  O7  1  0.447381  0.336249  0.769329  1
  O  O8  1  0.547814  0.638548  0.265751  1
  O  O9  1  0.140228  0.290859  0.428813  1
  O  O10  1  0.138610  0.008979  0.713890  1
  O  O11  1  0.773303  0.346557  0.107268  1
  O  O12  1  0.858106  0.967706  0.316051  1
  O  O13  1  0.221645  0.632156  0.924599  1
