# generated using pymatgen
data_ZnCo4O9
_symmetry_space_group_name_H-M   'P 1'
_cell_length_a   4.90416844
_cell_length_b   8.21548538
_cell_length_c   8.18997415
_cell_angle_alpha   90.06302057
_cell_angle_beta   90.20068974
_cell_angle_gamma   89.93015960
_symmetry_Int_Tables_number   1
_chemical_formula_structural   ZnCo4O9
_chemical_formula_sum   'Zn2 Co8 O18'
_cell_volume   329.97260747
_cell_formula_units_Z   2
loop_
 _symmetry_equiv_pos_site_id
 _symmetry_equiv_pos_as_xyz
  1  'x, y, z'
loop_
 _atom_site_type_symbol
 _atom_site_label
 _atom_site_symmetry_multiplicity
 _atom_site_fract_x
 _atom_site_fract_y
 _atom_site_fract_z
 _atom_site_occupancy
  Zn  Zn0  1  0.103418  0.249127  0.250922  1
  Zn  Zn1  1  0.892831  0.747583  0.752208  1
  Co  Co2  1  0.612847  0.533826  0.338207  1
  Co  Co3  1  0.384588  0.839017  0.466072  1
  Co  Co4  1  0.613678  0.338228  0.965525  1
  Co  Co5  1  0.385559  0.033235  0.837834  1
  Co  Co6  1  0.614249  0.966749  0.162053  1
  Co  Co7  1  0.613944  0.161592  0.534019  1
  Co  Co8  1  0.388348  0.466632  0.661829  1
  Co  Co9  1  0.386986  0.661512  0.034471  1
  O  O10  1  0.504005  0.749966  0.249878  1
  O  O11  1  0.493544  0.249140  0.749552  1
  O  O12  1  0.061861  0.683316  0.977069  1
  O  O13  1  0.061679  0.521799  0.681999  1
  O  O14  1  0.058981  0.977782  0.817194  1
  O  O15  1  0.060209  0.816668  0.523977  1
  O  O16  1  0.938144  0.316493  0.023913  1
  O  O17  1  0.939739  0.478764  0.317935  1
  O  O18  1  0.941887  0.020945  0.181551  1
  O  O19  1  0.938706  0.183507  0.477053  1
  O  O20  1  0.437608  0.044152  0.354211  1
  O  O21  1  0.452640  0.145357  0.041006  1
  O  O22  1  0.451888  0.355234  0.457532  1
  O  O23  1  0.436015  0.459149  0.143598  1
  O  O24  1  0.564013  0.541296  0.857001  1
  O  O25  1  0.547298  0.854363  0.956848  1
  O  O26  1  0.555064  0.644986  0.543247  1
  O  O27  1  0.560274  0.959584  0.643294  1
