# generated using pymatgen
data_MgWO2
_symmetry_space_group_name_H-M   'P 1'
_cell_length_a   2.87416704
_cell_length_b   8.61530972
_cell_length_c   8.70676665
_cell_angle_alpha   82.01310274
_cell_angle_beta   78.77141303
_cell_angle_gamma   90.06105090
_symmetry_Int_Tables_number   1
_chemical_formula_structural   MgWO2
_chemical_formula_sum   'Mg4 W4 O8'
_cell_volume   209.32959521
_cell_formula_units_Z   4
loop_
 _symmetry_equiv_pos_site_id
 _symmetry_equiv_pos_as_xyz
  1  'x, y, z'
loop_
 _atom_site_type_symbol
 _atom_site_label
 _atom_site_symmetry_multiplicity
 _atom_site_fract_x
 _atom_site_fract_y
 _atom_site_fract_z
 _atom_site_occupancy
  Mg  Mg0  1  0.612874  0.075919  0.207947  1
  Mg  Mg1  1  0.382608  0.904271  0.819977  1
  Mg  Mg2  1  0.185636  0.727276  0.144896  1
  Mg  Mg3  1  0.810379  0.252818  0.882936  1
  W  W4  1  0.521673  0.146481  0.543183  1
  W  W5  1  0.171874  0.404521  0.153435  1
  W  W6  1  0.821423  0.575434  0.875398  1
  W  W7  1  0.474924  0.832044  0.484620  1
  O  O8  1  0.867645  0.762215  0.671459  1
  O  O9  1  0.372806  0.420110  0.783913  1
  O  O10  1  0.622732  0.560159  0.245164  1
  O  O11  1  0.131147  0.217879  0.356496  1
  O  O12  1  0.905324  0.085649  0.742503  1
  O  O13  1  0.208303  0.179697  0.052361  1
  O  O14  1  0.091512  0.894333  0.285838  1
  O  O15  1  0.787414  0.800532  0.975490  1
