# generated using pymatgen
data_ZnMoF5
_symmetry_space_group_name_H-M   'P 1'
_cell_length_a   5.55572614
_cell_length_b   5.54369479
_cell_length_c   7.89881922
_cell_angle_alpha   99.45867834
_cell_angle_beta   110.35732783
_cell_angle_gamma   105.70491570
_symmetry_Int_Tables_number   1
_chemical_formula_structural   ZnMoF5
_chemical_formula_sum   'Zn2 Mo2 F10'
_cell_volume   210.36968690
_cell_formula_units_Z   2
loop_
 _symmetry_equiv_pos_site_id
 _symmetry_equiv_pos_as_xyz
  1  'x, y, z'
loop_
 _atom_site_type_symbol
 _atom_site_label
 _atom_site_symmetry_multiplicity
 _atom_site_fract_x
 _atom_site_fract_y
 _atom_site_fract_z
 _atom_site_occupancy
  Zn  Zn0  1  0.247120  0.495567  0.751069  1
  Zn  Zn1  1  0.750795  0.498458  0.248993  1
  Mo  Mo2  1  0.002412  0.999355  -0.000185  1
  Mo  Mo3  1  0.499093  -0.002917  0.500333  1
  F  F4  1  0.365139  0.111957  0.250142  1
  F  F5  1  0.639560  0.885779  0.750370  1
  F  F6  1  0.582691  0.699922  0.358244  1
  F  F7  1  0.841019  0.216125  0.142894  1
  F  F8  1  0.765737  0.675002  0.046580  1
  F  F9  1  0.131708  0.705122  0.451652  1
  F  F10  1  0.243831  0.325132  0.957067  1
  F  F11  1  0.865462  0.287387  0.550356  1
  F  F12  1  0.164616  0.784780  0.855922  1
  F  F13  1  0.418445  0.298487  0.641145  1
