# generated using pymatgen
data_V3Se2ClO8
_symmetry_space_group_name_H-M   'P 1'
_cell_length_a   6.71510166
_cell_length_b   7.91606839
_cell_length_c   9.92606163
_cell_angle_alpha   89.88890746
_cell_angle_beta   91.31044401
_cell_angle_gamma   89.39424362
_symmetry_Int_Tables_number   1
_chemical_formula_structural   V3Se2ClO8
_chemical_formula_sum   'V6 Se4 Cl2 O16'
_cell_volume   527.47294591
_cell_formula_units_Z   2
loop_
 _symmetry_equiv_pos_site_id
 _symmetry_equiv_pos_as_xyz
  1  'x, y, z'
loop_
 _atom_site_type_symbol
 _atom_site_label
 _atom_site_symmetry_multiplicity
 _atom_site_fract_x
 _atom_site_fract_y
 _atom_site_fract_z
 _atom_site_occupancy
  V  V0  1  0.500578  0.999537  0.001164  1
  V  V1  1  0.499857  0.000245  0.500281  1
  V  V2  1  0.999956  0.000200  0.000064  1
  V  V3  1  0.721607  0.188889  0.749207  1
  V  V4  1  0.277928  0.810868  0.250956  1
  V  V5  1  0.000230  0.999982  0.500275  1
  Se  Se6  1  0.748848  0.354726  0.054293  1
  Se  Se7  1  0.250855  0.645625  0.945693  1
  Se  Se8  1  0.745855  0.357439  0.448171  1
  Se  Se9  1  0.254696  0.642331  0.551894  1
  Cl  Cl10  1  0.362784  0.129129  0.734553  1
  Cl  Cl11  1  0.636806  0.871061  0.262557  1
  O  O12  1  0.252999  0.973143  0.100041  1
  O  O13  1  0.241198  0.621853  0.117627  1
  O  O14  1  0.752399  0.381358  0.620678  1
  O  O15  1  0.544098  0.231497  0.076942  1
  O  O16  1  0.454943  0.770110  0.580708  1
  O  O17  1  0.046087  0.777140  0.573029  1
  O  O18  1  0.746514  0.026963  0.900511  1
  O  O19  1  0.952183  0.214899  0.083516  1
  O  O20  1  0.954521  0.222682  0.427335  1
  O  O21  1  0.047746  0.785620  0.916412  1
  O  O22  1  0.246176  0.973085  0.398295  1
  O  O23  1  0.754054  0.026717  0.601959  1
  O  O24  1  0.455713  0.768826  0.923334  1
  O  O25  1  0.545899  0.229470  0.418851  1
  O  O26  1  0.758086  0.378163  0.882268  1
  O  O27  1  0.247389  0.618442  0.379383  1
