# generated using pymatgen
data_LaMgFeSnO6
_symmetry_space_group_name_H-M   'P 1'
_cell_length_a   5.64087724
_cell_length_b   5.44089235
_cell_length_c   7.93299144
_cell_angle_alpha   89.37031176
_cell_angle_beta   90.00000000
_cell_angle_gamma   90.00000000
_symmetry_Int_Tables_number   1
_chemical_formula_structural   LaMgFeSnO6
_chemical_formula_sum   'La2 Mg2 Fe2 Sn2 O12'
_cell_volume   243.45995575
_cell_formula_units_Z   2
loop_
 _symmetry_equiv_pos_site_id
 _symmetry_equiv_pos_as_xyz
  1  'x, y, z'
loop_
 _atom_site_type_symbol
 _atom_site_label
 _atom_site_symmetry_multiplicity
 _atom_site_fract_x
 _atom_site_fract_y
 _atom_site_fract_z
 _atom_site_occupancy
  La  La0  1  0.041588  0.988040  0.248762  1
  La  La1  1  0.458412  0.488040  0.748762  1
  Mg  Mg2  1  0.557900  0.528471  0.248512  1
  Mg  Mg3  1  0.942100  0.028471  0.748512  1
  Fe  Fe4  1  0.501740  -0.000113  0.000093  1
  Fe  Fe5  1  0.998260  0.499887  0.500093  1
  Sn  Sn6  1  0.501573  0.001837  0.497072  1
  Sn  Sn7  1  0.998427  0.501837  0.997072  1
  O  O8  1  0.031993  0.642765  0.748921  1
  O  O9  1  0.193365  0.183594  0.936195  1
  O  O10  1  0.191340  0.189244  0.563817  1
  O  O11  1  0.308660  0.689244  0.063817  1
  O  O12  1  0.306635  0.683594  0.436195  1
  O  O13  1  0.468007  0.142765  0.248920  1
  O  O14  1  0.558444  0.906158  0.752366  1
  O  O15  1  0.728187  0.282593  0.566326  1
  O  O16  1  0.717883  0.277412  0.937936  1
  O  O17  1  0.782117  0.777412  0.437936  1
  O  O18  1  0.771813  0.782593  0.066326  1
  O  O19  1  0.941556  0.406158  0.252366  1
