# generated using pymatgen
data_Ba2Mg3Tl2(CuO3)4
_symmetry_space_group_name_H-M   'P 1'
_cell_length_a   3.79791684
_cell_length_b   3.79791678
_cell_length_c   21.00229221
_cell_angle_alpha   95.18757774
_cell_angle_beta   95.18757839
_cell_angle_gamma   89.99999539
_symmetry_Int_Tables_number   1
_chemical_formula_structural   Ba2Mg3Tl2(CuO3)4
_chemical_formula_sum   'Ba2 Mg3 Tl2 Cu4 O12'
_cell_volume   300.45387811
_cell_formula_units_Z   1
loop_
 _symmetry_equiv_pos_site_id
 _symmetry_equiv_pos_as_xyz
  1  'x, y, z'
loop_
 _atom_site_type_symbol
 _atom_site_label
 _atom_site_symmetry_multiplicity
 _atom_site_fract_x
 _atom_site_fract_y
 _atom_site_fract_z
 _atom_site_occupancy
  Ba  Ba0  1  0.153255  0.153255  0.306509  1
  Ba  Ba1  1  0.846745  0.846745  0.693491  1
  Mg  Mg2  1  0.072569  0.072569  0.145137  1
  Mg  Mg3  1  0.927431  0.927431  0.854863  1
  Mg  Mg4  1  0.000000  0.000000  0.000000  1
  Tl  Tl5  1  0.721816  0.721816  0.443631  1
  Tl  Tl6  1  0.278184  0.278184  0.556369  1
  Cu  Cu7  1  0.535843  0.535843  0.071686  1
  Cu  Cu8  1  0.396732  0.396732  0.793464  1
  Cu  Cu9  1  0.603268  0.603268  0.206536  1
  Cu  Cu10  1  0.464157  0.464157  0.928314  1
  O  O11  1  0.397602  0.897602  0.795204  1
  O  O12  1  0.533910  0.033910  0.067821  1
  O  O13  1  0.227025  0.227025  0.454049  1
  O  O14  1  0.966090  0.466090  0.932179  1
  O  O15  1  0.772975  0.772975  0.545951  1
  O  O16  1  0.102398  0.602398  0.204796  1
  O  O17  1  0.602398  0.102398  0.204796  1
  O  O18  1  0.327870  0.327870  0.655740  1
  O  O19  1  0.897602  0.397602  0.795204  1
  O  O20  1  0.033910  0.533910  0.067821  1
  O  O21  1  0.466090  0.966090  0.932179  1
  O  O22  1  0.672130  0.672130  0.344260  1
