# generated using pymatgen
data_Ca2Fe3O8
_symmetry_space_group_name_H-M   'P 1'
_cell_length_a   6.05589408
_cell_length_b   6.05589449
_cell_length_c   10.57972073
_cell_angle_alpha   90.00000000
_cell_angle_beta   90.00000000
_cell_angle_gamma   120.00000186
_symmetry_Int_Tables_number   1
_chemical_formula_structural   Ca2Fe3O8
_chemical_formula_sum   'Ca4 Fe6 O16'
_cell_volume   336.01711461
_cell_formula_units_Z   2
loop_
 _symmetry_equiv_pos_site_id
 _symmetry_equiv_pos_as_xyz
  1  'x, y, z'
loop_
 _atom_site_type_symbol
 _atom_site_label
 _atom_site_symmetry_multiplicity
 _atom_site_fract_x
 _atom_site_fract_y
 _atom_site_fract_z
 _atom_site_occupancy
  Ca  Ca0  1  0.666667  0.333334  0.025435  1
  Ca  Ca1  1  0.333333  0.666666  0.525436  1
  Ca  Ca2  1  0.666667  0.333334  0.429670  1
  Ca  Ca3  1  0.333333  0.666666  0.929671  1
  Fe  Fe4  1  0.671615  0.835808  0.245855  1
  Fe  Fe5  1  0.835809  0.164193  0.745855  1
  Fe  Fe6  1  0.164193  0.328386  0.245855  1
  Fe  Fe7  1  0.835807  0.671615  0.745855  1
  Fe  Fe8  1  0.328386  0.164193  0.745855  1
  Fe  Fe9  1  0.164193  0.835808  0.245855  1
  O  O10  1  0.845581  0.154420  0.156132  1
  O  O11  1  0.691159  0.845581  0.656131  1
  O  O12  1  0.154420  0.308842  0.656131  1
  O  O13  1  0.845580  0.691159  0.156132  1
  O  O14  1  0.308841  0.154420  0.156132  1
  O  O15  1  0.154420  0.845581  0.656131  1
  O  O16  1  0.523591  0.476408  0.847072  1
  O  O17  1  0.047183  0.523591  0.347071  1
  O  O18  1  0.476409  0.952818  0.347071  1
  O  O19  1  0.523591  0.047183  0.847072  1
  O  O20  1  0.000000  -0.000000  0.350642  1
  O  O21  1  0.000000  -0.000000  0.850642  1
  O  O22  1  0.333333  0.666666  0.140580  1
  O  O23  1  0.952816  0.476408  0.847072  1
  O  O24  1  0.476408  0.523591  0.347071  1
  O  O25  1  0.666667  0.333334  0.640580  1
