# generated using pymatgen
data_BiAsO5
_symmetry_space_group_name_H-M   'P 1'
_cell_length_a   7.84954940
_cell_length_b   6.71140838
_cell_length_c   8.62207294
_cell_angle_alpha   89.99739887
_cell_angle_beta   89.89357904
_cell_angle_gamma   90.00200657
_symmetry_Int_Tables_number   1
_chemical_formula_structural   BiAsO5
_chemical_formula_sum   'Bi4 As4 O20'
_cell_volume   454.22322457
_cell_formula_units_Z   4
loop_
 _symmetry_equiv_pos_site_id
 _symmetry_equiv_pos_as_xyz
  1  'x, y, z'
loop_
 _atom_site_type_symbol
 _atom_site_label
 _atom_site_symmetry_multiplicity
 _atom_site_fract_x
 _atom_site_fract_y
 _atom_site_fract_z
 _atom_site_occupancy
  Bi  Bi0  1  0.999052  0.497080  0.754124  1
  Bi  Bi1  1  0.500928  0.502838  0.254070  1
  Bi  Bi2  1  0.499130  0.002852  0.245928  1
  Bi  Bi3  1  0.000925  0.997098  0.745923  1
  As  As4  1  0.609589  0.266320  0.917187  1
  As  As5  1  0.890244  0.733660  0.417396  1
  As  As6  1  0.109799  0.233374  0.082609  1
  As  As7  1  0.390459  0.766484  0.582893  1
  O  O8  1  0.874475  0.750989  0.843562  1
  O  O9  1  0.625394  0.248992  0.343150  1
  O  O10  1  0.374622  0.748988  0.156939  1
  O  O11  1  0.125579  0.251038  0.656554  1
  O  O12  1  0.819754  0.247523  0.824972  1
  O  O13  1  0.680140  0.752410  0.325183  1
  O  O14  1  0.319890  0.252365  0.174831  1
  O  O15  1  0.180168  0.747571  0.675004  1
  O  O16  1  0.457217  0.303636  0.788053  1
  O  O17  1  0.042334  0.696823  0.288651  1
  O  O18  1  0.957716  0.196138  0.211257  1
  O  O19  1  0.542590  0.803686  0.711815  1
  O  O20  1  0.611078  0.039934  0.019154  1
  O  O21  1  0.888394  0.960123  0.519731  1
  O  O22  1  0.111480  0.459927  0.980375  1
  O  O23  1  0.388859  0.540059  0.480808  1
  O  O24  1  0.649401  0.466398  0.043668  1
  O  O25  1  0.850207  0.533664  0.544334  1
  O  O26  1  0.149965  0.033471  0.955607  1
  O  O27  1  0.350551  0.966615  0.456325  1
