# generated using pymatgen
data_Ti2ZnO4
_symmetry_space_group_name_H-M   'P 1'
_cell_length_a   6.10311555
_cell_length_b   6.10311516
_cell_length_c   5.99771239
_cell_angle_alpha   60.56967085
_cell_angle_beta   60.56967321
_cell_angle_gamma   60.26360854
_symmetry_Int_Tables_number   1
_chemical_formula_structural   Ti2ZnO4
_chemical_formula_sum   'Ti4 Zn2 O8'
_cell_volume   159.63662451
_cell_formula_units_Z   2
loop_
 _symmetry_equiv_pos_site_id
 _symmetry_equiv_pos_as_xyz
  1  'x, y, z'
loop_
 _atom_site_type_symbol
 _atom_site_label
 _atom_site_symmetry_multiplicity
 _atom_site_fract_x
 _atom_site_fract_y
 _atom_site_fract_z
 _atom_site_occupancy
  Ti  Ti0  1  0.993940  0.993940  0.006060  1
  Ti  Ti1  1  0.256060  0.256060  0.243940  1
  Ti  Ti2  1  0.625000  0.625000  0.125000  1
  Ti  Ti3  1  0.625000  0.625000  0.625000  1
  Zn  Zn4  1  0.125000  0.625000  0.625000  1
  Zn  Zn5  1  0.625000  0.125000  0.625000  1
  O  O6  1  0.383252  0.383252  0.374774  1
  O  O7  1  0.390071  0.871783  0.369073  1
  O  O8  1  0.383252  0.383252  0.858723  1
  O  O9  1  0.871783  0.390071  0.369073  1
  O  O10  1  0.378217  0.859929  0.880927  1
  O  O11  1  0.859929  0.378217  0.880927  1
  O  O12  1  0.866748  0.866748  0.391277  1
  O  O13  1  0.866748  0.866748  0.875226  1
