# generated using pymatgen
data_MgMnAsO5
_symmetry_space_group_name_H-M   'P 1'
_cell_length_a   8.04388558
_cell_length_b   6.06687718
_cell_length_c   8.61775962
_cell_angle_alpha   89.98978973
_cell_angle_beta   89.99210653
_cell_angle_gamma   89.99957273
_symmetry_Int_Tables_number   1
_chemical_formula_structural   MgMnAsO5
_chemical_formula_sum   'Mg4 Mn4 As4 O20'
_cell_volume   420.55756768
_cell_formula_units_Z   4
loop_
 _symmetry_equiv_pos_site_id
 _symmetry_equiv_pos_as_xyz
  1  'x, y, z'
loop_
 _atom_site_type_symbol
 _atom_site_label
 _atom_site_symmetry_multiplicity
 _atom_site_fract_x
 _atom_site_fract_y
 _atom_site_fract_z
 _atom_site_occupancy
  Mg  Mg0  1  0.908749  0.651993  0.066575  1
  Mg  Mg1  1  0.591301  0.348132  0.566574  1
  Mg  Mg2  1  0.408729  0.848133  0.933449  1
  Mg  Mg3  1  0.091240  0.151944  0.433397  1
  Mn  Mn4  1  0.998550  0.490476  0.746367  1
  Mn  Mn5  1  0.501520  0.509377  0.246333  1
  Mn  Mn6  1  0.498630  0.009379  0.253668  1
  Mn  Mn7  1  0.001467  0.990492  0.753589  1
  As  As8  1  0.651787  0.275971  0.923507  1
  As  As9  1  0.848379  0.724066  0.423469  1
  As  As10  1  0.151686  0.224016  0.076503  1
  As  As11  1  0.348260  0.775870  0.576478  1
  O  O12  1  0.840854  0.235429  0.829093  1
  O  O13  1  0.659100  0.764496  0.329182  1
  O  O14  1  0.340884  0.264437  0.170965  1
  O  O15  1  0.159056  0.735387  0.670787  1
  O  O16  1  0.511093  0.341035  0.784814  1
  O  O17  1  0.988881  0.659054  0.284861  1
  O  O18  1  0.011092  0.159084  0.215115  1
  O  O19  1  0.488866  0.841073  0.715191  1
  O  O20  1  0.600113  0.036146  0.019967  1
  O  O21  1  0.899772  0.963956  0.519862  1
  O  O22  1  0.100147  0.463904  0.980072  1
  O  O23  1  0.399854  0.536130  0.480110  1
  O  O24  1  0.679555  0.490405  0.054593  1
  O  O25  1  0.820429  0.509600  0.554602  1
  O  O26  1  0.179547  0.009616  0.945441  1
  O  O27  1  0.320364  0.990482  0.445428  1
  O  O28  1  0.896459  0.742753  0.843321  1
  O  O29  1  0.603581  0.257139  0.343392  1
  O  O30  1  0.396529  0.757199  0.156675  1
  O  O31  1  0.103524  0.242829  0.656620  1
