# generated using pymatgen
data_TiZnSn(PO4)3
_symmetry_space_group_name_H-M   'P 1'
_cell_length_a   8.68080136
_cell_length_b   8.67953553
_cell_length_c   8.68807924
_cell_angle_alpha   60.58074066
_cell_angle_beta   60.58677460
_cell_angle_gamma   60.53672537
_symmetry_Int_Tables_number   1
_chemical_formula_structural   TiZnSn(PO4)3
_chemical_formula_sum   'Ti2 Zn2 Sn2 P6 O24'
_cell_volume   468.81624817
_cell_formula_units_Z   2
loop_
 _symmetry_equiv_pos_site_id
 _symmetry_equiv_pos_as_xyz
  1  'x, y, z'
loop_
 _atom_site_type_symbol
 _atom_site_label
 _atom_site_symmetry_multiplicity
 _atom_site_fract_x
 _atom_site_fract_y
 _atom_site_fract_z
 _atom_site_occupancy
  Ti  Ti0  1  0.144782  0.144664  0.144713  1
  Ti  Ti1  1  0.644448  0.644822  0.644868  1
  Zn  Zn2  1  0.004747  0.004784  0.004720  1
  Zn  Zn3  1  0.504739  0.504764  0.504758  1
  Sn  Sn4  1  0.354967  0.354924  0.354940  1
  Sn  Sn5  1  0.854957  0.854971  0.854906  1
  P  P6  1  0.044657  0.450323  0.750870  1
  P  P7  1  0.450327  0.750860  0.044684  1
  P  P8  1  0.750962  0.044636  0.450301  1
  P  P9  1  0.250867  0.950349  0.544668  1
  P  P10  1  0.544658  0.250901  0.950325  1
  P  P11  1  0.950307  0.544641  0.250896  1
  O  O12  1  0.104373  0.512790  0.314026  1
  O  O13  1  0.314059  0.104384  0.512818  1
  O  O14  1  0.059110  0.258812  0.912064  1
  O  O15  1  0.512792  0.314050  0.104355  1
  O  O16  1  0.012798  0.604377  0.814044  1
  O  O17  1  0.241562  0.434742  0.591655  1
  O  O18  1  0.258721  0.912250  0.059176  1
  O  O19  1  0.434730  0.591669  0.241574  1
  O  O20  1  0.185120  0.996303  0.389008  1
  O  O21  1  0.591668  0.241593  0.434720  1
  O  O22  1  0.091683  0.934724  0.741581  1
  O  O23  1  0.388994  0.185076  0.996373  1
  O  O24  1  0.604369  0.814056  0.012807  1
  O  O25  1  0.912101  0.059195  0.258772  1
  O  O26  1  0.412291  0.758667  0.559204  1
  O  O27  1  0.814045  0.012809  0.604366  1
  O  O28  1  0.559181  0.412144  0.758771  1
  O  O29  1  0.741622  0.091640  0.934718  1
  O  O30  1  0.758788  0.559139  0.412109  1
  O  O31  1  0.996367  0.388983  0.185165  1
  O  O32  1  0.496389  0.685095  0.888861  1
  O  O33  1  0.934739  0.741547  0.091669  1
  O  O34  1  0.685086  0.888955  0.496378  1
  O  O35  1  0.888989  0.496351  0.685130  1
