# generated using pymatgen
data_TaF5
_symmetry_space_group_name_H-M   'P 1'
_cell_length_a   5.55287289
_cell_length_b   5.56284381
_cell_length_c   7.91966399
_cell_angle_alpha   96.94147518
_cell_angle_beta   109.81281146
_cell_angle_gamma   110.36826234
_symmetry_Int_Tables_number   1
_chemical_formula_structural   TaF5
_chemical_formula_sum   'Ta2 F10'
_cell_volume   207.70380752
_cell_formula_units_Z   2
loop_
 _symmetry_equiv_pos_site_id
 _symmetry_equiv_pos_as_xyz
  1  'x, y, z'
loop_
 _atom_site_type_symbol
 _atom_site_label
 _atom_site_symmetry_multiplicity
 _atom_site_fract_x
 _atom_site_fract_y
 _atom_site_fract_z
 _atom_site_occupancy
  Ta  Ta0  1  0.995780  0.999627  0.999567  1
  Ta  Ta1  1  0.499814  0.000671  0.498762  1
  F  F2  1  0.319740  0.069810  0.247893  1
  F  F3  1  0.673993  0.930627  0.749701  1
  F  F4  1  0.592002  0.750538  0.381853  1
  F  F5  1  0.867425  0.214564  0.116770  1
  F  F6  1  0.771808  0.702768  0.052900  1
  F  F7  1  0.146204  0.728156  0.447225  1
  F  F8  1  0.221915  0.298116  0.948571  1
  F  F9  1  0.853453  0.271011  0.549293  1
  F  F10  1  0.117171  0.782945  0.878015  1
  F  F11  1  0.408942  0.252815  0.615329  1
