# generated using pymatgen
data_CaSi2NiO6
_symmetry_space_group_name_H-M   'P 1'
_cell_length_a   5.50645359
_cell_length_b   9.71919642
_cell_length_c   19.00629182
_cell_angle_alpha   90.00000000
_cell_angle_beta   90.00000000
_cell_angle_gamma   90.00000000
_symmetry_Int_Tables_number   1
_chemical_formula_structural   CaSi2NiO6
_chemical_formula_sum   'Ca8 Si16 Ni8 O48'
_cell_volume   1017.18450389
_cell_formula_units_Z   8
loop_
 _symmetry_equiv_pos_site_id
 _symmetry_equiv_pos_as_xyz
  1  'x, y, z'
loop_
 _atom_site_type_symbol
 _atom_site_label
 _atom_site_symmetry_multiplicity
 _atom_site_fract_x
 _atom_site_fract_y
 _atom_site_fract_z
 _atom_site_occupancy
  Ca  Ca0  1  0.591859  0.142366  0.622308  1
  Ca  Ca1  1  0.408141  0.857634  0.377692  1
  Ca  Ca2  1  0.591859  0.642366  0.877692  1
  Ca  Ca3  1  0.091859  0.857634  0.877692  1
  Ca  Ca4  1  0.908141  0.142366  0.122308  1
  Ca  Ca5  1  0.408141  0.357634  0.122308  1
  Ca  Ca6  1  0.091859  0.357634  0.622308  1
  Ca  Ca7  1  0.908141  0.642366  0.377692  1
  Si  Si8  1  0.575218  0.666296  0.224654  1
  Si  Si9  1  0.775898  0.834322  0.523948  1
  Si  Si10  1  0.724102  0.834322  0.023948  1
  Si  Si11  1  0.924782  0.166296  0.775346  1
  Si  Si12  1  0.075218  0.333704  0.275346  1
  Si  Si13  1  0.424782  0.833704  0.724654  1
  Si  Si14  1  0.275898  0.665678  0.523948  1
  Si  Si15  1  0.775898  0.334322  0.976052  1
  Si  Si16  1  0.724102  0.334322  0.476052  1
  Si  Si17  1  0.924782  0.666296  0.724654  1
  Si  Si18  1  0.424782  0.333704  0.775346  1
  Si  Si19  1  0.575218  0.166296  0.275346  1
  Si  Si20  1  0.224102  0.165678  0.476052  1
  Si  Si21  1  0.075218  0.833704  0.224654  1
  Si  Si22  1  0.224102  0.665678  0.023948  1
  Si  Si23  1  0.275898  0.165678  0.976052  1
  Ni  Ni24  1  0.406403  0.006927  0.128675  1
  Ni  Ni25  1  0.593597  0.993073  0.871325  1
  Ni  Ni26  1  0.906403  0.993073  0.371325  1
  Ni  Ni27  1  0.093597  0.006927  0.628675  1
  Ni  Ni28  1  0.406403  0.506927  0.371325  1
  Ni  Ni29  1  0.593597  0.493073  0.628675  1
  Ni  Ni30  1  0.906403  0.493073  0.128675  1
  Ni  Ni31  1  0.093597  0.506927  0.871325  1
  O  O32  1  0.889497  0.520008  0.684685  1
  O  O33  1  0.312322  0.025369  0.931702  1
  O  O34  1  0.110503  0.479992  0.315315  1
  O  O35  1  0.769187  0.349139  0.062263  1
  O  O36  1  0.269187  0.150861  0.062263  1
  O  O37  1  0.005132  0.230649  0.955337  1
  O  O38  1  0.934928  0.655473  0.810803  1
  O  O39  1  0.065072  0.844527  0.310803  1
  O  O40  1  0.769187  0.849139  0.437737  1
  O  O41  1  0.934928  0.155473  0.689197  1
  O  O42  1  0.389497  0.479992  0.815315  1
  O  O43  1  0.730813  0.349139  0.562263  1
  O  O44  1  0.687678  0.974631  0.068298  1
  O  O45  1  0.434928  0.844527  0.810803  1
  O  O46  1  0.610503  0.020008  0.315315  1
  O  O47  1  0.312322  0.525369  0.568298  1
  O  O48  1  0.389497  0.979992  0.684685  1
  O  O49  1  0.179753  0.744009  0.700366  1
  O  O50  1  0.320247  0.744009  0.200366  1
  O  O51  1  0.494868  0.730649  0.044663  1
  O  O52  1  0.730813  0.849139  0.937737  1
  O  O53  1  0.565072  0.655473  0.310803  1
  O  O54  1  0.812322  0.474631  0.931702  1
  O  O55  1  0.179753  0.244009  0.799634  1
  O  O56  1  0.230813  0.150861  0.562263  1
  O  O57  1  0.565072  0.155473  0.189197  1
  O  O58  1  0.687678  0.474631  0.431702  1
  O  O59  1  0.269187  0.650861  0.437737  1
  O  O60  1  0.187678  0.525369  0.068298  1
  O  O61  1  0.679753  0.755991  0.700366  1
  O  O62  1  0.110503  0.979992  0.184685  1
  O  O63  1  0.820247  0.755991  0.200366  1
  O  O64  1  0.820247  0.255991  0.299634  1
  O  O65  1  0.812322  0.974631  0.568298  1
  O  O66  1  0.230813  0.650861  0.937737  1
  O  O67  1  0.187678  0.025369  0.431702  1
  O  O68  1  0.320247  0.244009  0.299634  1
  O  O69  1  0.994868  0.769351  0.044663  1
  O  O70  1  0.505132  0.769351  0.544663  1
  O  O71  1  0.679753  0.255991  0.799634  1
  O  O72  1  0.505132  0.269351  0.955337  1
  O  O73  1  0.494868  0.230649  0.455337  1
  O  O74  1  0.994868  0.269351  0.455337  1
  O  O75  1  0.434928  0.344527  0.689197  1
  O  O76  1  0.610503  0.520008  0.184685  1
  O  O77  1  0.005132  0.730649  0.544663  1
  O  O78  1  0.065072  0.344527  0.189197  1
  O  O79  1  0.889497  0.020008  0.815315  1
