# generated using pymatgen
data_CaSb2O5
_symmetry_space_group_name_H-M   'P 1'
_cell_length_a   4.09441551
_cell_length_b   5.95791686
_cell_length_c   12.91309600
_cell_angle_alpha   90.00000000
_cell_angle_beta   90.00000000
_cell_angle_gamma   110.09704181
_symmetry_Int_Tables_number   1
_chemical_formula_structural   CaSb2O5
_chemical_formula_sum   'Ca2 Sb4 O10'
_cell_volume   295.82448627
_cell_formula_units_Z   2
loop_
 _symmetry_equiv_pos_site_id
 _symmetry_equiv_pos_as_xyz
  1  'x, y, z'
loop_
 _atom_site_type_symbol
 _atom_site_label
 _atom_site_symmetry_multiplicity
 _atom_site_fract_x
 _atom_site_fract_y
 _atom_site_fract_z
 _atom_site_occupancy
  Ca  Ca0  1  0.906396  0.812790  0.750000  1
  Ca  Ca1  1  0.093605  0.187211  0.250000  1
  Sb  Sb2  1  0.205630  0.411259  0.601655  1
  Sb  Sb3  1  0.794371  0.588742  0.398344  1
  Sb  Sb4  1  0.794371  0.588742  0.101656  1
  Sb  Sb5  1  0.205630  0.411259  0.898345  1
  O  O6  1  0.712783  0.425565  0.250000  1
  O  O7  1  0.287218  0.574436  0.750000  1
  O  O8  1  0.242930  0.485860  0.082961  1
  O  O9  1  0.757072  0.514141  0.917039  1
  O  O10  1  0.757072  0.514141  0.582961  1
  O  O11  1  0.242930  0.485860  0.417038  1
  O  O12  1  0.040835  0.081669  0.626791  1
  O  O13  1  0.959165  0.918330  0.373209  1
  O  O14  1  0.040835  0.081669  0.873209  1
  O  O15  1  0.959165  0.918330  0.126792  1
