# generated using pymatgen
data_Ca3Ge3(SbO6)2
_symmetry_space_group_name_H-M   'P 1'
_cell_length_a   11.27487603
_cell_length_b   11.27487539
_cell_length_c   11.27487554
_cell_angle_alpha   109.47122093
_cell_angle_beta   109.47121977
_cell_angle_gamma   109.47121982
_symmetry_Int_Tables_number   1
_chemical_formula_structural   Ca3Ge3(SbO6)2
_chemical_formula_sum   'Ca12 Ge12 Sb8 O48'
_cell_volume   1103.35025348
_cell_formula_units_Z   4
loop_
 _symmetry_equiv_pos_site_id
 _symmetry_equiv_pos_as_xyz
  1  'x, y, z'
loop_
 _atom_site_type_symbol
 _atom_site_label
 _atom_site_symmetry_multiplicity
 _atom_site_fract_x
 _atom_site_fract_y
 _atom_site_fract_z
 _atom_site_occupancy
  Ca  Ca0  1  0.625000  0.250000  0.875000  1
  Ca  Ca1  1  0.875000  0.750000  0.625000  1
  Ca  Ca2  1  0.750000  0.625000  0.875000  1
  Ca  Ca3  1  0.250000  0.875000  0.625000  1
  Ca  Ca4  1  0.875000  0.625000  0.250000  1
  Ca  Ca5  1  0.625000  0.875000  0.750000  1
  Ca  Ca6  1  0.375000  0.750000  0.125000  1
  Ca  Ca7  1  0.125000  0.250000  0.375000  1
  Ca  Ca8  1  0.250000  0.375000  0.125000  1
  Ca  Ca9  1  0.750000  0.125000  0.375000  1
  Ca  Ca10  1  0.125000  0.375000  0.750000  1
  Ca  Ca11  1  0.375000  0.125000  0.250000  1
  Ge  Ge12  1  0.875000  0.125000  0.750000  1
  Ge  Ge13  1  0.125000  0.875000  0.250000  1
  Ge  Ge14  1  0.250000  0.625000  0.375000  1
  Ge  Ge15  1  0.125000  0.750000  0.875000  1
  Ge  Ge16  1  0.750000  0.875000  0.125000  1
  Ge  Ge17  1  0.375000  0.250000  0.625000  1
  Ge  Ge18  1  0.625000  0.750000  0.375000  1
  Ge  Ge19  1  0.875000  0.250000  0.125000  1
  Ge  Ge20  1  0.250000  0.125000  0.875000  1
  Ge  Ge21  1  0.750000  0.375000  0.625000  1
  Ge  Ge22  1  0.375000  0.625000  0.750000  1
  Ge  Ge23  1  0.625000  0.375000  0.250000  1
  Sb  Sb24  1  0.500000  0.500000  0.500000  1
  Sb  Sb25  1  0.500000  0.500000  0.000000  1
  Sb  Sb26  1  0.500000  0.000000  0.500000  1
  Sb  Sb27  1  0.000000  0.500000  0.500000  1
  Sb  Sb28  1  0.500000  0.000000  0.000000  1
  Sb  Sb29  1  0.000000  0.000000  0.500000  1
  Sb  Sb30  1  0.000000  0.500000  0.000000  1
  Sb  Sb31  1  0.000000  0.000000  0.000000  1
  O  O32  1  0.780812  0.407966  0.802990  1
  O  O33  1  0.092034  0.872847  0.395025  1
  O  O34  1  0.697010  0.104975  0.977821  1
  O  O35  1  0.719188  0.522179  0.627153  1
  O  O36  1  0.719188  0.697010  0.092034  1
  O  O37  1  0.522179  0.627153  0.719188  1
  O  O38  1  0.104975  0.627153  0.407966  1
  O  O39  1  0.627153  0.719188  0.522179  1
  O  O40  1  0.395025  0.802990  0.522179  1
  O  O41  1  0.872847  0.977821  0.780812  1
  O  O42  1  0.977821  0.780812  0.872847  1
  O  O43  1  0.092034  0.719188  0.697010  1
  O  O44  1  0.627153  0.407966  0.104975  1
  O  O45  1  0.522179  0.395025  0.802990  1
  O  O46  1  0.697010  0.092034  0.719188  1
  O  O47  1  0.407966  0.104975  0.627153  1
  O  O48  1  0.802990  0.522179  0.395025  1
  O  O49  1  0.395025  0.092034  0.872847  1
  O  O50  1  0.104975  0.977821  0.697010  1
  O  O51  1  0.604975  0.197010  0.477821  1
  O  O52  1  0.977821  0.697010  0.104975  1
  O  O53  1  0.802990  0.780812  0.407966  1
  O  O54  1  0.872847  0.395025  0.092034  1
  O  O55  1  0.780812  0.872847  0.977821  1
  O  O56  1  0.219188  0.592034  0.197010  1
  O  O57  1  0.907966  0.127153  0.604975  1
  O  O58  1  0.302990  0.895025  0.022179  1
  O  O59  1  0.280812  0.477821  0.372847  1
  O  O60  1  0.280812  0.302990  0.907966  1
  O  O61  1  0.477821  0.372847  0.280812  1
  O  O62  1  0.895025  0.372847  0.592034  1
  O  O63  1  0.372847  0.280812  0.477821  1
  O  O64  1  0.219188  0.127153  0.022179  1
  O  O65  1  0.127153  0.604975  0.907966  1
  O  O66  1  0.197010  0.219188  0.592034  1
  O  O67  1  0.592034  0.197010  0.219188  1
  O  O68  1  0.022179  0.302990  0.895025  1
  O  O69  1  0.895025  0.022179  0.302990  1
  O  O70  1  0.604975  0.907966  0.127153  1
  O  O71  1  0.197010  0.477821  0.604975  1
  O  O72  1  0.592034  0.895025  0.372847  1
  O  O73  1  0.302990  0.907966  0.280812  1
  O  O74  1  0.477821  0.604975  0.197010  1
  O  O75  1  0.372847  0.592034  0.895025  1
  O  O76  1  0.907966  0.280812  0.302990  1
  O  O77  1  0.022179  0.219188  0.127153  1
  O  O78  1  0.127153  0.022179  0.219188  1
  O  O79  1  0.407966  0.802990  0.780812  1
