# generated using pymatgen
data_Ca2Cr3O8
_symmetry_space_group_name_H-M   'P 1'
_cell_length_a   6.01356488
_cell_length_b   6.01356463
_cell_length_c   10.56209266
_cell_angle_alpha   90.00000000
_cell_angle_beta   90.00000000
_cell_angle_gamma   120.00000140
_symmetry_Int_Tables_number   1
_chemical_formula_structural   Ca2Cr3O8
_chemical_formula_sum   'Ca4 Cr6 O16'
_cell_volume   330.78406675
_cell_formula_units_Z   2
loop_
 _symmetry_equiv_pos_site_id
 _symmetry_equiv_pos_as_xyz
  1  'x, y, z'
loop_
 _atom_site_type_symbol
 _atom_site_label
 _atom_site_symmetry_multiplicity
 _atom_site_fract_x
 _atom_site_fract_y
 _atom_site_fract_z
 _atom_site_occupancy
  Ca  Ca0  1  0.666667  0.333334  0.023107  1
  Ca  Ca1  1  0.333333  0.666666  0.523108  1
  Ca  Ca2  1  0.666667  0.333334  0.430806  1
  Ca  Ca3  1  0.333333  0.666666  0.930807  1
  Cr  Cr4  1  0.672632  0.836317  0.245490  1
  Cr  Cr5  1  0.836318  0.163684  0.745490  1
  Cr  Cr6  1  0.163684  0.327369  0.245490  1
  Cr  Cr7  1  0.836316  0.672632  0.745490  1
  Cr  Cr8  1  0.327369  0.163684  0.745490  1
  Cr  Cr9  1  0.163684  0.836317  0.245490  1
  O  O10  1  0.844663  0.155338  0.157716  1
  O  O11  1  0.689324  0.844663  0.657715  1
  O  O12  1  0.155338  0.310677  0.657715  1
  O  O13  1  0.844662  0.689324  0.157716  1
  O  O14  1  0.310676  0.155338  0.157716  1
  O  O15  1  0.155338  0.844663  0.657715  1
  O  O16  1  0.523526  0.476473  0.846931  1
  O  O17  1  0.047052  0.523526  0.346930  1
  O  O18  1  0.476474  0.952949  0.346930  1
  O  O19  1  0.523526  0.047052  0.846931  1
  O  O20  1  -0.000000  -0.000000  0.345469  1
  O  O21  1  -0.000000  -0.000000  0.845469  1
  O  O22  1  0.333333  0.666666  0.143708  1
  O  O23  1  0.952947  0.476473  0.846931  1
  O  O24  1  0.476473  0.523526  0.346930  1
  O  O25  1  0.666667  0.333334  0.643708  1
