# generated using pymatgen
data_SrCaSn(PO4)2
_symmetry_space_group_name_H-M   'P 1'
_cell_length_a   5.71834046
_cell_length_b   6.92596409
_cell_length_c   10.37044315
_cell_angle_alpha   108.58881079
_cell_angle_beta   100.53043303
_cell_angle_gamma   96.70861469
_symmetry_Int_Tables_number   1
_chemical_formula_structural   SrCaSn(PO4)2
_chemical_formula_sum   'Sr2 Ca2 Sn2 P4 O16'
_cell_volume   375.92229129
_cell_formula_units_Z   2
loop_
 _symmetry_equiv_pos_site_id
 _symmetry_equiv_pos_as_xyz
  1  'x, y, z'
loop_
 _atom_site_type_symbol
 _atom_site_label
 _atom_site_symmetry_multiplicity
 _atom_site_fract_x
 _atom_site_fract_y
 _atom_site_fract_z
 _atom_site_occupancy
  Sr  Sr0  1  0.263837  0.788683  0.045252  1
  Sr  Sr1  1  0.736163  0.211317  0.954748  1
  Ca  Ca2  1  0.034861  0.421779  0.666369  1
  Ca  Ca3  1  0.965139  0.578221  0.333631  1
  Sn  Sn4  1  0.634164  0.836253  0.591272  1
  Sn  Sn5  1  0.365836  0.163747  0.408728  1
  P  P6  1  0.356763  0.398293  0.203411  1
  P  P7  1  0.643237  0.601707  0.796589  1
  P  P8  1  0.816731  0.026310  0.274179  1
  P  P9  1  0.183269  0.973690  0.725821  1
  O  O10  1  0.861877  0.546458  0.882547  1
  O  O11  1  0.596975  0.452605  0.163827  1
  O  O12  1  0.693154  0.835462  0.810900  1
  O  O13  1  0.977656  0.102621  0.702148  1
  O  O14  1  0.403025  0.547395  0.836173  1
  O  O15  1  0.088493  0.746655  0.614557  1
  O  O16  1  0.911507  0.253345  0.385443  1
  O  O17  1  0.239128  0.980891  0.877237  1
  O  O18  1  0.306846  0.164538  0.189100  1
  O  O19  1  0.760872  0.019109  0.122763  1
  O  O20  1  0.138123  0.453542  0.117453  1
  O  O21  1  0.365657  0.516394  0.360936  1
  O  O22  1  0.634343  0.483606  0.639064  1
  O  O23  1  0.585003  0.925076  0.305798  1
  O  O24  1  0.022344  0.897379  0.297852  1
  O  O25  1  0.414997  0.074924  0.694202  1
