# generated using pymatgen
data_MgCrP2O7
_symmetry_space_group_name_H-M   'P 1'
_cell_length_a   5.54412543
_cell_length_b   6.52088933
_cell_length_c   7.51227312
_cell_angle_alpha   81.90676425
_cell_angle_beta   88.09685368
_cell_angle_gamma   71.17761553
_symmetry_Int_Tables_number   1
_chemical_formula_structural   MgCrP2O7
_chemical_formula_sum   'Mg2 Cr2 P4 O14'
_cell_volume   254.48285843
_cell_formula_units_Z   2
loop_
 _symmetry_equiv_pos_site_id
 _symmetry_equiv_pos_as_xyz
  1  'x, y, z'
loop_
 _atom_site_type_symbol
 _atom_site_label
 _atom_site_symmetry_multiplicity
 _atom_site_fract_x
 _atom_site_fract_y
 _atom_site_fract_z
 _atom_site_occupancy
  Mg  Mg0  1  0.332222  0.662385  0.646433  1
  Mg  Mg1  1  0.667795  0.337614  0.353574  1
  Cr  Cr2  1  0.274570  0.150349  0.184892  1
  Cr  Cr3  1  0.725517  0.849638  0.815050  1
  P  P4  1  0.178834  0.675430  0.103286  1
  P  P5  1  0.821152  0.324567  0.896722  1
  P  P6  1  0.219933  0.209578  0.611820  1
  P  P7  1  0.780055  0.790423  0.388184  1
  O  O8  1  0.097326  0.698449  0.905389  1
  O  O9  1  0.902679  0.301551  0.094614  1
  O  O10  1  0.284987  0.848529  0.144797  1
  O  O11  1  0.714992  0.151469  0.855214  1
  O  O12  1  0.359178  0.442397  0.169675  1
  O  O13  1  0.640816  0.557600  0.830327  1
  O  O14  1  0.612742  0.644793  0.441252  1
  O  O15  1  0.387244  0.355216  0.558754  1
  O  O16  1  0.026662  0.223030  0.468244  1
  O  O17  1  0.973317  0.776975  0.531766  1
  O  O18  1  0.083186  0.304958  0.789143  1
  O  O19  1  0.623394  0.032244  0.322612  1
  O  O20  1  0.376603  0.967756  0.677390  1
  O  O21  1  0.916799  0.695043  0.210863  1
