# generated using pymatgen
data_CaPr(FeO3)2
_symmetry_space_group_name_H-M   'P 1'
_cell_length_a   5.47764632
_cell_length_b   5.54056356
_cell_length_c   7.76342203
_cell_angle_alpha   90.00152222
_cell_angle_beta   89.99735374
_cell_angle_gamma   90.00027295
_symmetry_Int_Tables_number   1
_chemical_formula_structural   CaPr(FeO3)2
_chemical_formula_sum   'Ca2 Pr2 Fe4 O12'
_cell_volume   235.61401721
_cell_formula_units_Z   2
loop_
 _symmetry_equiv_pos_site_id
 _symmetry_equiv_pos_as_xyz
  1  'x, y, z'
loop_
 _atom_site_type_symbol
 _atom_site_label
 _atom_site_symmetry_multiplicity
 _atom_site_fract_x
 _atom_site_fract_y
 _atom_site_fract_z
 _atom_site_occupancy
  Ca  Ca0  1  0.491121  0.458304  0.749990  1
  Ca  Ca1  1  0.991104  0.041715  0.250000  1
  Pr  Pr2  1  0.009871  0.959005  0.749997  1
  Pr  Pr3  1  0.509839  0.540964  0.250000  1
  Fe  Fe4  1  0.000501  0.497950  0.999667  1
  Fe  Fe5  1  0.000479  0.497946  0.500329  1
  Fe  Fe6  1  0.500490  0.002073  0.499699  1
  Fe  Fe7  1  0.500460  0.002071  0.000350  1
  O  O8  1  0.077576  0.480722  0.249982  1
  O  O9  1  0.214063  0.212999  0.959182  1
  O  O10  1  0.214090  0.212936  0.540821  1
  O  O11  1  0.286322  0.712841  0.543324  1
  O  O12  1  0.286398  0.712895  0.956676  1
  O  O13  1  0.419671  0.981777  0.250012  1
  O  O14  1  0.577580  0.019276  0.750000  1
  O  O15  1  0.714044  0.287003  0.040812  1
  O  O16  1  0.714060  0.286999  0.459165  1
  O  O17  1  0.786325  0.787165  0.043320  1
  O  O18  1  0.786332  0.787158  0.456674  1
  O  O19  1  0.919672  0.518203  0.750000  1
