# generated using pymatgen
data_Mg(VN)2
_symmetry_space_group_name_H-M   'P 1'
_cell_length_a   3.11053227
_cell_length_b   3.10749639
_cell_length_c   7.17365531
_cell_angle_alpha   90.01560775
_cell_angle_beta   90.01932934
_cell_angle_gamma   90.00019446
_symmetry_Int_Tables_number   1
_chemical_formula_structural   Mg(VN)2
_chemical_formula_sum   'Mg1 V2 N2'
_cell_volume   69.34031468
_cell_formula_units_Z   1
loop_
 _symmetry_equiv_pos_site_id
 _symmetry_equiv_pos_as_xyz
  1  'x, y, z'
loop_
 _atom_site_type_symbol
 _atom_site_label
 _atom_site_symmetry_multiplicity
 _atom_site_fract_x
 _atom_site_fract_y
 _atom_site_fract_z
 _atom_site_occupancy
  Mg  Mg0  1  0.999929  0.000054  0.250071  1
  V  V1  1  0.499828  0.499742  0.921489  1
  V  V2  1  0.500330  0.500141  0.578692  1
  N  N3  1  0.500033  0.000096  0.440339  1
  N  N4  1  0.999880  0.499967  0.059409  1
