# generated using pymatgen
data_Mg(MoO2)2
_symmetry_space_group_name_H-M   'P 1'
_cell_length_a   6.26320308
_cell_length_b   6.42931501
_cell_length_c   18.92231001
_cell_angle_alpha   59.40045507
_cell_angle_beta   59.14312487
_cell_angle_gamma   61.19604414
_symmetry_Int_Tables_number   1
_chemical_formula_structural   Mg(MoO2)2
_chemical_formula_sum   'Mg6 Mo12 O24'
_cell_volume   537.31422841
_cell_formula_units_Z   6
loop_
 _symmetry_equiv_pos_site_id
 _symmetry_equiv_pos_as_xyz
  1  'x, y, z'
loop_
 _atom_site_type_symbol
 _atom_site_label
 _atom_site_symmetry_multiplicity
 _atom_site_fract_x
 _atom_site_fract_y
 _atom_site_fract_z
 _atom_site_occupancy
  Mg  Mg0  1  0.136861  0.126064  0.042103  1
  Mg  Mg1  1  0.490025  0.506208  0.332140  1
  Mg  Mg2  1  0.993364  0.502071  0.166419  1
  Mg  Mg3  1  0.509530  0.499999  0.662694  1
  Mg  Mg4  1  -0.004556  0.500565  0.502543  1
  Mg  Mg5  1  0.015639  0.490795  0.833387  1
  Mo  Mo6  1  0.492480  -0.005147  0.169477  1
  Mo  Mo7  1  0.106991  0.103587  0.394175  1
  Mo  Mo8  1  0.499169  0.497318  0.005667  1
  Mo  Mo9  1  0.491855  0.507577  0.165818  1
  Mo  Mo10  1  0.491183  0.003014  0.502714  1
  Mo  Mo11  1  0.105463  0.080057  0.743362  1
  Mo  Mo12  1  0.491861  0.503457  0.499036  1
  Mo  Mo13  1  0.512996  0.990838  0.832755  1
  Mo  Mo14  1  0.834165  0.898889  0.290382  1
  Mo  Mo15  1  0.513122  0.491633  0.831089  1
  Mo  Mo16  1  0.877845  0.897906  0.615210  1
  Mo  Mo17  1  0.891552  0.913555  0.935855  1
  O  O18  1  0.248698  0.257665  0.090776  1
  O  O19  1  0.248687  0.261858  0.240181  1
  O  O20  1  0.255197  0.730136  0.090535  1
  O  O21  1  0.729091  0.260067  0.091717  1
  O  O22  1  0.253073  0.265939  0.419247  1
  O  O23  1  0.277883  0.717633  0.246756  1
  O  O24  1  0.252524  0.264427  0.569593  1
  O  O25  1  0.714864  0.292974  0.245846  1
  O  O26  1  0.259632  0.730198  0.413634  1
  O  O27  1  0.738221  0.745061  0.093108  1
  O  O28  1  0.720226  0.272598  0.412723  1
  O  O29  1  0.743684  0.736051  0.246103  1
  O  O30  1  0.270275  0.259485  0.752716  1
  O  O31  1  0.289309  0.717874  0.582626  1
  O  O32  1  0.722890  0.296661  0.578410  1
  O  O33  1  0.273508  0.715652  0.749854  1
  O  O34  1  0.270255  0.241707  0.908788  1
  O  O35  1  0.749481  0.752942  0.422852  1
  O  O36  1  0.736066  0.261609  0.745324  1
  O  O37  1  0.745339  0.743754  0.576512  1
  O  O38  1  0.298780  0.712469  0.914215  1
  O  O39  1  0.730317  0.296975  0.917702  1
  O  O40  1  0.761111  0.739295  0.755834  1
  O  O41  1  0.761343  0.718582  0.910121  1
