# generated using pymatgen
data_Mg(SbO2)4
_symmetry_space_group_name_H-M   'P 1'
_cell_length_a   3.24719312
_cell_length_b   8.14644843
_cell_length_c   8.73074573
_cell_angle_alpha   66.81634053
_cell_angle_beta   74.92357226
_cell_angle_gamma   84.88636620
_symmetry_Int_Tables_number   1
_chemical_formula_structural   Mg(SbO2)4
_chemical_formula_sum   'Mg1 Sb4 O8'
_cell_volume   204.97453718
_cell_formula_units_Z   1
loop_
 _symmetry_equiv_pos_site_id
 _symmetry_equiv_pos_as_xyz
  1  'x, y, z'
loop_
 _atom_site_type_symbol
 _atom_site_label
 _atom_site_symmetry_multiplicity
 _atom_site_fract_x
 _atom_site_fract_y
 _atom_site_fract_z
 _atom_site_occupancy
  Mg  Mg0  1  0.230128  0.148139  0.036681  1
  Sb  Sb1  1  0.538587  0.127823  0.685109  1
  Sb  Sb2  1  0.187746  0.503215  0.271746  1
  Sb  Sb3  1  0.815682  0.494687  0.819054  1
  Sb  Sb4  1  0.498169  0.845515  0.427776  1
  O  O5  1  0.947002  0.654762  0.573846  1
  O  O6  1  0.396877  0.348413  0.765388  1
  O  O7  1  0.621982  0.637916  0.321382  1
  O  O8  1  0.098408  0.298139  0.493531  1
  O  O9  1  0.907660  0.064215  0.866452  1
  O  O10  1  0.695499  0.299405  0.048336  1
  O  O11  1  0.106521  0.936341  0.253043  1
  O  O12  1  0.253220  0.617539  0.868301  1
