# generated using pymatgen
data_ZnFe2(CuO4)2
_symmetry_space_group_name_H-M   'P 1'
_cell_length_a   6.44506641
_cell_length_b   8.35082654
_cell_length_c   11.99200992
_cell_angle_alpha   90.00064687
_cell_angle_beta   92.47169224
_cell_angle_gamma   89.99381305
_symmetry_Int_Tables_number   1
_chemical_formula_structural   ZnFe2(CuO4)2
_chemical_formula_sum   'Zn4 Fe8 Cu8 O32'
_cell_volume   644.82906191
_cell_formula_units_Z   4
loop_
 _symmetry_equiv_pos_site_id
 _symmetry_equiv_pos_as_xyz
  1  'x, y, z'
loop_
 _atom_site_type_symbol
 _atom_site_label
 _atom_site_symmetry_multiplicity
 _atom_site_fract_x
 _atom_site_fract_y
 _atom_site_fract_z
 _atom_site_occupancy
  Zn  Zn0  1  0.112333  0.157753  0.049262  1
  Zn  Zn1  1  0.887686  0.842286  0.950718  1
  Zn  Zn2  1  0.887656  0.657732  0.450718  1
  Zn  Zn3  1  0.112344  0.342304  0.549274  1
  Fe  Fe4  1  0.100671  0.457899  0.839661  1
  Fe  Fe5  1  0.100687  0.042171  0.339632  1
  Fe  Fe6  1  0.607786  0.093223  0.132497  1
  Fe  Fe7  1  0.899302  0.957836  0.660297  1
  Fe  Fe8  1  0.392156  0.906683  0.867549  1
  Fe  Fe9  1  0.392187  0.593172  0.367522  1
  Fe  Fe10  1  0.607791  0.406808  0.632439  1
  Fe  Fe11  1  0.899353  0.542155  0.160351  1
  Cu  Cu12  1  0.753898  0.189681  0.878235  1
  Cu  Cu13  1  0.374517  0.057217  0.629414  1
  Cu  Cu14  1  0.625467  0.942766  0.370562  1
  Cu  Cu15  1  0.245956  0.810431  0.121810  1
  Cu  Cu16  1  0.754019  0.310370  0.378202  1
  Cu  Cu17  1  0.374505  0.442796  0.129432  1
  Cu  Cu18  1  0.246054  0.689665  0.621775  1
  Cu  Cu19  1  0.625464  0.557242  0.870600  1
  O  O20  1  0.025567  0.238576  0.397415  1
  O  O21  1  0.647418  0.018543  0.600867  1
  O  O22  1  0.189836  0.578159  0.481368  1
  O  O23  1  0.810193  0.078146  0.018659  1
  O  O24  1  0.025610  0.261419  0.897435  1
  O  O25  1  0.974427  0.761452  0.602591  1
  O  O26  1  0.095532  0.108243  0.619088  1
  O  O27  1  0.507901  0.886452  0.141855  1
  O  O28  1  0.507764  0.613450  0.641835  1
  O  O29  1  0.312883  0.870954  0.712125  1
  O  O30  1  0.687105  0.370997  0.787881  1
  O  O31  1  0.492207  0.113561  0.858155  1
  O  O32  1  0.904473  0.891760  0.380899  1
  O  O33  1  0.870429  0.525229  0.306747  1
  O  O34  1  0.405473  0.262927  0.577669  1
  O  O35  1  0.405455  0.237092  0.077654  1
  O  O36  1  0.129696  0.025087  0.193215  1
  O  O37  1  0.492138  0.386544  0.358150  1
  O  O38  1  0.129531  0.474689  0.693260  1
  O  O39  1  0.810129  0.421837  0.518630  1
  O  O40  1  0.647403  0.481444  0.100851  1
  O  O41  1  0.687127  0.129065  0.287877  1
  O  O42  1  0.974440  0.738599  0.102604  1
  O  O43  1  0.095506  0.391750  0.119099  1
  O  O44  1  0.189879  0.921849  0.981401  1
  O  O45  1  0.594518  0.762942  0.922378  1
  O  O46  1  0.352556  0.981469  0.399119  1
  O  O47  1  0.352590  0.518537  0.899137  1
  O  O48  1  0.904484  0.608261  0.880906  1
  O  O49  1  0.594517  0.737084  0.422329  1
  O  O50  1  0.312878  0.629101  0.212124  1
  O  O51  1  0.870503  0.974592  0.806727  1
