# generated using pymatgen
data_Cr3O7
_symmetry_space_group_name_H-M   'P 1'
_cell_length_a   5.28754903
_cell_length_b   10.53879996
_cell_length_c   11.26393261
_cell_angle_alpha   90.00000000
_cell_angle_beta   90.00000000
_cell_angle_gamma   90.00000000
_symmetry_Int_Tables_number   1
_chemical_formula_structural   Cr3O7
_chemical_formula_sum   'Cr12 O28'
_cell_volume   627.67612857
_cell_formula_units_Z   4
loop_
 _symmetry_equiv_pos_site_id
 _symmetry_equiv_pos_as_xyz
  1  'x, y, z'
loop_
 _atom_site_type_symbol
 _atom_site_label
 _atom_site_symmetry_multiplicity
 _atom_site_fract_x
 _atom_site_fract_y
 _atom_site_fract_z
 _atom_site_occupancy
  Cr  Cr0  1  0.294738  0.020072  0.303047  1
  Cr  Cr1  1  0.794738  0.979928  0.196953  1
  Cr  Cr2  1  0.705262  0.520072  0.696953  1
  Cr  Cr3  1  0.205262  0.479928  0.803047  1
  Cr  Cr4  1  0.296222  0.750000  0.226368  1
  Cr  Cr5  1  0.796222  0.250000  0.273632  1
  Cr  Cr6  1  0.703778  0.250000  0.773632  1
  Cr  Cr7  1  0.203778  0.750000  0.726368  1
  Cr  Cr8  1  0.794738  0.520072  0.196953  1
  Cr  Cr9  1  0.294738  0.479928  0.303047  1
  Cr  Cr10  1  0.205262  0.020072  0.803047  1
  Cr  Cr11  1  0.705262  0.979928  0.696953  1
  O  O12  1  0.937028  0.113605  0.731126  1
  O  O13  1  0.437028  0.886395  0.768874  1
  O  O14  1  0.062972  0.613605  0.268874  1
  O  O15  1  0.562972  0.386395  0.231126  1
  O  O16  1  0.062972  0.886395  0.268874  1
  O  O17  1  0.562972  0.113605  0.231126  1
  O  O18  1  0.937028  0.386395  0.731126  1
  O  O19  1  0.437028  0.613605  0.768874  1
  O  O20  1  0.468348  0.113117  0.727197  1
  O  O21  1  0.968348  0.886883  0.772803  1
  O  O22  1  0.531652  0.613117  0.272803  1
  O  O23  1  0.031652  0.386884  0.227197  1
  O  O24  1  0.531652  0.886883  0.272803  1
  O  O25  1  0.031652  0.113117  0.227197  1
  O  O26  1  0.468348  0.386884  0.727197  1
  O  O27  1  0.968348  0.613117  0.772803  1
  O  O28  1  0.190453  0.750000  0.581982  1
  O  O29  1  0.690453  0.250000  0.918018  1
  O  O30  1  0.809547  0.250000  0.418018  1
  O  O31  1  0.309547  0.750000  0.081982  1
  O  O32  1  0.214859  0.442593  0.938932  1
  O  O33  1  0.714859  0.557406  0.561068  1
  O  O34  1  0.785141  0.942594  0.061068  1
  O  O35  1  0.285141  0.057407  0.438932  1
  O  O36  1  0.785141  0.557406  0.061068  1
  O  O37  1  0.285141  0.442593  0.438932  1
  O  O38  1  0.214859  0.057407  0.938932  1
  O  O39  1  0.714859  0.942594  0.561068  1
