# generated using pymatgen
data_Al10(Cu2O7)3
_symmetry_space_group_name_H-M   'P 1'
_cell_length_a   5.84992050
_cell_length_b   17.98942444
_cell_length_c   6.00495087
_cell_angle_alpha   56.44039428
_cell_angle_beta   60.85041118
_cell_angle_gamma   60.80523142
_symmetry_Int_Tables_number   1
_chemical_formula_structural   Al10(Cu2O7)3
_chemical_formula_sum   'Al10 Cu6 O21'
_cell_volume   438.68988420
_cell_formula_units_Z   1
loop_
 _symmetry_equiv_pos_site_id
 _symmetry_equiv_pos_as_xyz
  1  'x, y, z'
loop_
 _atom_site_type_symbol
 _atom_site_label
 _atom_site_symmetry_multiplicity
 _atom_site_fract_x
 _atom_site_fract_y
 _atom_site_fract_z
 _atom_site_occupancy
  Al  Al0  1  0.655013  0.385564  0.533282  1
  Al  Al1  1  0.619246  0.710891  0.628835  1
  Al  Al2  1  0.138839  0.201138  0.633409  1
  Al  Al3  1  0.119879  0.533204  0.655641  1
  Al  Al4  1  0.116237  0.882681  0.621269  1
  Al  Al5  1  0.630539  0.198644  0.142989  1
  Al  Al6  1  0.604428  0.891560  0.116464  1
  Al  Al7  1  0.624336  0.201138  0.633409  1
  Al  Al8  1  0.624870  0.533204  0.655641  1
  Al  Al9  1  0.614451  0.882681  0.621269  1
  Cu  Cu10  1  0.264508  0.055629  0.304095  1
  Cu  Cu11  1  0.139112  0.497707  0.228657  1
  Cu  Cu12  1  0.422014  0.676148  0.127529  1
  Cu  Cu13  1  0.974536  0.010273  0.020110  1
  Cu  Cu14  1  0.019229  0.322056  0.995374  1
  Cu  Cu15  1  0.952233  0.684649  0.041589  1
  O  O16  1  0.751679  0.252048  0.740499  1
  O  O17  1  0.752006  0.586268  0.737182  1
  O  O18  1  0.757189  0.908302  0.760716  1
  O  O19  1  0.740036  0.080366  0.798579  1
  O  O20  1  0.789597  0.419780  0.662507  1
  O  O21  1  0.702369  0.755085  0.782814  1
  O  O22  1  0.268867  0.236729  0.266016  1
  O  O23  1  0.207163  0.597459  0.279497  1
  O  O24  1  0.241837  0.918989  0.255618  1
  O  O25  1  0.260016  0.242106  0.753650  1
  O  O26  1  0.265286  0.555141  0.804005  1
  O  O27  1  0.256097  0.935108  0.682483  1
  O  O28  1  0.754928  0.236729  0.266016  1
  O  O29  1  0.720962  0.597459  0.279497  1
  O  O30  1  0.745578  0.918989  0.255618  1
  O  O31  1  0.220285  0.080366  0.798579  1
  O  O32  1  0.288559  0.419780  0.662507  1
  O  O33  1  0.249563  0.755085  0.782814  1
  O  O34  1  0.755141  0.077847  0.256178  1
  O  O35  1  0.802418  0.404078  0.182933  1
  O  O36  1  0.711606  0.768235  0.272082  1
