# generated using pymatgen
data_MgSnAsO5
_symmetry_space_group_name_H-M   'P 1'
_cell_length_a   9.00213538
_cell_length_b   6.37064644
_cell_length_c   9.08609497
_cell_angle_alpha   89.93011485
_cell_angle_beta   110.43303139
_cell_angle_gamma   90.13981282
_symmetry_Int_Tables_number   1
_chemical_formula_structural   MgSnAsO5
_chemical_formula_sum   'Mg4 Sn4 As4 O20'
_cell_volume   488.29476174
_cell_formula_units_Z   4
loop_
 _symmetry_equiv_pos_site_id
 _symmetry_equiv_pos_as_xyz
  1  'x, y, z'
loop_
 _atom_site_type_symbol
 _atom_site_label
 _atom_site_symmetry_multiplicity
 _atom_site_fract_x
 _atom_site_fract_y
 _atom_site_fract_z
 _atom_site_occupancy
  Mg  Mg0  1  0.970422  0.746206  0.033016  1
  Mg  Mg1  1  0.597145  0.253896  0.591912  1
  Mg  Mg2  1  0.403512  0.754990  0.904138  1
  Mg  Mg3  1  0.023491  0.247925  0.470898  1
  Sn  Sn4  1  -0.000651  0.495973  0.753009  1
  Sn  Sn5  1  0.499986  0.504594  0.248410  1
  Sn  Sn6  1  0.501854  0.004630  0.247918  1
  Sn  Sn7  1  -0.001398  0.995510  0.751378  1
  As  As8  1  0.609214  0.256877  0.960384  1
  As  As9  1  0.886984  0.745701  0.378812  1
  As  As10  1  0.113811  0.245523  0.124781  1
  As  As11  1  0.392042  0.754983  0.534839  1
  O  O12  1  0.836075  0.245973  0.706289  1
  O  O13  1  0.683065  0.752871  0.303706  1
  O  O14  1  0.317907  0.251696  0.189939  1
  O  O15  1  0.161852  0.746810  0.793052  1
  O  O16  1  0.511127  0.258690  0.762300  1
  O  O17  1  0.970146  0.736915  0.241478  1
  O  O18  1  0.039343  0.236151  0.268328  1
  O  O19  1  0.488471  0.758935  0.733193  1
  O  O20  1  0.506805  0.028951  0.022237  1
  O  O21  1  0.944715  0.963574  0.497593  1
  O  O22  1  0.050604  0.462846  0.005931  1
  O  O23  1  0.496441  0.528336  0.474621  1
  O  O24  1  0.505806  0.481870  0.022934  1
  O  O25  1  0.941183  0.528549  0.498771  1
  O  O26  1  0.053104  0.028510  0.004910  1
  O  O27  1  0.496822  0.980609  0.473614  1
  O  O28  1  0.870468  0.745130  0.793248  1
  O  O29  1  0.642277  0.255452  0.334425  1
  O  O30  1  0.359866  0.754925  0.161859  1
  O  O31  1  0.127510  0.246403  0.712079  1
