# generated using pymatgen
data_CaWO2
_symmetry_space_group_name_H-M   'P 1'
_cell_length_a   2.96343048
_cell_length_b   8.62123494
_cell_length_c   8.89591283
_cell_angle_alpha   88.95268300
_cell_angle_beta   80.62233477
_cell_angle_gamma   80.93983487
_symmetry_Int_Tables_number   1
_chemical_formula_structural   CaWO2
_chemical_formula_sum   'Ca4 W4 O8'
_cell_volume   221.43516136
_cell_formula_units_Z   4
loop_
 _symmetry_equiv_pos_site_id
 _symmetry_equiv_pos_as_xyz
  1  'x, y, z'
loop_
 _atom_site_type_symbol
 _atom_site_label
 _atom_site_symmetry_multiplicity
 _atom_site_fract_x
 _atom_site_fract_y
 _atom_site_fract_z
 _atom_site_occupancy
  Ca  Ca0  1  0.342351  0.011546  0.283266  1
  Ca  Ca1  1  0.649656  0.968314  0.746944  1
  Ca  Ca2  1  0.151282  0.675375  0.040716  1
  Ca  Ca3  1  0.854917  0.304827  0.987468  1
  W  W4  1  0.563327  0.317582  0.624380  1
  W  W5  1  0.165772  0.377173  0.320162  1
  W  W6  1  0.835893  0.603121  0.707097  1
  W  W7  1  0.422425  0.661819  0.403919  1
  O  O8  1  0.814775  0.784631  0.549067  1
  O  O9  1  0.354157  0.456317  0.843087  1
  O  O10  1  0.649424  0.523362  0.184124  1
  O  O11  1  0.175934  0.196262  0.479083  1
  O  O12  1  0.047736  0.176424  0.759553  1
  O  O13  1  0.783977  0.209956  0.221913  1
  O  O14  1  0.943092  0.803080  0.268584  1
  O  O15  1  0.213557  0.769543  0.806253  1
