# generated using pymatgen
data_Sr2AlGaCo2O7
_symmetry_space_group_name_H-M   'P 1'
_cell_length_a   5.40979783
_cell_length_b   5.62386889
_cell_length_c   11.81593066
_cell_angle_alpha   103.53606466
_cell_angle_beta   103.14661586
_cell_angle_gamma   90.22827800
_symmetry_Int_Tables_number   1
_chemical_formula_structural   Sr2AlGaCo2O7
_chemical_formula_sum   'Sr4 Al2 Ga2 Co4 O14'
_cell_volume   339.72005291
_cell_formula_units_Z   2
loop_
 _symmetry_equiv_pos_site_id
 _symmetry_equiv_pos_as_xyz
  1  'x, y, z'
loop_
 _atom_site_type_symbol
 _atom_site_label
 _atom_site_symmetry_multiplicity
 _atom_site_fract_x
 _atom_site_fract_y
 _atom_site_fract_z
 _atom_site_occupancy
  Sr  Sr0  1  0.149344  0.170676  0.298798  1
  Sr  Sr1  1  0.850807  0.826952  0.700601  1
  Sr  Sr2  1  0.649949  0.625110  0.299810  1
  Sr  Sr3  1  0.348966  0.371426  0.699441  1
  Al  Al4  1  0.508231  0.498718  0.003283  1
  Al  Al5  1  0.005664  0.004374  0.001886  1
  Ga  Ga6  1  0.215951  0.820179  0.500397  1
  Ga  Ga7  1  0.715926  0.176087  0.497486  1
  Co  Co8  1  0.439331  0.943559  0.869481  1
  Co  Co9  1  0.068053  0.568045  0.126757  1
  Co  Co10  1  0.946791  0.441288  0.884904  1
  Co  Co11  1  0.570995  0.056706  0.134639  1
  O  O12  1  0.873416  0.228176  0.106600  1
  O  O13  1  0.867488  0.872229  0.499849  1
  O  O14  1  0.375928  0.375204  0.107229  1
  O  O15  1  0.852406  0.373302  0.647602  1
  O  O16  1  0.625701  0.283511  0.886100  1
  O  O17  1  0.120028  0.106768  0.885255  1
  O  O18  1  0.367378  0.123728  0.499627  1
  O  O19  1  0.264690  0.611606  0.895520  1
  O  O20  1  0.767293  0.778407  0.895759  1
  O  O21  1  0.352976  0.785000  0.656176  1
  O  O22  1  0.199289  0.627670  0.347271  1
  O  O23  1  0.696430  0.212235  0.342695  1
  O  O24  1  0.728921  0.725805  0.117282  1
  O  O25  1  0.228718  0.890569  0.115343  1
