# generated using pymatgen
data_BaZnBiF7
_symmetry_space_group_name_H-M   'P 1'
_cell_length_a   5.74330449
_cell_length_b   9.90184245
_cell_length_c   10.82982033
_cell_angle_alpha   90.00000000
_cell_angle_beta   90.00000000
_cell_angle_gamma   91.70015068
_symmetry_Int_Tables_number   1
_chemical_formula_structural   BaZnBiF7
_chemical_formula_sum   'Ba4 Zn4 Bi4 F28'
_cell_volume   615.61313672
_cell_formula_units_Z   4
loop_
 _symmetry_equiv_pos_site_id
 _symmetry_equiv_pos_as_xyz
  1  'x, y, z'
loop_
 _atom_site_type_symbol
 _atom_site_label
 _atom_site_symmetry_multiplicity
 _atom_site_fract_x
 _atom_site_fract_y
 _atom_site_fract_z
 _atom_site_occupancy
  Ba  Ba0  1  0.250521  0.491081  0.330831  1
  Ba  Ba1  1  0.749479  0.008919  0.830831  1
  Ba  Ba2  1  0.749479  0.508919  0.669169  1
  Ba  Ba3  1  0.250521  0.991081  0.169169  1
  Zn  Zn4  1  0.699438  0.799706  0.374514  1
  Zn  Zn5  1  0.300562  0.700294  0.874514  1
  Zn  Zn6  1  0.699438  0.299706  0.125486  1
  Zn  Zn7  1  0.300562  0.200294  0.625486  1
  Bi  Bi8  1  0.226920  0.832495  0.583111  1
  Bi  Bi9  1  0.773080  0.167505  0.416889  1
  Bi  Bi10  1  0.226920  0.332495  0.916889  1
  Bi  Bi11  1  0.773080  0.667505  0.083111  1
  F  F12  1  0.139122  0.121016  0.472923  1
  F  F13  1  0.396832  0.410773  0.102018  1
  F  F14  1  0.506257  0.773354  0.725483  1
  F  F15  1  0.493743  0.226646  0.274517  1
  F  F16  1  0.923947  0.369370  0.468915  1
  F  F17  1  0.197403  0.519784  0.787058  1
  F  F18  1  0.031883  0.771885  0.768048  1
  F  F19  1  0.076053  0.130630  0.968915  1
  F  F20  1  0.396832  0.910773  0.397982  1
  F  F21  1  0.493743  0.726646  0.225483  1
  F  F22  1  0.139122  0.621016  0.027077  1
  F  F23  1  0.860878  0.878984  0.527077  1
  F  F24  1  0.968117  0.728115  0.268048  1
  F  F25  1  0.456155  0.845833  0.977870  1
  F  F26  1  0.076053  0.630630  0.531085  1
  F  F27  1  0.923947  0.869370  0.031085  1
  F  F28  1  0.968117  0.228115  0.231952  1
  F  F29  1  0.860878  0.378984  0.972923  1
  F  F30  1  0.543845  0.654167  0.477870  1
  F  F31  1  0.603168  0.589227  0.897982  1
  F  F32  1  0.543845  0.154167  0.022130  1
  F  F33  1  0.031883  0.271885  0.731952  1
  F  F34  1  0.456155  0.345833  0.522130  1
  F  F35  1  0.802597  0.980216  0.287058  1
  F  F36  1  0.802597  0.480216  0.212942  1
  F  F37  1  0.197403  0.019784  0.712942  1
  F  F38  1  0.603168  0.089227  0.602018  1
  F  F39  1  0.506257  0.273354  0.774517  1
