# generated using pymatgen
data_Sr3Cr2S2O5
_symmetry_space_group_name_H-M   'P 1'
_cell_length_a   4.02065659
_cell_length_b   4.02065659
_cell_length_c   11.73205247
_cell_angle_alpha   99.86652590
_cell_angle_beta   99.86652590
_cell_angle_gamma   90.00000000
_symmetry_Int_Tables_number   1
_chemical_formula_structural   Sr3Cr2S2O5
_chemical_formula_sum   'Sr3 Cr2 S2 O5'
_cell_volume   184.00364886
_cell_formula_units_Z   1
loop_
 _symmetry_equiv_pos_site_id
 _symmetry_equiv_pos_as_xyz
  1  'x, y, z'
loop_
 _atom_site_type_symbol
 _atom_site_label
 _atom_site_symmetry_multiplicity
 _atom_site_fract_x
 _atom_site_fract_y
 _atom_site_fract_z
 _atom_site_occupancy
  Sr  Sr0  1  0.500000  0.500000  -0.000000  1
  Sr  Sr1  1  0.661419  0.661419  0.322837  1
  Sr  Sr2  1  0.338581  0.338581  0.677163  1
  Cr  Cr3  1  0.084325  0.084325  0.168650  1
  Cr  Cr4  1  0.915675  0.915675  0.831350  1
  S  S5  1  0.193947  0.193947  0.387893  1
  S  S6  1  0.806053  0.806053  0.612107  1
  O  O7  1  0.085016  0.585016  0.170033  1
  O  O8  1  0.585016  0.085016  0.170033  1
  O  O9  1  0.914984  0.414984  0.829967  1
  O  O10  1  0.414984  0.914984  0.829967  1
  O  O11  1  -0.000000  -0.000000  -0.000000  1
