# generated using pymatgen
data_Zn3Ag2(GeO4)3
_symmetry_space_group_name_H-M   'P 1'
_cell_length_a   10.68763548
_cell_length_b   10.68763492
_cell_length_c   10.68763506
_cell_angle_alpha   109.47122089
_cell_angle_beta   109.47121984
_cell_angle_gamma   109.47121992
_symmetry_Int_Tables_number   1
_chemical_formula_structural   Zn3Ag2(GeO4)3
_chemical_formula_sum   'Zn12 Ag8 Ge12 O48'
_cell_volume   939.77302551
_cell_formula_units_Z   4
loop_
 _symmetry_equiv_pos_site_id
 _symmetry_equiv_pos_as_xyz
  1  'x, y, z'
loop_
 _atom_site_type_symbol
 _atom_site_label
 _atom_site_symmetry_multiplicity
 _atom_site_fract_x
 _atom_site_fract_y
 _atom_site_fract_z
 _atom_site_occupancy
  Zn  Zn0  1  0.625000  0.250000  0.875000  1
  Zn  Zn1  1  0.875000  0.750000  0.625000  1
  Zn  Zn2  1  0.750000  0.625000  0.875000  1
  Zn  Zn3  1  0.250000  0.875000  0.625000  1
  Zn  Zn4  1  0.875000  0.625000  0.250000  1
  Zn  Zn5  1  0.625000  0.875000  0.750000  1
  Zn  Zn6  1  0.375000  0.750000  0.125000  1
  Zn  Zn7  1  0.125000  0.250000  0.375000  1
  Zn  Zn8  1  0.250000  0.375000  0.125000  1
  Zn  Zn9  1  0.750000  0.125000  0.375000  1
  Zn  Zn10  1  0.125000  0.375000  0.750000  1
  Zn  Zn11  1  0.375000  0.125000  0.250000  1
  Ag  Ag12  1  0.500000  0.500000  0.500000  1
  Ag  Ag13  1  0.500000  0.500000  0.000000  1
  Ag  Ag14  1  0.500000  0.000000  0.500000  1
  Ag  Ag15  1  0.000000  0.500000  0.500000  1
  Ag  Ag16  1  0.500000  0.000000  0.000000  1
  Ag  Ag17  1  0.000000  0.000000  0.500000  1
  Ag  Ag18  1  0.000000  0.500000  0.000000  1
  Ag  Ag19  1  0.000000  0.000000  0.000000  1
  Ge  Ge20  1  0.875000  0.125000  0.750000  1
  Ge  Ge21  1  0.125000  0.875000  0.250000  1
  Ge  Ge22  1  0.250000  0.625000  0.375000  1
  Ge  Ge23  1  0.125000  0.750000  0.875000  1
  Ge  Ge24  1  0.750000  0.875000  0.125000  1
  Ge  Ge25  1  0.375000  0.250000  0.625000  1
  Ge  Ge26  1  0.625000  0.750000  0.375000  1
  Ge  Ge27  1  0.875000  0.250000  0.125000  1
  Ge  Ge28  1  0.250000  0.125000  0.875000  1
  Ge  Ge29  1  0.750000  0.375000  0.625000  1
  Ge  Ge30  1  0.375000  0.625000  0.750000  1
  Ge  Ge31  1  0.625000  0.375000  0.250000  1
  O  O32  1  0.774400  0.409381  0.810140  1
  O  O33  1  0.090619  0.865018  0.400759  1
  O  O34  1  0.689860  0.099241  0.964259  1
  O  O35  1  0.725600  0.535741  0.634982  1
  O  O36  1  0.725600  0.689860  0.090619  1
  O  O37  1  0.535741  0.634982  0.725600  1
  O  O38  1  0.099241  0.634982  0.409381  1
  O  O39  1  0.634982  0.725600  0.535741  1
  O  O40  1  0.400759  0.810140  0.535741  1
  O  O41  1  0.865018  0.964259  0.774400  1
  O  O42  1  0.964259  0.774400  0.865018  1
  O  O43  1  0.090619  0.725600  0.689860  1
  O  O44  1  0.634982  0.409381  0.099241  1
  O  O45  1  0.535741  0.400759  0.810140  1
  O  O46  1  0.689860  0.090619  0.725600  1
  O  O47  1  0.409381  0.099241  0.634982  1
  O  O48  1  0.810140  0.535741  0.400759  1
  O  O49  1  0.400759  0.090619  0.865018  1
  O  O50  1  0.099241  0.964259  0.689860  1
  O  O51  1  0.599241  0.189860  0.464259  1
  O  O52  1  0.964259  0.689860  0.099241  1
  O  O53  1  0.810140  0.774400  0.409381  1
  O  O54  1  0.865018  0.400759  0.090619  1
  O  O55  1  0.774400  0.865018  0.964259  1
  O  O56  1  0.225600  0.590619  0.189860  1
  O  O57  1  0.909381  0.134982  0.599241  1
  O  O58  1  0.310140  0.900759  0.035741  1
  O  O59  1  0.274400  0.464259  0.365018  1
  O  O60  1  0.274400  0.310140  0.909381  1
  O  O61  1  0.464259  0.365018  0.274400  1
  O  O62  1  0.900759  0.365018  0.590619  1
  O  O63  1  0.365018  0.274400  0.464259  1
  O  O64  1  0.225600  0.134982  0.035741  1
  O  O65  1  0.134982  0.599241  0.909381  1
  O  O66  1  0.189860  0.225600  0.590619  1
  O  O67  1  0.590619  0.189860  0.225600  1
  O  O68  1  0.035741  0.310140  0.900759  1
  O  O69  1  0.900759  0.035741  0.310140  1
  O  O70  1  0.599241  0.909381  0.134982  1
  O  O71  1  0.189860  0.464259  0.599241  1
  O  O72  1  0.590619  0.900759  0.365018  1
  O  O73  1  0.310140  0.909381  0.274400  1
  O  O74  1  0.464259  0.599241  0.189860  1
  O  O75  1  0.365018  0.590619  0.900759  1
  O  O76  1  0.909381  0.274400  0.310140  1
  O  O77  1  0.035741  0.225600  0.134982  1
  O  O78  1  0.134982  0.035741  0.225600  1
  O  O79  1  0.409381  0.810140  0.774400  1
