# generated using pymatgen
data_Y(CrS2)2
_symmetry_space_group_name_H-M   'P 1'
_cell_length_a   7.66350153
_cell_length_b   7.29808263
_cell_length_c   7.30209219
_cell_angle_alpha   87.95927291
_cell_angle_beta   121.72272428
_cell_angle_gamma   121.80307279
_symmetry_Int_Tables_number   1
_chemical_formula_structural   Y(CrS2)2
_chemical_formula_sum   'Y2 Cr4 S8'
_cell_volume   278.26889123
_cell_formula_units_Z   2
loop_
 _symmetry_equiv_pos_site_id
 _symmetry_equiv_pos_as_xyz
  1  'x, y, z'
loop_
 _atom_site_type_symbol
 _atom_site_label
 _atom_site_symmetry_multiplicity
 _atom_site_fract_x
 _atom_site_fract_y
 _atom_site_fract_z
 _atom_site_occupancy
  Y  Y0  1  0.000011  0.000022  0.999952  1
  Y  Y1  1  0.500001  0.000017  0.999980  1
  Cr  Cr2  1  0.499848  0.999943  0.499964  1
  Cr  Cr3  1  0.500052  0.499988  0.499976  1
  Cr  Cr4  1  0.000080  0.499994  0.000081  1
  Cr  Cr5  1  0.000065  0.500044  0.500044  1
  S  S6  1  0.033053  0.735336  0.263127  1
  S  S7  1  0.480754  0.739142  0.724194  1
  S  S8  1  0.467119  0.736719  0.265209  1
  S  S9  1  0.981328  0.723894  0.738719  1
  S  S10  1  0.532938  0.263343  0.734840  1
  S  S11  1  0.519251  0.260864  0.275790  1
  S  S12  1  0.018723  0.276066  0.261344  1
  S  S13  1  0.966825  0.264596  0.736820  1
