# generated using pymatgen
data_Ca4Ti5(TeO6)3
_symmetry_space_group_name_H-M   'P 1'
_cell_length_a   9.00981005
_cell_length_b   9.00980988
_cell_length_c   11.65198889
_cell_angle_alpha   85.68716617
_cell_angle_beta   85.68716386
_cell_angle_gamma   69.77195301
_symmetry_Int_Tables_number   1
_chemical_formula_structural   Ca4Ti5(TeO6)3
_chemical_formula_sum   'Ca8 Ti10 Te6 O36'
_cell_volume   883.79455100
_cell_formula_units_Z   2
loop_
 _symmetry_equiv_pos_site_id
 _symmetry_equiv_pos_as_xyz
  1  'x, y, z'
loop_
 _atom_site_type_symbol
 _atom_site_label
 _atom_site_symmetry_multiplicity
 _atom_site_fract_x
 _atom_site_fract_y
 _atom_site_fract_z
 _atom_site_occupancy
  Ca  Ca0  1  0.869470  0.552294  0.390846  1
  Ca  Ca1  1  0.531870  0.569944  0.213531  1
  Ca  Ca2  1  0.447706  0.130530  0.609154  1
  Ca  Ca3  1  0.430056  0.468130  0.786469  1
  Ca  Ca4  1  0.179241  0.923014  0.713080  1
  Ca  Ca5  1  0.160751  0.261439  0.890838  1
  Ca  Ca6  1  0.738561  0.839249  0.109162  1
  Ca  Ca7  1  0.076986  0.820759  0.286920  1
  Ti  Ti8  1  0.790311  0.506535  0.935121  1
  Ti  Ti9  1  0.114652  0.182406  0.435144  1
  Ti  Ti10  1  0.352736  0.320463  0.321750  1
  Ti  Ti11  1  0.928833  0.744377  0.822029  1
  Ti  Ti12  1  0.679537  0.647264  0.678250  1
  Ti  Ti13  1  0.926263  0.073737  0.000000  1
  Ti  Ti14  1  0.682156  0.317844  0.500000  1
  Ti  Ti15  1  0.255623  0.071168  0.177971  1
  Ti  Ti16  1  0.817594  0.885348  0.564856  1
  Ti  Ti17  1  0.493465  0.209689  0.064879  1
  Te  Te18  1  0.454392  0.852713  0.898259  1
  Te  Te19  1  0.805195  0.194716  0.249926  1
  Te  Te20  1  0.805284  0.194805  0.750074  1
  Te  Te21  1  0.461377  0.845689  0.398166  1
  Te  Te22  1  0.154311  0.538623  0.601834  1
  Te  Te23  1  0.147287  0.545608  0.101741  1
  O  O24  1  0.360344  0.040345  0.802759  1
  O  O25  1  0.707581  0.457392  0.799777  1
  O  O26  1  0.672227  0.533991  0.558335  1
  O  O27  1  0.729229  0.086371  0.510548  1
  O  O28  1  0.542608  0.292419  0.200223  1
  O  O29  1  0.913629  0.270771  0.489452  1
  O  O30  1  0.333819  0.847214  0.264355  1
  O  O31  1  0.026007  0.094556  0.844741  1
  O  O32  1  0.583132  0.296656  0.654954  1
  O  O33  1  0.145783  0.379689  0.404841  1
  O  O34  1  0.656181  0.619168  0.048652  1
  O  O35  1  0.461973  0.012298  0.094937  1
  O  O36  1  0.900101  0.935839  0.700317  1
  O  O37  1  0.716334  0.744109  0.837831  1
  O  O38  1  0.380832  0.343819  0.951348  1
  O  O39  1  0.273904  0.545203  0.235657  1
  O  O40  1  0.951774  0.772100  0.451451  1
  O  O41  1  0.255891  0.283666  0.162169  1
  O  O42  1  0.466009  0.327773  0.441665  1
  O  O43  1  0.227900  0.048226  0.548549  1
  O  O44  1  0.648571  0.751571  0.302301  1
  O  O45  1  0.890990  0.649239  0.662919  1
  O  O46  1  0.905444  0.973993  0.155259  1
  O  O47  1  0.454797  0.726096  0.764343  1
  O  O48  1  0.936512  0.858018  0.941788  1
  O  O49  1  0.694912  0.120480  0.011200  1
  O  O50  1  0.987702  0.538027  0.905063  1
  O  O51  1  0.152785  0.666181  0.735645  1
  O  O52  1  0.064161  0.099899  0.299683  1
  O  O53  1  0.350761  0.109010  0.337081  1
  O  O54  1  0.248429  0.351429  0.697699  1
  O  O55  1  0.879520  0.305088  0.988800  1
  O  O56  1  0.703344  0.416868  0.345046  1
  O  O57  1  0.620311  0.854217  0.595159  1
  O  O58  1  0.141982  0.063488  0.058212  1
  O  O59  1  0.959655  0.639656  0.197241  1
