# generated using pymatgen
data_Ca2Ni9O13
_symmetry_space_group_name_H-M   'P 1'
_cell_length_a   3.01324480
_cell_length_b   5.14758623
_cell_length_c   16.55238577
_cell_angle_alpha   98.72172727
_cell_angle_beta   90.00848282
_cell_angle_gamma   106.95520509
_symmetry_Int_Tables_number   1
_chemical_formula_structural   Ca2Ni9O13
_chemical_formula_sum   'Ca2 Ni9 O13'
_cell_volume   242.47594045
_cell_formula_units_Z   1
loop_
 _symmetry_equiv_pos_site_id
 _symmetry_equiv_pos_as_xyz
  1  'x, y, z'
loop_
 _atom_site_type_symbol
 _atom_site_label
 _atom_site_symmetry_multiplicity
 _atom_site_fract_x
 _atom_site_fract_y
 _atom_site_fract_z
 _atom_site_occupancy
  Ca  Ca0  1  0.216633  0.432291  0.230658  1
  Ca  Ca1  1  0.783367  0.567709  0.769342  1
  Ni  Ni2  1  0.500000  0.000000  0.500000  1
  Ni  Ni3  1  0.646378  0.293967  0.038389  1
  Ni  Ni4  1  0.353622  0.706033  0.961611  1
  Ni  Ni5  1  0.752115  0.504359  0.421688  1
  Ni  Ni6  1  0.247885  0.495641  0.578312  1
  Ni  Ni7  1  0.940969  0.881038  0.120130  1
  Ni  Ni8  1  0.059031  0.118962  0.879870  1
  Ni  Ni9  1  0.998466  0.995838  0.339556  1
  Ni  Ni10  1  0.001534  0.004162  0.660444  1
  O  O11  1  0.000000  0.000000  0.000000  1
  O  O12  1  0.889332  0.779247  0.229186  1
  O  O13  1  0.110668  0.220753  0.770814  1
  O  O14  1  0.293470  0.586247  0.069894  1
  O  O15  1  0.706530  0.413753  0.930106  1
  O  O16  1  0.579711  0.159806  0.140030  1
  O  O17  1  0.420289  0.840194  0.859970  1
  O  O18  1  0.625973  0.251848  0.320495  1
  O  O19  1  0.374027  0.748152  0.679505  1
  O  O20  1  0.379588  0.759839  0.387227  1
  O  O21  1  0.620412  0.240161  0.612773  1
  O  O22  1  0.130117  0.260220  0.465549  1
  O  O23  1  0.869883  0.739780  0.534451  1
