# generated using pymatgen
data_V5ZnO7
_symmetry_space_group_name_H-M   'P 1'
_cell_length_a   2.95968279
_cell_length_b   5.32115097
_cell_length_c   18.48765125
_cell_angle_alpha   90.00000000
_cell_angle_beta   90.00000000
_cell_angle_gamma   106.13914260
_symmetry_Int_Tables_number   1
_chemical_formula_structural   V5ZnO7
_chemical_formula_sum   'V10 Zn2 O14'
_cell_volume   279.68573270
_cell_formula_units_Z   2
loop_
 _symmetry_equiv_pos_site_id
 _symmetry_equiv_pos_as_xyz
  1  'x, y, z'
loop_
 _atom_site_type_symbol
 _atom_site_label
 _atom_site_symmetry_multiplicity
 _atom_site_fract_x
 _atom_site_fract_y
 _atom_site_fract_z
 _atom_site_occupancy
  V  V0  1  0.273140  0.546300  0.577529  1
  V  V1  1  0.463271  0.926343  0.155553  1
  V  V2  1  -0.000000  -0.000000  0.500000  1
  V  V3  1  -0.000000  -0.000000  -0.000000  1
  V  V4  1  0.536729  0.073656  0.844448  1
  V  V5  1  0.726860  0.453699  0.422471  1
  V  V6  1  0.726860  0.453699  0.077529  1
  V  V7  1  0.273140  0.546300  0.922471  1
  V  V8  1  0.536729  0.073656  0.655552  1
  V  V9  1  0.463271  0.926343  0.344448  1
  Zn  Zn10  1  0.791626  0.582960  0.750000  1
  Zn  Zn11  1  0.208375  0.417039  0.250000  1
  O  O12  1  0.638015  0.276007  0.964215  1
  O  O13  1  0.361986  0.723994  0.035785  1
  O  O14  1  0.361986  0.723994  0.464215  1
  O  O15  1  0.638015  0.276007  0.535785  1
  O  O16  1  0.172495  0.345328  0.824998  1
  O  O17  1  0.827505  0.654672  0.175002  1
  O  O18  1  0.827505  0.654672  0.324999  1
  O  O19  1  0.172495  0.345328  0.675002  1
  O  O20  1  0.916872  0.833860  0.894602  1
  O  O21  1  0.083128  0.166140  0.105398  1
  O  O22  1  0.083128  0.166140  0.394602  1
  O  O23  1  0.916872  0.833860  0.605398  1
  O  O24  1  0.429202  0.858304  0.750000  1
  O  O25  1  0.570799  0.141698  0.250000  1
