# generated using pymatgen
data_CaTiNiP2O9
_symmetry_space_group_name_H-M   'P 1'
_cell_length_a   6.49133954
_cell_length_b   7.51922163
_cell_length_c   14.28101011
_cell_angle_alpha   90.00001194
_cell_angle_beta   90.00002020
_cell_angle_gamma   90.00002004
_symmetry_Int_Tables_number   1
_chemical_formula_structural   CaTiNiP2O9
_chemical_formula_sum   'Ca4 Ti4 Ni4 P8 O36'
_cell_volume   697.05354255
_cell_formula_units_Z   4
loop_
 _symmetry_equiv_pos_site_id
 _symmetry_equiv_pos_as_xyz
  1  'x, y, z'
loop_
 _atom_site_type_symbol
 _atom_site_label
 _atom_site_symmetry_multiplicity
 _atom_site_fract_x
 _atom_site_fract_y
 _atom_site_fract_z
 _atom_site_occupancy
  Ca  Ca0  1  0.750001  0.882182  0.780889  1
  Ca  Ca1  1  0.750001  0.617819  0.280889  1
  Ca  Ca2  1  0.249999  0.117819  0.219111  1
  Ca  Ca3  1  0.250000  0.382180  0.719111  1
  Ti  Ti4  1  0.750000  0.344469  0.883311  1
  Ti  Ti5  1  0.250000  0.655532  0.116689  1
  Ti  Ti6  1  0.250000  0.844469  0.616688  1
  Ti  Ti7  1  0.750000  0.155532  0.383311  1
  Ni  Ni8  1  0.500000  0.000001  0.000001  1
  Ni  Ni9  1  0.500000  0.500001  0.500001  1
  Ni  Ni10  1  0.000001  0.500000  0.500000  1
  Ni  Ni11  1  0.000001  0.000003  0.000000  1
  P  P12  1  0.250000  0.350215  0.937594  1
  P  P13  1  0.750000  0.649785  0.062406  1
  P  P14  1  0.750000  0.850215  0.562406  1
  P  P15  1  0.250000  0.149786  0.437593  1
  P  P16  1  0.750000  0.391432  0.691671  1
  P  P17  1  0.250000  0.608567  0.308330  1
  P  P18  1  0.250000  0.891432  0.808329  1
  P  P19  1  0.750000  0.108567  0.191671  1
  O  O20  1  0.051887  0.606830  0.367762  1
  O  O21  1  0.551887  0.393169  0.632238  1
  O  O22  1  0.948113  0.106830  0.132238  1
  O  O23  1  0.448113  0.893170  0.867762  1
  O  O24  1  0.948113  0.393169  0.632238  1
  O  O25  1  0.448113  0.606830  0.367762  1
  O  O26  1  0.051887  0.893169  0.867762  1
  O  O27  1  0.551886  0.106829  0.132238  1
  O  O28  1  0.250000  0.332992  0.484790  1
  O  O29  1  0.750000  0.667008  0.515210  1
  O  O30  1  0.750000  0.832992  0.015210  1
  O  O31  1  0.250000  0.167008  0.984790  1
  O  O32  1  0.750000  0.141099  0.941847  1
  O  O33  1  0.250000  0.858901  0.058152  1
  O  O34  1  0.250000  0.641100  0.558153  1
  O  O35  1  0.750000  0.358902  0.441848  1
  O  O36  1  0.750000  0.219659  0.755907  1
  O  O37  1  0.250000  0.780341  0.244093  1
  O  O38  1  0.250000  0.719658  0.744092  1
  O  O39  1  0.750000  0.280341  0.255908  1
  O  O40  1  0.438259  0.129878  0.370946  1
  O  O41  1  0.938258  0.870121  0.629053  1
  O  O42  1  0.561742  0.629878  0.129053  1
  O  O43  1  0.061741  0.370121  0.870947  1
  O  O44  1  0.561741  0.870122  0.629053  1
  O  O45  1  0.061741  0.129879  0.370947  1
  O  O46  1  0.438258  0.370121  0.870947  1
  O  O47  1  0.938259  0.629878  0.129053  1
  O  O48  1  0.750000  0.957901  0.267278  1
  O  O49  1  0.249999  0.042098  0.732721  1
  O  O50  1  0.250000  0.457901  0.232722  1
  O  O51  1  0.750000  0.542099  0.767278  1
  O  O52  1  0.750000  0.994046  0.486578  1
  O  O53  1  0.250000  0.005955  0.513421  1
  O  O54  1  0.250000  0.494046  0.013422  1
  O  O55  1  0.750000  0.505953  0.986579  1
