# generated using pymatgen
data_TiZn(SiO3)2
_symmetry_space_group_name_H-M   'P 1'
_cell_length_a   5.29055580
_cell_length_b   9.12206360
_cell_length_c   18.64210147
_cell_angle_alpha   90.00386292
_cell_angle_beta   90.00000000
_cell_angle_gamma   90.00000000
_symmetry_Int_Tables_number   1
_chemical_formula_structural   TiZn(SiO3)2
_chemical_formula_sum   'Ti8 Zn8 Si16 O48'
_cell_volume   899.68247622
_cell_formula_units_Z   8
loop_
 _symmetry_equiv_pos_site_id
 _symmetry_equiv_pos_as_xyz
  1  'x, y, z'
loop_
 _atom_site_type_symbol
 _atom_site_label
 _atom_site_symmetry_multiplicity
 _atom_site_fract_x
 _atom_site_fract_y
 _atom_site_fract_z
 _atom_site_occupancy
  Ti  Ti0  1  0.346325  0.976127  0.121217  1
  Ti  Ti1  1  0.653685  0.023875  0.878799  1
  Ti  Ti2  1  0.846315  0.023875  0.378799  1
  Ti  Ti3  1  0.153675  0.976127  0.621217  1
  Ti  Ti4  1  0.346545  0.476253  0.378849  1
  Ti  Ti5  1  0.653439  0.523727  0.621157  1
  Ti  Ti6  1  0.846561  0.523727  0.121157  1
  Ti  Ti7  1  0.153455  0.476253  0.878849  1
  Zn  Zn8  1  0.635841  0.151395  0.624269  1
  Zn  Zn9  1  0.364136  0.848600  0.375726  1
  Zn  Zn10  1  0.635930  0.651492  0.875729  1
  Zn  Zn11  1  0.135864  0.848600  0.875726  1
  Zn  Zn12  1  0.864159  0.151395  0.124269  1
  Zn  Zn13  1  0.364080  0.348508  0.124272  1
  Zn  Zn14  1  0.135920  0.348508  0.624272  1
  Zn  Zn15  1  0.864070  0.651492  0.375729  1
  Si  Si16  1  0.536496  0.659803  0.231602  1
  Si  Si17  1  0.695538  0.834823  0.526809  1
  Si  Si18  1  0.804462  0.834823  0.026809  1
  Si  Si19  1  0.963587  0.159773  0.768366  1
  Si  Si20  1  0.036511  0.340200  0.268409  1
  Si  Si21  1  0.463583  0.840202  0.731638  1
  Si  Si22  1  0.195468  0.665231  0.526799  1
  Si  Si23  1  0.695529  0.334798  0.973187  1
  Si  Si24  1  0.804471  0.334798  0.473187  1
  Si  Si25  1  0.963504  0.659803  0.731602  1
  Si  Si26  1  0.463489  0.340200  0.768409  1
  Si  Si27  1  0.536413  0.159773  0.268366  1
  Si  Si28  1  0.304414  0.165178  0.473185  1
  Si  Si29  1  0.036417  0.840202  0.231638  1
  Si  Si30  1  0.304532  0.665231  0.026799  1
  Si  Si31  1  0.195586  0.165178  0.973185  1
  O  O32  1  0.958886  0.501195  0.692751  1
  O  O33  1  0.300225  0.020855  0.932889  1
  O  O34  1  0.041097  0.498782  0.307245  1
  O  O35  1  0.701517  0.338700  0.061194  1
  O  O36  1  0.201617  0.161416  0.061211  1
  O  O37  1  0.891721  0.196376  0.947769  1
  O  O38  1  0.973924  0.659965  0.819361  1
  O  O39  1  0.026024  0.839957  0.319366  1
  O  O40  1  0.701567  0.838612  0.438789  1
  O  O41  1  0.973955  0.160046  0.680623  1
  O  O42  1  0.458903  0.498782  0.807245  1
  O  O43  1  0.798483  0.338700  0.561194  1
  O  O44  1  0.699784  0.979162  0.067107  1
  O  O45  1  0.473976  0.839957  0.819366  1
  O  O46  1  0.540898  0.001161  0.307224  1
  O  O47  1  0.300307  0.520915  0.567146  1
  O  O48  1  0.459085  0.998846  0.692762  1
  O  O49  1  0.190151  0.769546  0.700763  1
  O  O50  1  0.309849  0.769546  0.200763  1
  O  O51  1  0.608395  0.696327  0.052230  1
  O  O52  1  0.798433  0.838612  0.938789  1
  O  O53  1  0.526076  0.659965  0.319361  1
  O  O54  1  0.800357  0.479100  0.932866  1
  O  O55  1  0.190084  0.269595  0.799245  1
  O  O56  1  0.298383  0.161416  0.561211  1
  O  O57  1  0.526045  0.160046  0.180623  1
  O  O58  1  0.699643  0.479100  0.432866  1
  O  O59  1  0.201474  0.661268  0.438804  1
  O  O60  1  0.199693  0.520915  0.067146  1
  O  O61  1  0.690115  0.730405  0.700755  1
  O  O62  1  0.040915  0.998846  0.192762  1
  O  O63  1  0.809885  0.730405  0.200755  1
  O  O64  1  0.809862  0.230435  0.299230  1
  O  O65  1  0.800216  0.979162  0.567107  1
  O  O66  1  0.298526  0.661268  0.938804  1
  O  O67  1  0.199775  0.020855  0.432889  1
  O  O68  1  0.309916  0.269595  0.299245  1
  O  O69  1  0.108301  0.803627  0.052239  1
  O  O70  1  0.391699  0.803627  0.552239  1
  O  O71  1  0.690138  0.230435  0.799230  1
  O  O72  1  0.391625  0.303694  0.947778  1
  O  O73  1  0.608279  0.196376  0.447769  1
  O  O74  1  0.108375  0.303694  0.447778  1
  O  O75  1  0.473910  0.340026  0.680640  1
  O  O76  1  0.541114  0.501195  0.192751  1
  O  O77  1  0.891605  0.696327  0.552230  1
  O  O78  1  0.026090  0.340026  0.180640  1
  O  O79  1  0.959102  0.001161  0.807224  1
