# generated using pymatgen
data_AlNiO3
_symmetry_space_group_name_H-M   'P 1'
_cell_length_a   4.56356278
_cell_length_b   4.88114764
_cell_length_c   8.00440327
_cell_angle_alpha   89.98368350
_cell_angle_beta   90.00054480
_cell_angle_gamma   90.00336256
_symmetry_Int_Tables_number   1
_chemical_formula_structural   AlNiO3
_chemical_formula_sum   'Al4 Ni4 O12'
_cell_volume   178.30146666
_cell_formula_units_Z   4
loop_
 _symmetry_equiv_pos_site_id
 _symmetry_equiv_pos_as_xyz
  1  'x, y, z'
loop_
 _atom_site_type_symbol
 _atom_site_label
 _atom_site_symmetry_multiplicity
 _atom_site_fract_x
 _atom_site_fract_y
 _atom_site_fract_z
 _atom_site_occupancy
  Al  Al0  1  0.031953  0.932921  0.750110  1
  Al  Al1  1  0.531952  0.567100  0.249950  1
  Al  Al2  1  0.468019  0.432890  0.750051  1
  Al  Al3  1  0.968029  0.067085  0.249886  1
  Ni  Ni4  1  0.000084  0.499840  0.500050  1
  Ni  Ni5  1  0.500092  0.000018  0.499972  1
  Ni  Ni6  1  0.499995  0.000073  0.999997  1
  Ni  Ni7  1  0.000048  0.500071  -0.000017  1
  O  O8  1  0.703410  0.291663  0.403207  1
  O  O9  1  0.203477  0.208284  0.596905  1
  O  O10  1  0.796612  0.791667  0.096792  1
  O  O11  1  0.296536  0.708309  0.903084  1
  O  O12  1  0.296562  0.708296  0.596797  1
  O  O13  1  0.796484  0.791744  0.403092  1
  O  O14  1  0.203354  0.208350  0.903210  1
  O  O15  1  0.703419  0.291696  0.096912  1
  O  O16  1  0.171797  0.403699  0.250072  1
  O  O17  1  0.671771  0.096297  0.750269  1
  O  O18  1  0.328219  0.903699  0.249731  1
  O  O19  1  0.828188  0.596299  0.749928  1
