# generated using pymatgen
data_YV3Se2ClO8
_symmetry_space_group_name_H-M   'P 1'
_cell_length_a   6.68630590
_cell_length_b   7.24622869
_cell_length_c   9.74425625
_cell_angle_alpha   89.78623553
_cell_angle_beta   89.70862614
_cell_angle_gamma   89.92128817
_symmetry_Int_Tables_number   1
_chemical_formula_structural   YV3Se2ClO8
_chemical_formula_sum   'Y2 V6 Se4 Cl2 O16'
_cell_volume   472.10427958
_cell_formula_units_Z   2
loop_
 _symmetry_equiv_pos_site_id
 _symmetry_equiv_pos_as_xyz
  1  'x, y, z'
loop_
 _atom_site_type_symbol
 _atom_site_label
 _atom_site_symmetry_multiplicity
 _atom_site_fract_x
 _atom_site_fract_y
 _atom_site_fract_z
 _atom_site_occupancy
  Y  Y0  1  0.249654  0.269035  0.250688  1
  Y  Y1  1  0.750290  0.730927  0.749361  1
  V  V2  1  0.500063  0.999910  0.000119  1
  V  V3  1  0.500094  0.000029  0.500026  1
  V  V4  1  0.000050  -0.000005  0.999894  1
  V  V5  1  0.747376  0.201011  0.750835  1
  V  V6  1  0.253046  0.798892  0.249163  1
  V  V7  1  0.000229  0.000265  0.500246  1
  Se  Se8  1  0.749405  0.411058  0.064791  1
  Se  Se9  1  0.250557  0.588842  0.935221  1
  Se  Se10  1  0.750209  0.413112  0.436231  1
  Se  Se11  1  0.249772  0.587000  0.563734  1
  Cl  Cl12  1  0.249224  0.118825  0.742183  1
  Cl  Cl13  1  0.750384  0.881200  0.257571  1
  O  O14  1  0.249706  0.014539  0.116403  1
  O  O15  1  0.251808  0.569394  0.113795  1
  O  O16  1  0.754663  0.426155  0.615277  1
  O  O17  1  0.545122  0.265194  0.091085  1
  O  O18  1  0.454795  0.730014  0.589434  1
  O  O19  1  0.045631  0.731974  0.590800  1
  O  O20  1  0.750149  0.985302  0.883714  1
  O  O21  1  0.954954  0.267043  0.090221  1
  O  O22  1  0.954417  0.268120  0.409217  1
  O  O23  1  0.045015  0.732886  0.909718  1
  O  O24  1  0.250443  0.017586  0.381155  1
  O  O25  1  0.749619  0.982407  0.618890  1
  O  O26  1  0.454821  0.734750  0.908932  1
  O  O27  1  0.545171  0.270054  0.410541  1
  O  O28  1  0.747979  0.430438  0.886154  1
  O  O29  1  0.245353  0.574039  0.384599  1
