# generated using pymatgen
data_Ca2TiWO6
_symmetry_space_group_name_H-M   'P 1'
_cell_length_a   5.67657349
_cell_length_b   5.74858854
_cell_length_c   7.94578554
_cell_angle_alpha   89.06312490
_cell_angle_beta   135.08567866
_cell_angle_gamma   121.38400565
_symmetry_Int_Tables_number   1
_chemical_formula_structural   Ca2TiWO6
_chemical_formula_sum   'Ca2 Ti1 W1 O6'
_cell_volume   126.78538290
_cell_formula_units_Z   1
loop_
 _symmetry_equiv_pos_site_id
 _symmetry_equiv_pos_as_xyz
  1  'x, y, z'
loop_
 _atom_site_type_symbol
 _atom_site_label
 _atom_site_symmetry_multiplicity
 _atom_site_fract_x
 _atom_site_fract_y
 _atom_site_fract_z
 _atom_site_occupancy
  Ca  Ca0  1  0.008459  0.536082  0.256313  1
  Ca  Ca1  1  0.994358  0.524443  0.749908  1
  Ti  Ti2  1  0.001482  0.984353  0.501994  1
  W  W3  1  0.000695  0.981567  0.001540  1
  O  O4  1  0.002530  0.975997  0.257974  1
  O  O5  1  0.997839  0.951770  0.745680  1
  O  O6  1  0.518836  0.487851  0.257295  1
  O  O7  1  0.478975  0.967843  0.736485  1
  O  O8  1  0.495601  0.959187  0.253048  1
  O  O9  1  0.510658  0.466498  0.760087  1
