# generated using pymatgen
data_Ba2AlTlCr2O7
_symmetry_space_group_name_H-M   'P 1'
_cell_length_a   3.83181817
_cell_length_b   3.83184053
_cell_length_c   13.28359872
_cell_angle_alpha   89.98893839
_cell_angle_beta   90.00513323
_cell_angle_gamma   90.01368426
_symmetry_Int_Tables_number   1
_chemical_formula_structural   Ba2AlTlCr2O7
_chemical_formula_sum   'Ba2 Al1 Tl1 Cr2 O7'
_cell_volume   195.04195617
_cell_formula_units_Z   1
loop_
 _symmetry_equiv_pos_site_id
 _symmetry_equiv_pos_as_xyz
  1  'x, y, z'
loop_
 _atom_site_type_symbol
 _atom_site_label
 _atom_site_symmetry_multiplicity
 _atom_site_fract_x
 _atom_site_fract_y
 _atom_site_fract_z
 _atom_site_occupancy
  Ba  Ba0  1  0.500009  0.499994  0.198456  1
  Ba  Ba1  1  0.500002  0.500007  0.801536  1
  Al  Al2  1  0.500352  0.499798  0.500000  1
  Tl  Tl3  1  0.000021  0.000006  0.000025  1
  Cr  Cr4  1  0.000015  0.999961  0.371116  1
  Cr  Cr5  1  0.999967  0.000053  0.628857  1
  O  O6  1  0.000008  0.999991  0.224926  1
  O  O7  1  0.999896  0.499921  0.406464  1
  O  O8  1  0.500035  0.999947  0.406466  1
  O  O9  1  0.499940  0.000235  0.593542  1
  O  O10  1  0.499997  0.499979  0.999997  1
  O  O11  1  0.999752  0.500100  0.593539  1
  O  O12  1  0.000003  0.000008  0.775077  1
