# generated using pymatgen
data_CaPr(MoO3)2
_symmetry_space_group_name_H-M   'P 1'
_cell_length_a   5.59928590
_cell_length_b   5.89726662
_cell_length_c   8.01614484
_cell_angle_alpha   90.01598015
_cell_angle_beta   89.55259093
_cell_angle_gamma   89.96396736
_symmetry_Int_Tables_number   1
_chemical_formula_structural   CaPr(MoO3)2
_chemical_formula_sum   'Ca2 Pr2 Mo4 O12'
_cell_volume   264.68883233
_cell_formula_units_Z   2
loop_
 _symmetry_equiv_pos_site_id
 _symmetry_equiv_pos_as_xyz
  1  'x, y, z'
loop_
 _atom_site_type_symbol
 _atom_site_label
 _atom_site_symmetry_multiplicity
 _atom_site_fract_x
 _atom_site_fract_y
 _atom_site_fract_z
 _atom_site_occupancy
  Ca  Ca0  1  0.482605  0.444565  0.750632  1
  Ca  Ca1  1  0.982559  0.055681  0.250711  1
  Pr  Pr2  1  0.018999  0.941901  0.749410  1
  Pr  Pr3  1  0.519005  0.557884  0.249517  1
  Mo  Mo4  1  0.999991  0.496518  0.999445  1
  Mo  Mo5  1  0.000550  0.498288  0.500566  1
  Mo  Mo6  1  0.500062  0.003463  0.499360  1
  Mo  Mo7  1  0.500520  0.001661  0.000444  1
  O  O8  1  0.109641  0.452106  0.242869  1
  O  O9  1  0.194398  0.201429  0.937493  1
  O  O10  1  0.203994  0.196519  0.552140  1
  O  O11  1  0.304909  0.704320  0.562431  1
  O  O12  1  0.294371  0.695899  0.947264  1
  O  O13  1  0.390159  0.955778  0.257257  1
  O  O14  1  0.609137  0.047930  0.742777  1
  O  O15  1  0.704538  0.302858  0.052548  1
  O  O16  1  0.694716  0.298571  0.437459  1
  O  O17  1  0.805056  0.795589  0.062515  1
  O  O18  1  0.795191  0.804716  0.447760  1
  O  O19  1  0.889596  0.544323  0.757401  1
