# generated using pymatgen
data_ScMo3O8
_symmetry_space_group_name_H-M   'P 1'
_cell_length_a   5.86103847
_cell_length_b   5.86103856
_cell_length_c   10.21313556
_cell_angle_alpha   90.00000000
_cell_angle_beta   90.00000000
_cell_angle_gamma   119.99999941
_symmetry_Int_Tables_number   1
_chemical_formula_structural   ScMo3O8
_chemical_formula_sum   'Sc2 Mo6 O16'
_cell_volume   303.83575631
_cell_formula_units_Z   2
loop_
 _symmetry_equiv_pos_site_id
 _symmetry_equiv_pos_as_xyz
  1  'x, y, z'
loop_
 _atom_site_type_symbol
 _atom_site_label
 _atom_site_symmetry_multiplicity
 _atom_site_fract_x
 _atom_site_fract_y
 _atom_site_fract_z
 _atom_site_occupancy
  Sc  Sc0  1  0.666667  0.333333  0.006351  1
  Sc  Sc1  1  0.333333  0.666667  0.506351  1
  Mo  Mo2  1  0.302289  0.151145  0.750901  1
  Mo  Mo3  1  0.151145  0.848855  0.250901  1
  Mo  Mo4  1  0.848855  0.697711  0.750901  1
  Mo  Mo5  1  0.151145  0.302289  0.250901  1
  Mo  Mo6  1  0.697711  0.848855  0.250901  1
  Mo  Mo7  1  0.848855  0.151145  0.750901  1
  O  O8  1  0.831388  0.168612  0.136063  1
  O  O9  1  0.662775  0.831388  0.636063  1
  O  O10  1  0.168612  0.337225  0.636063  1
  O  O11  1  0.831388  0.662775  0.136063  1
  O  O12  1  0.337225  0.168612  0.136063  1
  O  O13  1  0.168612  0.831388  0.636063  1
  O  O14  1  0.515682  0.484318  0.860597  1
  O  O15  1  0.031363  0.515682  0.360597  1
  O  O16  1  0.484318  0.968637  0.360597  1
  O  O17  1  0.515682  0.031363  0.860597  1
  O  O18  1  0.000000  0.000000  0.388535  1
  O  O19  1  0.000000  0.000000  0.888535  1
  O  O20  1  0.333333  0.666667  0.154439  1
  O  O21  1  0.666667  0.333333  0.654439  1
  O  O22  1  0.484318  0.515682  0.360597  1
  O  O23  1  0.968637  0.484318  0.860597  1
