# generated using pymatgen
data_V4ZnO10
_symmetry_space_group_name_H-M   'P 1'
_cell_length_a   3.64744616
_cell_length_b   5.43997785
_cell_length_c   11.48533499
_cell_angle_alpha   90.00000000
_cell_angle_beta   90.00000000
_cell_angle_gamma   109.58740570
_symmetry_Int_Tables_number   1
_chemical_formula_structural   V4ZnO10
_chemical_formula_sum   'V4 Zn1 O10'
_cell_volume   214.70445659
_cell_formula_units_Z   1
loop_
 _symmetry_equiv_pos_site_id
 _symmetry_equiv_pos_as_xyz
  1  'x, y, z'
loop_
 _atom_site_type_symbol
 _atom_site_label
 _atom_site_symmetry_multiplicity
 _atom_site_fract_x
 _atom_site_fract_y
 _atom_site_fract_z
 _atom_site_occupancy
  V  V0  1  0.201400  0.402800  0.598889  1
  V  V1  1  0.790202  0.580403  0.397058  1
  V  V2  1  0.790202  0.580403  0.102942  1
  V  V3  1  0.201400  0.402800  0.901111  1
  Zn  Zn4  1  0.899759  0.799516  0.750000  1
  O  O5  1  0.725495  0.450990  0.250000  1
  O  O6  1  0.303005  0.606010  0.750000  1
  O  O7  1  0.242412  0.484821  0.069918  1
  O  O8  1  0.762958  0.525915  0.927106  1
  O  O9  1  0.762958  0.525915  0.572894  1
  O  O10  1  0.242412  0.484821  0.430081  1
  O  O11  1  0.041754  0.083508  0.629361  1
  O  O12  1  0.945465  0.890930  0.378939  1
  O  O13  1  0.041754  0.083508  0.870639  1
  O  O14  1  0.945465  0.890930  0.121062  1
