# generated using pymatgen
data_Ge2BiO6
_symmetry_space_group_name_H-M   'P 1'
_cell_length_a   5.74338249
_cell_length_b   7.16425885
_cell_length_c   7.16426007
_cell_angle_alpha   85.13043190
_cell_angle_beta   76.53193309
_cell_angle_gamma   76.53193034
_symmetry_Int_Tables_number   1
_chemical_formula_structural   Ge2BiO6
_chemical_formula_sum   'Ge4 Bi2 O12'
_cell_volume   278.65148791
_cell_formula_units_Z   2
loop_
 _symmetry_equiv_pos_site_id
 _symmetry_equiv_pos_as_xyz
  1  'x, y, z'
loop_
 _atom_site_type_symbol
 _atom_site_label
 _atom_site_symmetry_multiplicity
 _atom_site_fract_x
 _atom_site_fract_y
 _atom_site_fract_z
 _atom_site_occupancy
  Ge  Ge0  1  0.749651  0.375751  0.218677  1
  Ge  Ge1  1  0.750349  0.781323  0.624249  1
  Ge  Ge2  1  0.250349  0.624249  0.781323  1
  Ge  Ge3  1  0.249651  0.218677  0.375751  1
  Bi  Bi4  1  0.750000  0.876496  0.123504  1
  Bi  Bi5  1  0.250000  0.123504  0.876496  1
  O  O6  1  0.488825  0.332690  0.388546  1
  O  O7  1  0.011175  0.611454  0.667310  1
  O  O8  1  0.511175  0.667310  0.611454  1
  O  O9  1  0.988825  0.388546  0.332690  1
  O  O10  1  0.183613  0.092957  0.595288  1
  O  O11  1  0.316387  0.404713  0.907043  1
  O  O12  1  0.816387  0.907043  0.404713  1
  O  O13  1  0.683613  0.595288  0.092957  1
  O  O14  1  0.860788  0.177548  0.055908  1
  O  O15  1  0.639212  0.944092  0.822452  1
  O  O16  1  0.139212  0.822452  0.944092  1
  O  O17  1  0.360788  0.055908  0.177548  1
