# generated using pymatgen
data_Ca2Sn3O8
_symmetry_space_group_name_H-M   'P 1'
_cell_length_a   6.48343781
_cell_length_b   6.48343752
_cell_length_c   10.53257830
_cell_angle_alpha   90.00000000
_cell_angle_beta   90.00000000
_cell_angle_gamma   120.00000145
_symmetry_Int_Tables_number   1
_chemical_formula_structural   Ca2Sn3O8
_chemical_formula_sum   'Ca4 Sn6 O16'
_cell_volume   383.42109291
_cell_formula_units_Z   2
loop_
 _symmetry_equiv_pos_site_id
 _symmetry_equiv_pos_as_xyz
  1  'x, y, z'
loop_
 _atom_site_type_symbol
 _atom_site_label
 _atom_site_symmetry_multiplicity
 _atom_site_fract_x
 _atom_site_fract_y
 _atom_site_fract_z
 _atom_site_occupancy
  Ca  Ca0  1  0.666667  0.333334  0.030723  1
  Ca  Ca1  1  0.333333  0.666666  0.530724  1
  Ca  Ca2  1  0.666667  0.333334  0.408719  1
  Ca  Ca3  1  0.333333  0.666666  0.908720  1
  Sn  Sn4  1  0.670598  0.835299  0.245642  1
  Sn  Sn5  1  0.835300  0.164702  0.745642  1
  Sn  Sn6  1  0.164702  0.329403  0.245642  1
  Sn  Sn7  1  0.835298  0.670598  0.745642  1
  Sn  Sn8  1  0.329403  0.164702  0.745642  1
  Sn  Sn9  1  0.164702  0.835299  0.245642  1
  O  O10  1  0.837019  0.162982  0.154014  1
  O  O11  1  0.674037  0.837019  0.654013  1
  O  O12  1  0.162982  0.325964  0.654013  1
  O  O13  1  0.837018  0.674037  0.154014  1
  O  O14  1  0.325964  0.162982  0.154014  1
  O  O15  1  0.162982  0.837019  0.654013  1
  O  O16  1  0.524129  0.475870  0.856484  1
  O  O17  1  0.048259  0.524129  0.356483  1
  O  O18  1  0.475871  0.951742  0.356483  1
  O  O19  1  0.524129  0.048259  0.856484  1
  O  O20  1  0.000000  0.000000  0.350244  1
  O  O21  1  0.000000  0.000000  0.850244  1
  O  O22  1  0.333333  0.666666  0.135397  1
  O  O23  1  0.951740  0.475870  0.856484  1
  O  O24  1  0.475870  0.524129  0.356483  1
  O  O25  1  0.666667  0.333334  0.635397  1
