# generated using pymatgen
data_Ca3Fe4(WO4)6
_symmetry_space_group_name_H-M   'P 1'
_cell_length_a   7.36493721
_cell_length_b   8.73102369
_cell_length_c   10.59044625
_cell_angle_alpha   105.03885666
_cell_angle_beta   106.04622987
_cell_angle_gamma   103.56810525
_symmetry_Int_Tables_number   1
_chemical_formula_structural   Ca3Fe4(WO4)6
_chemical_formula_sum   'Ca3 Fe4 W6 O24'
_cell_volume   596.63693251
_cell_formula_units_Z   1
loop_
 _symmetry_equiv_pos_site_id
 _symmetry_equiv_pos_as_xyz
  1  'x, y, z'
loop_
 _atom_site_type_symbol
 _atom_site_label
 _atom_site_symmetry_multiplicity
 _atom_site_fract_x
 _atom_site_fract_y
 _atom_site_fract_z
 _atom_site_occupancy
  Ca  Ca0  1  0.000000  0.500000  0.500000  1
  Ca  Ca1  1  0.291650  0.299151  0.793199  1
  Ca  Ca2  1  0.708350  0.700849  0.206801  1
  Fe  Fe3  1  0.376228  0.960362  0.600908  1
  Fe  Fe4  1  0.623772  0.039638  0.399092  1
  Fe  Fe5  1  0.045273  0.215808  0.017387  1
  Fe  Fe6  1  0.954727  0.784192  0.982613  1
  W  W7  1  0.781742  0.332316  0.729786  1
  W  W8  1  0.218258  0.667684  0.270214  1
  W  W9  1  0.893930  0.913261  0.673722  1
  W  W10  1  0.391952  0.741112  0.866828  1
  W  W11  1  0.106070  0.086739  0.326278  1
  W  W12  1  0.608048  0.258888  0.133172  1
  O  O13  1  0.856127  0.696952  0.585488  1
  O  O14  1  0.143873  0.303048  0.414512  1
  O  O15  1  0.246169  0.530938  0.734533  1
  O  O16  1  0.753831  0.469062  0.265467  1
  O  O17  1  0.786667  0.282602  0.544163  1
  O  O18  1  0.213333  0.717398  0.455837  1
  O  O19  1  0.675682  0.965950  0.587285  1
  O  O20  1  0.324318  0.034050  0.412715  1
  O  O21  1  0.621069  0.732939  0.987959  1
  O  O22  1  0.378931  0.267061  0.012041  1
  O  O23  1  0.485139  0.779439  0.291720  1
  O  O24  1  0.514861  0.220561  0.708280  1
  O  O25  1  0.121677  0.024410  0.652986  1
  O  O26  1  0.070391  0.056931  0.142572  1
  O  O27  1  0.929609  0.943069  0.857428  1
  O  O28  1  0.559659  0.120584  0.227608  1
  O  O29  1  0.440341  0.879416  0.772392  1
  O  O30  1  0.172830  0.450758  0.158946  1
  O  O31  1  0.827170  0.549242  0.841054  1
  O  O32  1  0.992116  0.264898  0.826477  1
  O  O33  1  0.007884  0.735102  0.173523  1
  O  O34  1  0.239517  0.799286  0.963793  1
  O  O35  1  0.760483  0.200714  0.036207  1
  O  O36  1  0.878322  0.975590  0.347014  1
