# generated using pymatgen
data_Zn2SnWO6
_symmetry_space_group_name_H-M   'P 1'
_cell_length_a   5.53684964
_cell_length_b   5.49832789
_cell_length_c   8.37116862
_cell_angle_alpha   90.00000000
_cell_angle_beta   86.67069031
_cell_angle_gamma   90.00000000
_symmetry_Int_Tables_number   1
_chemical_formula_structural   Zn2SnWO6
_chemical_formula_sum   'Zn4 Sn2 W2 O12'
_cell_volume   254.41683808
_cell_formula_units_Z   2
loop_
 _symmetry_equiv_pos_site_id
 _symmetry_equiv_pos_as_xyz
  1  'x, y, z'
loop_
 _atom_site_type_symbol
 _atom_site_label
 _atom_site_symmetry_multiplicity
 _atom_site_fract_x
 _atom_site_fract_y
 _atom_site_fract_z
 _atom_site_occupancy
  Zn  Zn0  1  0.035072  0.016638  0.259855  1
  Zn  Zn1  1  0.464928  0.516639  0.240145  1
  Zn  Zn2  1  0.964929  0.983363  0.740145  1
  Zn  Zn3  1  0.535071  0.483362  0.759855  1
  Sn  Sn4  1  0.500000  0.000000  0.000000  1
  Sn  Sn5  1  0.000001  0.499999  0.500000  1
  W  W6  1  0.500000  0.000000  0.499999  1
  W  W7  1  0.000000  0.499999  0.000000  1
  O  O8  1  0.595589  0.304466  0.403271  1
  O  O9  1  0.904411  0.804467  0.096729  1
  O  O10  1  0.404410  0.695534  0.596729  1
  O  O11  1  0.095590  0.195533  0.903271  1
  O  O12  1  0.181728  0.125770  0.562595  1
  O  O13  1  0.318272  0.625769  0.937405  1
  O  O14  1  0.818273  0.874230  0.437405  1
  O  O15  1  0.681727  0.374231  0.062595  1
  O  O16  1  0.123197  0.368710  0.210132  1
  O  O17  1  0.376804  0.868711  0.289867  1
  O  O18  1  0.623197  0.131289  0.710133  1
  O  O19  1  0.876804  0.631290  0.789868  1
