# generated using pymatgen
data_Y2Mn2O7
_symmetry_space_group_name_H-M   'P 1'
_cell_length_a   7.10576895
_cell_length_b   7.10576898
_cell_length_c   7.10576830
_cell_angle_alpha   59.99999849
_cell_angle_beta   59.99999836
_cell_angle_gamma   59.99999632
_symmetry_Int_Tables_number   1
_chemical_formula_structural   Y2Mn2O7
_chemical_formula_sum   'Y4 Mn4 O14'
_cell_volume   253.69866811
_cell_formula_units_Z   2
loop_
 _symmetry_equiv_pos_site_id
 _symmetry_equiv_pos_as_xyz
  1  'x, y, z'
loop_
 _atom_site_type_symbol
 _atom_site_label
 _atom_site_symmetry_multiplicity
 _atom_site_fract_x
 _atom_site_fract_y
 _atom_site_fract_z
 _atom_site_occupancy
  Y  Y0  1  0.500000  0.000000  0.500000  1
  Y  Y1  1  0.000000  0.500000  0.500000  1
  Y  Y2  1  0.500000  0.500000  0.000000  1
  Y  Y3  1  0.500000  0.500000  0.500000  1
  Mn  Mn4  1  0.000000  0.500000  0.000000  1
  Mn  Mn5  1  0.500000  0.000000  0.000000  1
  Mn  Mn6  1  0.000000  0.000000  0.500000  1
  Mn  Mn7  1  0.000000  0.000000  0.000000  1
  O  O8  1  0.625000  0.625000  0.625000  1
  O  O9  1  0.375000  0.375000  0.375000  1
  O  O10  1  0.329524  0.920476  0.920476  1
  O  O11  1  0.079524  0.670476  0.670476  1
  O  O12  1  0.920476  0.329524  0.920476  1
  O  O13  1  0.920476  0.920476  0.329524  1
  O  O14  1  0.329524  0.329524  0.920476  1
  O  O15  1  0.329524  0.920476  0.329524  1
  O  O16  1  0.920476  0.329524  0.329524  1
  O  O17  1  0.670476  0.670476  0.079524  1
  O  O18  1  0.079524  0.079524  0.670476  1
  O  O19  1  0.670476  0.079524  0.079524  1
  O  O20  1  0.670476  0.079524  0.670476  1
  O  O21  1  0.079524  0.670476  0.079524  1
