# generated using pymatgen
data_Ba2V2F11
_symmetry_space_group_name_H-M   'P 1'
_cell_length_a   7.84871586
_cell_length_b   7.84871556
_cell_length_c   14.38830925
_cell_angle_alpha   90.00000000
_cell_angle_beta   90.00000000
_cell_angle_gamma   119.99999419
_symmetry_Int_Tables_number   1
_chemical_formula_structural   Ba2V2F11
_chemical_formula_sum   'Ba6 V6 F33'
_cell_volume   767.60468742
_cell_formula_units_Z   3
loop_
 _symmetry_equiv_pos_site_id
 _symmetry_equiv_pos_as_xyz
  1  'x, y, z'
loop_
 _atom_site_type_symbol
 _atom_site_label
 _atom_site_symmetry_multiplicity
 _atom_site_fract_x
 _atom_site_fract_y
 _atom_site_fract_z
 _atom_site_occupancy
  Ba  Ba0  1  0.584672  0.171098  0.655719  1
  Ba  Ba1  1  0.154386  0.459176  0.809668  1
  Ba  Ba2  1  0.586426  0.415328  0.989052  1
  Ba  Ba3  1  0.540824  0.695207  0.476334  1
  Ba  Ba4  1  0.304793  0.845614  0.143001  1
  Ba  Ba5  1  0.828902  0.413574  0.322385  1
  V  V6  1  0.634404  0.973419  0.886569  1
  V  V7  1  0.847067  0.774641  0.727298  1
  V  V8  1  0.225359  0.072427  0.393964  1
  V  V9  1  0.339016  0.365596  0.219902  1
  V  V10  1  0.927573  0.152933  0.060631  1
  V  V11  1  0.026581  0.660984  0.553235  1
  F  F12  1  0.657048  0.060678  0.028177  1
  F  F13  1  0.515810  0.716915  0.940870  1
  F  F14  1  0.403631  0.342952  0.361510  1
  F  F15  1  0.110686  0.503322  0.488575  1
  F  F16  1  0.521746  0.277483  0.182181  1
  F  F17  1  0.959496  0.605561  0.174460  1
  F  F18  1  0.496678  0.607364  0.155242  1
  F  F19  1  0.394439  0.353936  0.841127  1
  F  F20  1  0.755737  0.478254  0.515514  1
  F  F21  1  0.204209  0.286892  0.092154  1
  F  F22  1  0.392636  0.889314  0.821909  1
  F  F23  1  0.939322  0.596369  0.694844  1
  F  F24  1  0.330710  0.050667  0.009138  1
  F  F25  1  0.984157  0.397155  0.014331  1
  F  F26  1  0.719957  0.669290  0.342471  1
  F  F27  1  0.283085  0.798896  0.607536  1
  F  F28  1  0.924122  0.092892  0.922627  1
  F  F29  1  0.082682  0.795791  0.425487  1
  F  F30  1  0.016587  0.100566  0.406345  1
  F  F31  1  0.949333  0.280043  0.675804  1
  F  F32  1  0.083979  0.983413  0.739679  1
  F  F33  1  0.602845  0.587002  0.680998  1
  F  F34  1  0.412998  0.015843  0.347664  1
  F  F35  1  0.168770  0.075878  0.255960  1
  F  F36  1  0.713108  0.917318  0.758821  1
  F  F37  1  0.722516  0.244263  0.848848  1
  F  F38  1  0.201104  0.484190  0.274203  1
  F  F39  1  0.823238  0.689475  0.847954  1
  F  F40  1  0.866237  0.176762  0.181287  1
  F  F41  1  0.899434  0.916021  0.073012  1
  F  F42  1  0.646064  0.040504  0.507793  1
  F  F43  1  0.907108  0.831230  0.589293  1
  F  F44  1  0.310525  0.133763  0.514620  1
