# generated using pymatgen
data_BaYCr4O7
_symmetry_space_group_name_H-M   'P 1'
_cell_length_a   6.36294225
_cell_length_b   6.36294126
_cell_length_c   11.10094268
_cell_angle_alpha   90.00000000
_cell_angle_beta   90.00000000
_cell_angle_gamma   120.00000081
_symmetry_Int_Tables_number   1
_chemical_formula_structural   BaYCr4O7
_chemical_formula_sum   'Ba2 Y2 Cr8 O14'
_cell_volume   389.23006937
_cell_formula_units_Z   2
loop_
 _symmetry_equiv_pos_site_id
 _symmetry_equiv_pos_as_xyz
  1  'x, y, z'
loop_
 _atom_site_type_symbol
 _atom_site_label
 _atom_site_symmetry_multiplicity
 _atom_site_fract_x
 _atom_site_fract_y
 _atom_site_fract_z
 _atom_site_occupancy
  Ba  Ba0  1  0.666667  0.333333  0.472152  1
  Ba  Ba1  1  0.333333  0.666667  0.972152  1
  Y  Y2  1  0.666667  0.333333  0.879625  1
  Y  Y3  1  0.333333  0.666667  0.379625  1
  Cr  Cr4  1  0.823169  0.176832  0.182884  1
  Cr  Cr5  1  0.646337  0.823168  0.682885  1
  Cr  Cr6  1  0.176832  0.353663  0.682885  1
  Cr  Cr7  1  0.823169  0.646337  0.182884  1
  Cr  Cr8  1  0.353662  0.176832  0.182884  1
  Cr  Cr9  1  0.176832  0.823168  0.682885  1
  Cr  Cr10  1  0.000000  -0.000000  0.432862  1
  Cr  Cr11  1  0.000000  -0.000000  0.932862  1
  O  O12  1  0.839286  0.160715  0.004921  1
  O  O13  1  0.678572  0.839285  0.504920  1
  O  O14  1  0.160714  0.321427  0.504920  1
  O  O15  1  0.839287  0.678573  0.004921  1
  O  O16  1  0.321427  0.160715  0.004921  1
  O  O17  1  0.160714  0.839285  0.504920  1
  O  O18  1  0.000000  -0.000000  0.737914  1
  O  O19  1  0.000000  -0.000000  0.237915  1
  O  O20  1  0.511522  0.488480  0.282677  1
  O  O21  1  0.023041  0.511522  0.782677  1
  O  O22  1  0.488479  0.976959  0.782677  1
  O  O23  1  0.511522  0.023041  0.282677  1
  O  O24  1  0.488480  0.511522  0.782677  1
  O  O25  1  0.976959  0.488480  0.282677  1
