# generated using pymatgen
data_Ca2TaCuO6
_symmetry_space_group_name_H-M   'P 1'
_cell_length_a   5.47685809
_cell_length_b   5.70409007
_cell_length_c   7.69375722
_cell_angle_alpha   90.00000000
_cell_angle_beta   90.00000000
_cell_angle_gamma   85.50252752
_symmetry_Int_Tables_number   1
_chemical_formula_structural   Ca2TaCuO6
_chemical_formula_sum   'Ca4 Ta2 Cu2 O12'
_cell_volume   239.61665190
_cell_formula_units_Z   2
loop_
 _symmetry_equiv_pos_site_id
 _symmetry_equiv_pos_as_xyz
  1  'x, y, z'
loop_
 _atom_site_type_symbol
 _atom_site_label
 _atom_site_symmetry_multiplicity
 _atom_site_fract_x
 _atom_site_fract_y
 _atom_site_fract_z
 _atom_site_occupancy
  Ca  Ca0  1  0.021880  0.953272  0.250000  1
  Ca  Ca1  1  0.495050  0.428754  0.250000  1
  Ca  Ca2  1  0.504950  0.571246  0.750000  1
  Ca  Ca3  1  0.978120  0.046728  0.750000  1
  Ta  Ta4  1  0.000000  0.500000  0.000000  1
  Ta  Ta5  1  0.000000  0.500000  0.500000  1
  Cu  Cu6  1  0.500000  0.000000  0.000000  1
  Cu  Cu7  1  0.500000  0.000000  0.500000  1
  O  O8  1  0.796004  0.799349  0.547113  1
  O  O9  1  0.280569  0.685617  0.452881  1
  O  O10  1  0.203996  0.200651  0.452887  1
  O  O11  1  0.719431  0.314383  0.952881  1
  O  O12  1  0.096596  0.472308  0.750000  1
  O  O13  1  0.719431  0.314383  0.547119  1
  O  O14  1  0.280569  0.685617  0.047119  1
  O  O15  1  0.796004  0.799349  0.952887  1
  O  O16  1  0.595344  0.027435  0.250000  1
  O  O17  1  0.203996  0.200651  0.047113  1
  O  O18  1  0.404656  0.972565  0.750000  1
  O  O19  1  0.903404  0.527692  0.250000  1
