# generated using pymatgen
data_CoSiO4
_symmetry_space_group_name_H-M   'P 1'
_cell_length_a   9.84900808
_cell_length_b   9.84900770
_cell_length_c   9.84900781
_cell_angle_alpha   109.47122083
_cell_angle_beta   109.47122006
_cell_angle_gamma   109.47122198
_symmetry_Int_Tables_number   1
_chemical_formula_structural   CoSiO4
_chemical_formula_sum   'Co12 Si12 O48'
_cell_volume   735.45407164
_cell_formula_units_Z   12
loop_
 _symmetry_equiv_pos_site_id
 _symmetry_equiv_pos_as_xyz
  1  'x, y, z'
loop_
 _atom_site_type_symbol
 _atom_site_label
 _atom_site_symmetry_multiplicity
 _atom_site_fract_x
 _atom_site_fract_y
 _atom_site_fract_z
 _atom_site_occupancy
  Co  Co0  1  0.250000  0.875001  0.625000  1
  Co  Co1  1  0.875000  0.625000  0.250000  1
  Co  Co2  1  0.625001  0.875001  0.750001  1
  Co  Co3  1  0.875001  0.750001  0.625001  1
  Co  Co4  1  0.625000  0.250000  0.875000  1
  Co  Co5  1  0.750000  0.625000  0.875000  1
  Co  Co6  1  0.750000  0.125000  0.375000  1
  Co  Co7  1  0.125000  0.375000  0.750000  1
  Co  Co8  1  0.375000  0.125000  0.250000  1
  Co  Co9  1  0.125000  0.250000  0.375000  1
  Co  Co10  1  0.375000  0.750001  0.125000  1
  Co  Co11  1  0.250000  0.375000  0.125000  1
  Si  Si12  1  0.250000  0.125000  0.875000  1
  Si  Si13  1  0.875000  0.250000  0.125000  1
  Si  Si14  1  0.625000  0.750001  0.375000  1
  Si  Si15  1  0.250000  0.625000  0.375001  1
  Si  Si16  1  0.375000  0.625000  0.750000  1
  Si  Si17  1  0.750000  0.375000  0.625000  1
  Si  Si18  1  0.875000  0.125000  0.750000  1
  Si  Si19  1  0.125000  0.750001  0.875000  1
  Si  Si20  1  0.125000  0.875001  0.250000  1
  Si  Si21  1  0.625000  0.375000  0.250000  1
  Si  Si22  1  0.375000  0.250000  0.625000  1
  Si  Si23  1  0.750000  0.875001  0.125000  1
  O  O24  1  0.271925  0.464808  0.368101  1
  O  O25  1  0.035192  0.307117  0.903293  1
  O  O26  1  0.131899  0.596707  0.903824  1
  O  O27  1  0.228074  0.596176  0.192883  1
  O  O28  1  0.228074  0.131898  0.035191  1
  O  O29  1  0.596175  0.192882  0.228074  1
  O  O30  1  0.596706  0.192882  0.464808  1
  O  O31  1  0.192883  0.228074  0.596177  1
  O  O32  1  0.903294  0.368101  0.596176  1
  O  O33  1  0.307118  0.903824  0.271926  1
  O  O34  1  0.903824  0.271926  0.307118  1
  O  O35  1  0.035192  0.228074  0.131898  1
  O  O36  1  0.192883  0.464808  0.596707  1
  O  O37  1  0.596176  0.903294  0.368102  1
  O  O38  1  0.131898  0.035191  0.228074  1
  O  O39  1  0.464808  0.596707  0.192882  1
  O  O40  1  0.368101  0.596176  0.903293  1
  O  O41  1  0.903293  0.035191  0.307117  1
  O  O42  1  0.596706  0.903824  0.131899  1
  O  O43  1  0.096706  0.631898  0.403824  1
  O  O44  1  0.464808  0.368101  0.271925  1
  O  O45  1  0.368101  0.271926  0.464808  1
  O  O46  1  0.307118  0.903294  0.035192  1
  O  O47  1  0.271925  0.307117  0.903823  1
  O  O48  1  0.728074  0.535191  0.631898  1
  O  O49  1  0.964808  0.692882  0.096706  1
  O  O50  1  0.868102  0.403294  0.096176  1
  O  O51  1  0.771926  0.403824  0.807118  1
  O  O52  1  0.771925  0.868102  0.964809  1
  O  O53  1  0.403824  0.807117  0.771925  1
  O  O54  1  0.403294  0.807117  0.535191  1
  O  O55  1  0.807118  0.771926  0.403824  1
  O  O56  1  0.728074  0.692882  0.096176  1
  O  O57  1  0.692883  0.096707  0.964808  1
  O  O58  1  0.631898  0.728075  0.535192  1
  O  O59  1  0.535192  0.631898  0.728074  1
  O  O60  1  0.096176  0.868102  0.403293  1
  O  O61  1  0.403293  0.096175  0.868101  1
  O  O62  1  0.096707  0.964808  0.692882  1
  O  O63  1  0.631899  0.403824  0.096706  1
  O  O64  1  0.535192  0.403294  0.807118  1
  O  O65  1  0.868102  0.964808  0.771926  1
  O  O66  1  0.403824  0.096707  0.631899  1
  O  O67  1  0.807117  0.535191  0.403294  1
  O  O68  1  0.964808  0.771926  0.868102  1
  O  O69  1  0.096176  0.728075  0.692883  1
  O  O70  1  0.692882  0.096175  0.728074  1
  O  O71  1  0.903824  0.131898  0.596706  1
