# generated using pymatgen
data_TaAsO5
_symmetry_space_group_name_H-M   'P 1'
_cell_length_a   7.74070227
_cell_length_b   6.30291708
_cell_length_c   8.37916039
_cell_angle_alpha   89.99702357
_cell_angle_beta   89.99874844
_cell_angle_gamma   90.00109088
_symmetry_Int_Tables_number   1
_chemical_formula_structural   TaAsO5
_chemical_formula_sum   'Ta4 As4 O20'
_cell_volume   408.81089398
_cell_formula_units_Z   4
loop_
 _symmetry_equiv_pos_site_id
 _symmetry_equiv_pos_as_xyz
  1  'x, y, z'
loop_
 _atom_site_type_symbol
 _atom_site_label
 _atom_site_symmetry_multiplicity
 _atom_site_fract_x
 _atom_site_fract_y
 _atom_site_fract_z
 _atom_site_occupancy
  Ta  Ta0  1  0.997268  0.500640  0.753717  1
  Ta  Ta1  1  0.502424  0.499265  0.253590  1
  Ta  Ta2  1  0.497590  0.999182  0.246415  1
  Ta  Ta3  1  0.002776  0.000808  0.746265  1
  As  As4  1  0.614451  0.263489  0.914447  1
  As  As5  1  0.885479  0.736568  0.414535  1
  As  As6  1  0.114449  0.236460  0.085583  1
  As  As7  1  0.385643  0.763478  0.585655  1
  O  O8  1  0.885437  0.758421  0.833029  1
  O  O9  1  0.614603  0.241678  0.333002  1
  O  O10  1  0.385427  0.741680  0.167031  1
  O  O11  1  0.114505  0.258469  0.666977  1
  O  O12  1  0.830695  0.244813  0.821584  1
  O  O13  1  0.669300  0.755305  0.321560  1
  O  O14  1  0.330705  0.255253  0.178466  1
  O  O15  1  0.169276  0.744786  0.678432  1
  O  O16  1  0.461203  0.298658  0.782716  1
  O  O17  1  0.038839  0.701283  0.282856  1
  O  O18  1  0.961243  0.201006  0.217068  1
  O  O19  1  0.538681  0.798720  0.717189  1
  O  O20  1  0.604650  0.037464  0.034326  1
  O  O21  1  0.895272  0.962573  0.534357  1
  O  O22  1  0.104708  0.462571  0.965686  1
  O  O23  1  0.395338  0.537403  0.465698  1
  O  O24  1  0.638338  0.468729  0.052463  1
  O  O25  1  0.861533  0.531306  0.552511  1
  O  O26  1  0.138523  0.031371  0.947428  1
  O  O27  1  0.361584  0.968681  0.447519  1
