# generated using pymatgen
data_Sr6YTl3(Cu2O7)3
_symmetry_space_group_name_H-M   'P 1'
_cell_length_a   3.67834715
_cell_length_b   11.03246645
_cell_length_c   12.74075129
_cell_angle_alpha   90.00000000
_cell_angle_beta   90.00000000
_cell_angle_gamma   90.00000000
_symmetry_Int_Tables_number   1
_chemical_formula_structural   Sr6YTl3(Cu2O7)3
_chemical_formula_sum   'Sr6 Y1 Tl3 Cu6 O21'
_cell_volume   517.03550529
_cell_formula_units_Z   1
loop_
 _symmetry_equiv_pos_site_id
 _symmetry_equiv_pos_as_xyz
  1  'x, y, z'
loop_
 _atom_site_type_symbol
 _atom_site_label
 _atom_site_symmetry_multiplicity
 _atom_site_fract_x
 _atom_site_fract_y
 _atom_site_fract_z
 _atom_site_occupancy
  Sr  Sr0  1  0.500000  0.165963  0.792986  1
  Sr  Sr1  1  0.500000  0.500000  0.793978  1
  Sr  Sr2  1  0.500000  0.834037  0.792986  1
  Sr  Sr3  1  0.500000  0.165963  0.207014  1
  Sr  Sr4  1  0.500000  0.500000  0.206022  1
  Sr  Sr5  1  0.500000  0.834037  0.207014  1
  Y  Y6  1  0.500000  0.500000  0.500000  1
  Tl  Tl7  1  0.000000  0.000000  0.000000  1
  Tl  Tl8  1  0.000000  0.331929  0.000000  1
  Tl  Tl9  1  0.000000  0.668071  0.000000  1
  Cu  Cu10  1  0.000000  0.000000  0.610710  1
  Cu  Cu11  1  0.000000  0.319821  0.621750  1
  Cu  Cu12  1  0.000000  0.680179  0.621750  1
  Cu  Cu13  1  0.000000  0.000000  0.389290  1
  Cu  Cu14  1  0.000000  0.319821  0.378250  1
  Cu  Cu15  1  0.000000  0.680179  0.378250  1
  O  O16  1  0.500000  0.000000  0.637747  1
  O  O17  1  0.500000  0.344728  0.628514  1
  O  O18  1  0.500000  0.655272  0.628514  1
  O  O19  1  0.000000  0.159807  0.653033  1
  O  O20  1  0.000000  0.500000  0.612152  1
  O  O21  1  0.000000  0.840193  0.653033  1
  O  O22  1  0.500000  0.000000  0.362253  1
  O  O23  1  0.500000  0.344728  0.371486  1
  O  O24  1  0.500000  0.655272  0.371486  1
  O  O25  1  0.000000  0.159807  0.346967  1
  O  O26  1  0.000000  0.500000  0.387848  1
  O  O27  1  0.000000  0.840193  0.346967  1
  O  O28  1  0.000000  0.000000  0.838951  1
  O  O29  1  0.000000  0.335861  0.833513  1
  O  O30  1  0.000000  0.664139  0.833513  1
  O  O31  1  0.000000  0.000000  0.161049  1
  O  O32  1  0.000000  0.335861  0.166487  1
  O  O33  1  0.000000  0.664139  0.166487  1
  O  O34  1  0.500000  0.172803  0.000000  1
  O  O35  1  0.500000  0.500000  0.000000  1
  O  O36  1  0.500000  0.827197  0.000000  1
