# generated using pymatgen
data_Mg2Bi3O8
_symmetry_space_group_name_H-M   'P 1'
_cell_length_a   6.76714707
_cell_length_b   6.76714680
_cell_length_c   9.68006112
_cell_angle_alpha   90.00000000
_cell_angle_beta   90.00000000
_cell_angle_gamma   119.99999706
_symmetry_Int_Tables_number   1
_chemical_formula_structural   Mg2Bi3O8
_chemical_formula_sum   'Mg4 Bi6 O16'
_cell_volume   383.90163045
_cell_formula_units_Z   2
loop_
 _symmetry_equiv_pos_site_id
 _symmetry_equiv_pos_as_xyz
  1  'x, y, z'
loop_
 _atom_site_type_symbol
 _atom_site_label
 _atom_site_symmetry_multiplicity
 _atom_site_fract_x
 _atom_site_fract_y
 _atom_site_fract_z
 _atom_site_occupancy
  Mg  Mg0  1  0.666667  0.333334  0.030565  1
  Mg  Mg1  1  0.333333  0.666666  0.530566  1
  Mg  Mg2  1  0.666667  0.333334  0.401055  1
  Mg  Mg3  1  0.333333  0.666666  0.901056  1
  Bi  Bi4  1  0.667885  0.833944  0.241501  1
  Bi  Bi5  1  0.833945  0.166057  0.741501  1
  Bi  Bi6  1  0.166057  0.332116  0.241501  1
  Bi  Bi7  1  0.833943  0.667885  0.741501  1
  Bi  Bi8  1  0.332116  0.166057  0.741501  1
  Bi  Bi9  1  0.166057  0.833944  0.241501  1
  O  O10  1  0.823671  0.176330  0.142700  1
  O  O11  1  0.647341  0.823671  0.642699  1
  O  O12  1  0.176330  0.352660  0.642699  1
  O  O13  1  0.823670  0.647341  0.142700  1
  O  O14  1  0.352659  0.176330  0.142700  1
  O  O15  1  0.176330  0.823671  0.642699  1
  O  O16  1  0.516480  0.483519  0.882336  1
  O  O17  1  0.032962  0.516480  0.382335  1
  O  O18  1  0.483520  0.967039  0.382335  1
  O  O19  1  0.516480  0.032962  0.882336  1
  O  O20  1  0.000000  0.000000  0.352161  1
  O  O21  1  0.000000  0.000000  0.852161  1
  O  O22  1  0.333333  0.666666  0.110110  1
  O  O23  1  0.967037  0.483519  0.882336  1
  O  O24  1  0.483519  0.516480  0.382335  1
  O  O25  1  0.666667  0.333334  0.610110  1
