# generated using pymatgen
data_LaZn(FeO3)2
_symmetry_space_group_name_H-M   'P 1'
_cell_length_a   5.51198138
_cell_length_b   5.34674136
_cell_length_c   7.74564150
_cell_angle_alpha   89.97726927
_cell_angle_beta   90.00000000
_cell_angle_gamma   90.00000000
_symmetry_Int_Tables_number   1
_chemical_formula_structural   LaZn(FeO3)2
_chemical_formula_sum   'La2 Zn2 Fe4 O12'
_cell_volume   228.27285803
_cell_formula_units_Z   2
loop_
 _symmetry_equiv_pos_site_id
 _symmetry_equiv_pos_as_xyz
  1  'x, y, z'
loop_
 _atom_site_type_symbol
 _atom_site_label
 _atom_site_symmetry_multiplicity
 _atom_site_fract_x
 _atom_site_fract_y
 _atom_site_fract_z
 _atom_site_occupancy
  La  La0  1  0.029096  0.991365  0.249911  1
  La  La1  1  0.470904  0.491365  0.749911  1
  Zn  Zn2  1  0.521353  0.518987  0.250210  1
  Zn  Zn3  1  0.978647  0.018987  0.750210  1
  Fe  Fe4  1  0.503742  0.000398  0.499453  1
  Fe  Fe5  1  0.996258  0.500398  0.999453  1
  Fe  Fe6  1  0.503980  0.000313  0.000480  1
  Fe  Fe7  1  0.996020  0.500313  0.500480  1
  O  O8  1  0.019393  0.635015  0.750071  1
  O  O9  1  0.200641  0.195565  0.942019  1
  O  O10  1  0.200355  0.195755  0.558105  1
  O  O11  1  0.299645  0.695755  0.058105  1
  O  O12  1  0.299359  0.695565  0.442019  1
  O  O13  1  0.480607  0.135015  0.250070  1
  O  O14  1  0.531341  0.924331  0.749855  1
  O  O15  1  0.732419  0.269194  0.553368  1
  O  O16  1  0.732555  0.269076  0.946528  1
  O  O17  1  0.767445  0.769076  0.446528  1
  O  O18  1  0.767581  0.769194  0.053368  1
  O  O19  1  0.968659  0.424331  0.249855  1
