# generated using pymatgen
data_BaCuSbO5
_symmetry_space_group_name_H-M   'P 1'
_cell_length_a   3.76697948
_cell_length_b   3.76899147
_cell_length_c   9.39330980
_cell_angle_alpha   90.00004218
_cell_angle_beta   89.99996968
_cell_angle_gamma   90.06475908
_symmetry_Int_Tables_number   1
_chemical_formula_structural   BaCuSbO5
_chemical_formula_sum   'Ba1 Cu1 Sb1 O5'
_cell_volume   133.36343655
_cell_formula_units_Z   1
loop_
 _symmetry_equiv_pos_site_id
 _symmetry_equiv_pos_as_xyz
  1  'x, y, z'
loop_
 _atom_site_type_symbol
 _atom_site_label
 _atom_site_symmetry_multiplicity
 _atom_site_fract_x
 _atom_site_fract_y
 _atom_site_fract_z
 _atom_site_occupancy
  Ba  Ba0  1  0.999999  0.999999  0.031972  1
  Cu  Cu1  1  0.499999  0.500001  0.277507  1
  Sb  Sb2  1  0.499998  0.499998  0.711862  1
  O  O3  1  0.000001  0.499999  0.655827  1
  O  O4  1  0.499999  1.000000  0.656262  1
  O  O5  1  0.999999  0.499999  0.236361  1
  O  O6  1  0.499999  1.000000  0.236542  1
  O  O7  1  0.499999  0.499999  0.917584  1
