# generated using pymatgen
data_ZnSb3O7
_symmetry_space_group_name_H-M   'P 1'
_cell_length_a   5.53544298
_cell_length_b   10.47136587
_cell_length_c   10.55258827
_cell_angle_alpha   90.00000000
_cell_angle_beta   90.00000000
_cell_angle_gamma   90.00000000
_symmetry_Int_Tables_number   1
_chemical_formula_structural   ZnSb3O7
_chemical_formula_sum   'Zn4 Sb12 O28'
_cell_volume   611.66651932
_cell_formula_units_Z   4
loop_
 _symmetry_equiv_pos_site_id
 _symmetry_equiv_pos_as_xyz
  1  'x, y, z'
loop_
 _atom_site_type_symbol
 _atom_site_label
 _atom_site_symmetry_multiplicity
 _atom_site_fract_x
 _atom_site_fract_y
 _atom_site_fract_z
 _atom_site_occupancy
  Zn  Zn0  1  0.675188  0.750000  0.880846  1
  Zn  Zn1  1  0.175188  0.250000  0.619154  1
  Zn  Zn2  1  0.324812  0.250000  0.119154  1
  Zn  Zn3  1  0.824812  0.750000  0.380846  1
  Sb  Sb4  1  0.343046  0.986332  0.370162  1
  Sb  Sb5  1  0.843046  0.013668  0.129838  1
  Sb  Sb6  1  0.656954  0.486332  0.629838  1
  Sb  Sb7  1  0.156954  0.513668  0.870162  1
  Sb  Sb8  1  0.282718  0.750000  0.147889  1
  Sb  Sb9  1  0.782718  0.250000  0.352111  1
  Sb  Sb10  1  0.717282  0.250000  0.852111  1
  Sb  Sb11  1  0.217282  0.750000  0.647889  1
  Sb  Sb12  1  0.843046  0.486332  0.129838  1
  Sb  Sb13  1  0.343046  0.513668  0.370162  1
  Sb  Sb14  1  0.156954  0.986332  0.870162  1
  Sb  Sb15  1  0.656954  0.013668  0.629838  1
  O  O16  1  0.975384  0.131030  0.783872  1
  O  O17  1  0.475384  0.868970  0.716128  1
  O  O18  1  0.024616  0.631030  0.216128  1
  O  O19  1  0.524616  0.368970  0.283872  1
  O  O20  1  0.024616  0.868970  0.216128  1
  O  O21  1  0.524616  0.131030  0.283872  1
  O  O22  1  0.975384  0.368970  0.783872  1
  O  O23  1  0.475384  0.631030  0.716128  1
  O  O24  1  0.495185  0.116454  0.791089  1
  O  O25  1  0.995185  0.883546  0.708911  1
  O  O26  1  0.504815  0.616454  0.208911  1
  O  O27  1  0.004815  0.383546  0.291089  1
  O  O28  1  0.504815  0.883546  0.208911  1
  O  O29  1  0.004815  0.116454  0.291089  1
  O  O30  1  0.495185  0.383546  0.791089  1
  O  O31  1  0.995185  0.616454  0.708911  1
  O  O32  1  0.164327  0.750000  0.466570  1
  O  O33  1  0.664327  0.250000  0.033430  1
  O  O34  1  0.835673  0.250000  0.533430  1
  O  O35  1  0.335673  0.750000  0.966570  1
  O  O36  1  0.146563  0.407520  0.044088  1
  O  O37  1  0.646563  0.592480  0.455912  1
  O  O38  1  0.853437  0.907520  0.955912  1
  O  O39  1  0.353437  0.092480  0.544088  1
  O  O40  1  0.853437  0.592480  0.955912  1
  O  O41  1  0.353437  0.407520  0.544088  1
  O  O42  1  0.146563  0.092480  0.044088  1
  O  O43  1  0.646563  0.907520  0.455912  1
