# generated using pymatgen
data_MgTi2O4
_symmetry_space_group_name_H-M   'P 1'
_cell_length_a   5.92744480
_cell_length_b   5.96511471
_cell_length_c   5.96482476
_cell_angle_alpha   89.18217901
_cell_angle_beta   119.80667117
_cell_angle_gamma   119.78731430
_symmetry_Int_Tables_number   1
_chemical_formula_structural   MgTi2O4
_chemical_formula_sum   'Mg2 Ti4 O8'
_cell_volume   151.05318104
_cell_formula_units_Z   2
loop_
 _symmetry_equiv_pos_site_id
 _symmetry_equiv_pos_as_xyz
  1  'x, y, z'
loop_
 _atom_site_type_symbol
 _atom_site_label
 _atom_site_symmetry_multiplicity
 _atom_site_fract_x
 _atom_site_fract_y
 _atom_site_fract_z
 _atom_site_occupancy
  Mg  Mg0  1  0.000004  0.999997  0.000001  1
  Mg  Mg1  1  0.500004  -0.000002  0.000002  1
  Ti  Ti2  1  0.499997  -0.000001  0.500004  1
  Ti  Ti3  1  0.500011  0.499997  0.500006  1
  Ti  Ti4  1  0.000003  0.499995  -0.000000  1
  Ti  Ti5  1  0.000000  0.499997  0.500004  1
  O  O6  1  0.025713  0.746853  0.253221  1
  O  O7  1  0.502560  0.759339  0.745758  1
  O  O8  1  0.474176  0.747045  0.253371  1
  O  O9  1  0.002751  0.745778  0.759671  1
  O  O10  1  0.525844  0.252960  0.746647  1
  O  O11  1  0.497430  0.240652  0.254238  1
  O  O12  1  0.997260  0.254219  0.240338  1
  O  O13  1  0.974294  0.253138  0.746780  1
