# generated using pymatgen
data_ZnFeF4
_symmetry_space_group_name_H-M   'P 1'
_cell_length_a   5.08070182
_cell_length_b   5.29771057
_cell_length_c   6.39161891
_cell_angle_alpha   114.70761169
_cell_angle_beta   113.85313904
_cell_angle_gamma   89.82623663
_symmetry_Int_Tables_number   1
_chemical_formula_structural   ZnFeF4
_chemical_formula_sum   'Zn2 Fe2 F8'
_cell_volume   140.05660054
_cell_formula_units_Z   2
loop_
 _symmetry_equiv_pos_site_id
 _symmetry_equiv_pos_as_xyz
  1  'x, y, z'
loop_
 _atom_site_type_symbol
 _atom_site_label
 _atom_site_symmetry_multiplicity
 _atom_site_fract_x
 _atom_site_fract_y
 _atom_site_fract_z
 _atom_site_occupancy
  Zn  Zn0  1  0.249006  0.250246  0.498313  1
  Zn  Zn1  1  0.749343  0.745710  0.499883  1
  Fe  Fe2  1  0.002125  0.500085  0.001441  1
  Fe  Fe3  1  0.502680  0.004533  0.996602  1
  F  F4  1  0.859433  0.438484  0.250883  1
  F  F5  1  0.607617  0.190624  0.751576  1
  F  F6  1  0.133948  0.557044  0.746849  1
  F  F7  1  0.106051  0.057301  0.743946  1
  F  F8  1  0.392738  0.811160  0.253983  1
  F  F9  1  0.355806  0.307278  0.246126  1
  F  F10  1  0.890823  0.937121  0.245079  1
  F  F11  1  0.629908  0.684780  0.741711  1
