# generated using pymatgen
data_Zn(SnO2)2
_symmetry_space_group_name_H-M   'P 1'
_cell_length_a   6.99925484
_cell_length_b   6.22312006
_cell_length_c   11.24109179
_cell_angle_alpha   94.86514915
_cell_angle_beta   89.94642355
_cell_angle_gamma   90.00862618
_symmetry_Int_Tables_number   1
_chemical_formula_structural   Zn(SnO2)2
_chemical_formula_sum   'Zn4 Sn8 O16'
_cell_volume   487.86619911
_cell_formula_units_Z   4
loop_
 _symmetry_equiv_pos_site_id
 _symmetry_equiv_pos_as_xyz
  1  'x, y, z'
loop_
 _atom_site_type_symbol
 _atom_site_label
 _atom_site_symmetry_multiplicity
 _atom_site_fract_x
 _atom_site_fract_y
 _atom_site_fract_z
 _atom_site_occupancy
  Zn  Zn0  1  0.948023  0.249670  0.750077  1
  Zn  Zn1  1  0.052258  0.750177  0.249945  1
  Zn  Zn2  1  0.240174  0.250018  0.250052  1
  Zn  Zn3  1  0.760024  0.749986  0.749965  1
  Sn  Sn4  1  0.402824  0.749839  0.447528  1
  Sn  Sn5  1  0.402882  0.750255  0.052600  1
  Sn  Sn6  1  0.597006  0.250120  0.552704  1
  Sn  Sn7  1  0.597171  0.249681  0.947385  1
  Sn  Sn8  1  0.999817  0.500112  0.499953  1
  Sn  Sn9  1  0.000122  -0.000224  0.000035  1
  Sn  Sn10  1  0.999826  -0.000040  0.499928  1
  Sn  Sn11  1  0.000068  0.500189  0.000058  1
  O  O12  1  0.885752  0.734349  0.397799  1
  O  O13  1  0.885745  0.765601  0.102069  1
  O  O14  1  0.114046  0.265724  0.602110  1
  O  O15  1  0.114532  0.234333  0.897889  1
  O  O16  1  0.166171  0.761816  0.574988  1
  O  O17  1  0.166599  0.738249  0.925052  1
  O  O18  1  0.833352  0.238263  0.424939  1
  O  O19  1  0.833296  0.261692  0.074989  1
  O  O20  1  0.767032  0.524924  0.621421  1
  O  O21  1  0.767825  0.975422  0.878338  1
  O  O22  1  0.212835  0.976394  0.362902  1
  O  O23  1  0.212673  0.523635  0.137155  1
  O  O24  1  0.232767  0.475397  0.378515  1
  O  O25  1  0.232482  0.024520  0.121638  1
  O  O26  1  0.787153  0.023660  0.637159  1
  O  O27  1  0.787548  0.476239  0.862806  1
