# generated using pymatgen
data_Mg2FeWO6
_symmetry_space_group_name_H-M   'P 1'
_cell_length_a   5.19371899
_cell_length_b   5.33260344
_cell_length_c   7.84837444
_cell_angle_alpha   90.00000000
_cell_angle_beta   89.49418979
_cell_angle_gamma   90.00000000
_symmetry_Int_Tables_number   1
_chemical_formula_structural   Mg2FeWO6
_chemical_formula_sum   'Mg4 Fe2 W2 O12'
_cell_volume   217.36045179
_cell_formula_units_Z   2
loop_
 _symmetry_equiv_pos_site_id
 _symmetry_equiv_pos_as_xyz
  1  'x, y, z'
loop_
 _atom_site_type_symbol
 _atom_site_label
 _atom_site_symmetry_multiplicity
 _atom_site_fract_x
 _atom_site_fract_y
 _atom_site_fract_z
 _atom_site_occupancy
  Mg  Mg0  1  0.995034  0.050275  0.257300  1
  Mg  Mg1  1  0.504966  0.550276  0.242700  1
  Mg  Mg2  1  0.004967  0.949726  0.742700  1
  Mg  Mg3  1  0.495033  0.449725  0.757300  1
  Fe  Fe4  1  0.500000  0.000000  0.000000  1
  Fe  Fe5  1  0.000001  0.499999  0.500000  1
  W  W6  1  0.500000  0.000000  0.499999  1
  W  W7  1  0.000000  0.499999  0.000000  1
  O  O8  1  0.656626  0.305014  0.413593  1
  O  O9  1  0.843374  0.805015  0.086407  1
  O  O10  1  0.343373  0.694986  0.586407  1
  O  O11  1  0.156627  0.194985  0.913593  1
  O  O12  1  0.185665  0.176896  0.562952  1
  O  O13  1  0.314335  0.676895  0.937048  1
  O  O14  1  0.814336  0.823104  0.437048  1
  O  O15  1  0.685664  0.323105  0.062952  1
  O  O16  1  0.136247  0.417816  0.227892  1
  O  O17  1  0.363754  0.917817  0.272107  1
  O  O18  1  0.636247  0.082183  0.727893  1
  O  O19  1  0.863754  0.582184  0.772108  1
