# generated using pymatgen
data_Ba2YCr3O8
_symmetry_space_group_name_H-M   'P 1'
_cell_length_a   3.97471793
_cell_length_b   3.97411085
_cell_length_c   11.81331843
_cell_angle_alpha   90.00188976
_cell_angle_beta   89.97076873
_cell_angle_gamma   89.99994849
_symmetry_Int_Tables_number   1
_chemical_formula_structural   Ba2YCr3O8
_chemical_formula_sum   'Ba2 Y1 Cr3 O8'
_cell_volume   186.60279494
_cell_formula_units_Z   1
loop_
 _symmetry_equiv_pos_site_id
 _symmetry_equiv_pos_as_xyz
  1  'x, y, z'
loop_
 _atom_site_type_symbol
 _atom_site_label
 _atom_site_symmetry_multiplicity
 _atom_site_fract_x
 _atom_site_fract_y
 _atom_site_fract_z
 _atom_site_occupancy
  Ba  Ba0  1  0.499955  0.499993  0.162307  1
  Ba  Ba1  1  0.500058  0.499993  0.837674  1
  Y  Y2  1  0.499993  0.500006  0.500002  1
  Cr  Cr3  1  0.000038  -0.000000  0.342307  1
  Cr  Cr4  1  0.000013  -0.000003  0.999952  1
  Cr  Cr5  1  0.999951  0.000014  0.657708  1
  O  O6  1  0.000011  0.500004  0.380762  1
  O  O7  1  0.499943  0.000004  0.380755  1
  O  O8  1  0.500012  0.999991  0.999982  1
  O  O9  1  0.999990  0.999998  0.180640  1
  O  O10  1  0.999975  0.500004  0.619277  1
  O  O11  1  0.500045  0.000003  0.619282  1
  O  O12  1  0.000009  0.999997  0.819371  1
  O  O13  1  0.000010  0.499995  0.999981  1
