# generated using pymatgen
data_LaZnFeNiO6
_symmetry_space_group_name_H-M   'P 1'
_cell_length_a   5.46406126
_cell_length_b   5.30349525
_cell_length_c   7.65781960
_cell_angle_alpha   90.19700919
_cell_angle_beta   90.00000000
_cell_angle_gamma   90.00000000
_symmetry_Int_Tables_number   1
_chemical_formula_structural   LaZnFeNiO6
_chemical_formula_sum   'La2 Zn2 Fe2 Ni2 O12'
_cell_volume   221.91175481
_cell_formula_units_Z   2
loop_
 _symmetry_equiv_pos_site_id
 _symmetry_equiv_pos_as_xyz
  1  'x, y, z'
loop_
 _atom_site_type_symbol
 _atom_site_label
 _atom_site_symmetry_multiplicity
 _atom_site_fract_x
 _atom_site_fract_y
 _atom_site_fract_z
 _atom_site_occupancy
  La  La0  1  0.031747  0.991583  0.249786  1
  La  La1  1  0.468253  0.491583  0.749786  1
  Zn  Zn2  1  0.539053  0.524025  0.248308  1
  Zn  Zn3  1  0.960947  0.024025  0.748308  1
  Fe  Fe4  1  0.504388  0.001970  0.001497  1
  Fe  Fe5  1  0.995612  0.501970  0.501497  1
  Ni  Ni6  1  0.500250  0.000412  0.499297  1
  Ni  Ni7  1  -0.000250  0.500412  0.999297  1
  O  O8  1  0.018275  0.634095  0.745826  1
  O  O9  1  0.204692  0.193292  0.941903  1
  O  O10  1  0.199854  0.197822  0.556444  1
  O  O11  1  0.300146  0.697822  0.056444  1
  O  O12  1  0.295308  0.693292  0.441903  1
  O  O13  1  0.481725  0.134095  0.245825  1
  O  O14  1  0.541598  0.927953  0.753617  1
  O  O15  1  0.740076  0.264231  0.556543  1
  O  O16  1  0.738398  0.264616  0.946778  1
  O  O17  1  0.761602  0.764616  0.446778  1
  O  O18  1  0.759924  0.764231  0.056543  1
  O  O19  1  0.958402  0.427953  0.253617  1
