# generated using pymatgen
data_Ca2CoWO6
_symmetry_space_group_name_H-M   'P 1'
_cell_length_a   5.63702371
_cell_length_b   5.69588913
_cell_length_c   7.97735380
_cell_angle_alpha   89.98110899
_cell_angle_beta   135.10412692
_cell_angle_gamma   120.28702706
_symmetry_Int_Tables_number   1
_chemical_formula_structural   Ca2CoWO6
_chemical_formula_sum   'Ca2 Co1 W1 O6'
_cell_volume   126.53917101
_cell_formula_units_Z   1
loop_
 _symmetry_equiv_pos_site_id
 _symmetry_equiv_pos_as_xyz
  1  'x, y, z'
loop_
 _atom_site_type_symbol
 _atom_site_label
 _atom_site_symmetry_multiplicity
 _atom_site_fract_x
 _atom_site_fract_y
 _atom_site_fract_z
 _atom_site_occupancy
  Ca  Ca0  1  0.989629  0.528258  0.242535  1
  Ca  Ca1  1  0.998024  0.533331  0.752445  1
  Co  Co2  1  0.994383  0.979849  0.496743  1
  W  W3  1  0.994573  0.976485  0.997177  1
  O  O4  1  0.012525  0.969029  0.249031  1
  O  O5  1  0.984964  0.955187  0.749314  1
  O  O6  1  0.486681  0.458177  0.239614  1
  O  O7  1  0.479179  0.943816  0.742445  1
  O  O8  1  0.476236  0.965021  0.233215  1
  O  O9  1  0.530730  0.485077  0.769405  1
