# generated using pymatgen
data_Ti2Zn3(GeO4)3
_symmetry_space_group_name_H-M   'P 1'
_cell_length_a   10.60950227
_cell_length_b   10.60950171
_cell_length_c   10.60950185
_cell_angle_alpha   109.47122092
_cell_angle_beta   109.47121986
_cell_angle_gamma   109.47121989
_symmetry_Int_Tables_number   1
_chemical_formula_structural   Ti2Zn3(GeO4)3
_chemical_formula_sum   'Ti8 Zn12 Ge12 O48'
_cell_volume   919.31237418
_cell_formula_units_Z   4
loop_
 _symmetry_equiv_pos_site_id
 _symmetry_equiv_pos_as_xyz
  1  'x, y, z'
loop_
 _atom_site_type_symbol
 _atom_site_label
 _atom_site_symmetry_multiplicity
 _atom_site_fract_x
 _atom_site_fract_y
 _atom_site_fract_z
 _atom_site_occupancy
  Ti  Ti0  1  0.500000  0.500000  0.500000  1
  Ti  Ti1  1  0.500000  0.500000  0.000000  1
  Ti  Ti2  1  0.500000  0.000000  0.500000  1
  Ti  Ti3  1  0.000000  0.500000  0.500000  1
  Ti  Ti4  1  0.500000  0.000000  0.000000  1
  Ti  Ti5  1  0.000000  0.000000  0.500000  1
  Ti  Ti6  1  0.000000  0.500000  0.000000  1
  Ti  Ti7  1  0.000000  0.000000  0.000000  1
  Zn  Zn8  1  0.625000  0.250000  0.875000  1
  Zn  Zn9  1  0.875000  0.750000  0.625000  1
  Zn  Zn10  1  0.750000  0.625000  0.875000  1
  Zn  Zn11  1  0.250000  0.875000  0.625000  1
  Zn  Zn12  1  0.875000  0.625000  0.250000  1
  Zn  Zn13  1  0.625000  0.875000  0.750000  1
  Zn  Zn14  1  0.375000  0.750000  0.125000  1
  Zn  Zn15  1  0.125000  0.250000  0.375000  1
  Zn  Zn16  1  0.250000  0.375000  0.125000  1
  Zn  Zn17  1  0.750000  0.125000  0.375000  1
  Zn  Zn18  1  0.125000  0.375000  0.750000  1
  Zn  Zn19  1  0.375000  0.125000  0.250000  1
  Ge  Ge20  1  0.875000  0.125000  0.750000  1
  Ge  Ge21  1  0.125000  0.875000  0.250000  1
  Ge  Ge22  1  0.250000  0.625000  0.375000  1
  Ge  Ge23  1  0.125000  0.750000  0.875000  1
  Ge  Ge24  1  0.750000  0.875000  0.125000  1
  Ge  Ge25  1  0.375000  0.250000  0.625000  1
  Ge  Ge26  1  0.625000  0.750000  0.375000  1
  Ge  Ge27  1  0.875000  0.250000  0.125000  1
  Ge  Ge28  1  0.250000  0.125000  0.875000  1
  Ge  Ge29  1  0.750000  0.375000  0.625000  1
  Ge  Ge30  1  0.375000  0.625000  0.750000  1
  Ge  Ge31  1  0.625000  0.375000  0.250000  1
  O  O32  1  0.794882  0.419569  0.818055  1
  O  O33  1  0.080431  0.875313  0.398486  1
  O  O34  1  0.681945  0.101514  0.976826  1
  O  O35  1  0.705118  0.523174  0.624687  1
  O  O36  1  0.705118  0.681945  0.080431  1
  O  O37  1  0.523174  0.624687  0.705118  1
  O  O38  1  0.101514  0.624687  0.419569  1
  O  O39  1  0.624687  0.705118  0.523174  1
  O  O40  1  0.398486  0.818055  0.523174  1
  O  O41  1  0.875313  0.976826  0.794882  1
  O  O42  1  0.976826  0.794882  0.875313  1
  O  O43  1  0.080431  0.705118  0.681945  1
  O  O44  1  0.624687  0.419569  0.101514  1
  O  O45  1  0.523174  0.398486  0.818055  1
  O  O46  1  0.681945  0.080431  0.705118  1
  O  O47  1  0.419569  0.101514  0.624687  1
  O  O48  1  0.818055  0.523174  0.398486  1
  O  O49  1  0.398486  0.080431  0.875313  1
  O  O50  1  0.101514  0.976826  0.681945  1
  O  O51  1  0.601514  0.181945  0.476826  1
  O  O52  1  0.976826  0.681945  0.101514  1
  O  O53  1  0.818055  0.794882  0.419569  1
  O  O54  1  0.875313  0.398486  0.080431  1
  O  O55  1  0.794882  0.875313  0.976826  1
  O  O56  1  0.205118  0.580431  0.181945  1
  O  O57  1  0.919569  0.124687  0.601514  1
  O  O58  1  0.318055  0.898486  0.023174  1
  O  O59  1  0.294882  0.476826  0.375313  1
  O  O60  1  0.294882  0.318055  0.919569  1
  O  O61  1  0.476826  0.375313  0.294882  1
  O  O62  1  0.898486  0.375313  0.580431  1
  O  O63  1  0.375313  0.294882  0.476826  1
  O  O64  1  0.205118  0.124687  0.023174  1
  O  O65  1  0.124687  0.601514  0.919569  1
  O  O66  1  0.181945  0.205118  0.580431  1
  O  O67  1  0.580431  0.181945  0.205118  1
  O  O68  1  0.023174  0.318055  0.898486  1
  O  O69  1  0.898486  0.023174  0.318055  1
  O  O70  1  0.601514  0.919569  0.124687  1
  O  O71  1  0.181945  0.476826  0.601514  1
  O  O72  1  0.580431  0.898486  0.375313  1
  O  O73  1  0.318055  0.919569  0.294882  1
  O  O74  1  0.476826  0.601514  0.181945  1
  O  O75  1  0.375313  0.580431  0.898486  1
  O  O76  1  0.919569  0.294882  0.318055  1
  O  O77  1  0.023174  0.205118  0.124687  1
  O  O78  1  0.124687  0.023174  0.205118  1
  O  O79  1  0.419569  0.818055  0.794882  1
