# generated using pymatgen
data_Ca2Co9O13
_symmetry_space_group_name_H-M   'P 1'
_cell_length_a   3.05104174
_cell_length_b   5.24718350
_cell_length_c   16.61302964
_cell_angle_alpha   98.69985916
_cell_angle_beta   89.87918366
_cell_angle_gamma   107.36738729
_symmetry_Int_Tables_number   1
_chemical_formula_structural   Ca2Co9O13
_chemical_formula_sum   'Ca2 Co9 O13'
_cell_volume   250.65715478
_cell_formula_units_Z   1
loop_
 _symmetry_equiv_pos_site_id
 _symmetry_equiv_pos_as_xyz
  1  'x, y, z'
loop_
 _atom_site_type_symbol
 _atom_site_label
 _atom_site_symmetry_multiplicity
 _atom_site_fract_x
 _atom_site_fract_y
 _atom_site_fract_z
 _atom_site_occupancy
  Ca  Ca0  1  0.220166  0.437268  0.227846  1
  Ca  Ca1  1  0.779834  0.562732  0.772154  1
  Co  Co2  1  0.500000  -0.000000  0.500000  1
  Co  Co3  1  0.652619  0.293317  0.037888  1
  Co  Co4  1  0.347381  0.706683  0.962112  1
  Co  Co5  1  0.753728  0.511914  0.421004  1
  Co  Co6  1  0.246272  0.488086  0.578996  1
  Co  Co7  1  0.939939  0.878529  0.124254  1
  Co  Co8  1  0.060061  0.121471  0.875746  1
  Co  Co9  1  -0.004215  0.005144  0.338989  1
  Co  Co10  1  0.004215  0.994856  0.661011  1
  O  O11  1  -0.000000  -0.000000  0.000000  1
  O  O12  1  0.895679  0.786634  0.225013  1
  O  O13  1  0.104321  0.213366  0.774987  1
  O  O14  1  0.299973  0.599089  0.075343  1
  O  O15  1  0.700027  0.400911  0.924657  1
  O  O16  1  0.576484  0.153141  0.142149  1
  O  O17  1  0.423516  0.846859  0.857851  1
  O  O18  1  0.638885  0.270179  0.319042  1
  O  O19  1  0.361115  0.729821  0.680958  1
  O  O20  1  0.382378  0.770408  0.387019  1
  O  O21  1  0.617622  0.229592  0.612981  1
  O  O22  1  0.141603  0.264381  0.465840  1
  O  O23  1  0.858397  0.735619  0.534160  1
