# generated using pymatgen
data_Al2Sn2O7
_symmetry_space_group_name_H-M   'P 1'
_cell_length_a   7.02879647
_cell_length_b   7.02879650
_cell_length_c   7.02879585
_cell_angle_alpha   59.99999859
_cell_angle_beta   59.99999843
_cell_angle_gamma   59.99999645
_symmetry_Int_Tables_number   1
_chemical_formula_structural   Al2Sn2O7
_chemical_formula_sum   'Al4 Sn4 O14'
_cell_volume   245.54316394
_cell_formula_units_Z   2
loop_
 _symmetry_equiv_pos_site_id
 _symmetry_equiv_pos_as_xyz
  1  'x, y, z'
loop_
 _atom_site_type_symbol
 _atom_site_label
 _atom_site_symmetry_multiplicity
 _atom_site_fract_x
 _atom_site_fract_y
 _atom_site_fract_z
 _atom_site_occupancy
  Al  Al0  1  0.500000  0.000000  0.500000  1
  Al  Al1  1  0.000000  0.500000  0.500000  1
  Al  Al2  1  0.500000  0.500000  0.000000  1
  Al  Al3  1  0.500000  0.500000  0.500000  1
  Sn  Sn4  1  0.000000  0.500000  0.000000  1
  Sn  Sn5  1  0.500000  0.000000  0.000000  1
  Sn  Sn6  1  0.000000  0.000000  0.500000  1
  Sn  Sn7  1  0.000000  0.000000  0.000000  1
  O  O8  1  0.625000  0.625000  0.625000  1
  O  O9  1  0.375000  0.375000  0.375000  1
  O  O10  1  0.356391  0.893609  0.893609  1
  O  O11  1  0.106391  0.643609  0.643609  1
  O  O12  1  0.893609  0.356391  0.893609  1
  O  O13  1  0.893609  0.893609  0.356391  1
  O  O14  1  0.356391  0.356391  0.893609  1
  O  O15  1  0.356391  0.893609  0.356391  1
  O  O16  1  0.893609  0.356391  0.356391  1
  O  O17  1  0.643609  0.643609  0.106391  1
  O  O18  1  0.106391  0.106391  0.643609  1
  O  O19  1  0.643609  0.106391  0.106391  1
  O  O20  1  0.643609  0.106391  0.643609  1
  O  O21  1  0.106391  0.643609  0.106391  1
