# generated using pymatgen
data_Mg2CrSbO6
_symmetry_space_group_name_H-M   'P 1'
_cell_length_a   5.17034602
_cell_length_b   5.36153289
_cell_length_c   7.63488148
_cell_angle_alpha   90.00000000
_cell_angle_beta   90.00000000
_cell_angle_gamma   90.51400997
_symmetry_Int_Tables_number   1
_chemical_formula_structural   Mg2CrSbO6
_chemical_formula_sum   'Mg4 Cr2 Sb2 O12'
_cell_volume   211.63788179
_cell_formula_units_Z   2
loop_
 _symmetry_equiv_pos_site_id
 _symmetry_equiv_pos_as_xyz
  1  'x, y, z'
loop_
 _atom_site_type_symbol
 _atom_site_label
 _atom_site_symmetry_multiplicity
 _atom_site_fract_x
 _atom_site_fract_y
 _atom_site_fract_z
 _atom_site_occupancy
  Mg  Mg0  1  0.518839  0.571588  0.750000  1
  Mg  Mg1  1  0.481161  0.428412  0.250000  1
  Mg  Mg2  1  0.004857  0.037736  0.750000  1
  Mg  Mg3  1  0.995143  0.962264  0.250000  1
  Cr  Cr4  1  0.500000  0.000000  0.500000  1
  Cr  Cr5  1  0.500000  0.000000  0.000000  1
  Sb  Sb6  1  0.000000  0.500000  0.500000  1
  Sb  Sb7  1  0.000000  0.500000  0.000000  1
  O  O8  1  0.317877  0.679590  0.430007  1
  O  O9  1  0.175925  0.188821  0.069890  1
  O  O10  1  0.682123  0.320410  0.930007  1
  O  O11  1  0.824075  0.811179  0.569890  1
  O  O12  1  0.175925  0.188821  0.430110  1
  O  O13  1  0.824075  0.811179  0.930110  1
  O  O14  1  0.862231  0.571904  0.250000  1
  O  O15  1  0.317877  0.679590  0.069993  1
  O  O16  1  0.375532  0.929060  0.750000  1
  O  O17  1  0.682123  0.320410  0.569993  1
  O  O18  1  0.137769  0.428096  0.750000  1
  O  O19  1  0.624468  0.070940  0.250000  1
