# generated using pymatgen
data_Mg(FeO2)2
_symmetry_space_group_name_H-M   'P 1'
_cell_length_a   5.96101531
_cell_length_b   5.96101500
_cell_length_c   6.05590820
_cell_angle_alpha   59.47199817
_cell_angle_beta   59.47199993
_cell_angle_gamma   61.29087232
_symmetry_Int_Tables_number   1
_chemical_formula_structural   Mg(FeO2)2
_chemical_formula_sum   'Mg2 Fe4 O8'
_cell_volume   152.32800455
_cell_formula_units_Z   2
loop_
 _symmetry_equiv_pos_site_id
 _symmetry_equiv_pos_as_xyz
  1  'x, y, z'
loop_
 _atom_site_type_symbol
 _atom_site_label
 _atom_site_symmetry_multiplicity
 _atom_site_fract_x
 _atom_site_fract_y
 _atom_site_fract_z
 _atom_site_occupancy
  Mg  Mg0  1  0.125000  0.625000  0.625000  1
  Mg  Mg1  1  0.625000  0.125000  0.625000  1
  Fe  Fe2  1  -0.004733  -0.004733  0.004733  1
  Fe  Fe3  1  0.254733  0.254733  0.245267  1
  Fe  Fe4  1  0.625000  0.625000  0.125000  1
  Fe  Fe5  1  0.625000  0.625000  0.625000  1
  O  O6  1  0.383334  0.383334  0.383716  1
  O  O7  1  0.383334  0.383334  0.849616  1
  O  O8  1  0.397828  0.860413  0.370880  1
  O  O9  1  0.860413  0.397828  0.370880  1
  O  O10  1  0.389587  0.852172  0.879120  1
  O  O11  1  0.852172  0.389587  0.879120  1
  O  O12  1  0.866666  0.866666  0.400384  1
  O  O13  1  0.866666  0.866666  0.866284  1
