# generated using pymatgen
data_Zn(WO3)2
_symmetry_space_group_name_H-M   'P 1'
_cell_length_a   5.34741193
_cell_length_b   5.47209039
_cell_length_c   7.67083854
_cell_angle_alpha   90.00267503
_cell_angle_beta   89.99085281
_cell_angle_gamma   90.01118252
_symmetry_Int_Tables_number   1
_chemical_formula_structural   Zn(WO3)2
_chemical_formula_sum   'Zn2 W4 O12'
_cell_volume   224.46039929
_cell_formula_units_Z   2
loop_
 _symmetry_equiv_pos_site_id
 _symmetry_equiv_pos_as_xyz
  1  'x, y, z'
loop_
 _atom_site_type_symbol
 _atom_site_label
 _atom_site_symmetry_multiplicity
 _atom_site_fract_x
 _atom_site_fract_y
 _atom_site_fract_z
 _atom_site_occupancy
  Zn  Zn0  1  0.501870  0.482611  0.248007  1
  Zn  Zn1  1  0.002336  0.012433  0.752247  1
  W  W2  1  0.502102  0.995120  0.000978  1
  W  W3  1  0.002007  0.504761  0.998876  1
  W  W4  1  0.003027  0.503992  0.501291  1
  W  W5  1  0.503040  0.995428  0.498812  1
  O  O6  1  0.678093  0.307809  0.444407  1
  O  O7  1  0.177782  0.192122  0.556399  1
  O  O8  1  0.799194  0.786958  0.049320  1
  O  O9  1  0.300156  0.712452  0.951278  1
  O  O10  1  0.301427  0.714786  0.548424  1
  O  O11  1  0.800147  0.784640  0.450678  1
  O  O12  1  0.181007  0.190096  0.943298  1
  O  O13  1  0.681784  0.309797  0.056053  1
  O  O14  1  0.135400  0.473681  0.249436  1
  O  O15  1  0.635950  0.026188  0.750614  1
  O  O16  1  0.406972  0.973708  0.249039  1
  O  O17  1  0.909885  0.533477  0.750733  1
