# generated using pymatgen
data_VBiO5
_symmetry_space_group_name_H-M   'P 1'
_cell_length_a   5.97486859
_cell_length_b   11.57864759
_cell_length_c   15.46447958
_cell_angle_alpha   90.00000000
_cell_angle_beta   90.00000000
_cell_angle_gamma   90.00000000
_symmetry_Int_Tables_number   1
_chemical_formula_structural   VBiO5
_chemical_formula_sum   'V8 Bi8 O40'
_cell_volume   1069.84658136
_cell_formula_units_Z   8
loop_
 _symmetry_equiv_pos_site_id
 _symmetry_equiv_pos_as_xyz
  1  'x, y, z'
loop_
 _atom_site_type_symbol
 _atom_site_label
 _atom_site_symmetry_multiplicity
 _atom_site_fract_x
 _atom_site_fract_y
 _atom_site_fract_z
 _atom_site_occupancy
  V  V0  1  0.977435  0.400267  0.610981  1
  V  V1  1  0.522565  0.900267  0.389019  1
  V  V2  1  0.022565  0.599733  0.389019  1
  V  V3  1  0.477435  0.099733  0.610981  1
  V  V4  1  0.022565  0.099733  0.110981  1
  V  V5  1  0.977435  0.900267  0.889019  1
  V  V6  1  0.522565  0.400267  0.110981  1
  V  V7  1  0.477435  0.599733  0.889019  1
  Bi  Bi8  1  0.918416  0.823062  0.210553  1
  Bi  Bi9  1  0.081584  0.176938  0.789447  1
  Bi  Bi10  1  0.581584  0.323062  0.789447  1
  Bi  Bi11  1  0.081584  0.676938  0.710553  1
  Bi  Bi12  1  0.418416  0.176938  0.289447  1
  Bi  Bi13  1  0.418416  0.676938  0.210553  1
  Bi  Bi14  1  0.581584  0.823062  0.710553  1
  Bi  Bi15  1  0.918416  0.323062  0.289447  1
  O  O16  1  0.883530  0.298890  0.700491  1
  O  O17  1  0.255408  0.048929  0.068866  1
  O  O18  1  0.244592  0.548929  0.931134  1
  O  O19  1  0.233191  0.803190  0.147738  1
  O  O20  1  0.266809  0.303190  0.852262  1
  O  O21  1  0.883530  0.798890  0.799509  1
  O  O22  1  0.266809  0.803190  0.647738  1
  O  O23  1  0.616470  0.798890  0.299509  1
  O  O24  1  0.255408  0.548929  0.431134  1
  O  O25  1  0.116470  0.701110  0.299509  1
  O  O26  1  0.616470  0.298890  0.200491  1
  O  O27  1  0.617276  0.170241  0.534868  1
  O  O28  1  0.755408  0.951071  0.431134  1
  O  O29  1  0.766809  0.696810  0.647738  1
  O  O30  1  0.162142  0.010534  0.839076  1
  O  O31  1  0.755408  0.451071  0.068866  1
  O  O32  1  0.116470  0.201110  0.200491  1
  O  O33  1  0.733191  0.196810  0.352262  1
  O  O34  1  0.117276  0.829759  0.965132  1
  O  O35  1  0.244592  0.048929  0.568866  1
  O  O36  1  0.382724  0.829759  0.465132  1
  O  O37  1  0.837858  0.989466  0.160924  1
  O  O38  1  0.766809  0.196810  0.852262  1
  O  O39  1  0.662142  0.989466  0.660924  1
  O  O40  1  0.382724  0.329759  0.034868  1
  O  O41  1  0.117276  0.329759  0.534868  1
  O  O42  1  0.744592  0.451071  0.568866  1
  O  O43  1  0.744592  0.951071  0.931134  1
  O  O44  1  0.662142  0.489466  0.839076  1
  O  O45  1  0.882724  0.670241  0.465132  1
  O  O46  1  0.882724  0.170241  0.034868  1
  O  O47  1  0.617276  0.670241  0.965132  1
  O  O48  1  0.837858  0.489466  0.339076  1
  O  O49  1  0.733191  0.696810  0.147738  1
  O  O50  1  0.233191  0.303190  0.352262  1
  O  O51  1  0.162142  0.510534  0.660924  1
  O  O52  1  0.337858  0.510534  0.160924  1
  O  O53  1  0.383530  0.201110  0.700491  1
  O  O54  1  0.337858  0.010534  0.339076  1
  O  O55  1  0.383530  0.701110  0.799509  1
