# generated using pymatgen
data_MgNi4O9
_symmetry_space_group_name_H-M   'P 1'
_cell_length_a   5.35148791
_cell_length_b   8.30078342
_cell_length_c   8.13890888
_cell_angle_alpha   92.18711454
_cell_angle_beta   90.11388216
_cell_angle_gamma   90.26318568
_symmetry_Int_Tables_number   1
_chemical_formula_structural   MgNi4O9
_chemical_formula_sum   'Mg2 Ni8 O18'
_cell_volume   361.27485024
_cell_formula_units_Z   2
loop_
 _symmetry_equiv_pos_site_id
 _symmetry_equiv_pos_as_xyz
  1  'x, y, z'
loop_
 _atom_site_type_symbol
 _atom_site_label
 _atom_site_symmetry_multiplicity
 _atom_site_fract_x
 _atom_site_fract_y
 _atom_site_fract_z
 _atom_site_occupancy
  Mg  Mg0  1  0.235497  0.261334  0.246352  1
  Mg  Mg1  1  0.764114  0.762653  0.743275  1
  Ni  Ni2  1  0.588914  0.534533  0.334159  1
  Ni  Ni3  1  0.400382  0.836055  0.469928  1
  Ni  Ni4  1  0.595776  0.337216  0.968643  1
  Ni  Ni5  1  0.416098  0.031497  0.836975  1
  Ni  Ni6  1  0.534825  0.966934  0.164042  1
  Ni  Ni7  1  0.550788  0.157765  0.530619  1
  Ni  Ni8  1  0.454202  0.468914  0.663313  1
  Ni  Ni9  1  0.454695  0.659896  0.030037  1
  O  O10  1  0.505327  0.758443  0.246613  1
  O  O11  1  0.480240  0.254167  0.745910  1
  O  O12  1  0.129267  0.661753  0.890004  1
  O  O13  1  0.125006  0.580108  0.746706  1
  O  O14  1  0.101790  0.903759  0.766591  1
  O  O15  1  0.094972  0.828203  0.615768  1
  O  O16  1  0.905506  0.336138  0.110860  1
  O  O17  1  0.904720  0.416707  0.259112  1
  O  O18  1  0.869409  0.071611  0.246236  1
  O  O19  1  0.876747  0.148688  0.391590  1
  O  O20  1  0.374850  0.046321  0.351478  1
  O  O21  1  0.419428  0.144105  0.053810  1
  O  O22  1  0.429967  0.355784  0.452183  1
  O  O23  1  0.411879  0.461496  0.136563  1
  O  O24  1  0.622978  0.548830  0.852625  1
  O  O25  1  0.587336  0.859685  0.957836  1
  O  O26  1  0.578904  0.646988  0.550545  1
  O  O27  1  0.586386  0.960419  0.638227  1
