# generated using pymatgen
data_Ba2CaCr2F14
_symmetry_space_group_name_H-M   'P 1'
_cell_length_a   5.53276811
_cell_length_b   5.60579419
_cell_length_c   19.41857239
_cell_angle_alpha   90.00000000
_cell_angle_beta   92.20009484
_cell_angle_gamma   90.00000000
_symmetry_Int_Tables_number   1
_chemical_formula_structural   Ba2CaCr2F14
_chemical_formula_sum   'Ba4 Ca2 Cr4 F28'
_cell_volume   601.83391663
_cell_formula_units_Z   2
loop_
 _symmetry_equiv_pos_site_id
 _symmetry_equiv_pos_as_xyz
  1  'x, y, z'
loop_
 _atom_site_type_symbol
 _atom_site_label
 _atom_site_symmetry_multiplicity
 _atom_site_fract_x
 _atom_site_fract_y
 _atom_site_fract_z
 _atom_site_occupancy
  Ba  Ba0  1  0.241820  0.244041  0.924676  1
  Ba  Ba1  1  0.758180  0.755959  0.075324  1
  Ba  Ba2  1  0.741820  0.755959  0.424676  1
  Ba  Ba3  1  0.258180  0.244041  0.575324  1
  Ca  Ca4  1  0.750000  0.343198  0.250000  1
  Ca  Ca5  1  0.250000  0.656802  0.750000  1
  Cr  Cr6  1  0.302528  0.221139  0.120267  1
  Cr  Cr7  1  0.802528  0.778861  0.620267  1
  Cr  Cr8  1  0.197472  0.221139  0.379733  1
  Cr  Cr9  1  0.697472  0.778861  0.879733  1
  F  F10  1  0.771808  0.046702  0.935730  1
  F  F11  1  0.728192  0.046702  0.564270  1
  F  F12  1  0.228192  0.953298  0.064270  1
  F  F13  1  0.271808  0.953298  0.435730  1
  F  F14  1  0.537971  0.046533  0.172062  1
  F  F15  1  0.962029  0.046533  0.327938  1
  F  F16  1  0.462029  0.953467  0.827938  1
  F  F17  1  0.037971  0.953467  0.672062  1
  F  F18  1  0.545215  0.279394  0.055415  1
  F  F19  1  0.954785  0.279394  0.444585  1
  F  F20  1  0.454785  0.720606  0.944585  1
  F  F21  1  0.045215  0.720606  0.555415  1
  F  F22  1  0.594533  0.601182  0.560337  1
  F  F23  1  0.905467  0.601182  0.939663  1
  F  F24  1  0.405467  0.398818  0.439663  1
  F  F25  1  0.094533  0.398818  0.060337  1
  F  F26  1  0.561509  0.857758  0.676304  1
  F  F27  1  0.938491  0.857758  0.823696  1
  F  F28  1  0.438491  0.142242  0.323696  1
  F  F29  1  0.061509  0.142242  0.176304  1
  F  F30  1  0.083808  0.481240  0.332153  1
  F  F31  1  0.416192  0.481240  0.167847  1
  F  F32  1  0.916192  0.518760  0.667847  1
  F  F33  1  0.583808  0.518760  0.832153  1
  F  F34  1  0.402761  0.389761  0.685481  1
  F  F35  1  0.097240  0.389761  0.814519  1
  F  F36  1  0.597240  0.610239  0.314519  1
  F  F37  1  0.902760  0.610239  0.185481  1
