# generated using pymatgen
data_Sb5(TeO6)3
_symmetry_space_group_name_H-M   'P 1'
_cell_length_a   8.93014344
_cell_length_b   8.93014320
_cell_length_c   11.96185901
_cell_angle_alpha   94.12392919
_cell_angle_beta   94.12392576
_cell_angle_gamma   66.59034528
_symmetry_Int_Tables_number   1
_chemical_formula_structural   Sb5(TeO6)3
_chemical_formula_sum   'Sb10 Te6 O36'
_cell_volume   872.16183286
_cell_formula_units_Z   2
loop_
 _symmetry_equiv_pos_site_id
 _symmetry_equiv_pos_as_xyz
  1  'x, y, z'
loop_
 _atom_site_type_symbol
 _atom_site_label
 _atom_site_symmetry_multiplicity
 _atom_site_fract_x
 _atom_site_fract_y
 _atom_site_fract_z
 _atom_site_occupancy
  Sb  Sb0  1  0.849869  0.511119  0.961539  1
  Sb  Sb1  1  0.109927  0.273687  0.453000  1
  Sb  Sb2  1  0.361853  0.354359  0.282713  1
  Sb  Sb3  1  0.946821  0.734940  0.797835  1
  Sb  Sb4  1  0.645641  0.638147  0.717287  1
  Sb  Sb5  1  0.928595  0.071405  0.000000  1
  Sb  Sb6  1  0.698592  0.301408  0.500000  1
  Sb  Sb7  1  0.265060  0.053178  0.202165  1
  Sb  Sb8  1  0.726313  0.890073  0.547000  1
  Sb  Sb9  1  0.488881  0.150131  0.038461  1
  Te  Te10  1  0.440842  0.807059  0.964240  1
  Te  Te11  1  0.808224  0.241274  0.247953  1
  Te  Te12  1  0.758726  0.191776  0.752047  1
  Te  Te13  1  0.397242  0.831621  0.443642  1
  Te  Te14  1  0.168379  0.602758  0.556358  1
  Te  Te15  1  0.192941  0.559158  0.035760  1
  O  O16  1  0.448365  0.006405  0.911748  1
  O  O17  1  0.758396  0.439182  0.816728  1
  O  O18  1  0.581422  0.494255  0.607982  1
  O  O19  1  0.789600  0.126431  0.373498  1
  O  O20  1  0.560818  0.241604  0.183272  1
  O  O21  1  0.873569  0.210400  0.626502  1
  O  O22  1  0.309889  0.857900  0.286205  1
  O  O23  1  0.958367  0.120357  0.844544  1
  O  O24  1  0.609669  0.150807  0.561864  1
  O  O25  1  0.167216  0.450237  0.380737  1
  O  O26  1  0.638745  0.636800  0.030936  1
  O  O27  1  0.482700  0.952614  0.120924  1
  O  O28  1  0.815707  0.944728  0.717368  1
  O  O29  1  0.746581  0.731728  0.864665  1
  O  O30  1  0.363200  0.361255  0.969064  1
  O  O31  1  0.284277  0.548126  0.191641  1
  O  O32  1  0.966291  0.750757  0.491207  1
  O  O33  1  0.268272  0.253419  0.135335  1
  O  O34  1  0.505745  0.418578  0.392018  1
  O  O35  1  0.249243  0.033709  0.508793  1
  O  O36  1  0.592137  0.855407  0.406149  1
  O  O37  1  0.852775  0.637700  0.665153  1
  O  O38  1  0.879643  0.041633  0.155456  1
  O  O39  1  0.451874  0.715723  0.808359  1
  O  O40  1  0.998232  0.838290  0.940192  1
  O  O41  1  0.689566  0.120652  0.960102  1
  O  O42  1  0.047386  0.517300  0.879076  1
  O  O43  1  0.142100  0.690111  0.713795  1
  O  O44  1  0.055272  0.184293  0.282632  1
  O  O45  1  0.362300  0.147225  0.334847  1
  O  O46  1  0.144593  0.407863  0.593851  1
  O  O47  1  0.879348  0.310434  0.039898  1
  O  O48  1  0.849193  0.390331  0.438136  1
  O  O49  1  0.549763  0.832784  0.619263  1
  O  O50  1  0.161710  0.001768  0.059808  1
  O  O51  1  0.993595  0.551635  0.088252  1
