# generated using pymatgen
data_Ca2Cu2O5
_symmetry_space_group_name_H-M   'P 1'
_cell_length_a   3.79241635
_cell_length_b   5.39072945
_cell_length_c   10.36489140
_cell_angle_alpha   89.99341958
_cell_angle_beta   90.00004828
_cell_angle_gamma   90.00008557
_symmetry_Int_Tables_number   1
_chemical_formula_structural   Ca2Cu2O5
_chemical_formula_sum   'Ca4 Cu4 O10'
_cell_volume   211.89870337
_cell_formula_units_Z   2
loop_
 _symmetry_equiv_pos_site_id
 _symmetry_equiv_pos_as_xyz
  1  'x, y, z'
loop_
 _atom_site_type_symbol
 _atom_site_label
 _atom_site_symmetry_multiplicity
 _atom_site_fract_x
 _atom_site_fract_y
 _atom_site_fract_z
 _atom_site_occupancy
  Ca  Ca0  1  0.500001  0.192224  0.869635  1
  Ca  Ca1  1  0.500000  0.807702  0.130601  1
  Ca  Ca2  1  0.500000  0.692322  0.630388  1
  Ca  Ca3  1  0.500001  0.307839  0.369401  1
  Cu  Cu4  1  0.000001  0.220635  0.620162  1
  Cu  Cu5  1  -0.000000  0.779274  0.380222  1
  Cu  Cu6  1  0.000000  0.279404  0.119972  1
  Cu  Cu7  1  0.000000  0.720788  0.879835  1
  O  O8  1  0.000000  0.499949  0.500050  1
  O  O9  1  0.000001  0.077847  0.289328  1
  O  O10  1  0.000001  0.577556  0.210502  1
  O  O11  1  0.000001  0.422156  0.789371  1
  O  O12  1  0.500000  0.286490  0.099717  1
  O  O13  1  0.500000  0.713468  0.900351  1
  O  O14  1  -0.000001  0.922465  0.710573  1
  O  O15  1  0.500001  0.213456  0.599598  1
  O  O16  1  0.000000  -0.000010  -0.000012  1
  O  O17  1  0.500000  0.786433  0.400306  1
