# generated using pymatgen
data_AlW3O8
_symmetry_space_group_name_H-M   'P 1'
_cell_length_a   5.18334387
_cell_length_b   5.90562443
_cell_length_c   6.65794336
_cell_angle_alpha   104.70554312
_cell_angle_beta   125.41792198
_cell_angle_gamma   92.23354214
_symmetry_Int_Tables_number   1
_chemical_formula_structural   AlW3O8
_chemical_formula_sum   'Al1 W3 O8'
_cell_volume   156.10909048
_cell_formula_units_Z   1
loop_
 _symmetry_equiv_pos_site_id
 _symmetry_equiv_pos_as_xyz
  1  'x, y, z'
loop_
 _atom_site_type_symbol
 _atom_site_label
 _atom_site_symmetry_multiplicity
 _atom_site_fract_x
 _atom_site_fract_y
 _atom_site_fract_z
 _atom_site_occupancy
  Al  Al0  1  0.570207  0.747798  0.198798  1
  W  W1  1  0.117779  0.209717  0.082711  1
  W  W2  1  0.902579  0.393416  0.596419  1
  W  W3  1  0.365689  0.055550  0.597062  1
  O  O4  1  0.247223  0.672872  0.870726  1
  O  O5  1  0.530755  0.505207  0.307575  1
  O  O6  1  0.183750  0.171239  0.793981  1
  O  O7  1  0.511470  0.034912  0.346033  1
  O  O8  1  0.721312  0.938178  0.845160  1
  O  O9  1  0.991111  0.804699  0.340564  1
  O  O10  1  0.107769  0.284142  0.392957  1
  O  O11  1  0.746353  0.360767  0.824106  1
