# generated using pymatgen
data_Mg(WO2)2
_symmetry_space_group_name_H-M   'P 1'
_cell_length_a   6.33466762
_cell_length_b   6.49466579
_cell_length_c   19.20705028
_cell_angle_alpha   59.52983920
_cell_angle_beta   58.81502123
_cell_angle_gamma   59.14943792
_symmetry_Int_Tables_number   1
_chemical_formula_structural   Mg(WO2)2
_chemical_formula_sum   'Mg6 W12 O24'
_cell_volume   548.08219332
_cell_formula_units_Z   6
loop_
 _symmetry_equiv_pos_site_id
 _symmetry_equiv_pos_as_xyz
  1  'x, y, z'
loop_
 _atom_site_type_symbol
 _atom_site_label
 _atom_site_symmetry_multiplicity
 _atom_site_fract_x
 _atom_site_fract_y
 _atom_site_fract_z
 _atom_site_occupancy
  Mg  Mg0  1  0.127040  0.115946  0.047127  1
  Mg  Mg1  1  0.494088  0.506293  0.331117  1
  Mg  Mg2  1  0.993438  0.508629  0.163180  1
  Mg  Mg3  1  0.503903  0.502944  0.663502  1
  Mg  Mg4  1  0.999527  0.502924  0.498260  1
  Mg  Mg5  1  0.016418  0.488224  0.835598  1
  W  W6  1  0.490238  -0.004690  0.168847  1
  W  W7  1  0.210548  0.098681  0.364043  1
  W  W8  1  0.496400  0.489302  0.008177  1
  W  W9  1  0.490558  0.507563  0.168817  1
  W  W10  1  0.498484  0.012142  0.495769  1
  W  W11  1  0.107326  0.078866  0.745129  1
  W  W12  1  0.498484  0.502436  0.495726  1
  W  W13  1  0.512122  0.994413  0.834370  1
  W  W14  1  0.780656  0.911679  0.298513  1
  W  W15  1  0.511611  0.490442  0.834456  1
  W  W16  1  0.894732  0.914098  0.592394  1
  W  W17  1  0.898620  0.896117  0.936350  1
  O  O18  1  0.251141  0.258007  0.087309  1
  O  O19  1  0.235592  0.271983  0.240232  1
  O  O20  1  0.251789  0.728842  0.087156  1
  O  O21  1  0.727074  0.249854  0.090945  1
  O  O22  1  0.236734  0.272865  0.420072  1
  O  O23  1  0.264248  0.741057  0.251147  1
  O  O24  1  0.255123  0.270154  0.568278  1
  O  O25  1  0.752671  0.279674  0.244768  1
  O  O26  1  0.236162  0.730408  0.420183  1
  O  O27  1  0.739771  0.745497  0.089747  1
  O  O28  1  0.711208  0.273296  0.414158  1
  O  O29  1  0.752597  0.733136  0.244690  1
  O  O30  1  0.275201  0.258649  0.751498  1
  O  O31  1  0.275629  0.739200  0.582101  1
  O  O32  1  0.733321  0.286942  0.579828  1
  O  O33  1  0.275028  0.712052  0.751479  1
  O  O34  1  0.257591  0.255905  0.910142  1
  O  O35  1  0.757443  0.736908  0.423131  1
  O  O36  1  0.732480  0.261358  0.748384  1
  O  O37  1  0.732979  0.740577  0.579883  1
  O  O38  1  0.283154  0.729668  0.919043  1
  O  O39  1  0.740334  0.266764  0.921593  1
  O  O40  1  0.757618  0.714036  0.771313  1
  O  O41  1  0.740919  0.727154  0.921546  1
