# generated using pymatgen
data_CaCr2(P2O7)2
_symmetry_space_group_name_H-M   'P 1'
_cell_length_a   6.34952127
_cell_length_b   6.43396495
_cell_length_c   7.12362855
_cell_angle_alpha   83.61082938
_cell_angle_beta   89.14596734
_cell_angle_gamma   68.27318446
_symmetry_Int_Tables_number   1
_chemical_formula_structural   CaCr2(P2O7)2
_chemical_formula_sum   'Ca1 Cr2 P4 O14'
_cell_volume   268.55651816
_cell_formula_units_Z   1
loop_
 _symmetry_equiv_pos_site_id
 _symmetry_equiv_pos_as_xyz
  1  'x, y, z'
loop_
 _atom_site_type_symbol
 _atom_site_label
 _atom_site_symmetry_multiplicity
 _atom_site_fract_x
 _atom_site_fract_y
 _atom_site_fract_z
 _atom_site_occupancy
  Ca  Ca0  1  0.305579  0.714738  0.621221  1
  Cr  Cr1  1  0.258500  0.129995  0.200291  1
  Cr  Cr2  1  0.745673  0.874418  0.801241  1
  P  P3  1  0.150524  0.664640  0.119448  1
  P  P4  1  0.845936  0.334533  0.885396  1
  P  P5  1  0.252518  0.214943  0.616843  1
  P  P6  1  0.742256  0.789887  0.383394  1
  O  O7  1  0.061455  0.748875  0.911077  1
  O  O8  1  0.952306  0.256214  0.082535  1
  O  O9  1  0.256608  0.815562  0.196003  1
  O  O10  1  0.733681  0.183399  0.817916  1
  O  O11  1  0.305704  0.416885  0.131123  1
  O  O12  1  0.683845  0.584753  0.860598  1
  O  O13  1  0.631215  0.631535  0.458437  1
  O  O14  1  0.355135  0.379799  0.544556  1
  O  O15  1  0.153888  0.122998  0.460936  1
  O  O16  1  0.873626  0.842468  0.547737  1
  O  O17  1  0.050036  0.337069  0.747313  1
  O  O18  1  0.587713  0.003549  0.262127  1
  O  O19  1  0.412157  0.001540  0.743159  1
  O  O20  1  0.938468  0.665174  0.243961  1
