# generated using pymatgen
data_VZnAs2O7
_symmetry_space_group_name_H-M   'P 1'
_cell_length_a   7.84950188
_cell_length_b   8.16845115
_cell_length_c   11.07130001
_cell_angle_alpha   90.00000000
_cell_angle_beta   121.21062053
_cell_angle_gamma   90.00000000
_symmetry_Int_Tables_number   1
_chemical_formula_structural   VZnAs2O7
_chemical_formula_sum   'V4 Zn4 As8 O28'
_cell_volume   607.13150501
_cell_formula_units_Z   4
loop_
 _symmetry_equiv_pos_site_id
 _symmetry_equiv_pos_as_xyz
  1  'x, y, z'
loop_
 _atom_site_type_symbol
 _atom_site_label
 _atom_site_symmetry_multiplicity
 _atom_site_fract_x
 _atom_site_fract_y
 _atom_site_fract_z
 _atom_site_occupancy
  V  V0  1  0.810087  0.056715  0.705218  1
  V  V1  1  0.189913  0.556715  0.794782  1
  V  V2  1  0.189913  0.943285  0.294782  1
  V  V3  1  0.810087  0.443285  0.205218  1
  Zn  Zn4  1  0.261873  0.932625  0.880201  1
  Zn  Zn5  1  0.738127  0.432625  0.619799  1
  Zn  Zn6  1  0.738127  0.067375  0.119799  1
  Zn  Zn7  1  0.261873  0.567375  0.380201  1
  As  As8  1  0.451902  0.214028  0.762614  1
  As  As9  1  0.548098  0.714028  0.737386  1
  As  As10  1  0.548098  0.785972  0.237386  1
  As  As11  1  0.451902  0.285972  0.262613  1
  As  As12  1  0.029413  0.289214  0.963240  1
  As  As13  1  0.970587  0.789214  0.536760  1
  As  As14  1  0.970587  0.710786  0.036760  1
  As  As15  1  0.029413  0.210786  0.463240  1
  O  O16  1  0.762011  0.301267  0.078951  1
  O  O17  1  0.237989  0.801267  0.421049  1
  O  O18  1  0.237989  0.698733  0.921049  1
  O  O19  1  0.762011  0.198733  0.578951  1
  O  O20  1  0.356744  0.395240  0.780872  1
  O  O21  1  0.643256  0.895240  0.719128  1
  O  O22  1  0.643256  0.604760  0.219128  1
  O  O23  1  0.356744  0.104760  0.280872  1
  O  O24  1  0.468799  0.072661  0.883468  1
  O  O25  1  0.531201  0.572661  0.616532  1
  O  O26  1  0.531201  0.927339  0.116532  1
  O  O27  1  0.468799  0.427339  0.383468  1
  O  O28  1  0.302021  0.154631  0.585646  1
  O  O29  1  0.697979  0.654631  0.914354  1
  O  O30  1  0.697979  0.845369  0.414354  1
  O  O31  1  0.302021  0.345369  0.085646  1
  O  O32  1  0.009419  0.081562  0.324355  1
  O  O33  1  0.990581  0.581562  0.175645  1
  O  O34  1  0.990581  0.918438  0.675645  1
  O  O35  1  0.009419  0.418438  0.824355  1
  O  O36  1  0.679618  0.265765  0.277999  1
  O  O37  1  0.320382  0.765765  0.222001  1
  O  O38  1  0.320382  0.734235  0.722001  1
  O  O39  1  0.679618  0.234235  0.777999  1
  O  O40  1  0.053023  0.404857  0.384206  1
  O  O41  1  0.946977  0.904857  0.115794  1
  O  O42  1  0.946977  0.595143  0.615794  1
  O  O43  1  0.053023  0.095143  0.884206  1
