# generated using pymatgen
data_Mn(PO3)4
_symmetry_space_group_name_H-M   'P 1'
_cell_length_a   7.46135192
_cell_length_b   7.46548676
_cell_length_c   10.07305477
_cell_angle_alpha   85.94221422
_cell_angle_beta   68.00201028
_cell_angle_gamma   113.60159846
_symmetry_Int_Tables_number   1
_chemical_formula_structural   Mn(PO3)4
_chemical_formula_sum   'Mn2 P8 O24'
_cell_volume   460.35921678
_cell_formula_units_Z   2
loop_
 _symmetry_equiv_pos_site_id
 _symmetry_equiv_pos_as_xyz
  1  'x, y, z'
loop_
 _atom_site_type_symbol
 _atom_site_label
 _atom_site_symmetry_multiplicity
 _atom_site_fract_x
 _atom_site_fract_y
 _atom_site_fract_z
 _atom_site_occupancy
  Mn  Mn0  1  0.000052  -0.000054  0.499959  1
  Mn  Mn1  1  0.000006  0.499995  0.000030  1
  P  P2  1  0.275205  0.265284  0.973555  1
  P  P3  1  0.737790  0.248700  0.527421  1
  P  P4  1  0.993715  0.662098  0.314118  1
  P  P5  1  0.262169  0.751246  0.472552  1
  P  P6  1  0.724773  0.734766  0.026490  1
  P  P7  1  0.476513  0.308284  0.186063  1
  P  P8  1  0.523483  0.691647  0.813925  1
  P  P9  1  0.006155  0.337855  0.685914  1
  O  O10  1  0.487847  0.462871  0.846847  1
  O  O11  1  0.958453  0.341201  0.843324  1
  O  O12  1  0.041576  0.658823  0.156699  1
  O  O13  1  0.112640  0.335882  0.065192  1
  O  O14  1  0.100383  0.823144  0.564135  1
  O  O15  1  0.189152  0.663601  0.347244  1
  O  O16  1  0.046841  0.162382  0.643602  1
  O  O17  1  0.212880  0.547574  0.577232  1
  O  O18  1  0.376008  0.210953  0.077128  1
  O  O19  1  0.500692  0.888964  0.400453  1
  O  O20  1  0.512191  0.537173  0.153119  1
  O  O21  1  0.314771  0.198885  0.343391  1
  O  O22  1  0.305698  0.690605  0.856520  1
  O  O23  1  0.792175  0.901798  0.097401  1
  O  O24  1  0.207815  0.098186  0.902561  1
  O  O25  1  0.899439  0.176930  0.435918  1
  O  O26  1  0.685244  0.801127  0.656597  1
  O  O27  1  0.887475  0.664096  0.934759  1
  O  O28  1  0.499356  0.111038  0.599554  1
  O  O29  1  0.624066  0.789056  0.922863  1
  O  O30  1  0.787093  0.452441  0.422766  1
  O  O31  1  0.953153  0.837640  0.356402  1
  O  O32  1  0.810842  0.336364  0.652787  1
  O  O33  1  0.694350  0.309445  0.143473  1
