# generated using pymatgen
data_Sb2P2O9
_symmetry_space_group_name_H-M   'P 1'
_cell_length_a   6.63705139
_cell_length_b   8.41639831
_cell_length_c   14.67202448
_cell_angle_alpha   90.01271387
_cell_angle_beta   89.99983785
_cell_angle_gamma   90.00005529
_symmetry_Int_Tables_number   1
_chemical_formula_structural   Sb2P2O9
_chemical_formula_sum   'Sb8 P8 O36'
_cell_volume   819.58026614
_cell_formula_units_Z   4
loop_
 _symmetry_equiv_pos_site_id
 _symmetry_equiv_pos_as_xyz
  1  'x, y, z'
loop_
 _atom_site_type_symbol
 _atom_site_label
 _atom_site_symmetry_multiplicity
 _atom_site_fract_x
 _atom_site_fract_y
 _atom_site_fract_z
 _atom_site_occupancy
  Sb  Sb0  1  0.750003  0.360970  0.878908  1
  Sb  Sb1  1  0.250000  0.639025  0.121092  1
  Sb  Sb2  1  0.249996  0.861047  0.621082  1
  Sb  Sb3  1  0.750000  0.138939  0.378919  1
  Sb  Sb4  1  0.500001  0.999999  0.999988  1
  Sb  Sb5  1  0.500001  0.499989  0.500013  1
  Sb  Sb6  1  0.000006  0.500001  0.500015  1
  Sb  Sb7  1  -0.000002  0.000005  0.999986  1
  P  P8  1  0.250001  0.362680  0.939455  1
  P  P9  1  0.750000  0.637318  0.060512  1
  P  P10  1  0.749996  0.862727  0.560544  1
  P  P11  1  0.250001  0.137253  0.439486  1
  P  P12  1  0.750004  0.392896  0.696471  1
  P  P13  1  0.750002  0.107220  0.196444  1
  P  P14  1  0.249999  0.892817  0.803535  1
  P  P15  1  0.250000  0.607138  0.303554  1
  O  O16  1  0.058506  0.594213  0.360818  1
  O  O17  1  0.558499  0.405813  0.639212  1
  O  O18  1  0.941497  0.094340  0.139173  1
  O  O19  1  0.441505  0.905692  0.860799  1
  O  O20  1  0.941508  0.405817  0.639212  1
  O  O21  1  0.441494  0.594209  0.360818  1
  O  O22  1  0.058494  0.905692  0.860799  1
  O  O23  1  0.558507  0.094338  0.139173  1
  O  O24  1  0.250003  0.305449  0.485729  1
  O  O25  1  0.750005  0.694507  0.514325  1
  O  O26  1  0.749998  0.805459  0.014243  1
  O  O27  1  0.249998  0.194518  0.985700  1
  O  O28  1  0.750006  0.165864  0.950141  1
  O  O29  1  0.250003  0.834152  0.049882  1
  O  O30  1  0.249991  0.665933  0.549808  1
  O  O31  1  0.749996  0.334067  0.450175  1
  O  O32  1  0.750003  0.237912  0.759248  1
  O  O33  1  0.250002  0.762102  0.240758  1
  O  O34  1  0.249999  0.737891  0.740679  1
  O  O35  1  0.750001  0.262122  0.259318  1
  O  O36  1  0.439344  0.121438  0.379073  1
  O  O37  1  0.939336  0.878531  0.620963  1
  O  O38  1  0.560660  0.621584  0.120926  1
  O  O39  1  0.060667  0.378395  0.879031  1
  O  O40  1  0.560656  0.878523  0.620962  1
  O  O41  1  0.060657  0.121436  0.379075  1
  O  O42  1  0.439340  0.378392  0.879034  1
  O  O43  1  0.939339  0.621587  0.120927  1
  O  O44  1  0.750004  0.506801  0.986610  1
  O  O45  1  0.249999  0.022423  0.721118  1
  O  O46  1  0.249999  0.477596  0.221059  1
  O  O47  1  0.750001  0.522424  0.778956  1
  O  O48  1  0.749995  0.993118  0.486608  1
  O  O49  1  0.250003  0.006852  0.513415  1
  O  O50  1  0.250000  0.493188  0.013361  1
  O  O51  1  0.750001  0.977598  0.278864  1
