# generated using pymatgen
data_CaNiAsO5
_symmetry_space_group_name_H-M   'P 1'
_cell_length_a   7.52921700
_cell_length_b   5.86842641
_cell_length_c   8.85417482
_cell_angle_alpha   89.99637480
_cell_angle_beta   90.00285293
_cell_angle_gamma   89.99594892
_symmetry_Int_Tables_number   1
_chemical_formula_structural   CaNiAsO5
_chemical_formula_sum   'Ca4 Ni4 As4 O20'
_cell_volume   391.21866487
_cell_formula_units_Z   4
loop_
 _symmetry_equiv_pos_site_id
 _symmetry_equiv_pos_as_xyz
  1  'x, y, z'
loop_
 _atom_site_type_symbol
 _atom_site_label
 _atom_site_symmetry_multiplicity
 _atom_site_fract_x
 _atom_site_fract_y
 _atom_site_fract_z
 _atom_site_occupancy
  Ca  Ca0  1  0.900923  0.776212  0.083142  1
  Ca  Ca1  1  0.599074  0.223781  0.583228  1
  Ca  Ca2  1  0.400967  0.723815  0.916743  1
  Ca  Ca3  1  0.099022  0.276220  0.416716  1
  Ni  Ni4  1  0.995805  0.498969  0.753817  1
  Ni  Ni5  1  0.504162  0.500998  0.253926  1
  Ni  Ni6  1  0.495768  0.001053  0.246216  1
  Ni  Ni7  1  0.004245  0.998956  0.746141  1
  As  As8  1  0.643096  0.267326  0.942752  1
  As  As9  1  0.856892  0.732550  0.442741  1
  As  As10  1  0.143111  0.232541  0.057276  1
  As  As11  1  0.356900  0.767658  0.557190  1
  O  O12  1  0.827009  0.241722  0.823020  1
  O  O13  1  0.672908  0.758265  0.323076  1
  O  O14  1  0.327025  0.258251  0.177017  1
  O  O15  1  0.172994  0.741740  0.676988  1
  O  O16  1  0.476100  0.336727  0.822098  1
  O  O17  1  0.023841  0.663295  0.322047  1
  O  O18  1  0.976113  0.163269  0.177838  1
  O  O19  1  0.523930  0.836734  0.677849  1
  O  O20  1  0.616539  0.009271  0.034007  1
  O  O21  1  0.883469  0.990814  0.534037  1
  O  O22  1  0.116622  0.490751  0.965982  1
  O  O23  1  0.383381  0.509137  0.465988  1
  O  O24  1  0.657011  0.501263  0.060369  1
  O  O25  1  0.843011  0.498835  0.560300  1
  O  O26  1  0.157096  0.998729  0.939688  1
  O  O27  1  0.342941  0.001156  0.439711  1
  O  O28  1  0.876665  0.754434  0.824171  1
  O  O29  1  0.623369  0.245564  0.324231  1
  O  O30  1  0.376576  0.745536  0.175862  1
  O  O31  1  0.123432  0.254431  0.675835  1
