# generated using pymatgen
data_MgCuMo2O7
_symmetry_space_group_name_H-M   'P 1'
_cell_length_a   8.86676929
_cell_length_b   9.40350328
_cell_length_c   11.16692630
_cell_angle_alpha   102.40827021
_cell_angle_beta   90.00000000
_cell_angle_gamma   90.00000000
_symmetry_Int_Tables_number   1
_chemical_formula_structural   MgCuMo2O7
_chemical_formula_sum   'Mg6 Cu6 Mo12 O42'
_cell_volume   909.33480153
_cell_formula_units_Z   6
loop_
 _symmetry_equiv_pos_site_id
 _symmetry_equiv_pos_as_xyz
  1  'x, y, z'
loop_
 _atom_site_type_symbol
 _atom_site_label
 _atom_site_symmetry_multiplicity
 _atom_site_fract_x
 _atom_site_fract_y
 _atom_site_fract_z
 _atom_site_occupancy
  Mg  Mg0  1  0.424970  0.154287  0.578703  1
  Mg  Mg1  1  0.925317  0.500000  0.750000  1
  Mg  Mg2  1  0.424970  0.845713  0.921297  1
  Mg  Mg3  1  0.074683  0.500000  0.250000  1
  Mg  Mg4  1  0.575030  0.845713  0.421297  1
  Mg  Mg5  1  0.575030  0.154287  0.078703  1
  Cu  Cu6  1  0.929534  0.815582  0.409453  1
  Cu  Cu7  1  0.070466  0.184418  0.590547  1
  Cu  Cu8  1  0.436709  0.500000  0.250000  1
  Cu  Cu9  1  0.929534  0.184418  0.090547  1
  Cu  Cu10  1  0.563291  0.500000  0.750000  1
  Cu  Cu11  1  0.070466  0.815582  0.909453  1
  Mo  Mo12  1  0.242202  0.201588  0.293215  1
  Mo  Mo13  1  0.755578  0.123116  0.372523  1
  Mo  Mo14  1  0.244422  0.123116  0.872523  1
  Mo  Mo15  1  0.757798  0.201588  0.793215  1
  Mo  Mo16  1  0.263840  0.534732  0.959293  1
  Mo  Mo17  1  0.755578  0.876884  0.127477  1
  Mo  Mo18  1  0.736160  0.534732  0.459293  1
  Mo  Mo19  1  0.244422  0.876884  0.627477  1
  Mo  Mo20  1  0.263840  0.465268  0.540707  1
  Mo  Mo21  1  0.736160  0.465268  0.040707  1
  Mo  Mo22  1  0.757798  0.798412  0.706785  1
  Mo  Mo23  1  0.242202  0.798412  0.206785  1
  O  O24  1  0.753344  0.219972  0.971265  1
  O  O25  1  0.760200  0.891526  0.310453  1
  O  O26  1  0.811901  0.000000  0.750000  1
  O  O27  1  0.915179  0.452391  0.110100  1
  O  O28  1  0.422704  0.917862  0.555842  1
  O  O29  1  0.922561  0.273031  0.718299  1
  O  O30  1  0.293706  0.338932  0.913778  1
  O  O31  1  0.084821  0.452391  0.610100  1
  O  O32  1  0.736282  0.445244  0.865688  1
  O  O33  1  0.422704  0.082138  0.944158  1
  O  O34  1  0.736282  0.554756  0.634312  1
  O  O35  1  0.420701  0.599584  0.880249  1
  O  O36  1  0.929170  0.864558  0.047486  1
  O  O37  1  0.077439  0.273031  0.218299  1
  O  O38  1  0.706294  0.661068  0.086222  1
  O  O39  1  0.293706  0.661068  0.586222  1
  O  O40  1  0.922561  0.726969  0.781701  1
  O  O41  1  0.577296  0.082138  0.444158  1
  O  O42  1  0.246656  0.219972  0.471265  1
  O  O43  1  0.579299  0.400416  0.119751  1
  O  O44  1  0.417021  0.802885  0.285946  1
  O  O45  1  0.263718  0.554756  0.134312  1
  O  O46  1  0.070830  0.864558  0.547486  1
  O  O47  1  0.263718  0.445244  0.365688  1
  O  O48  1  0.915179  0.547609  0.389900  1
  O  O49  1  0.579299  0.599584  0.380249  1
  O  O50  1  0.084821  0.547609  0.889900  1
  O  O51  1  0.582979  0.802885  0.785946  1
  O  O52  1  0.582979  0.197115  0.714054  1
  O  O53  1  0.070830  0.135442  0.952514  1
  O  O54  1  0.077439  0.726969  0.281701  1
  O  O55  1  0.753344  0.780027  0.528735  1
  O  O56  1  0.188099  0.000000  0.250000  1
  O  O57  1  0.239800  0.891526  0.810453  1
  O  O58  1  0.577296  0.917862  0.055842  1
  O  O59  1  0.929170  0.135442  0.452514  1
  O  O60  1  0.246656  0.780027  0.028735  1
  O  O61  1  0.760200  0.108474  0.189547  1
  O  O62  1  0.420701  0.400416  0.619751  1
  O  O63  1  0.706294  0.338932  0.413778  1
  O  O64  1  0.239800  0.108474  0.689547  1
  O  O65  1  0.417021  0.197115  0.214054  1
