# generated using pymatgen
data_ZnMoF5
_symmetry_space_group_name_H-M   'P 1'
_cell_length_a   5.36765900
_cell_length_b   8.00804624
_cell_length_c   10.38313310
_cell_angle_alpha   90.00000000
_cell_angle_beta   90.00000000
_cell_angle_gamma   109.00186225
_symmetry_Int_Tables_number   1
_chemical_formula_structural   ZnMoF5
_chemical_formula_sum   'Zn4 Mo4 F20'
_cell_volume   421.99287284
_cell_formula_units_Z   4
loop_
 _symmetry_equiv_pos_site_id
 _symmetry_equiv_pos_as_xyz
  1  'x, y, z'
loop_
 _atom_site_type_symbol
 _atom_site_label
 _atom_site_symmetry_multiplicity
 _atom_site_fract_x
 _atom_site_fract_y
 _atom_site_fract_z
 _atom_site_occupancy
  Zn  Zn0  1  0.512350  0.773233  0.988888  1
  Zn  Zn1  1  0.487650  0.726767  0.488889  1
  Zn  Zn2  1  0.487650  0.226767  0.011111  1
  Zn  Zn3  1  0.512350  0.273233  0.511112  1
  Mo  Mo4  1  0.921978  0.616397  0.756194  1
  Mo  Mo5  1  0.078022  0.883603  0.256194  1
  Mo  Mo6  1  0.078022  0.383603  0.243806  1
  Mo  Mo7  1  0.921978  0.116397  0.743806  1
  F  F8  1  0.610229  0.590865  0.885797  1
  F  F9  1  0.389771  0.909135  0.385797  1
  F  F10  1  0.389771  0.409135  0.114203  1
  F  F11  1  0.610229  0.090865  0.614203  1
  F  F12  1  0.661198  0.507706  0.603856  1
  F  F13  1  0.338802  0.992294  0.103856  1
  F  F14  1  0.338802  0.492294  0.396144  1
  F  F15  1  0.661198  0.007706  0.896144  1
  F  F16  1  0.837080  0.784566  0.416083  1
  F  F17  1  0.162920  0.715434  0.916083  1
  F  F18  1  0.162920  0.215434  0.583917  1
  F  F19  1  0.837080  0.284566  0.083917  1
  F  F20  1  0.746075  0.835567  0.134731  1
  F  F21  1  0.253925  0.664433  0.634731  1
  F  F22  1  0.253925  0.164433  0.865269  1
  F  F23  1  0.746075  0.335567  0.365269  1
  F  F24  1  0.892726  0.857677  0.690194  1
  F  F25  1  0.107274  0.642323  0.190194  1
  F  F26  1  0.107274  0.142323  0.309806  1
  F  F27  1  0.892726  0.357677  0.809806  1
