# generated using pymatgen
data_MnZnP2O7
_symmetry_space_group_name_H-M   'P 1'
_cell_length_a   6.60710851
_cell_length_b   6.46295987
_cell_length_c   6.81356403
_cell_angle_alpha   66.18537835
_cell_angle_beta   79.06204082
_cell_angle_gamma   80.20609723
_symmetry_Int_Tables_number   1
_chemical_formula_structural   MnZnP2O7
_chemical_formula_sum   'Mn2 Zn2 P4 O14'
_cell_volume   259.92189273
_cell_formula_units_Z   2
loop_
 _symmetry_equiv_pos_site_id
 _symmetry_equiv_pos_as_xyz
  1  'x, y, z'
loop_
 _atom_site_type_symbol
 _atom_site_label
 _atom_site_symmetry_multiplicity
 _atom_site_fract_x
 _atom_site_fract_y
 _atom_site_fract_z
 _atom_site_occupancy
  Mn  Mn0  1  0.670640  0.107082  0.767657  1
  Mn  Mn1  1  0.329360  0.892918  0.232343  1
  Zn  Zn2  1  0.857480  0.293136  0.148255  1
  Zn  Zn3  1  0.142520  0.706864  0.851745  1
  P  P4  1  0.162214  0.220342  0.758904  1
  P  P5  1  0.837786  0.779658  0.241096  1
  P  P6  1  0.616945  0.637809  0.693963  1
  P  P7  1  0.383055  0.362191  0.306037  1
  O  O8  1  0.752883  0.608370  0.476401  1
  O  O9  1  0.247117  0.391630  0.523599  1
  O  O10  1  0.014583  0.065961  0.744711  1
  O  O11  1  0.985417  0.934039  0.255289  1
  O  O12  1  0.606049  0.269022  0.367169  1
  O  O13  1  0.393951  0.730978  0.632831  1
  O  O14  1  0.368929  0.607837  0.141531  1
  O  O15  1  0.631071  0.392163  0.858468  1
  O  O16  1  0.946421  0.613444  0.132146  1
  O  O17  1  0.053579  0.386556  0.867854  1
  O  O18  1  0.653516  0.929907  0.132628  1
  O  O19  1  0.346484  0.070093  0.867372  1
  O  O20  1  0.273362  0.203483  0.259425  1
  O  O21  1  0.726638  0.796517  0.740575  1
