# generated using pymatgen
data_BaZnSbF7
_symmetry_space_group_name_H-M   'P 1'
_cell_length_a   5.77918691
_cell_length_b   10.00765130
_cell_length_c   10.69806935
_cell_angle_alpha   90.00000000
_cell_angle_beta   90.00000000
_cell_angle_gamma   93.29737412
_symmetry_Int_Tables_number   1
_chemical_formula_structural   BaZnSbF7
_chemical_formula_sum   'Ba4 Zn4 Sb4 F28'
_cell_volume   617.71012987
_cell_formula_units_Z   4
loop_
 _symmetry_equiv_pos_site_id
 _symmetry_equiv_pos_as_xyz
  1  'x, y, z'
loop_
 _atom_site_type_symbol
 _atom_site_label
 _atom_site_symmetry_multiplicity
 _atom_site_fract_x
 _atom_site_fract_y
 _atom_site_fract_z
 _atom_site_occupancy
  Ba  Ba0  1  0.263578  0.490114  0.330704  1
  Ba  Ba1  1  0.736422  0.009886  0.830704  1
  Ba  Ba2  1  0.736422  0.509886  0.669296  1
  Ba  Ba3  1  0.263578  0.990114  0.169296  1
  Zn  Zn4  1  0.685285  0.808290  0.380777  1
  Zn  Zn5  1  0.314715  0.691710  0.880777  1
  Zn  Zn6  1  0.685285  0.308290  0.119223  1
  Zn  Zn7  1  0.314715  0.191710  0.619223  1
  Sb  Sb8  1  0.208628  0.829847  0.594100  1
  Sb  Sb9  1  0.791372  0.170153  0.405900  1
  Sb  Sb10  1  0.208628  0.329847  0.905900  1
  Sb  Sb11  1  0.791372  0.670153  0.094100  1
  F  F12  1  0.132681  0.130448  0.461687  1
  F  F13  1  0.388742  0.403407  0.103000  1
  F  F14  1  0.491496  0.764710  0.720271  1
  F  F15  1  0.508504  0.235290  0.279729  1
  F  F16  1  0.907240  0.366176  0.461700  1
  F  F17  1  0.190103  0.518250  0.792024  1
  F  F18  1  0.034901  0.768466  0.761723  1
  F  F19  1  0.092760  0.133824  0.961700  1
  F  F20  1  0.388742  0.903407  0.397000  1
  F  F21  1  0.508504  0.735290  0.220271  1
  F  F22  1  0.132681  0.630448  0.038313  1
  F  F23  1  0.867319  0.869552  0.538313  1
  F  F24  1  0.965099  0.731534  0.261723  1
  F  F25  1  0.419396  0.861378  0.964568  1
  F  F26  1  0.092760  0.633824  0.538300  1
  F  F27  1  0.907240  0.866176  0.038300  1
  F  F28  1  0.965099  0.231534  0.238277  1
  F  F29  1  0.867319  0.369552  0.961687  1
  F  F30  1  0.580604  0.638622  0.464568  1
  F  F31  1  0.611258  0.596593  0.897000  1
  F  F32  1  0.580604  0.138622  0.035432  1
  F  F33  1  0.034901  0.268466  0.738277  1
  F  F34  1  0.419396  0.361378  0.535432  1
  F  F35  1  0.809897  0.981750  0.292024  1
  F  F36  1  0.809897  0.481750  0.207976  1
  F  F37  1  0.190103  0.018250  0.707976  1
  F  F38  1  0.611258  0.096593  0.603000  1
  F  F39  1  0.491496  0.264710  0.779729  1
