# generated using pymatgen
data_BaYNi4O7
_symmetry_space_group_name_H-M   'P 1'
_cell_length_a   6.34741459
_cell_length_b   6.34741404
_cell_length_c   10.45600495
_cell_angle_alpha   90.00000000
_cell_angle_beta   90.00000000
_cell_angle_gamma   119.99999840
_symmetry_Int_Tables_number   1
_chemical_formula_structural   BaYNi4O7
_chemical_formula_sum   'Ba2 Y2 Ni8 O14'
_cell_volume   364.82963840
_cell_formula_units_Z   2
loop_
 _symmetry_equiv_pos_site_id
 _symmetry_equiv_pos_as_xyz
  1  'x, y, z'
loop_
 _atom_site_type_symbol
 _atom_site_label
 _atom_site_symmetry_multiplicity
 _atom_site_fract_x
 _atom_site_fract_y
 _atom_site_fract_z
 _atom_site_occupancy
  Ba  Ba0  1  0.666667  0.333333  0.494066  1
  Ba  Ba1  1  0.333333  0.666667  0.994066  1
  Y  Y2  1  0.666667  0.333333  0.883752  1
  Y  Y3  1  0.333333  0.666667  0.383752  1
  Ni  Ni4  1  0.827779  0.172222  0.190285  1
  Ni  Ni5  1  0.655555  0.827778  0.690286  1
  Ni  Ni6  1  0.172222  0.344445  0.690286  1
  Ni  Ni7  1  0.827779  0.655555  0.190285  1
  Ni  Ni8  1  0.344444  0.172222  0.190285  1
  Ni  Ni9  1  0.172222  0.827778  0.690286  1
  Ni  Ni10  1  0.000000  0.000000  0.441970  1
  Ni  Ni11  1  0.000000  0.000000  0.941970  1
  O  O12  1  0.835211  0.164790  0.007964  1
  O  O13  1  0.670421  0.835210  0.507963  1
  O  O14  1  0.164789  0.329578  0.507963  1
  O  O15  1  0.835212  0.670422  0.007964  1
  O  O16  1  0.329578  0.164790  0.007964  1
  O  O17  1  0.164789  0.835210  0.507963  1
  O  O18  1  0.000000  0.000000  0.745035  1
  O  O19  1  0.000000  0.000000  0.245036  1
  O  O20  1  0.504902  0.495100  0.258142  1
  O  O21  1  0.009801  0.504902  0.758142  1
  O  O22  1  0.495099  0.990199  0.758142  1
  O  O23  1  0.504902  0.009801  0.258142  1
  O  O24  1  0.495100  0.504902  0.758142  1
  O  O25  1  0.990199  0.495100  0.258142  1
