# generated using pymatgen
data_AlSb3F15
_symmetry_space_group_name_H-M   'P 1'
_cell_length_a   10.48242272
_cell_length_b   6.26395000
_cell_length_c   10.68476847
_cell_angle_alpha   90.00000000
_cell_angle_beta   90.00000000
_cell_angle_gamma   102.44213813
_symmetry_Int_Tables_number   1
_chemical_formula_structural   AlSb3F15
_chemical_formula_sum   'Al2 Sb6 F30'
_cell_volume   685.09938902
_cell_formula_units_Z   2
loop_
 _symmetry_equiv_pos_site_id
 _symmetry_equiv_pos_as_xyz
  1  'x, y, z'
loop_
 _atom_site_type_symbol
 _atom_site_label
 _atom_site_symmetry_multiplicity
 _atom_site_fract_x
 _atom_site_fract_y
 _atom_site_fract_z
 _atom_site_occupancy
  Al  Al0  1  0.901285  0.465661  0.250000  1
  Al  Al1  1  0.432048  0.534339  0.750000  1
  Sb  Sb2  1  0.166667  0.000000  0.500000  1
  Sb  Sb3  1  0.503249  0.942924  0.444685  1
  Sb  Sb4  1  0.830084  0.057077  0.555315  1
  Sb  Sb5  1  0.166667  0.000000  0.000000  1
  Sb  Sb6  1  0.503249  0.942924  0.055315  1
  Sb  Sb7  1  0.830084  0.057077  0.944685  1
  F  F8  1  0.060795  0.576594  0.250000  1
  F  F9  1  0.488009  0.846204  0.250000  1
  F  F10  1  0.795941  0.630295  0.250000  1
  F  F11  1  0.272538  0.423406  0.750000  1
  F  F12  1  0.537393  0.369705  0.750000  1
  F  F13  1  0.845324  0.153796  0.750000  1
  F  F14  1  0.066439  0.126171  0.621897  1
  F  F15  1  0.336791  0.075750  0.583413  1
  F  F16  1  0.638392  0.093472  0.589295  1
  F  F17  1  0.266895  0.873829  0.378103  1
  F  F18  1  0.694941  0.906528  0.410705  1
  F  F19  1  0.996542  0.924250  0.416587  1
  F  F20  1  0.127877  0.731856  0.912862  1
  F  F21  1  0.466691  0.703357  0.881824  1
  F  F22  1  0.803709  0.761189  0.887704  1
  F  F23  1  0.205457  0.268144  0.087138  1
  F  F24  1  0.529624  0.238811  0.112296  1
  F  F25  1  0.866643  0.296643  0.118176  1
  F  F26  1  0.205457  0.268144  0.412862  1
  F  F27  1  0.529624  0.238811  0.387704  1
  F  F28  1  0.866643  0.296643  0.381824  1
  F  F29  1  0.127877  0.731856  0.587138  1
  F  F30  1  0.466691  0.703357  0.618176  1
  F  F31  1  0.803709  0.761189  0.612296  1
  F  F32  1  0.066439  0.126171  0.878103  1
  F  F33  1  0.336791  0.075750  0.916587  1
  F  F34  1  0.638392  0.093472  0.910705  1
  F  F35  1  0.266895  0.873829  0.121897  1
  F  F36  1  0.694941  0.906528  0.089295  1
  F  F37  1  0.996542  0.924250  0.083413  1
