# generated using pymatgen
data_Zn(BiO2)4
_symmetry_space_group_name_H-M   'P 1'
_cell_length_a   3.45659980
_cell_length_b   9.13732031
_cell_length_c   8.00268651
_cell_angle_alpha   76.48147858
_cell_angle_beta   74.87296283
_cell_angle_gamma   81.94416160
_symmetry_Int_Tables_number   1
_chemical_formula_structural   Zn(BiO2)4
_chemical_formula_sum   'Zn1 Bi4 O8'
_cell_volume   236.39431596
_cell_formula_units_Z   1
loop_
 _symmetry_equiv_pos_site_id
 _symmetry_equiv_pos_as_xyz
  1  'x, y, z'
loop_
 _atom_site_type_symbol
 _atom_site_label
 _atom_site_symmetry_multiplicity
 _atom_site_fract_x
 _atom_site_fract_y
 _atom_site_fract_z
 _atom_site_occupancy
  Zn  Zn0  1  0.214803  0.203399  0.202860  1
  Bi  Bi1  1  0.645565  0.143430  0.587506  1
  Bi  Bi2  1  0.114013  0.557349  0.231046  1
  Bi  Bi3  1  0.853050  0.441787  0.837904  1
  Bi  Bi4  1  0.370691  0.815556  0.471681  1
  O  O5  1  0.895281  0.657859  0.546376  1
  O  O6  1  0.461358  0.275762  0.778790  1
  O  O7  1  0.559912  0.712762  0.218881  1
  O  O8  1  0.167154  0.276967  0.446433  1
  O  O9  1  0.149015  0.997609  0.686862  1
  O  O10  1  0.731819  0.298726  0.108317  1
  O  O11  1  0.885869  0.029841  0.364881  1
  O  O12  1  0.248953  0.565061  0.949109  1
