# generated using pymatgen
data_Zn(CoS2)2
_symmetry_space_group_name_H-M   'P 1'
_cell_length_a   6.91474946
_cell_length_b   6.81634605
_cell_length_c   6.81930171
_cell_angle_alpha   88.86928806
_cell_angle_beta   120.40656659
_cell_angle_gamma   120.44214813
_symmetry_Int_Tables_number   1
_chemical_formula_structural   Zn(CoS2)2
_chemical_formula_sum   'Zn2 Co4 S8'
_cell_volume   226.55834409
_cell_formula_units_Z   2
loop_
 _symmetry_equiv_pos_site_id
 _symmetry_equiv_pos_as_xyz
  1  'x, y, z'
loop_
 _atom_site_type_symbol
 _atom_site_label
 _atom_site_symmetry_multiplicity
 _atom_site_fract_x
 _atom_site_fract_y
 _atom_site_fract_z
 _atom_site_occupancy
  Zn  Zn0  1  0.000001  1.000000  1.000000  1
  Zn  Zn1  1  0.500031  0.000013  0.000023  1
  Co  Co2  1  0.499991  0.999994  0.499995  1
  Co  Co3  1  0.500016  0.500007  0.500015  1
  Co  Co4  1  0.000006  0.499993  0.000003  1
  Co  Co5  1  0.999998  0.499995  0.500000  1
  S  S6  1  0.036897  0.743526  0.257614  1
  S  S7  1  0.470823  0.738971  0.704046  1
  S  S8  1  0.463602  0.742480  0.256688  1
  S  S9  1  0.971517  0.704377  0.739460  1
  S  S10  1  0.536408  0.257514  0.743320  1
  S  S11  1  0.529166  0.261029  0.295951  1
  S  S12  1  0.028507  0.295614  0.260558  1
  S  S13  1  0.963086  0.256453  0.742370  1
