# generated using pymatgen
data_Mn2ZnO4
_symmetry_space_group_name_H-M   'P 1'
_cell_length_a   5.17293335
_cell_length_b   6.12293764
_cell_length_c   10.36088862
_cell_angle_alpha   90.10784864
_cell_angle_beta   88.63260551
_cell_angle_gamma   89.98653552
_symmetry_Int_Tables_number   1
_chemical_formula_structural   Mn2ZnO4
_chemical_formula_sum   'Mn8 Zn4 O16'
_cell_volume   328.07206099
_cell_formula_units_Z   4
loop_
 _symmetry_equiv_pos_site_id
 _symmetry_equiv_pos_as_xyz
  1  'x, y, z'
loop_
 _atom_site_type_symbol
 _atom_site_label
 _atom_site_symmetry_multiplicity
 _atom_site_fract_x
 _atom_site_fract_y
 _atom_site_fract_z
 _atom_site_occupancy
  Mn  Mn0  1  0.505334  0.752882  0.480107  1
  Mn  Mn1  1  0.506523  0.747145  0.014641  1
  Mn  Mn2  1  0.494930  0.252830  0.519868  1
  Mn  Mn3  1  0.493378  0.247142  0.985461  1
  Mn  Mn4  1  0.003220  0.496578  0.511211  1
  Mn  Mn5  1  0.003320  0.002602  0.987428  1
  Mn  Mn6  1  0.996712  0.996508  0.488759  1
  Mn  Mn7  1  0.996316  0.502665  0.012438  1
  Zn  Zn8  1  0.868140  0.255431  0.752931  1
  Zn  Zn9  1  0.131146  0.755372  0.246999  1
  Zn  Zn10  1  0.506020  0.248807  0.253819  1
  Zn  Zn11  1  0.494654  0.750749  0.746372  1
  O  O12  1  0.860259  0.734713  0.401468  1
  O  O13  1  0.853254  0.766030  0.096816  1
  O  O14  1  0.139781  0.235221  0.598550  1
  O  O15  1  0.146615  0.265056  0.902995  1
  O  O16  1  0.227581  0.755999  0.601450  1
  O  O17  1  0.235511  0.743419  0.894254  1
  O  O18  1  0.772538  0.255321  0.398842  1
  O  O19  1  0.764521  0.244060  0.105803  1
  O  O20  1  0.705681  0.489581  0.635615  1
  O  O21  1  0.712084  0.013267  0.866142  1
  O  O22  1  0.294869  0.988801  0.364530  1
  O  O23  1  0.287608  0.513856  0.133417  1
  O  O24  1  0.336916  0.487302  0.408981  1
  O  O25  1  0.327678  0.005600  0.090375  1
  O  O26  1  0.663026  0.988414  0.591046  1
  O  O27  1  0.672385  0.504648  0.909681  1
