# generated using pymatgen
data_CaCr2P2O9
_symmetry_space_group_name_H-M   'P 1'
_cell_length_a   6.44633951
_cell_length_b   7.44741591
_cell_length_c   14.31877752
_cell_angle_alpha   90.00000000
_cell_angle_beta   90.00000000
_cell_angle_gamma   90.00000000
_symmetry_Int_Tables_number   1
_chemical_formula_structural   CaCr2P2O9
_chemical_formula_sum   'Ca4 Cr8 P8 O36'
_cell_volume   687.42405333
_cell_formula_units_Z   4
loop_
 _symmetry_equiv_pos_site_id
 _symmetry_equiv_pos_as_xyz
  1  'x, y, z'
loop_
 _atom_site_type_symbol
 _atom_site_label
 _atom_site_symmetry_multiplicity
 _atom_site_fract_x
 _atom_site_fract_y
 _atom_site_fract_z
 _atom_site_occupancy
  Ca  Ca0  1  0.750000  0.892293  0.779625  1
  Ca  Ca1  1  0.750000  0.607707  0.279625  1
  Ca  Ca2  1  0.250001  0.392292  0.720375  1
  Ca  Ca3  1  0.250001  0.107707  0.220375  1
  Cr  Cr4  1  0.750000  0.351044  0.878278  1
  Cr  Cr5  1  0.250001  0.648956  0.121722  1
  Cr  Cr6  1  0.250001  0.851044  0.621722  1
  Cr  Cr7  1  0.750000  0.148956  0.378278  1
  Cr  Cr8  1  0.500000  0.000000  -0.000000  1
  Cr  Cr9  1  0.500000  0.500000  0.500000  1
  Cr  Cr10  1  -0.000000  0.500000  0.500000  1
  Cr  Cr11  1  -0.000000  0.000000  -0.000000  1
  P  P12  1  0.250001  0.360291  0.934467  1
  P  P13  1  0.750000  0.639709  0.065534  1
  P  P14  1  0.750000  0.860291  0.565533  1
  P  P15  1  0.250001  0.139710  0.434467  1
  P  P16  1  0.750000  0.391176  0.691080  1
  P  P17  1  0.750000  0.108824  0.191080  1
  P  P18  1  0.250001  0.891176  0.808920  1
  P  P19  1  0.250001  0.608823  0.308920  1
  O  O20  1  0.052236  0.604009  0.370398  1
  O  O21  1  0.552235  0.395990  0.629602  1
  O  O22  1  0.947764  0.104009  0.129602  1
  O  O23  1  0.447764  0.895991  0.870398  1
  O  O24  1  0.947764  0.395990  0.629602  1
  O  O25  1  0.447764  0.604009  0.370398  1
  O  O26  1  0.052236  0.895991  0.870398  1
  O  O27  1  0.552235  0.104009  0.129602  1
  O  O28  1  0.250001  0.330265  0.482944  1
  O  O29  1  0.750000  0.669736  0.517056  1
  O  O30  1  0.750000  0.830264  0.017055  1
  O  O31  1  0.250001  0.169737  0.982944  1
  O  O32  1  0.750000  0.124295  0.943932  1
  O  O33  1  0.250001  0.875705  0.056067  1
  O  O34  1  0.250001  0.624295  0.556067  1
  O  O35  1  0.750000  0.375706  0.443933  1
  O  O36  1  0.750000  0.217451  0.752134  1
  O  O37  1  0.250001  0.782549  0.247867  1
  O  O38  1  0.250001  0.717451  0.747866  1
  O  O39  1  0.750000  0.282550  0.252133  1
  O  O40  1  0.438015  0.132803  0.367068  1
  O  O41  1  0.938015  0.867197  0.632932  1
  O  O42  1  0.561985  0.632802  0.132932  1
  O  O43  1  0.061985  0.367197  0.867068  1
  O  O44  1  0.561985  0.867197  0.632932  1
  O  O45  1  0.061985  0.132803  0.367068  1
  O  O46  1  0.438015  0.367197  0.867068  1
  O  O47  1  0.938015  0.632802  0.132932  1
  O  O48  1  0.750000  0.496890  0.991917  1
  O  O49  1  0.250001  0.043123  0.733826  1
  O  O50  1  0.250001  0.456876  0.233826  1
  O  O51  1  0.750000  0.543123  0.766174  1
  O  O52  1  0.750000  0.003110  0.491917  1
  O  O53  1  0.250001  0.996890  0.508083  1
  O  O54  1  0.250001  0.503109  0.008082  1
  O  O55  1  0.750000  0.956877  0.266174  1
