# generated using pymatgen
data_CaTiAsO5
_symmetry_space_group_name_H-M   'P 1'
_cell_length_a   7.98253609
_cell_length_b   5.97428877
_cell_length_c   9.25477289
_cell_angle_alpha   88.40384365
_cell_angle_beta   89.90360712
_cell_angle_gamma   90.01036327
_symmetry_Int_Tables_number   1
_chemical_formula_structural   CaTiAsO5
_chemical_formula_sum   'Ca4 Ti4 As4 O20'
_cell_volume   441.18800494
_cell_formula_units_Z   4
loop_
 _symmetry_equiv_pos_site_id
 _symmetry_equiv_pos_as_xyz
  1  'x, y, z'
loop_
 _atom_site_type_symbol
 _atom_site_label
 _atom_site_symmetry_multiplicity
 _atom_site_fract_x
 _atom_site_fract_y
 _atom_site_fract_z
 _atom_site_occupancy
  Ca  Ca0  1  0.940865  0.763908  0.057980  1
  Ca  Ca1  1  0.590704  0.250515  0.618285  1
  Ca  Ca2  1  0.442625  0.737457  0.941954  1
  Ca  Ca3  1  0.091883  0.249611  0.381838  1
  Ti  Ti4  1  0.990406  0.458764  0.732080  1
  Ti  Ti5  1  0.497096  0.521281  0.274022  1
  Ti  Ti6  1  0.491491  0.040775  0.268064  1
  Ti  Ti7  1  0.996772  0.978405  0.725787  1
  As  As8  1  0.679075  0.290923  0.981208  1
  As  As9  1  0.850236  0.728326  0.428401  1
  As  As10  1  0.177884  0.209952  0.018758  1
  As  As11  1  0.349800  0.771053  0.571518  1
  O  O12  1  0.841984  0.210317  0.758283  1
  O  O13  1  0.651648  0.774716  0.354925  1
  O  O14  1  0.343389  0.289350  0.241165  1
  O  O15  1  0.151699  0.724776  0.645480  1
  O  O16  1  0.526480  0.377457  0.852242  1
  O  O17  1  0.983242  0.636075  0.298983  1
  O  O18  1  0.025913  0.122310  0.148721  1
  O  O19  1  0.483244  0.863575  0.700572  1
  O  O20  1  0.568368  0.045381  0.070336  1
  O  O21  1  0.909359  0.976170  0.505870  1
  O  O22  1  0.065907  0.454384  0.930370  1
  O  O23  1  0.407672  0.523822  0.493585  1
  O  O24  1  0.636358  0.531800  0.101911  1
  O  O25  1  0.833748  0.511036  0.553353  1
  O  O26  1  0.134576  0.968655  0.898434  1
  O  O27  1  0.333658  0.989021  0.446258  1
  O  O28  1  0.871609  0.748587  0.799375  1
  O  O29  1  0.629667  0.241576  0.351103  1
  O  O30  1  0.373016  0.751817  0.199741  1
  O  O31  1  0.129625  0.258209  0.649398  1
