# generated using pymatgen
data_Zn(CuO2)2
_symmetry_space_group_name_H-M   'P 1'
_cell_length_a   5.91109680
_cell_length_b   6.11490383
_cell_length_c   6.11935341
_cell_angle_alpha   89.92238109
_cell_angle_beta   121.20875441
_cell_angle_gamma   121.18697830
_symmetry_Int_Tables_number   1
_chemical_formula_structural   Zn(CuO2)2
_chemical_formula_sum   'Zn2 Cu4 O8'
_cell_volume   150.68256759
_cell_formula_units_Z   2
loop_
 _symmetry_equiv_pos_site_id
 _symmetry_equiv_pos_as_xyz
  1  'x, y, z'
loop_
 _atom_site_type_symbol
 _atom_site_label
 _atom_site_symmetry_multiplicity
 _atom_site_fract_x
 _atom_site_fract_y
 _atom_site_fract_z
 _atom_site_occupancy
  Zn  Zn0  1  0.249743  0.124654  0.875039  1
  Zn  Zn1  1  0.750288  0.875221  0.125012  1
  Cu  Cu2  1  0.500138  0.000052  0.500094  1
  Cu  Cu3  1  0.499850  0.499961  0.499906  1
  Cu  Cu4  1  0.999969  0.499972  0.999962  1
  Cu  Cu5  1  0.000045  0.500029  0.500023  1
  O  O6  1  0.038981  0.756167  0.217243  1
  O  O7  1  0.461270  0.782950  0.717595  1
  O  O8  1  0.461182  0.678322  0.243500  1
  O  O9  1  0.961060  0.717129  0.678314  1
  O  O10  1  0.538694  0.321709  0.756434  1
  O  O11  1  0.538874  0.217135  0.282546  1
  O  O12  1  0.038672  0.282784  0.321487  1
  O  O13  1  0.961234  0.243915  0.782842  1
