# generated using pymatgen
data_SrCaTi(PO4)2
_symmetry_space_group_name_H-M   'P 1'
_cell_length_a   5.76841622
_cell_length_b   6.85003432
_cell_length_c   9.69622431
_cell_angle_alpha   109.02619740
_cell_angle_beta   104.17456331
_cell_angle_gamma   97.07601451
_symmetry_Int_Tables_number   1
_chemical_formula_structural   SrCaTi(PO4)2
_chemical_formula_sum   'Sr2 Ca2 Ti2 P4 O16'
_cell_volume   342.45430446
_cell_formula_units_Z   2
loop_
 _symmetry_equiv_pos_site_id
 _symmetry_equiv_pos_as_xyz
  1  'x, y, z'
loop_
 _atom_site_type_symbol
 _atom_site_label
 _atom_site_symmetry_multiplicity
 _atom_site_fract_x
 _atom_site_fract_y
 _atom_site_fract_z
 _atom_site_occupancy
  Sr  Sr0  1  0.273504  0.801651  0.060129  1
  Sr  Sr1  1  0.726496  0.198349  0.939871  1
  Ca  Ca2  1  0.001543  0.425995  0.661792  1
  Ca  Ca3  1  0.998457  0.574005  0.338208  1
  Ti  Ti4  1  0.610092  0.875988  0.551597  1
  Ti  Ti5  1  0.389908  0.124012  0.448403  1
  P  P6  1  0.389309  0.410474  0.224380  1
  P  P7  1  0.610691  0.589526  0.775620  1
  P  P8  1  0.855257  0.031490  0.294277  1
  P  P9  1  0.144743  0.968510  0.705723  1
  O  O10  1  0.850223  0.564764  0.879677  1
  O  O11  1  0.610350  0.449550  0.165856  1
  O  O12  1  0.647287  0.807322  0.759981  1
  O  O13  1  0.945233  0.106006  0.697486  1
  O  O14  1  0.389650  0.550450  0.834144  1
  O  O15  1  0.005905  0.739239  0.590576  1
  O  O16  1  0.994095  0.260761  0.409424  1
  O  O17  1  0.256849  0.987780  0.870085  1
  O  O18  1  0.352713  0.192678  0.240019  1
  O  O19  1  0.743151  0.012220  0.129915  1
  O  O20  1  0.149777  0.435236  0.120323  1
  O  O21  1  0.427289  0.584492  0.385731  1
  O  O22  1  0.572711  0.415508  0.614269  1
  O  O23  1  0.648395  0.949119  0.354944  1
  O  O24  1  0.054767  0.893994  0.302514  1
  O  O25  1  0.351605  0.050881  0.645057  1
