# generated using pymatgen
data_YSnO3
_symmetry_space_group_name_H-M   'P 1'
_cell_length_a   5.66211711
_cell_length_b   5.93252911
_cell_length_c   8.59965328
_cell_angle_alpha   90.00076735
_cell_angle_beta   89.63003318
_cell_angle_gamma   90.00174732
_symmetry_Int_Tables_number   1
_chemical_formula_structural   YSnO3
_chemical_formula_sum   'Y4 Sn4 O12'
_cell_volume   288.86213271
_cell_formula_units_Z   4
loop_
 _symmetry_equiv_pos_site_id
 _symmetry_equiv_pos_as_xyz
  1  'x, y, z'
loop_
 _atom_site_type_symbol
 _atom_site_label
 _atom_site_symmetry_multiplicity
 _atom_site_fract_x
 _atom_site_fract_y
 _atom_site_fract_z
 _atom_site_occupancy
  Y  Y0  1  0.023537  0.938701  0.750397  1
  Y  Y1  1  0.522938  0.561160  0.250512  1
  Y  Y2  1  0.476573  0.438658  0.749710  1
  Y  Y3  1  0.977198  0.061197  0.249606  1
  Sn  Sn4  1  0.999907  0.499732  0.500427  1
  Sn  Sn5  1  0.500079  -0.000050  0.500052  1
  Sn  Sn6  1  0.500778  0.999782  0.999801  1
  Sn  Sn7  1  -0.000043  0.500001  -0.000153  1
  O  O8  1  0.658065  0.295130  0.411277  1
  O  O9  1  0.209645  0.174617  0.580733  1
  O  O10  1  0.841758  0.795253  0.088683  1
  O  O11  1  0.290197  0.674807  0.919097  1
  O  O12  1  0.341784  0.705023  0.588850  1
  O  O13  1  0.790870  0.825163  0.419019  1
  O  O14  1  0.158036  0.205154  0.911105  1
  O  O15  1  0.708977  0.325360  0.080828  1
  O  O16  1  0.161179  0.415005  0.219747  1
  O  O17  1  0.661607  0.085148  0.719711  1
  O  O18  1  0.338679  0.914861  0.280276  1
  O  O19  1  0.838235  0.585296  0.780321  1
