# generated using pymatgen
data_Ba2YTlCo2O7
_symmetry_space_group_name_H-M   'P 1'
_cell_length_a   3.91836175
_cell_length_b   3.91885478
_cell_length_c   12.64735767
_cell_angle_alpha   89.95674154
_cell_angle_beta   90.00442040
_cell_angle_gamma   89.85048144
_symmetry_Int_Tables_number   1
_chemical_formula_structural   Ba2YTlCo2O7
_chemical_formula_sum   'Ba2 Y1 Tl1 Co2 O7'
_cell_volume   194.20566531
_cell_formula_units_Z   1
loop_
 _symmetry_equiv_pos_site_id
 _symmetry_equiv_pos_as_xyz
  1  'x, y, z'
loop_
 _atom_site_type_symbol
 _atom_site_label
 _atom_site_symmetry_multiplicity
 _atom_site_fract_x
 _atom_site_fract_y
 _atom_site_fract_z
 _atom_site_occupancy
  Ba  Ba0  1  0.500175  0.500181  0.208354  1
  Ba  Ba1  1  0.499900  0.499805  0.792451  1
  Y  Y2  1  0.500078  0.499859  0.499397  1
  Tl  Tl3  1  0.000083  0.000521  0.000847  1
  Co  Co4  1  0.000503  0.000284  0.357729  1
  Co  Co5  1  -0.000236  0.999487  0.642397  1
  O  O6  1  0.000231  0.000038  0.178889  1
  O  O7  1  0.000171  0.499197  0.385500  1
  O  O8  1  0.499356  0.999955  0.384971  1
  O  O9  1  0.500492  0.999975  0.613191  1
  O  O10  1  0.499337  0.499592  0.000387  1
  O  O11  1  -0.000033  0.500921  0.613747  1
  O  O12  1  0.999940  0.000184  0.822143  1
