# generated using pymatgen
data_Zn2FeWO6
_symmetry_space_group_name_H-M   'P 1'
_cell_length_a   5.33728726
_cell_length_b   5.61455640
_cell_length_c   7.73132092
_cell_angle_alpha   94.40182515
_cell_angle_beta   133.47926427
_cell_angle_gamma   118.40055937
_symmetry_Int_Tables_number   1
_chemical_formula_structural   Zn2FeWO6
_chemical_formula_sum   'Zn2 Fe1 W1 O6'
_cell_volume   114.48265270
_cell_formula_units_Z   1
loop_
 _symmetry_equiv_pos_site_id
 _symmetry_equiv_pos_as_xyz
  1  'x, y, z'
loop_
 _atom_site_type_symbol
 _atom_site_label
 _atom_site_symmetry_multiplicity
 _atom_site_fract_x
 _atom_site_fract_y
 _atom_site_fract_z
 _atom_site_occupancy
  Zn  Zn0  1  0.000870  0.550329  0.212391  1
  Zn  Zn1  1  0.007330  0.484431  0.755709  1
  Fe  Fe2  1  0.002835  0.982953  0.499861  1
  W  W3  1  0.004802  0.988576  0.999197  1
  O  O4  1  0.735074  0.825960  0.103135  1
  O  O5  1  0.278681  0.114379  0.906195  1
  O  O6  1  0.342768  0.454081  0.242132  1
  O  O7  1  0.396144  0.836612  0.628192  1
  O  O8  1  0.587500  0.094541  0.374748  1
  O  O9  1  0.686740  0.504139  0.788087  1
