# generated using pymatgen
data_Ca2Mo3O8
_symmetry_space_group_name_H-M   'P 1'
_cell_length_a   5.03048237
_cell_length_b   5.91133379
_cell_length_c   6.57129636
_cell_angle_alpha   116.72985630
_cell_angle_beta   104.10508684
_cell_angle_gamma   89.99999707
_symmetry_Int_Tables_number   1
_chemical_formula_structural   Ca2Mo3O8
_chemical_formula_sum   'Ca2 Mo3 O8'
_cell_volume   167.90502487
_cell_formula_units_Z   1
loop_
 _symmetry_equiv_pos_site_id
 _symmetry_equiv_pos_as_xyz
  1  'x, y, z'
loop_
 _atom_site_type_symbol
 _atom_site_label
 _atom_site_symmetry_multiplicity
 _atom_site_fract_x
 _atom_site_fract_y
 _atom_site_fract_z
 _atom_site_occupancy
  Ca  Ca0  1  0.671341  0.725268  0.450535  1
  Ca  Ca1  1  0.328658  0.274733  0.549465  1
  Mo  Mo2  1  0.500000  0.999999  0.000000  1
  Mo  Mo3  1  0.999999  0.771457  0.000000  1
  Mo  Mo4  1  0.999999  0.228543  1.000000  1
  O  O5  1  0.086598  0.409865  0.819731  1
  O  O6  1  0.913402  0.590134  0.180269  1
  O  O7  1  0.087686  0.876382  0.752763  1
  O  O8  1  0.912314  0.123617  0.247236  1
  O  O9  1  0.388936  0.343893  0.220491  1
  O  O10  1  0.388936  0.876598  0.220491  1
  O  O11  1  0.611065  0.123401  0.779509  1
  O  O12  1  0.611065  0.656107  0.779509  1
