# generated using pymatgen
data_Ca2Mn3O8
_symmetry_space_group_name_H-M   'P 1'
_cell_length_a   5.98283145
_cell_length_b   5.98283109
_cell_length_c   10.54223947
_cell_angle_alpha   90.00000000
_cell_angle_beta   90.00000000
_cell_angle_gamma   119.99999822
_symmetry_Int_Tables_number   1
_chemical_formula_structural   Ca2Mn3O8
_chemical_formula_sum   'Ca4 Mn6 O16'
_cell_volume   326.79622121
_cell_formula_units_Z   2
loop_
 _symmetry_equiv_pos_site_id
 _symmetry_equiv_pos_as_xyz
  1  'x, y, z'
loop_
 _atom_site_type_symbol
 _atom_site_label
 _atom_site_symmetry_multiplicity
 _atom_site_fract_x
 _atom_site_fract_y
 _atom_site_fract_z
 _atom_site_occupancy
  Ca  Ca0  1  0.666667  0.333334  0.026661  1
  Ca  Ca1  1  0.333333  0.666666  0.526662  1
  Ca  Ca2  1  0.666667  0.333334  0.430677  1
  Ca  Ca3  1  0.333333  0.666666  0.930678  1
  Mn  Mn4  1  0.671186  0.835593  0.245870  1
  Mn  Mn5  1  0.835594  0.164408  0.745870  1
  Mn  Mn6  1  0.164408  0.328815  0.245870  1
  Mn  Mn7  1  0.835592  0.671186  0.745870  1
  Mn  Mn8  1  0.328815  0.164408  0.745870  1
  Mn  Mn9  1  0.164408  0.835593  0.245870  1
  O  O10  1  0.845608  0.154393  0.155151  1
  O  O11  1  0.691215  0.845608  0.655150  1
  O  O12  1  0.154393  0.308786  0.655150  1
  O  O13  1  0.845607  0.691215  0.155151  1
  O  O14  1  0.308785  0.154393  0.155151  1
  O  O15  1  0.154393  0.845608  0.655150  1
  O  O16  1  0.522117  0.477882  0.847526  1
  O  O17  1  0.044235  0.522117  0.347525  1
  O  O18  1  0.477883  0.955766  0.347525  1
  O  O19  1  0.522117  0.044235  0.847526  1
  O  O20  1  0.000000  -0.000000  0.341429  1
  O  O21  1  0.000000  -0.000000  0.841429  1
  O  O22  1  0.333333  0.666666  0.149095  1
  O  O23  1  0.955764  0.477882  0.847526  1
  O  O24  1  0.477882  0.522117  0.347525  1
  O  O25  1  0.666667  0.333334  0.649095  1
