# generated using pymatgen
data_YMo3F15
_symmetry_space_group_name_H-M   'P 1'
_cell_length_a   9.99483875
_cell_length_b   5.62738282
_cell_length_c   10.72100856
_cell_angle_alpha   90.00000000
_cell_angle_beta   90.00000000
_cell_angle_gamma   95.76205778
_symmetry_Int_Tables_number   1
_chemical_formula_structural   YMo3F15
_chemical_formula_sum   'Y2 Mo6 F30'
_cell_volume   599.95409472
_cell_formula_units_Z   2
loop_
 _symmetry_equiv_pos_site_id
 _symmetry_equiv_pos_as_xyz
  1  'x, y, z'
loop_
 _atom_site_type_symbol
 _atom_site_label
 _atom_site_symmetry_multiplicity
 _atom_site_fract_x
 _atom_site_fract_y
 _atom_site_fract_z
 _atom_site_occupancy
  Y  Y0  1  0.962721  0.418052  0.250000  1
  Y  Y1  1  0.370612  0.581947  0.750000  1
  Mo  Mo2  1  0.166667  0.000000  0.500000  1
  Mo  Mo3  1  0.509202  0.033478  0.446433  1
  Mo  Mo4  1  0.824131  0.966522  0.553567  1
  Mo  Mo5  1  0.166667  0.000000  0.000000  1
  Mo  Mo6  1  0.509202  0.033478  0.053567  1
  Mo  Mo7  1  0.824131  0.966522  0.946433  1
  F  F8  1  0.110282  0.701362  0.250000  1
  F  F9  1  0.495455  0.975152  0.250000  1
  F  F10  1  0.827367  0.658556  0.250000  1
  F  F11  1  0.223051  0.298638  0.750000  1
  F  F12  1  0.505967  0.341444  0.750000  1
  F  F13  1  0.837878  0.024848  0.750000  1
  F  F14  1  0.023298  0.147228  0.599407  1
  F  F15  1  0.347823  0.216466  0.522857  1
  F  F16  1  0.656194  0.148546  0.582034  1
  F  F17  1  0.310036  0.852772  0.400593  1
  F  F18  1  0.677139  0.851454  0.417966  1
  F  F19  1  0.985510  0.783534  0.477143  1
  F  F20  1  0.204626  0.773104  0.870068  1
  F  F21  1  0.470079  0.789449  0.913799  1
  F  F22  1  0.765547  0.656888  0.886515  1
  F  F23  1  0.128708  0.226896  0.129932  1
  F  F24  1  0.567786  0.343112  0.113485  1
  F  F25  1  0.863254  0.210551  0.086201  1
  F  F26  1  0.128708  0.226896  0.370068  1
  F  F27  1  0.567786  0.343112  0.386515  1
  F  F28  1  0.863254  0.210551  0.413799  1
  F  F29  1  0.204626  0.773104  0.629932  1
  F  F30  1  0.470079  0.789449  0.586201  1
  F  F31  1  0.765547  0.656888  0.613485  1
  F  F32  1  0.023298  0.147228  0.900593  1
  F  F33  1  0.347823  0.216466  0.977143  1
  F  F34  1  0.656194  0.148546  0.917966  1
  F  F35  1  0.310036  0.852772  0.099407  1
  F  F36  1  0.677139  0.851454  0.082034  1
  F  F37  1  0.985510  0.783534  0.022857  1
