# generated using pymatgen
data_BaWF7
_symmetry_space_group_name_H-M   'P 1'
_cell_length_a   5.74079940
_cell_length_b   10.60783144
_cell_length_c   10.13006054
_cell_angle_alpha   90.00000000
_cell_angle_beta   90.00000000
_cell_angle_gamma   93.22324374
_symmetry_Int_Tables_number   1
_chemical_formula_structural   BaWF7
_chemical_formula_sum   'Ba4 W4 F28'
_cell_volume   615.91877147
_cell_formula_units_Z   4
loop_
 _symmetry_equiv_pos_site_id
 _symmetry_equiv_pos_as_xyz
  1  'x, y, z'
loop_
 _atom_site_type_symbol
 _atom_site_label
 _atom_site_symmetry_multiplicity
 _atom_site_fract_x
 _atom_site_fract_y
 _atom_site_fract_z
 _atom_site_occupancy
  Ba  Ba0  1  0.302438  0.492992  0.332869  1
  Ba  Ba1  1  0.697562  0.007008  0.832869  1
  Ba  Ba2  1  0.697562  0.507008  0.667131  1
  Ba  Ba3  1  0.302438  0.992992  0.167131  1
  W  W4  1  0.185066  0.813317  0.610909  1
  W  W5  1  0.814934  0.186683  0.389091  1
  W  W6  1  0.185066  0.313317  0.889091  1
  W  W7  1  0.814934  0.686683  0.110909  1
  F  F8  1  0.097009  0.125260  0.456045  1
  F  F9  1  0.329642  0.369835  0.051799  1
  F  F10  1  0.463664  0.757859  0.695273  1
  F  F11  1  0.536336  0.242141  0.304727  1
  F  F12  1  0.885691  0.360460  0.454785  1
  F  F13  1  0.260494  0.477454  0.805400  1
  F  F14  1  0.001029  0.758101  0.764901  1
  F  F15  1  0.114309  0.139540  0.954785  1
  F  F16  1  0.329642  0.869835  0.448201  1
  F  F17  1  0.536336  0.742141  0.195273  1
  F  F18  1  0.097009  0.625260  0.043955  1
  F  F19  1  0.902991  0.874740  0.543955  1
  F  F20  1  0.998971  0.741899  0.264901  1
  F  F21  1  0.387875  0.886882  0.958443  1
  F  F22  1  0.114309  0.639540  0.545215  1
  F  F23  1  0.885691  0.860460  0.045215  1
  F  F24  1  0.998971  0.241899  0.235099  1
  F  F25  1  0.902991  0.374740  0.956045  1
  F  F26  1  0.612125  0.613118  0.458443  1
  F  F27  1  0.670358  0.630165  0.948201  1
  F  F28  1  0.612125  0.113118  0.041557  1
  F  F29  1  0.001029  0.258101  0.735099  1
  F  F30  1  0.387875  0.386882  0.541557  1
  F  F31  1  0.739506  0.022546  0.305400  1
  F  F32  1  0.739506  0.522546  0.194600  1
  F  F33  1  0.260494  0.977454  0.694600  1
  F  F34  1  0.670358  0.130165  0.551799  1
  F  F35  1  0.463664  0.257859  0.804727  1
