# generated using pymatgen
data_YCr3O9
_symmetry_space_group_name_H-M   'P 1'
_cell_length_a   5.57448537
_cell_length_b   16.05674518
_cell_length_c   8.04990372
_cell_angle_alpha   90.17412869
_cell_angle_beta   89.74593681
_cell_angle_gamma   89.92666406
_symmetry_Int_Tables_number   1
_chemical_formula_structural   YCr3O9
_chemical_formula_sum   'Y4 Cr12 O36'
_cell_volume   720.52050182
_cell_formula_units_Z   4
loop_
 _symmetry_equiv_pos_site_id
 _symmetry_equiv_pos_as_xyz
  1  'x, y, z'
loop_
 _atom_site_type_symbol
 _atom_site_label
 _atom_site_symmetry_multiplicity
 _atom_site_fract_x
 _atom_site_fract_y
 _atom_site_fract_z
 _atom_site_occupancy
  Y  Y0  1  0.979450  0.982571  0.755827  1
  Y  Y1  1  0.481413  0.183398  0.251827  1
  Y  Y2  1  0.517872  0.483621  0.736162  1
  Y  Y3  1  0.020709  0.683300  0.259042  1
  Cr  Cr4  1  0.992823  0.202628  0.560823  1
  Cr  Cr5  1  0.011823  0.461028  0.430912  1
  Cr  Cr6  1  0.008293  0.834471  0.497647  1
  Cr  Cr7  1  0.519279  0.981569  0.530172  1
  Cr  Cr8  1  0.501793  0.332102  0.496331  1
  Cr  Cr9  1  0.513565  0.707079  0.567104  1
  Cr  Cr10  1  0.486429  0.961000  0.067109  1
  Cr  Cr11  1  0.497458  0.334096  0.995176  1
  Cr  Cr12  1  0.482098  0.683809  0.030021  1
  Cr  Cr13  1  0.012989  0.188465  0.022859  1
  Cr  Cr14  1  0.981439  0.481616  0.968821  1
  Cr  Cr15  1  0.993061  0.832196  0.998229  1
  O  O16  1  0.486731  0.067522  0.422108  1
  O  O17  1  0.730898  0.430411  0.495160  1
  O  O18  1  0.753270  0.745601  0.453268  1
  O  O19  1  0.992828  0.100031  0.571737  1
  O  O20  1  0.247764  0.421607  0.546037  1
  O  O21  1  0.235184  0.737199  0.497283  1
  O  O22  1  0.748161  0.241565  0.040924  1
  O  O23  1  0.998688  0.568226  0.079140  1
  O  O24  1  0.762286  0.928567  0.995485  1
  O  O25  1  0.271075  0.237103  0.971786  1
  O  O26  1  0.501546  0.598364  0.916761  1
  O  O27  1  0.243832  0.923936  0.955055  1
  O  O28  1  0.272773  0.234827  0.497315  1
  O  O29  1  0.525689  0.604789  0.572233  1
  O  O30  1  0.260592  0.925667  0.549718  1
  O  O31  1  0.754818  0.240933  0.444887  1
  O  O32  1  0.023837  0.563386  0.427010  1
  O  O33  1  0.781765  0.933564  0.484930  1
  O  O34  1  0.984067  0.099455  0.922897  1
  O  O35  1  0.245878  0.428139  0.947247  1
  O  O36  1  0.224094  0.734496  0.988876  1
  O  O37  1  0.485358  0.063604  0.077613  1
  O  O38  1  0.725264  0.430634  0.014529  1
  O  O39  1  0.743712  0.738302  0.049803  1
  O  O40  1  0.069484  0.160058  0.216961  1
  O  O41  1  0.052602  0.424420  0.247782  1
  O  O42  1  0.049159  0.820243  0.246120  1
  O  O43  1  0.569669  0.013744  0.722857  1
  O  O44  1  0.552864  0.347332  0.747192  1
  O  O45  1  0.546417  0.744380  0.749873  1
  O  O46  1  0.447956  0.319453  0.243488  1
  O  O47  1  0.430557  0.650417  0.221740  1
  O  O48  1  0.453665  0.923152  0.249409  1
  O  O49  1  0.946762  0.239968  0.742213  1
  O  O50  1  0.927155  0.513398  0.776677  1
  O  O51  1  0.953106  0.845891  0.745825  1
