# generated using pymatgen
data_Mn3Zn2O8
_symmetry_space_group_name_H-M   'P 1'
_cell_length_a   4.97342180
_cell_length_b   5.78093760
_cell_length_c   5.77342447
_cell_angle_alpha   120.04305791
_cell_angle_beta   101.99184431
_cell_angle_gamma   89.99999723
_symmetry_Int_Tables_number   1
_chemical_formula_structural   Mn3Zn2O8
_chemical_formula_sum   'Mn3 Zn2 O8'
_cell_volume   139.49049714
_cell_formula_units_Z   1
loop_
 _symmetry_equiv_pos_site_id
 _symmetry_equiv_pos_as_xyz
  1  'x, y, z'
loop_
 _atom_site_type_symbol
 _atom_site_label
 _atom_site_symmetry_multiplicity
 _atom_site_fract_x
 _atom_site_fract_y
 _atom_site_fract_z
 _atom_site_occupancy
  Mn  Mn0  1  0.500000  0.999999  0.000000  1
  Mn  Mn1  1  0.999999  0.744079  0.000000  1
  Mn  Mn2  1  0.999999  0.255921  1.000000  1
  Zn  Zn3  1  0.619108  0.711783  0.423565  1
  Zn  Zn4  1  0.380891  0.288218  0.576435  1
  O  O5  1  0.088834  0.392748  0.785497  1
  O  O6  1  0.911166  0.607251  0.214503  1
  O  O7  1  0.119900  0.899232  0.798464  1
  O  O8  1  0.880100  0.100767  0.201535  1
  O  O9  1  0.375574  0.341570  0.229643  1
  O  O10  1  0.375574  0.888073  0.229643  1
  O  O11  1  0.624427  0.111926  0.770357  1
  O  O12  1  0.624427  0.658430  0.770357  1
