# generated using pymatgen
data_Zn3Cr2O7
_symmetry_space_group_name_H-M   'P 1'
_cell_length_a   5.12102026
_cell_length_b   5.16999442
_cell_length_c   9.62680035
_cell_angle_alpha   105.57626661
_cell_angle_beta   90.00000000
_cell_angle_gamma   90.00000000
_symmetry_Int_Tables_number   1
_chemical_formula_structural   Zn3Cr2O7
_chemical_formula_sum   'Zn6 Cr4 O14'
_cell_volume   245.51516179
_cell_formula_units_Z   2
loop_
 _symmetry_equiv_pos_site_id
 _symmetry_equiv_pos_as_xyz
  1  'x, y, z'
loop_
 _atom_site_type_symbol
 _atom_site_label
 _atom_site_symmetry_multiplicity
 _atom_site_fract_x
 _atom_site_fract_y
 _atom_site_fract_z
 _atom_site_occupancy
  Zn  Zn0  1  0.721757  0.739314  1.000000  1
  Zn  Zn1  1  0.221757  0.260686  0.000000  1
  Zn  Zn2  1  0.790596  0.577165  0.598608  1
  Zn  Zn3  1  0.290596  0.422835  0.401392  1
  Zn  Zn4  1  0.790596  0.978555  0.401392  1
  Zn  Zn5  1  0.290596  0.021445  0.598608  1
  Cr  Cr6  1  0.754781  0.353502  0.203735  1
  Cr  Cr7  1  0.254781  0.646498  0.796265  1
  Cr  Cr8  1  0.254781  0.850234  0.203735  1
  Cr  Cr9  1  0.754781  0.149766  0.796265  1
  O  O10  1  0.680058  0.946645  0.594755  1
  O  O11  1  0.180058  0.053355  0.405245  1
  O  O12  1  0.180058  0.648109  0.594755  1
  O  O13  1  0.680058  0.351891  0.405245  1
  O  O14  1  0.070833  0.289020  0.742768  1
  O  O15  1  0.570833  0.710980  0.257232  1
  O  O16  1  0.570833  0.453748  0.742768  1
  O  O17  1  0.070833  0.546252  0.257232  1
  O  O18  1  0.938601  0.843570  0.846712  1
  O  O19  1  0.438601  0.156430  0.153288  1
  O  O20  1  0.828508  0.361646  0.000000  1
  O  O21  1  0.328508  0.638354  1.000000  1
  O  O22  1  0.938601  0.996857  0.153288  1
  O  O23  1  0.438601  0.003143  0.846712  1
