# generated using pymatgen
data_Ca2AlCoO5
_symmetry_space_group_name_H-M   'P 1'
_cell_length_a   5.25508576
_cell_length_b   5.58986281
_cell_length_c   8.30167969
_cell_angle_alpha   109.43898828
_cell_angle_beta   108.46104168
_cell_angle_gamma   89.99313962
_symmetry_Int_Tables_number   1
_chemical_formula_structural   Ca2AlCoO5
_chemical_formula_sum   'Ca4 Al2 Co2 O10'
_cell_volume   216.61263911
_cell_formula_units_Z   2
loop_
 _symmetry_equiv_pos_site_id
 _symmetry_equiv_pos_as_xyz
  1  'x, y, z'
loop_
 _atom_site_type_symbol
 _atom_site_label
 _atom_site_symmetry_multiplicity
 _atom_site_fract_x
 _atom_site_fract_y
 _atom_site_fract_z
 _atom_site_occupancy
  Ca  Ca0  1  0.117488  0.646071  0.219914  1
  Ca  Ca1  1  0.401162  0.921506  0.780114  1
  Ca  Ca2  1  0.898239  0.357944  0.780539  1
  Ca  Ca3  1  0.620908  0.082159  0.220218  1
  Al  Al4  1  0.293086  0.328009  0.502197  1
  Al  Al5  1  0.791053  0.675637  0.498068  1
  Co  Co6  1  0.497391  0.502026  0.000258  1
  Co  Co7  1  0.998513  0.002038  0.000287  1
  O  O8  1  0.629675  0.392373  0.500200  1
  O  O9  1  0.129741  0.611390  0.500051  1
  O  O10  1  0.616976  0.712062  0.289076  1
  O  O11  1  0.328068  0.292114  0.711371  1
  O  O12  1  0.117719  0.078817  0.300377  1
  O  O13  1  0.818162  0.924813  0.700108  1
  O  O14  1  0.237927  0.745526  0.972971  1
  O  O15  1  0.261939  0.261677  0.027622  1
  O  O16  1  0.763866  0.266036  0.027392  1
  O  O17  1  0.739937  0.734957  0.972906  1
