# generated using pymatgen
data_AlV2O4
_symmetry_space_group_name_H-M   'P 1'
_cell_length_a   5.41598160
_cell_length_b   5.39885708
_cell_length_c   6.55550098
_cell_angle_alpha   114.10715774
_cell_angle_beta   114.18982425
_cell_angle_gamma   90.46273168
_symmetry_Int_Tables_number   1
_chemical_formula_structural   AlV2O4
_chemical_formula_sum   'Al2 V4 O8'
_cell_volume   156.01917941
_cell_formula_units_Z   2
loop_
 _symmetry_equiv_pos_site_id
 _symmetry_equiv_pos_as_xyz
  1  'x, y, z'
loop_
 _atom_site_type_symbol
 _atom_site_label
 _atom_site_symmetry_multiplicity
 _atom_site_fract_x
 _atom_site_fract_y
 _atom_site_fract_z
 _atom_site_occupancy
  Al  Al0  1  0.878494  0.128494  0.756989  1
  Al  Al1  1  0.121506  0.871506  0.243011  1
  V  V2  1  0.500000  0.000000  0.000000  1
  V  V3  1  0.500000  0.500000  0.000000  1
  V  V4  1  0.000000  0.500000  0.500000  1
  V  V5  1  0.500000  0.500000  0.500000  1
  O  O6  1  0.715178  0.438593  0.806134  1
  O  O7  1  0.090956  0.867541  0.806134  1
  O  O8  1  0.284822  0.561407  0.193866  1
  O  O9  1  0.909044  0.132459  0.193866  1
  O  O10  1  0.436002  0.091435  0.303850  1
  O  O11  1  0.867849  0.712415  0.303850  1
  O  O12  1  0.132151  0.287585  0.696150  1
  O  O13  1  0.563998  0.908565  0.696150  1
