# generated using pymatgen
data_Y(CoO2)2
_symmetry_space_group_name_H-M   'P 1'
_cell_length_a   6.14903751
_cell_length_b   6.14903737
_cell_length_c   6.14903772
_cell_angle_alpha   59.66933731
_cell_angle_beta   59.66934294
_cell_angle_gamma   59.66933916
_symmetry_Int_Tables_number   1
_chemical_formula_structural   Y(CoO2)2
_chemical_formula_sum   'Y2 Co4 O8'
_cell_volume   163.16670908
_cell_formula_units_Z   2
loop_
 _symmetry_equiv_pos_site_id
 _symmetry_equiv_pos_as_xyz
  1  'x, y, z'
loop_
 _atom_site_type_symbol
 _atom_site_label
 _atom_site_symmetry_multiplicity
 _atom_site_fract_x
 _atom_site_fract_y
 _atom_site_fract_z
 _atom_site_occupancy
  Y  Y0  1  0.620901  0.620901  0.620901  1
  Y  Y1  1  0.379099  0.379099  0.379099  1
  Co  Co2  1  0.000000  0.500000  0.000000  1
  Co  Co3  1  0.000000  0.000000  0.000000  1
  Co  Co4  1  0.500000  0.000000  0.000000  1
  Co  Co5  1  0.000000  0.000000  0.500000  1
  O  O6  1  0.195386  0.757973  0.757973  1
  O  O7  1  0.242027  0.242027  0.804614  1
  O  O8  1  0.242027  0.804614  0.242027  1
  O  O9  1  0.234497  0.234497  0.234497  1
  O  O10  1  0.757973  0.757973  0.195386  1
  O  O11  1  0.804614  0.242027  0.242027  1
  O  O12  1  0.757973  0.195386  0.757973  1
  O  O13  1  0.765503  0.765503  0.765503  1
