# generated using pymatgen
data_Ba2Tl2Zn2Co3O10
_symmetry_space_group_name_H-M   'P 1'
_cell_length_a   3.87369243
_cell_length_b   3.95413838
_cell_length_c   18.10656706
_cell_angle_alpha   94.69894838
_cell_angle_beta   95.93837004
_cell_angle_gamma   90.45492046
_symmetry_Int_Tables_number   1
_chemical_formula_structural   Ba2Tl2Zn2Co3O10
_chemical_formula_sum   'Ba2 Tl2 Zn2 Co3 O10'
_cell_volume   274.88724479
_cell_formula_units_Z   1
loop_
 _symmetry_equiv_pos_site_id
 _symmetry_equiv_pos_as_xyz
  1  'x, y, z'
loop_
 _atom_site_type_symbol
 _atom_site_label
 _atom_site_symmetry_multiplicity
 _atom_site_fract_x
 _atom_site_fract_y
 _atom_site_fract_z
 _atom_site_occupancy
  Ba  Ba0  1  0.121139  0.162280  0.276010  1
  Ba  Ba1  1  0.838847  0.825783  0.720499  1
  Tl  Tl2  1  0.633806  0.721294  0.435266  1
  Tl  Tl3  1  0.195367  0.269267  0.563911  1
  Zn  Zn4  1  0.857522  0.899006  0.910459  1
  Zn  Zn5  1  0.971727  0.042539  0.082651  1
  Co  Co6  1  0.389659  0.373170  0.842947  1
  Co  Co7  1  0.570879  0.608129  0.154630  1
  Co  Co8  1  0.311293  0.529971  -0.000060  1
  O  O9  1  0.424940  0.870904  0.835603  1
  O  O10  1  0.317274  0.311816  0.681399  1
  O  O11  1  0.900443  0.378785  0.844821  1
  O  O12  1  0.833317  0.762805  0.552978  1
  O  O13  1  0.798866  0.581087  0.013752  1
  O  O14  1  0.086437  0.628125  0.170230  1
  O  O15  1  0.641496  0.677072  0.318844  1
  O  O16  1  0.586318  0.110475  0.149194  1
  O  O17  1  0.286303  0.223233  0.447154  1
  O  O18  1  0.235454  0.042223  0.990672  1
