# generated using pymatgen
data_V2ZnO4
_symmetry_space_group_name_H-M   'P 1'
_cell_length_a   2.97384667
_cell_length_b   9.28368544
_cell_length_c   10.54137998
_cell_angle_alpha   90.00024452
_cell_angle_beta   89.99993390
_cell_angle_gamma   90.00012039
_symmetry_Int_Tables_number   1
_chemical_formula_structural   V2ZnO4
_chemical_formula_sum   'V8 Zn4 O16'
_cell_volume   291.02912795
_cell_formula_units_Z   4
loop_
 _symmetry_equiv_pos_site_id
 _symmetry_equiv_pos_as_xyz
  1  'x, y, z'
loop_
 _atom_site_type_symbol
 _atom_site_label
 _atom_site_symmetry_multiplicity
 _atom_site_fract_x
 _atom_site_fract_y
 _atom_site_fract_z
 _atom_site_occupancy
  V  V0  1  0.249997  0.408062  0.102927  1
  V  V1  1  0.750000  0.091935  0.602936  1
  V  V2  1  0.250004  0.908061  0.397068  1
  V  V3  1  0.749999  0.591943  0.897067  1
  V  V4  1  0.750000  0.563670  0.379073  1
  V  V5  1  0.249998  0.436328  0.620917  1
  V  V6  1  0.750001  0.063677  0.120923  1
  V  V7  1  0.249998  0.936321  0.879089  1
  Zn  Zn8  1  0.749996  0.253236  0.355014  1
  Zn  Zn9  1  0.249999  0.746751  0.644976  1
  Zn  Zn10  1  0.749999  0.753240  0.144997  1
  Zn  Zn11  1  0.249999  0.246751  0.855007  1
  O  O12  1  0.249999  0.910198  0.070141  1
  O  O13  1  0.750000  0.089807  0.929873  1
  O  O14  1  0.249996  0.410192  0.429863  1
  O  O15  1  0.749999  0.589805  0.570124  1
  O  O16  1  0.250000  0.043451  0.717793  1
  O  O17  1  0.750000  0.956548  0.282216  1
  O  O18  1  0.250000  0.543462  0.782207  1
  O  O19  1  0.749999  0.456556  0.217776  1
  O  O20  1  0.250001  0.622111  0.037023  1
  O  O21  1  0.749999  0.377892  0.962970  1
  O  O22  1  0.250005  0.122102  0.462981  1
  O  O23  1  0.749999  0.877890  0.537025  1
  O  O24  1  0.750000  0.797484  0.822185  1
  O  O25  1  0.250000  0.202523  0.177840  1
  O  O26  1  0.250001  0.702517  0.322167  1
  O  O27  1  0.749999  0.297486  0.677819  1
