# generated using pymatgen
data_VZn2SbO6
_symmetry_space_group_name_H-M   'P 1'
_cell_length_a   5.28552106
_cell_length_b   5.31969927
_cell_length_c   7.74765585
_cell_angle_alpha   90.00000000
_cell_angle_beta   90.00000000
_cell_angle_gamma   90.96081020
_symmetry_Int_Tables_number   1
_chemical_formula_structural   VZn2SbO6
_chemical_formula_sum   'V2 Zn4 Sb2 O12'
_cell_volume   217.81317396
_cell_formula_units_Z   2
loop_
 _symmetry_equiv_pos_site_id
 _symmetry_equiv_pos_as_xyz
  1  'x, y, z'
loop_
 _atom_site_type_symbol
 _atom_site_label
 _atom_site_symmetry_multiplicity
 _atom_site_fract_x
 _atom_site_fract_y
 _atom_site_fract_z
 _atom_site_occupancy
  V  V0  1  0.500000  0.000000  0.500000  1
  V  V1  1  0.500000  0.000000  0.000000  1
  Zn  Zn2  1  0.515559  0.555190  0.750000  1
  Zn  Zn3  1  0.484441  0.444810  0.250000  1
  Zn  Zn4  1  0.025232  0.016210  0.750000  1
  Zn  Zn5  1  0.974768  0.983790  0.250000  1
  Sb  Sb6  1  0.000000  0.500000  0.500000  1
  Sb  Sb7  1  0.000000  0.500000  0.000000  1
  O  O8  1  0.322262  0.674839  0.433163  1
  O  O9  1  0.166833  0.185310  0.068527  1
  O  O10  1  0.677738  0.325161  0.933163  1
  O  O11  1  0.833167  0.814690  0.568527  1
  O  O12  1  0.166833  0.185310  0.431473  1
  O  O13  1  0.833167  0.814690  0.931473  1
  O  O14  1  0.868943  0.577331  0.250000  1
  O  O15  1  0.322262  0.674839  0.066837  1
  O  O16  1  0.388933  0.924551  0.750000  1
  O  O17  1  0.677738  0.325161  0.566837  1
  O  O18  1  0.131057  0.422669  0.750000  1
  O  O19  1  0.611067  0.075449  0.250000  1
