# generated using pymatgen
data_ZnCuBiO5
_symmetry_space_group_name_H-M   'P 1'
_cell_length_a   5.22458286
_cell_length_b   9.69020488
_cell_length_c   15.03574847
_cell_angle_alpha   90.00000000
_cell_angle_beta   90.00000000
_cell_angle_gamma   90.00000000
_symmetry_Int_Tables_number   1
_chemical_formula_structural   ZnCuBiO5
_chemical_formula_sum   'Zn8 Cu8 Bi8 O40'
_cell_volume   761.21902263
_cell_formula_units_Z   8
loop_
 _symmetry_equiv_pos_site_id
 _symmetry_equiv_pos_as_xyz
  1  'x, y, z'
loop_
 _atom_site_type_symbol
 _atom_site_label
 _atom_site_symmetry_multiplicity
 _atom_site_fract_x
 _atom_site_fract_y
 _atom_site_fract_z
 _atom_site_occupancy
  Zn  Zn0  1  0.558057  0.374327  0.436806  1
  Zn  Zn1  1  0.058057  0.125673  0.436806  1
  Zn  Zn2  1  0.058057  0.625673  0.063194  1
  Zn  Zn3  1  0.941943  0.374327  0.936806  1
  Zn  Zn4  1  0.441943  0.125673  0.936806  1
  Zn  Zn5  1  0.941943  0.874327  0.563194  1
  Zn  Zn6  1  0.441943  0.625673  0.563194  1
  Zn  Zn7  1  0.558057  0.874327  0.063194  1
  Cu  Cu8  1  0.026696  0.384768  0.572128  1
  Cu  Cu9  1  0.473304  0.884768  0.427872  1
  Cu  Cu10  1  0.973304  0.615232  0.427872  1
  Cu  Cu11  1  0.526696  0.115232  0.572128  1
  Cu  Cu12  1  0.973304  0.115232  0.072128  1
  Cu  Cu13  1  0.026696  0.884768  0.927872  1
  Cu  Cu14  1  0.473304  0.384768  0.072128  1
  Cu  Cu15  1  0.526696  0.615232  0.927872  1
  Bi  Bi16  1  0.021972  0.863215  0.250110  1
  Bi  Bi17  1  0.978028  0.136785  0.749890  1
  Bi  Bi18  1  0.478028  0.363215  0.749890  1
  Bi  Bi19  1  0.978028  0.636785  0.750110  1
  Bi  Bi20  1  0.521972  0.136785  0.249890  1
  Bi  Bi21  1  0.521972  0.636785  0.250110  1
  Bi  Bi22  1  0.478028  0.863215  0.750110  1
  Bi  Bi23  1  0.021972  0.363215  0.249890  1
  O  O24  1  0.827588  0.318700  0.671060  1
  O  O25  1  0.234183  0.977164  0.018414  1
  O  O26  1  0.265817  0.477164  0.981586  1
  O  O27  1  0.355922  0.808341  0.172798  1
  O  O28  1  0.144078  0.308341  0.827202  1
  O  O29  1  0.827588  0.818701  0.828940  1
  O  O30  1  0.144078  0.808341  0.672798  1
  O  O31  1  0.672412  0.818701  0.328940  1
  O  O32  1  0.234183  0.477164  0.481586  1
  O  O33  1  0.172412  0.681299  0.328940  1
  O  O34  1  0.672412  0.318700  0.171060  1
  O  O35  1  0.834131  0.262685  0.504845  1
  O  O36  1  0.734183  0.022836  0.481586  1
  O  O37  1  0.644078  0.691659  0.672798  1
  O  O38  1  0.222726  0.998379  0.847114  1
  O  O39  1  0.734183  0.522836  0.018414  1
  O  O40  1  0.172412  0.181300  0.171060  1
  O  O41  1  0.855922  0.191659  0.327202  1
  O  O42  1  0.334131  0.737315  0.995155  1
  O  O43  1  0.265817  0.977164  0.518414  1
  O  O44  1  0.165869  0.737315  0.495155  1
  O  O45  1  0.777274  0.001621  0.152886  1
  O  O46  1  0.644078  0.191659  0.827202  1
  O  O47  1  0.722726  0.001621  0.652886  1
  O  O48  1  0.165869  0.237315  0.004845  1
  O  O49  1  0.334131  0.237315  0.504845  1
  O  O50  1  0.765817  0.522836  0.518414  1
  O  O51  1  0.765817  0.022836  0.981586  1
  O  O52  1  0.722726  0.501621  0.847114  1
  O  O53  1  0.665869  0.762685  0.495155  1
  O  O54  1  0.665869  0.262685  0.004845  1
  O  O55  1  0.834131  0.762685  0.995155  1
  O  O56  1  0.777274  0.501621  0.347114  1
  O  O57  1  0.855922  0.691659  0.172798  1
  O  O58  1  0.355922  0.308341  0.327202  1
  O  O59  1  0.222726  0.498379  0.652886  1
  O  O60  1  0.277274  0.498379  0.152886  1
  O  O61  1  0.327588  0.181300  0.671060  1
  O  O62  1  0.277274  0.998379  0.347114  1
  O  O63  1  0.327588  0.681299  0.828940  1
