# generated using pymatgen
data_LaTiZnFeO6
_symmetry_space_group_name_H-M   'P 1'
_cell_length_a   5.71697936
_cell_length_b   5.40173577
_cell_length_c   7.72527309
_cell_angle_alpha   89.84043535
_cell_angle_beta   90.00000000
_cell_angle_gamma   90.00000000
_symmetry_Int_Tables_number   1
_chemical_formula_structural   LaTiZnFeO6
_chemical_formula_sum   'La2 Ti2 Zn2 Fe2 O12'
_cell_volume   238.56796017
_cell_formula_units_Z   2
loop_
 _symmetry_equiv_pos_site_id
 _symmetry_equiv_pos_as_xyz
  1  'x, y, z'
loop_
 _atom_site_type_symbol
 _atom_site_label
 _atom_site_symmetry_multiplicity
 _atom_site_fract_x
 _atom_site_fract_y
 _atom_site_fract_z
 _atom_site_occupancy
  La  La0  1  0.053833  0.984474  0.250597  1
  La  La1  1  0.446167  0.484474  0.750597  1
  Ti  Ti2  1  0.533673  -0.004465  0.499964  1
  Ti  Ti3  1  0.966327  0.495535  -0.000036  1
  Zn  Zn4  1  0.413198  0.484719  0.250929  1
  Zn  Zn5  1  0.086802  -0.015281  0.750929  1
  Fe  Fe6  1  0.516856  -0.006795  0.004212  1
  Fe  Fe7  1  0.983144  0.493205  0.504212  1
  O  O8  1  0.025748  0.624846  0.752761  1
  O  O9  1  0.193967  0.202752  0.946901  1
  O  O10  1  0.191308  0.198673  0.552653  1
  O  O11  1  0.308692  0.698673  0.052653  1
  O  O12  1  0.306033  0.702752  0.446901  1
  O  O13  1  0.474252  0.124846  0.252760  1
  O  O14  1  0.496964  0.926426  0.744525  1
  O  O15  1  0.700110  0.292140  0.542520  1
  O  O16  1  0.713610  0.297230  0.954938  1
  O  O17  1  0.786390  0.797230  0.454938  1
  O  O18  1  0.799890  0.792140  0.042520  1
  O  O19  1  0.003036  0.426426  0.244525  1
