# generated using pymatgen
data_PrZn(MoO3)2
_symmetry_space_group_name_H-M   'P 1'
_cell_length_a   5.50835686
_cell_length_b   5.87742212
_cell_length_c   8.15035499
_cell_angle_alpha   90.00101952
_cell_angle_beta   89.77524410
_cell_angle_gamma   89.99821826
_symmetry_Int_Tables_number   1
_chemical_formula_structural   PrZn(MoO3)2
_chemical_formula_sum   'Pr2 Zn2 Mo4 O12'
_cell_volume   263.86521074
_cell_formula_units_Z   2
loop_
 _symmetry_equiv_pos_site_id
 _symmetry_equiv_pos_as_xyz
  1  'x, y, z'
loop_
 _atom_site_type_symbol
 _atom_site_label
 _atom_site_symmetry_multiplicity
 _atom_site_fract_x
 _atom_site_fract_y
 _atom_site_fract_z
 _atom_site_occupancy
  Pr  Pr0  1  0.022035  0.943627  0.751360  1
  Pr  Pr1  1  0.522030  0.556365  0.251359  1
  Zn  Zn2  1  0.523554  0.613803  0.746210  1
  Zn  Zn3  1  0.023558  0.886181  0.246207  1
  Mo  Mo4  1  0.997608  0.477657  0.997121  1
  Mo  Mo5  1  0.998688  0.487404  0.502526  1
  Mo  Mo6  1  0.497600  0.022340  0.497127  1
  Mo  Mo7  1  0.498687  0.012592  0.002524  1
  O  O8  1  0.105472  0.500981  0.246487  1
  O  O9  1  0.174923  0.190928  0.950753  1
  O  O10  1  0.193943  0.190041  0.560648  1
  O  O11  1  0.314361  0.706721  0.556681  1
  O  O12  1  0.299344  0.691529  0.934137  1
  O  O13  1  0.370078  0.962151  0.254081  1
  O  O14  1  0.605492  0.999050  0.746486  1
  O  O15  1  0.693926  0.309959  0.060641  1
  O  O16  1  0.674928  0.309081  0.450751  1
  O  O17  1  0.814354  0.793274  0.056679  1
  O  O18  1  0.799339  0.808475  0.434138  1
  O  O19  1  0.870076  0.537842  0.754083  1
