# generated using pymatgen
data_Zn2SbWO6
_symmetry_space_group_name_H-M   'P 1'
_cell_length_a   7.70303526
_cell_length_b   7.29374033
_cell_length_c   8.74769044
_cell_angle_alpha   75.27389660
_cell_angle_beta   143.93718689
_cell_angle_gamma   131.67835500
_symmetry_Int_Tables_number   1
_chemical_formula_structural   Zn2SbWO6
_chemical_formula_sum   'Zn2 Sb1 W1 O6'
_cell_volume   165.24095584
_cell_formula_units_Z   1
loop_
 _symmetry_equiv_pos_site_id
 _symmetry_equiv_pos_as_xyz
  1  'x, y, z'
loop_
 _atom_site_type_symbol
 _atom_site_label
 _atom_site_symmetry_multiplicity
 _atom_site_fract_x
 _atom_site_fract_y
 _atom_site_fract_z
 _atom_site_occupancy
  Zn  Zn0  1  0.938738  0.668294  0.234778  1
  Zn  Zn1  1  0.756050  0.461548  0.740374  1
  Sb  Sb2  1  0.803433  0.941927  0.421455  1
  W  W3  1  0.127753  0.039566  0.035082  1
  O  O4  1  0.224162  0.081062  0.314455  1
  O  O5  1  0.916594  0.837503  0.716626  1
  O  O6  1  0.502468  0.434804  0.157093  1
  O  O7  1  0.515436  0.828905  0.670457  1
  O  O8  1  0.627978  0.094831  0.368792  1
  O  O9  1  0.556015  0.421718  0.824569  1
