# generated using pymatgen
data_Ca2Mn9O13
_symmetry_space_group_name_H-M   'P 1'
_cell_length_a   3.16303406
_cell_length_b   5.41608314
_cell_length_c   17.17977865
_cell_angle_alpha   98.60371370
_cell_angle_beta   90.27554208
_cell_angle_gamma   106.14376899
_symmetry_Int_Tables_number   1
_chemical_formula_structural   Ca2Mn9O13
_chemical_formula_sum   'Ca2 Mn9 O13'
_cell_volume   279.19038649
_cell_formula_units_Z   1
loop_
 _symmetry_equiv_pos_site_id
 _symmetry_equiv_pos_as_xyz
  1  'x, y, z'
loop_
 _atom_site_type_symbol
 _atom_site_label
 _atom_site_symmetry_multiplicity
 _atom_site_fract_x
 _atom_site_fract_y
 _atom_site_fract_z
 _atom_site_occupancy
  Ca  Ca0  1  0.229064  0.449251  0.230477  1
  Ca  Ca1  1  0.770936  0.550749  0.769523  1
  Mn  Mn2  1  0.500000  0.000000  0.500000  1
  Mn  Mn3  1  0.648491  0.296941  0.040059  1
  Mn  Mn4  1  0.351509  0.703059  0.959941  1
  Mn  Mn5  1  0.755050  0.507913  0.419673  1
  Mn  Mn6  1  0.244950  0.492087  0.580327  1
  Mn  Mn7  1  0.945104  0.884674  0.123037  1
  Mn  Mn8  1  0.054896  0.115326  0.876963  1
  Mn  Mn9  1  0.998279  0.990517  0.332559  1
  Mn  Mn10  1  0.001721  0.009483  0.667441  1
  O  O11  1  0.000000  0.000000  -0.000000  1
  O  O12  1  0.879986  0.760003  0.226503  1
  O  O13  1  0.120014  0.239997  0.773497  1
  O  O14  1  0.296422  0.592809  0.067294  1
  O  O15  1  0.703578  0.407191  0.932706  1
  O  O16  1  0.591680  0.176299  0.141007  1
  O  O17  1  0.408320  0.823701  0.858993  1
  O  O18  1  0.635455  0.268546  0.320937  1
  O  O19  1  0.364545  0.731454  0.679063  1
  O  O20  1  0.386640  0.758432  0.386393  1
  O  O21  1  0.613360  0.241568  0.613607  1
  O  O22  1  0.132141  0.274511  0.469332  1
  O  O23  1  0.867859  0.725489  0.530668  1
