# generated using pymatgen
data_MgMo3O8
_symmetry_space_group_name_H-M   'P 1'
_cell_length_a   6.26615968
_cell_length_b   6.07481412
_cell_length_c   9.83141751
_cell_angle_alpha   90.00000000
_cell_angle_beta   90.00000000
_cell_angle_gamma   61.00509577
_symmetry_Int_Tables_number   1
_chemical_formula_structural   MgMo3O8
_chemical_formula_sum   'Mg2 Mo6 O16'
_cell_volume   327.33410602
_cell_formula_units_Z   2
loop_
 _symmetry_equiv_pos_site_id
 _symmetry_equiv_pos_as_xyz
  1  'x, y, z'
loop_
 _atom_site_type_symbol
 _atom_site_label
 _atom_site_symmetry_multiplicity
 _atom_site_fract_x
 _atom_site_fract_y
 _atom_site_fract_z
 _atom_site_occupancy
  Mg  Mg0  1  0.678590  0.660705  0.570757  1
  Mg  Mg1  1  0.321410  0.339295  0.070757  1
  Mo  Mo2  1  0.324518  0.837741  0.259128  1
  Mo  Mo3  1  0.827399  0.851003  0.243292  1
  Mo  Mo4  1  0.827399  0.321599  0.243292  1
  Mo  Mo5  1  0.675482  0.162259  0.759128  1
  Mo  Mo6  1  0.172601  0.148997  0.743292  1
  Mo  Mo7  1  0.172601  0.678401  0.743292  1
  O  O8  1  0.014803  0.992598  0.131069  1
  O  O9  1  0.985197  0.007402  0.631069  1
  O  O10  1  0.661013  0.669494  0.363980  1
  O  O11  1  0.338987  0.330506  0.863980  1
  O  O12  1  0.975691  0.512155  0.149102  1
  O  O13  1  0.508907  0.501623  0.146693  1
  O  O14  1  0.508907  0.989470  0.146693  1
  O  O15  1  0.024309  0.487845  0.649102  1
  O  O16  1  0.491093  0.498377  0.646693  1
  O  O17  1  0.491093  0.010530  0.646693  1
  O  O18  1  0.287721  0.856139  0.864351  1
  O  O19  1  0.840407  0.847739  0.844072  1
  O  O20  1  0.840407  0.311854  0.844072  1
  O  O21  1  0.712279  0.143861  0.364351  1
  O  O22  1  0.159593  0.152261  0.344072  1
  O  O23  1  0.159593  0.688146  0.344072  1
