# generated using pymatgen
data_Ti5ZnO7
_symmetry_space_group_name_H-M   'P 1'
_cell_length_a   2.97083472
_cell_length_b   5.14114732
_cell_length_c   17.88586664
_cell_angle_alpha   90.00000000
_cell_angle_beta   90.00000000
_cell_angle_gamma   106.79373496
_symmetry_Int_Tables_number   1
_chemical_formula_structural   Ti5ZnO7
_chemical_formula_sum   'Ti10 Zn2 O14'
_cell_volume   261.52894783
_cell_formula_units_Z   2
loop_
 _symmetry_equiv_pos_site_id
 _symmetry_equiv_pos_as_xyz
  1  'x, y, z'
loop_
 _atom_site_type_symbol
 _atom_site_label
 _atom_site_symmetry_multiplicity
 _atom_site_fract_x
 _atom_site_fract_y
 _atom_site_fract_z
 _atom_site_occupancy
  Ti  Ti0  1  0.291168  0.582334  0.570899  1
  Ti  Ti1  1  0.462219  0.924437  0.149225  1
  Ti  Ti2  1  0.000000  0.000000  0.500000  1
  Ti  Ti3  1  0.000000  0.000000  -0.000000  1
  Ti  Ti4  1  0.537781  0.075562  0.850776  1
  Ti  Ti5  1  0.708832  0.417665  0.429101  1
  Ti  Ti6  1  0.708832  0.417665  0.070899  1
  Ti  Ti7  1  0.291168  0.582334  0.929101  1
  Ti  Ti8  1  0.537781  0.075562  0.649224  1
  Ti  Ti9  1  0.462219  0.924437  0.350776  1
  Zn  Zn10  1  0.790439  0.580878  0.750000  1
  Zn  Zn11  1  0.209562  0.419121  0.250000  1
  O  O12  1  0.642818  0.285635  0.955853  1
  O  O13  1  0.357183  0.714366  0.044147  1
  O  O14  1  0.357183  0.714366  0.455853  1
  O  O15  1  0.642818  0.285635  0.544147  1
  O  O16  1  0.181986  0.363974  0.827432  1
  O  O17  1  0.818014  0.636026  0.172568  1
  O  O18  1  0.818014  0.636026  0.327433  1
  O  O19  1  0.181986  0.363974  0.672568  1
  O  O20  1  0.910083  0.820164  0.885845  1
  O  O21  1  0.089917  0.179836  0.114155  1
  O  O22  1  0.089917  0.179836  0.385845  1
  O  O23  1  0.910083  0.820164  0.614155  1
  O  O24  1  0.445289  0.890579  0.750000  1
  O  O25  1  0.554712  0.109423  0.250000  1
