# generated using pymatgen
data_Sr2YTlFe2O7
_symmetry_space_group_name_H-M   'P 1'
_cell_length_a   3.87296087
_cell_length_b   3.87295558
_cell_length_c   13.00392166
_cell_angle_alpha   90.00004940
_cell_angle_beta   90.00003479
_cell_angle_gamma   89.99996287
_symmetry_Int_Tables_number   1
_chemical_formula_structural   Sr2YTlFe2O7
_chemical_formula_sum   'Sr2 Y1 Tl1 Fe2 O7'
_cell_volume   195.05629450
_cell_formula_units_Z   1
loop_
 _symmetry_equiv_pos_site_id
 _symmetry_equiv_pos_as_xyz
  1  'x, y, z'
loop_
 _atom_site_type_symbol
 _atom_site_label
 _atom_site_symmetry_multiplicity
 _atom_site_fract_x
 _atom_site_fract_y
 _atom_site_fract_z
 _atom_site_occupancy
  Sr  Sr0  1  0.500001  0.499999  0.811183  1
  Sr  Sr1  1  0.500000  0.500005  0.188924  1
  Y  Y2  1  0.500001  0.499999  0.499999  1
  Tl  Tl3  1  0.999998  0.000002  0.000047  1
  Fe  Fe4  1  0.000002  0.999998  0.647974  1
  Fe  Fe5  1  1.000000  0.000002  0.351973  1
  O  O6  1  0.500000  0.999997  0.609327  1
  O  O7  1  0.999999  0.499998  0.609327  1
  O  O8  1  0.500000  -0.000000  0.390610  1
  O  O9  1  -0.000000  0.500001  0.390611  1
  O  O10  1  0.999999  1.000000  0.794515  1
  O  O11  1  0.999999  0.000002  0.205441  1
  O  O12  1  0.500001  0.499997  0.000067  1
