# generated using pymatgen
data_Zn2Sb3O8
_symmetry_space_group_name_H-M   'P 1'
_cell_length_a   5.62336701
_cell_length_b   6.64549846
_cell_length_c   6.74662612
_cell_angle_alpha   119.50538460
_cell_angle_beta   119.77102302
_cell_angle_gamma   89.99999619
_symmetry_Int_Tables_number   1
_chemical_formula_structural   Zn2Sb3O8
_chemical_formula_sum   'Zn2 Sb3 O8'
_cell_volume   180.20837097
_cell_formula_units_Z   1
loop_
 _symmetry_equiv_pos_site_id
 _symmetry_equiv_pos_as_xyz
  1  'x, y, z'
loop_
 _atom_site_type_symbol
 _atom_site_label
 _atom_site_symmetry_multiplicity
 _atom_site_fract_x
 _atom_site_fract_y
 _atom_site_fract_z
 _atom_site_occupancy
  Zn  Zn0  1  0.686117  0.671644  0.343287  1
  Zn  Zn1  1  0.313883  0.328357  0.656713  1
  Sb  Sb2  1  0.500000  0.999999  0.000000  1
  Sb  Sb3  1  -0.000000  0.733105  0.000000  1
  Sb  Sb4  1  -0.000000  0.266895  0.000000  1
  O  O5  1  0.011135  0.384591  0.769183  1
  O  O6  1  0.988864  0.615408  0.230817  1
  O  O7  1  0.985296  0.882219  0.764438  1
  O  O8  1  0.014704  0.117780  0.235562  1
  O  O9  1  0.436340  0.364220  0.215057  1
  O  O10  1  0.436340  0.850837  0.215057  1
  O  O11  1  0.563660  0.149162  0.784942  1
  O  O12  1  0.563660  0.635779  0.784942  1
