# generated using pymatgen
data_Zn(MoO2)2
_symmetry_space_group_name_H-M   'P 1'
_cell_length_a   5.52832406
_cell_length_b   6.43739512
_cell_length_c   10.46362485
_cell_angle_alpha   90.01548571
_cell_angle_beta   89.89545434
_cell_angle_gamma   89.97887928
_symmetry_Int_Tables_number   1
_chemical_formula_structural   Zn(MoO2)2
_chemical_formula_sum   'Zn4 Mo8 O16'
_cell_volume   372.37888894
_cell_formula_units_Z   4
loop_
 _symmetry_equiv_pos_site_id
 _symmetry_equiv_pos_as_xyz
  1  'x, y, z'
loop_
 _atom_site_type_symbol
 _atom_site_label
 _atom_site_symmetry_multiplicity
 _atom_site_fract_x
 _atom_site_fract_y
 _atom_site_fract_z
 _atom_site_occupancy
  Zn  Zn0  1  0.862095  0.248801  0.750355  1
  Zn  Zn1  1  0.137962  0.747412  0.249810  1
  Zn  Zn2  1  0.549455  0.249086  0.250295  1
  Zn  Zn3  1  0.450045  0.748499  0.749802  1
  Mo  Mo4  1  0.516612  0.750079  0.479891  1
  Mo  Mo5  1  0.516179  0.750498  0.019735  1
  Mo  Mo6  1  0.483907  0.250066  0.520041  1
  Mo  Mo7  1  0.483405  0.250367  0.980208  1
  Mo  Mo8  1  0.000129  0.499909  0.500133  1
  Mo  Mo9  1  0.999952  0.000293  0.000234  1
  Mo  Mo10  1  0.000332  0.000104  0.499936  1
  Mo  Mo11  1  0.999649  0.500415  0.999919  1
  O  O12  1  0.872560  0.749927  0.386482  1
  O  O13  1  0.871353  0.750229  0.113609  1
  O  O14  1  0.127909  0.249917  0.613685  1
  O  O15  1  0.128235  0.250194  0.886595  1
  O  O16  1  0.202553  0.749886  0.598407  1
  O  O17  1  0.202570  0.750187  0.901452  1
  O  O18  1  0.797933  0.249976  0.401587  1
  O  O19  1  0.796959  0.250401  0.098614  1
  O  O20  1  0.664750  0.505793  0.612355  1
  O  O21  1  0.665794  0.995589  0.887466  1
  O  O22  1  0.335583  0.005823  0.387444  1
  O  O23  1  0.333774  0.495839  0.112640  1
  O  O24  1  0.335102  0.494749  0.387304  1
  O  O25  1  0.334774  0.005867  0.112274  1
  O  O26  1  0.665256  0.994623  0.612438  1
  O  O27  1  0.665173  0.505475  0.887288  1
