# generated using pymatgen
data_LaMgTaFeO6
_symmetry_space_group_name_H-M   'P 1'
_cell_length_a   5.63394924
_cell_length_b   5.46100058
_cell_length_c   8.00891839
_cell_angle_alpha   90.28261785
_cell_angle_beta   90.00000000
_cell_angle_gamma   90.00000000
_symmetry_Int_Tables_number   1
_chemical_formula_structural   LaMgTaFeO6
_chemical_formula_sum   'La2 Mg2 Ta2 Fe2 O12'
_cell_volume   246.40739478
_cell_formula_units_Z   2
loop_
 _symmetry_equiv_pos_site_id
 _symmetry_equiv_pos_as_xyz
  1  'x, y, z'
loop_
 _atom_site_type_symbol
 _atom_site_label
 _atom_site_symmetry_multiplicity
 _atom_site_fract_x
 _atom_site_fract_y
 _atom_site_fract_z
 _atom_site_occupancy
  La  La0  1  0.048765  0.991182  0.249816  1
  La  La1  1  0.451235  0.491182  0.749816  1
  Mg  Mg2  1  0.553983  0.526957  0.254126  1
  Mg  Mg3  1  0.946017  0.026957  0.754126  1
  Ta  Ta4  1  0.509958  0.002543  0.498217  1
  Ta  Ta5  1  0.990042  0.502543  0.998217  1
  Fe  Fe6  1  0.494985  0.996968  0.999472  1
  Fe  Fe7  1  0.005015  0.496968  0.499472  1
  O  O8  1  0.032163  0.647913  0.768344  1
  O  O9  1  0.183656  0.194413  0.936909  1
  O  O10  1  0.204754  0.167010  0.569304  1
  O  O11  1  0.295246  0.667010  0.069305  1
  O  O12  1  0.316344  0.694413  0.436909  1
  O  O13  1  0.467837  0.147913  0.268343  1
  O  O14  1  0.560463  0.902192  0.735427  1
  O  O15  1  0.718734  0.279464  0.560276  1
  O  O16  1  0.723829  0.291356  0.928111  1
  O  O17  1  0.776171  0.791356  0.428111  1
  O  O18  1  0.781266  0.779464  0.060276  1
  O  O19  1  0.939537  0.402192  0.235427  1
