# generated using pymatgen
data_BaMn4O7
_symmetry_space_group_name_H-M   'P 1'
_cell_length_a   6.61520275
_cell_length_b   6.61520286
_cell_length_c   10.82809651
_cell_angle_alpha   90.00000000
_cell_angle_beta   90.00000000
_cell_angle_gamma   120.00000337
_symmetry_Int_Tables_number   1
_chemical_formula_structural   BaMn4O7
_chemical_formula_sum   'Ba2 Mn8 O14'
_cell_volume   410.36381703
_cell_formula_units_Z   2
loop_
 _symmetry_equiv_pos_site_id
 _symmetry_equiv_pos_as_xyz
  1  'x, y, z'
loop_
 _atom_site_type_symbol
 _atom_site_label
 _atom_site_symmetry_multiplicity
 _atom_site_fract_x
 _atom_site_fract_y
 _atom_site_fract_z
 _atom_site_occupancy
  Ba  Ba0  1  0.666667  0.333333  0.463840  1
  Ba  Ba1  1  0.333333  0.666667  0.963840  1
  Mn  Mn2  1  0.830594  0.169407  0.191364  1
  Mn  Mn3  1  0.661187  0.830593  0.691365  1
  Mn  Mn4  1  0.169407  0.338813  0.691365  1
  Mn  Mn5  1  0.830594  0.661187  0.191364  1
  Mn  Mn6  1  0.338812  0.169407  0.191364  1
  Mn  Mn7  1  0.169407  0.830593  0.691365  1
  Mn  Mn8  1  -0.000000  -0.000000  0.447425  1
  Mn  Mn9  1  -0.000000  -0.000000  0.947425  1
  O  O10  1  0.854986  0.145015  0.012919  1
  O  O11  1  0.709973  0.854985  0.512918  1
  O  O12  1  0.145014  0.290026  0.512918  1
  O  O13  1  0.854987  0.709974  0.012919  1
  O  O14  1  0.290026  0.145015  0.012919  1
  O  O15  1  0.145014  0.854985  0.512918  1
  O  O16  1  -0.000000  -0.000000  0.761500  1
  O  O17  1  -0.000000  -0.000000  0.261501  1
  O  O18  1  0.524080  0.475922  0.256146  1
  O  O19  1  0.048158  0.524080  0.756146  1
  O  O20  1  0.475921  0.951842  0.756146  1
  O  O21  1  0.524080  0.048158  0.256146  1
  O  O22  1  0.475922  0.524080  0.756146  1
  O  O23  1  0.951842  0.475922  0.256146  1
