# generated using pymatgen
data_Ti2ZnS4
_symmetry_space_group_name_H-M   'P 1'
_cell_length_a   7.14939918
_cell_length_b   7.14940033
_cell_length_c   7.19972464
_cell_angle_alpha   119.76904441
_cell_angle_beta   119.76904800
_cell_angle_gamma   89.99999362
_symmetry_Int_Tables_number   1
_chemical_formula_structural   Ti2ZnS4
_chemical_formula_sum   'Ti4 Zn2 S8'
_cell_volume   262.02590825
_cell_formula_units_Z   2
loop_
 _symmetry_equiv_pos_site_id
 _symmetry_equiv_pos_as_xyz
  1  'x, y, z'
loop_
 _atom_site_type_symbol
 _atom_site_label
 _atom_site_symmetry_multiplicity
 _atom_site_fract_x
 _atom_site_fract_y
 _atom_site_fract_z
 _atom_site_occupancy
  Ti  Ti0  1  0.000000  0.000000  0.500000  1
  Ti  Ti1  1  0.000000  0.500000  0.000000  1
  Ti  Ti2  1  0.500000  0.000000  0.500000  1
  Ti  Ti3  1  0.000000  0.000000  0.000000  1
  Zn  Zn4  1  0.375000  0.625000  0.750000  1
  Zn  Zn5  1  0.625000  0.375000  0.250000  1
  S  S6  1  0.758759  0.770111  0.517519  1
  S  S7  1  0.752594  0.241241  0.982481  1
  S  S8  1  0.229889  0.241241  0.982481  1
  S  S9  1  0.241241  0.229889  0.482481  1
  S  S10  1  0.241241  0.752594  0.482481  1
  S  S11  1  0.247406  0.758759  0.017519  1
  S  S12  1  0.758759  0.247406  0.517519  1
  S  S13  1  0.770111  0.758759  0.017519  1
