# generated using pymatgen
data_CaCuF5
_symmetry_space_group_name_H-M   'P 1'
_cell_length_a   5.48834600
_cell_length_b   7.72751810
_cell_length_c   10.02269927
_cell_angle_alpha   90.00000000
_cell_angle_beta   90.00000000
_cell_angle_gamma   110.32522698
_symmetry_Int_Tables_number   1
_chemical_formula_structural   CaCuF5
_chemical_formula_sum   'Ca4 Cu4 F20'
_cell_volume   398.60876531
_cell_formula_units_Z   4
loop_
 _symmetry_equiv_pos_site_id
 _symmetry_equiv_pos_as_xyz
  1  'x, y, z'
loop_
 _atom_site_type_symbol
 _atom_site_label
 _atom_site_symmetry_multiplicity
 _atom_site_fract_x
 _atom_site_fract_y
 _atom_site_fract_z
 _atom_site_occupancy
  Ca  Ca0  1  0.470259  0.744482  0.020754  1
  Ca  Ca1  1  0.529740  0.755518  0.520754  1
  Ca  Ca2  1  0.529740  0.255518  0.979246  1
  Ca  Ca3  1  0.470259  0.244482  0.479246  1
  Cu  Cu4  1  0.890753  0.598742  0.753773  1
  Cu  Cu5  1  0.109247  0.901258  0.253773  1
  Cu  Cu6  1  0.109247  0.401258  0.246227  1
  Cu  Cu7  1  0.890753  0.098742  0.746227  1
  F  F8  1  0.612310  0.554649  0.881749  1
  F  F9  1  0.387690  0.945351  0.381749  1
  F  F10  1  0.387690  0.445351  0.118251  1
  F  F11  1  0.612310  0.054649  0.618251  1
  F  F12  1  0.644544  0.507583  0.612394  1
  F  F13  1  0.355456  0.992417  0.112394  1
  F  F14  1  0.355456  0.492417  0.387606  1
  F  F15  1  0.644544  0.007583  0.887606  1
  F  F16  1  0.881708  0.811605  0.394065  1
  F  F17  1  0.118292  0.688395  0.894065  1
  F  F18  1  0.118292  0.188394  0.605935  1
  F  F19  1  0.881708  0.311605  0.105935  1
  F  F20  1  0.833646  0.860613  0.137561  1
  F  F21  1  0.166354  0.639387  0.637561  1
  F  F22  1  0.166354  0.139387  0.862439  1
  F  F23  1  0.833646  0.360613  0.362439  1
  F  F24  1  0.847603  0.837288  0.702616  1
  F  F25  1  0.152397  0.662712  0.202616  1
  F  F26  1  0.152397  0.162712  0.297384  1
  F  F27  1  0.847603  0.337288  0.797384  1
