# generated using pymatgen
data_AlWO3
_symmetry_space_group_name_H-M   'P 1'
_cell_length_a   5.60385065
_cell_length_b   5.60385042
_cell_length_c   11.99355842
_cell_angle_alpha   90.00000000
_cell_angle_beta   90.00000000
_cell_angle_gamma   120.00000143
_symmetry_Int_Tables_number   1
_chemical_formula_structural   AlWO3
_chemical_formula_sum   'Al6 W6 O18'
_cell_volume   326.17582292
_cell_formula_units_Z   6
loop_
 _symmetry_equiv_pos_site_id
 _symmetry_equiv_pos_as_xyz
  1  'x, y, z'
loop_
 _atom_site_type_symbol
 _atom_site_label
 _atom_site_symmetry_multiplicity
 _atom_site_fract_x
 _atom_site_fract_y
 _atom_site_fract_z
 _atom_site_occupancy
  Al  Al0  1  0.666667  0.333333  0.263056  1
  Al  Al1  1  0.333333  0.666667  0.763056  1
  Al  Al2  1  0.666667  0.333333  0.763056  1
  Al  Al3  1  0.333333  0.666667  0.263056  1
  Al  Al4  1  0.000000  0.000000  0.732710  1
  Al  Al5  1  0.000000  0.000000  0.232710  1
  W  W6  1  0.706171  0.000000  0.500056  1
  W  W7  1  0.706171  0.706171  0.000056  1
  W  W8  1  0.000000  0.293829  0.000056  1
  W  W9  1  1.000000  0.706171  0.500056  1
  W  W10  1  0.293829  0.293829  0.500056  1
  W  W11  1  0.293829  0.000000  0.000056  1
  O  O12  1  0.666667  0.333333  0.034104  1
  O  O13  1  0.333333  0.666667  0.534104  1
  O  O14  1  0.666667  0.333333  0.534104  1
  O  O15  1  0.333333  0.666667  0.034104  1
  O  O16  1  0.000000  0.000000  0.889975  1
  O  O17  1  0.000000  0.000000  0.389975  1
  O  O18  1  0.432562  0.000000  0.838574  1
  O  O19  1  0.432562  0.432562  0.338574  1
  O  O20  1  0.000000  0.567438  0.338574  1
  O  O21  1  1.000000  0.432562  0.838574  1
  O  O22  1  0.567438  0.567438  0.838574  1
  O  O23  1  0.567438  0.000000  0.338574  1
  O  O24  1  0.305979  0.000000  0.180702  1
  O  O25  1  0.305979  0.305979  0.680702  1
  O  O26  1  1.000000  0.694021  0.680702  1
  O  O27  1  0.000000  0.305979  0.180702  1
  O  O28  1  0.694021  0.694021  0.180702  1
  O  O29  1  0.694021  0.000000  0.680702  1
