# generated using pymatgen
data_MgCo(Si2O5)2
_symmetry_space_group_name_H-M   'P 1'
_cell_length_a   7.30098129
_cell_length_b   7.30098129
_cell_length_c   14.92077313
_cell_angle_alpha   90.00000000
_cell_angle_beta   90.00000000
_cell_angle_gamma   90.00000000
_symmetry_Int_Tables_number   1
_chemical_formula_structural   MgCo(Si2O5)2
_chemical_formula_sum   'Mg4 Co4 Si16 O40'
_cell_volume   795.34178191
_cell_formula_units_Z   4
loop_
 _symmetry_equiv_pos_site_id
 _symmetry_equiv_pos_as_xyz
  1  'x, y, z'
loop_
 _atom_site_type_symbol
 _atom_site_label
 _atom_site_symmetry_multiplicity
 _atom_site_fract_x
 _atom_site_fract_y
 _atom_site_fract_z
 _atom_site_occupancy
  Mg  Mg0  1  0.250000  0.750000  0.500000  1
  Mg  Mg1  1  0.750000  0.250000  0.500000  1
  Mg  Mg2  1  0.750000  0.250000  0.000000  1
  Mg  Mg3  1  0.250000  0.750000  0.000000  1
  Co  Co4  1  0.250000  0.250000  0.570176  1
  Co  Co5  1  0.750000  0.750000  0.929824  1
  Co  Co6  1  0.750000  0.750000  0.429824  1
  Co  Co7  1  0.250000  0.250000  0.070176  1
  Si  Si8  1  0.912391  0.490316  0.644640  1
  Si  Si9  1  0.587609  0.009684  0.644640  1
  Si  Si10  1  0.990316  0.412391  0.855360  1
  Si  Si11  1  0.490316  0.587609  0.644640  1
  Si  Si12  1  0.009684  0.912391  0.644640  1
  Si  Si13  1  0.087609  0.990316  0.855360  1
  Si  Si14  1  0.412391  0.509684  0.855360  1
  Si  Si15  1  0.509684  0.087609  0.855360  1
  Si  Si16  1  0.087609  0.509684  0.355360  1
  Si  Si17  1  0.412391  0.990316  0.355360  1
  Si  Si18  1  0.009684  0.587609  0.144640  1
  Si  Si19  1  0.509684  0.412391  0.355360  1
  Si  Si20  1  0.990316  0.087609  0.355360  1
  Si  Si21  1  0.912391  0.009684  0.144640  1
  Si  Si22  1  0.587609  0.490316  0.144640  1
  Si  Si23  1  0.490316  0.912391  0.144640  1
  O  O24  1  0.983589  0.335770  0.575368  1
  O  O25  1  0.516411  0.164230  0.575368  1
  O  O26  1  0.835770  0.483589  0.924632  1
  O  O27  1  0.335770  0.516411  0.575368  1
  O  O28  1  0.164230  0.983589  0.575368  1
  O  O29  1  0.016411  0.835770  0.924632  1
  O  O30  1  0.483589  0.664230  0.924632  1
  O  O31  1  0.664230  0.016411  0.924632  1
  O  O32  1  0.016411  0.664230  0.424632  1
  O  O33  1  0.483589  0.835770  0.424632  1
  O  O34  1  0.164230  0.516411  0.075368  1
  O  O35  1  0.664230  0.483589  0.424632  1
  O  O36  1  0.835770  0.016411  0.424632  1
  O  O37  1  0.983589  0.164230  0.075368  1
  O  O38  1  0.516411  0.335770  0.075368  1
  O  O39  1  0.000250  0.307845  0.375495  1
  O  O40  1  0.335770  0.983589  0.075368  1
  O  O41  1  0.500250  0.807845  0.624506  1
  O  O42  1  0.192155  0.499750  0.875494  1
  O  O43  1  0.692155  0.500250  0.624506  1
  O  O44  1  0.807845  0.999750  0.624506  1
  O  O45  1  0.000250  0.192155  0.875494  1
  O  O46  1  0.499750  0.307845  0.875494  1
  O  O47  1  0.307845  0.000250  0.875494  1
  O  O48  1  0.444372  0.944372  0.250000  1
  O  O49  1  0.555628  0.444372  0.250000  1
  O  O50  1  0.944372  0.055629  0.250000  1
  O  O51  1  0.055629  0.555628  0.250000  1
  O  O52  1  0.555628  0.055629  0.750000  1
  O  O53  1  0.444372  0.555628  0.750000  1
  O  O54  1  0.055629  0.944372  0.750000  1
  O  O55  1  0.944372  0.444372  0.750000  1
  O  O56  1  0.692155  0.999750  0.124506  1
  O  O57  1  0.500250  0.692155  0.124506  1
  O  O58  1  0.999750  0.807845  0.124506  1
  O  O59  1  0.192155  0.000250  0.375495  1
  O  O60  1  0.307845  0.499750  0.375495  1
  O  O61  1  0.807845  0.500250  0.124506  1
  O  O62  1  0.499750  0.192155  0.375495  1
  O  O63  1  0.999750  0.692155  0.624506  1
