# generated using pymatgen
data_CaLaCr2O6
_symmetry_space_group_name_H-M   'P 1'
_cell_length_a   5.46530097
_cell_length_b   5.52499643
_cell_length_c   7.72482938
_cell_angle_alpha   90.00000000
_cell_angle_beta   89.88789862
_cell_angle_gamma   90.00000000
_symmetry_Int_Tables_number   1
_chemical_formula_structural   CaLaCr2O6
_chemical_formula_sum   'Ca2 La2 Cr4 O12'
_cell_volume   233.25671172
_cell_formula_units_Z   2
loop_
 _symmetry_equiv_pos_site_id
 _symmetry_equiv_pos_as_xyz
  1  'x, y, z'
loop_
 _atom_site_type_symbol
 _atom_site_label
 _atom_site_symmetry_multiplicity
 _atom_site_fract_x
 _atom_site_fract_y
 _atom_site_fract_z
 _atom_site_occupancy
  Ca  Ca0  1  0.489911  0.457883  0.749569  1
  Ca  Ca1  1  0.989911  0.042117  0.249569  1
  La  La2  1  0.007242  0.967861  0.750463  1
  La  La3  1  0.507242  0.532139  0.250463  1
  Cr  Cr4  1  0.500221  0.000150  0.499538  1
  Cr  Cr5  1  0.000221  0.499850  0.999538  1
  Cr  Cr6  1  0.500280  0.999780  0.000738  1
  Cr  Cr7  1  0.000280  0.500220  0.500738  1
  O  O8  1  0.072836  0.478758  0.245726  1
  O  O9  1  0.211846  0.218470  0.960873  1
  O  O10  1  0.221167  0.213471  0.539777  1
  O  O11  1  0.282897  0.708731  0.957012  1
  O  O12  1  0.294712  0.714378  0.541465  1
  O  O13  1  0.418887  0.981890  0.254838  1
  O  O14  1  0.572836  0.021242  0.745726  1
  O  O15  1  0.711846  0.281530  0.460873  1
  O  O16  1  0.721167  0.286529  0.039777  1
  O  O17  1  0.782897  0.791269  0.457012  1
  O  O18  1  0.794712  0.785622  0.041465  1
  O  O19  1  0.918887  0.518110  0.754838  1
