# generated using pymatgen
data_Ca3Si4(NiO7)2
_symmetry_space_group_name_H-M   'P 1'
_cell_length_a   7.59806026
_cell_length_b   9.26696914
_cell_length_c   9.70207522
_cell_angle_alpha   63.88850073
_cell_angle_beta   66.94784826
_cell_angle_gamma   65.79805941
_symmetry_Int_Tables_number   1
_chemical_formula_structural   Ca3Si4(NiO7)2
_chemical_formula_sum   'Ca6 Si8 Ni4 O28'
_cell_volume   540.58508624
_cell_formula_units_Z   2
loop_
 _symmetry_equiv_pos_site_id
 _symmetry_equiv_pos_as_xyz
  1  'x, y, z'
loop_
 _atom_site_type_symbol
 _atom_site_label
 _atom_site_symmetry_multiplicity
 _atom_site_fract_x
 _atom_site_fract_y
 _atom_site_fract_z
 _atom_site_occupancy
  Ca  Ca0  1  0.835110  0.932938  0.458136  1
  Ca  Ca1  1  0.226184  0.567062  0.041864  1
  Ca  Ca2  1  0.773816  0.432938  0.958136  1
  Ca  Ca3  1  0.656864  0.250000  0.750000  1
  Ca  Ca4  1  0.164890  0.067062  0.541864  1
  Ca  Ca5  1  0.343136  0.750000  0.250000  1
  Si  Si6  1  0.464557  0.306125  0.343693  1
  Si  Si7  1  0.885625  0.806125  0.843693  1
  Si  Si8  1  0.459347  0.897304  0.852527  1
  Si  Si9  1  0.790822  0.397304  0.352527  1
  Si  Si10  1  0.114375  0.193875  0.156307  1
  Si  Si11  1  0.540653  0.102696  0.147473  1
  Si  Si12  1  0.209178  0.602696  0.647473  1
  Si  Si13  1  0.535443  0.693875  0.656307  1
  Ni  Ni14  1  0.213834  0.250000  0.750000  1
  Ni  Ni15  1  0.786166  0.750000  0.250000  1
  Ni  Ni16  1  0.000000  0.000000  0.000000  1
  Ni  Ni17  1  0.000000  0.500000  0.500000  1
  O  O18  1  0.117473  0.671322  0.496878  1
  O  O19  1  0.024298  0.587482  0.284128  1
  O  O20  1  0.546717  0.912007  0.190725  1
  O  O21  1  0.104092  0.087482  0.784128  1
  O  O22  1  0.740314  0.685768  0.515795  1
  O  O23  1  0.952149  0.374736  0.181354  1
  O  O24  1  0.350550  0.412007  0.690725  1
  O  O25  1  0.941878  0.814232  0.984205  1
  O  O26  1  0.047851  0.625264  0.818646  1
  O  O27  1  0.341279  0.736389  0.591276  1
  O  O28  1  0.975702  0.412518  0.715872  1
  O  O29  1  0.259686  0.314232  0.484205  1
  O  O30  1  0.508239  0.125264  0.318646  1
  O  O31  1  0.714326  0.171322  0.996878  1
  O  O32  1  0.331056  0.236389  0.091276  1
  O  O33  1  0.058122  0.185768  0.015795  1
  O  O34  1  0.107584  0.040579  0.321437  1
  O  O35  1  0.658721  0.263611  0.408724  1
  O  O36  1  0.469599  0.459421  0.178563  1
  O  O37  1  0.668944  0.763611  0.908724  1
  O  O38  1  0.491761  0.874736  0.681354  1
  O  O39  1  0.895908  0.912518  0.215872  1
  O  O40  1  0.530401  0.540579  0.821437  1
  O  O41  1  0.453283  0.087993  0.809275  1
  O  O42  1  0.892416  0.959421  0.678563  1
  O  O43  1  0.649450  0.587993  0.309275  1
  O  O44  1  0.285674  0.828678  0.003122  1
  O  O45  1  0.882527  0.328678  0.503122  1
