# generated using pymatgen
data_Sr2GaNi2O7
_symmetry_space_group_name_H-M   'P 1'
_cell_length_a   5.03929632
_cell_length_b   5.44959642
_cell_length_c   13.05261241
_cell_angle_alpha   102.21486695
_cell_angle_beta   101.25369023
_cell_angle_gamma   89.66617205
_symmetry_Int_Tables_number   1
_chemical_formula_structural   Sr2GaNi2O7
_chemical_formula_sum   'Sr4 Ga2 Ni4 O14'
_cell_volume   343.36628216
_cell_formula_units_Z   2
loop_
 _symmetry_equiv_pos_site_id
 _symmetry_equiv_pos_as_xyz
  1  'x, y, z'
loop_
 _atom_site_type_symbol
 _atom_site_label
 _atom_site_symmetry_multiplicity
 _atom_site_fract_x
 _atom_site_fract_y
 _atom_site_fract_z
 _atom_site_occupancy
  Sr  Sr0  1  0.161272  0.167823  0.306823  1
  Sr  Sr1  1  0.851394  0.831937  0.691068  1
  Sr  Sr2  1  0.660538  0.639780  0.306520  1
  Sr  Sr3  1  0.351930  0.358872  0.691737  1
  Ga  Ga4  1  0.204970  0.817916  0.499159  1
  Ga  Ga5  1  0.703861  0.181877  0.499669  1
  Ni  Ni6  1  0.439027  0.935225  0.864264  1
  Ni  Ni7  1  0.075068  0.569355  0.135099  1
  Ni  Ni8  1  0.944953  0.435722  0.873561  1
  Ni  Ni9  1  0.572540  0.061492  0.127716  1
  O  O10  1  0.842359  0.329086  0.138960  1
  O  O11  1  0.826088  0.851519  0.499013  1
  O  O12  1  0.329608  0.323340  0.141743  1
  O  O13  1  0.836559  0.355542  0.639259  1
  O  O14  1  0.669094  0.165476  0.849703  1
  O  O15  1  0.177877  0.168725  0.843844  1
  O  O16  1  0.325956  0.148771  0.499282  1
  O  O17  1  0.202637  0.691689  0.860431  1
  O  O18  1  0.686143  0.682507  0.858157  1
  O  O19  1  0.336625  0.781737  0.637472  1
  O  O20  1  0.200297  0.643096  0.361212  1
  O  O21  1  0.699437  0.219320  0.361119  1
  O  O22  1  0.838875  0.827279  0.159978  1
  O  O23  1  0.320824  0.818017  0.154676  1
