# generated using pymatgen
data_MgCoMo2O7
_symmetry_space_group_name_H-M   'P 1'
_cell_length_a   6.97452326
_cell_length_b   11.50789350
_cell_length_c   15.51196864
_cell_angle_alpha   90.00000000
_cell_angle_beta   90.00000000
_cell_angle_gamma   104.21975171
_symmetry_Int_Tables_number   1
_chemical_formula_structural   MgCoMo2O7
_chemical_formula_sum   'Mg8 Co8 Mo16 O56'
_cell_volume   1206.87613531
_cell_formula_units_Z   8
loop_
 _symmetry_equiv_pos_site_id
 _symmetry_equiv_pos_as_xyz
  1  'x, y, z'
loop_
 _atom_site_type_symbol
 _atom_site_label
 _atom_site_symmetry_multiplicity
 _atom_site_fract_x
 _atom_site_fract_y
 _atom_site_fract_z
 _atom_site_occupancy
  Mg  Mg0  1  0.026411  0.747239  0.530035  1
  Mg  Mg1  1  0.307593  0.975006  0.861417  1
  Mg  Mg2  1  0.692407  0.524994  0.361418  1
  Mg  Mg3  1  0.692407  0.024994  0.138582  1
  Mg  Mg4  1  0.307593  0.475006  0.638583  1
  Mg  Mg5  1  0.026411  0.247239  0.969965  1
  Mg  Mg6  1  0.973589  0.252761  0.469965  1
  Mg  Mg7  1  0.973589  0.752761  0.030035  1
  Co  Co8  1  0.670217  0.091382  0.624621  1
  Co  Co9  1  0.329783  0.408618  0.124621  1
  Co  Co10  1  0.329783  0.908618  0.375379  1
  Co  Co11  1  0.670217  0.591382  0.875379  1
  Co  Co12  1  0.975526  0.243513  0.750120  1
  Co  Co13  1  0.024474  0.256487  0.250120  1
  Co  Co14  1  0.024474  0.756487  0.249880  1
  Co  Co15  1  0.975526  0.743513  0.749880  1
  Mo  Mo16  1  0.821999  0.980689  0.894525  1
  Mo  Mo17  1  0.452403  0.708647  0.033738  1
  Mo  Mo18  1  0.452403  0.208647  0.466262  1
  Mo  Mo19  1  0.547597  0.291353  0.966262  1
  Mo  Mo20  1  0.494728  0.787364  0.730874  1
  Mo  Mo21  1  0.505272  0.712636  0.230874  1
  Mo  Mo22  1  0.505272  0.212636  0.269126  1
  Mo  Mo23  1  0.494728  0.287364  0.769126  1
  Mo  Mo24  1  0.547597  0.791353  0.533738  1
  Mo  Mo25  1  0.851160  0.480348  0.142907  1
  Mo  Mo26  1  0.148840  0.019652  0.642907  1
  Mo  Mo27  1  0.148840  0.519652  0.857093  1
  Mo  Mo28  1  0.178001  0.519311  0.394525  1
  Mo  Mo29  1  0.821999  0.480689  0.605475  1
  Mo  Mo30  1  0.178001  0.019311  0.105475  1
  Mo  Mo31  1  0.851160  0.980348  0.357093  1
  O  O32  1  0.780304  0.978167  0.007801  1
  O  O33  1  0.219696  0.521833  0.507801  1
  O  O34  1  0.219696  0.021833  0.992199  1
  O  O35  1  0.780304  0.478167  0.492199  1
  O  O36  1  0.989229  0.892907  0.862152  1
  O  O37  1  0.010771  0.607093  0.362152  1
  O  O38  1  0.010771  0.107093  0.137848  1
  O  O39  1  0.989229  0.392907  0.637848  1
  O  O40  1  0.952978  0.131563  0.863795  1
  O  O41  1  0.047022  0.368437  0.363795  1
  O  O42  1  0.047022  0.868437  0.136205  1
  O  O43  1  0.952978  0.631563  0.636205  1
  O  O44  1  0.708269  0.958404  0.262051  1
  O  O45  1  0.291731  0.541596  0.762051  1
  O  O46  1  0.291731  0.041596  0.737949  1
  O  O47  1  0.708269  0.458404  0.237949  1
  O  O48  1  0.976112  0.137804  0.366665  1
  O  O49  1  0.023888  0.362196  0.866665  1
  O  O50  1  0.023888  0.862196  0.633335  1
  O  O51  1  0.976112  0.637804  0.133335  1
  O  O52  1  0.039494  0.897897  0.348449  1
  O  O53  1  0.294038  0.800773  0.475912  1
  O  O54  1  0.960506  0.602103  0.848449  1
  O  O55  1  0.039494  0.397897  0.151551  1
  O  O56  1  0.751676  0.724268  0.492175  1
  O  O57  1  0.248324  0.775732  0.992175  1
  O  O58  1  0.248324  0.275732  0.507825  1
  O  O59  1  0.751676  0.224268  0.007825  1
  O  O60  1  0.685644  0.940215  0.447089  1
  O  O61  1  0.314356  0.559785  0.947089  1
  O  O62  1  0.314356  0.059785  0.552911  1
  O  O63  1  0.685644  0.440215  0.052911  1
  O  O64  1  0.425356  0.173655  0.872019  1
  O  O65  1  0.574644  0.326345  0.372019  1
  O  O66  1  0.574644  0.826345  0.127981  1
  O  O67  1  0.425356  0.673655  0.627981  1
  O  O68  1  0.690217  0.205790  0.720668  1
  O  O69  1  0.309783  0.294210  0.220668  1
  O  O70  1  0.309783  0.794210  0.279332  1
  O  O71  1  0.690217  0.705790  0.779332  1
  O  O72  1  0.587667  0.435963  0.662517  1
  O  O73  1  0.412333  0.064037  0.162517  1
  O  O74  1  0.412333  0.564037  0.337483  1
  O  O75  1  0.587667  0.935963  0.837483  1
  O  O76  1  0.254178  0.299935  0.716188  1
  O  O77  1  0.745822  0.200065  0.216188  1
  O  O78  1  0.745822  0.700065  0.283812  1
  O  O79  1  0.254178  0.799935  0.783812  1
  O  O80  1  0.582080  0.408378  0.865282  1
  O  O81  1  0.417920  0.091622  0.365282  1
  O  O82  1  0.417920  0.591622  0.134718  1
  O  O83  1  0.582080  0.908378  0.634718  1
  O  O84  1  0.294038  0.300773  0.024088  1
  O  O85  1  0.705962  0.199227  0.524088  1
  O  O86  1  0.705962  0.699227  0.975912  1
  O  O87  1  0.960506  0.102103  0.651551  1
