# generated using pymatgen
data_Zn3Fe4(WO4)6
_symmetry_space_group_name_H-M   'P 1'
_cell_length_a   7.21697509
_cell_length_b   8.41068555
_cell_length_c   10.33678109
_cell_angle_alpha   105.07654837
_cell_angle_beta   104.32145211
_cell_angle_gamma   101.26237389
_symmetry_Int_Tables_number   1
_chemical_formula_structural   Zn3Fe4(WO4)6
_chemical_formula_sum   'Zn3 Fe4 W6 O24'
_cell_volume   563.95632344
_cell_formula_units_Z   1
loop_
 _symmetry_equiv_pos_site_id
 _symmetry_equiv_pos_as_xyz
  1  'x, y, z'
loop_
 _atom_site_type_symbol
 _atom_site_label
 _atom_site_symmetry_multiplicity
 _atom_site_fract_x
 _atom_site_fract_y
 _atom_site_fract_z
 _atom_site_occupancy
  Zn  Zn0  1  0.000000  0.500000  0.500000  1
  Zn  Zn1  1  0.276824  0.267362  0.788101  1
  Zn  Zn2  1  0.723176  0.732638  0.211899  1
  Fe  Fe3  1  0.385359  0.951383  0.604129  1
  Fe  Fe4  1  0.614641  0.048617  0.395871  1
  Fe  Fe5  1  0.041715  0.198543  0.012143  1
  Fe  Fe6  1  0.958285  0.801457  0.987857  1
  W  W7  1  0.775151  0.340278  0.731985  1
  W  W8  1  0.224849  0.659722  0.268015  1
  W  W9  1  0.901497  0.900865  0.661870  1
  W  W10  1  0.411808  0.723030  0.881927  1
  W  W11  1  0.098503  0.099135  0.338130  1
  W  W12  1  0.588192  0.276970  0.118073  1
  O  O13  1  0.889893  0.682072  0.554637  1
  O  O14  1  0.110107  0.317928  0.445363  1
  O  O15  1  0.297906  0.498192  0.774200  1
  O  O16  1  0.702094  0.501808  0.225800  1
  O  O17  1  0.780588  0.315344  0.551895  1
  O  O18  1  0.219412  0.684656  0.448105  1
  O  O19  1  0.670679  0.966491  0.582345  1
  O  O20  1  0.329321  0.033509  0.417655  1
  O  O21  1  0.651533  0.751000  0.015099  1
  O  O22  1  0.348467  0.249000  0.984901  1
  O  O23  1  0.469049  0.765953  0.263938  1
  O  O24  1  0.530951  0.234047  0.736062  1
  O  O25  1  0.147554  0.030987  0.655593  1
  O  O26  1  0.067913  0.050969  0.144494  1
  O  O27  1  0.932087  0.949031  0.855506  1
  O  O28  1  0.557955  0.153999  0.233521  1
  O  O29  1  0.442045  0.846001  0.766479  1
  O  O30  1  0.176057  0.435785  0.177290  1
  O  O31  1  0.823943  0.564215  0.822710  1
  O  O32  1  0.981316  0.273056  0.826090  1
  O  O33  1  0.018684  0.726944  0.173910  1
  O  O34  1  0.242966  0.788049  0.971277  1
  O  O35  1  0.757034  0.211951  0.028723  1
  O  O36  1  0.852446  0.969013  0.344407  1
