# generated using pymatgen
data_Ti2ZnP2O9
_symmetry_space_group_name_H-M   'P 1'
_cell_length_a   6.38149138
_cell_length_b   7.57135526
_cell_length_c   14.30021430
_cell_angle_alpha   89.85145983
_cell_angle_beta   89.90652424
_cell_angle_gamma   89.99944795
_symmetry_Int_Tables_number   1
_chemical_formula_structural   Ti2ZnP2O9
_chemical_formula_sum   'Ti8 Zn4 P8 O36'
_cell_volume   690.93361072
_cell_formula_units_Z   4
loop_
 _symmetry_equiv_pos_site_id
 _symmetry_equiv_pos_as_xyz
  1  'x, y, z'
loop_
 _atom_site_type_symbol
 _atom_site_label
 _atom_site_symmetry_multiplicity
 _atom_site_fract_x
 _atom_site_fract_y
 _atom_site_fract_z
 _atom_site_occupancy
  Ti  Ti0  1  0.750373  0.350976  0.882318  1
  Ti  Ti1  1  0.249761  0.649003  0.117659  1
  Ti  Ti2  1  0.250671  0.851966  0.617891  1
  Ti  Ti3  1  0.749344  0.148157  0.382081  1
  Ti  Ti4  1  0.499935  0.999900  0.000043  1
  Ti  Ti5  1  0.499824  0.499967  0.499998  1
  Ti  Ti6  1  0.000188  0.499987  0.499996  1
  Ti  Ti7  1  0.999981  0.000122  0.000020  1
  Zn  Zn8  1  0.751433  0.943394  0.772849  1
  Zn  Zn9  1  0.750029  0.557868  0.270767  1
  Zn  Zn10  1  0.250034  0.442206  0.729290  1
  Zn  Zn11  1  0.248576  0.056579  0.227062  1
  P  P12  1  0.250240  0.363068  0.929498  1
  P  P13  1  0.749866  0.636968  0.070523  1
  P  P14  1  0.750179  0.862568  0.570731  1
  P  P15  1  0.249830  0.137340  0.429189  1
  P  P16  1  0.750113  0.380595  0.693355  1
  P  P17  1  0.750106  0.120674  0.193087  1
  P  P18  1  0.249830  0.879329  0.806962  1
  P  P19  1  0.249923  0.619421  0.306595  1
  O  O20  1  0.043484  0.605296  0.366046  1
  O  O21  1  0.543380  0.394325  0.634330  1
  O  O22  1  0.955862  0.108676  0.133155  1
  O  O23  1  0.454490  0.891204  0.867165  1
  O  O24  1  0.956611  0.394662  0.633949  1
  O  O25  1  0.456548  0.605642  0.365692  1
  O  O26  1  0.044059  0.891438  0.866873  1
  O  O27  1  0.545338  0.108740  0.132947  1
  O  O28  1  0.249911  0.323730  0.475831  1
  O  O29  1  0.750096  0.676088  0.524200  1
  O  O30  1  0.749631  0.823951  0.024149  1
  O  O31  1  0.250440  0.176149  0.975933  1
  O  O32  1  0.750387  0.128649  0.939940  1
  O  O33  1  0.249219  0.871465  0.060184  1
  O  O34  1  0.249839  0.634600  0.557149  1
  O  O35  1  0.750189  0.365376  0.442964  1
  O  O36  1  0.750549  0.204892  0.750963  1
  O  O37  1  0.249506  0.795138  0.249030  1
  O  O38  1  0.250095  0.704867  0.748346  1
  O  O39  1  0.749783  0.295177  0.251653  1
  O  O40  1  0.437756  0.121900  0.361053  1
  O  O41  1  0.938487  0.878181  0.638375  1
  O  O42  1  0.561317  0.621180  0.138256  1
  O  O43  1  0.063517  0.378882  0.860838  1
  O  O44  1  0.562276  0.878100  0.638884  1
  O  O45  1  0.061517  0.121841  0.361542  1
  O  O46  1  0.438804  0.378840  0.861717  1
  O  O47  1  0.936571  0.621116  0.139114  1
  O  O48  1  0.751463  0.498190  0.994563  1
  O  O49  1  0.250032  0.024929  0.731953  1
  O  O50  1  0.249539  0.475621  0.230907  1
  O  O51  1  0.750507  0.524457  0.769024  1
  O  O52  1  0.749344  0.001066  0.494533  1
  O  O53  1  0.250637  0.998770  0.505337  1
  O  O54  1  0.248602  0.501712  0.005395  1
  O  O55  1  0.749990  0.975055  0.268094  1
