# generated using pymatgen
data_Ba2MgTi2CuF14
_symmetry_space_group_name_H-M   'P 1'
_cell_length_a   5.32181599
_cell_length_b   7.62822559
_cell_length_c   14.94947178
_cell_angle_alpha   93.09837841
_cell_angle_beta   89.75415019
_cell_angle_gamma   110.37116489
_symmetry_Int_Tables_number   1
_chemical_formula_structural   Ba2MgTi2CuF14
_chemical_formula_sum   'Ba4 Mg2 Ti4 Cu2 F28'
_cell_volume   568.03242177
_cell_formula_units_Z   2
loop_
 _symmetry_equiv_pos_site_id
 _symmetry_equiv_pos_as_xyz
  1  'x, y, z'
loop_
 _atom_site_type_symbol
 _atom_site_label
 _atom_site_symmetry_multiplicity
 _atom_site_fract_x
 _atom_site_fract_y
 _atom_site_fract_z
 _atom_site_occupancy
  Ba  Ba0  1  0.087133  0.355394  0.625766  1
  Ba  Ba1  1  0.266791  0.356806  0.126152  1
  Ba  Ba2  1  0.912284  0.642692  0.372339  1
  Ba  Ba3  1  0.731710  0.641623  0.873190  1
  Mg  Mg4  1  0.450006  0.996210  0.750324  1
  Mg  Mg5  1  0.550952  0.002111  0.250009  1
  Ti  Ti6  1  0.102256  0.241289  0.874840  1
  Ti  Ti7  1  0.897137  0.758172  0.124355  1
  Ti  Ti8  1  0.139647  0.240958  0.375359  1
  Ti  Ti9  1  0.859624  0.756628  0.624082  1
  Cu  Cu10  1  0.500878  -0.000629  0.000397  1
  Cu  Cu11  1  0.499201  0.997973  0.499725  1
  F  F12  1  0.895498  0.997676  0.336514  1
  F  F13  1  0.875119  0.293570  0.453906  1
  F  F14  1  0.122790  0.703425  0.545511  1
  F  F15  1  0.643799  0.497484  0.603446  1
  F  F16  1  0.608085  0.088579  0.632580  1
  F  F17  1  0.521595  0.906377  0.868068  1
  F  F18  1  0.418580  0.295150  0.952526  1
  F  F19  1  0.893467  0.002273  0.162944  1
  F  F20  1  0.355973  0.329721  0.775818  1
  F  F21  1  0.357262  0.499709  0.397449  1
  F  F22  1  0.804842  0.223193  0.792761  1
  F  F23  1  0.141402  0.499753  0.896308  1
  F  F24  1  0.422518  0.227336  0.293053  1
  F  F25  1  0.192443  0.774232  0.206561  1
  F  F26  1  0.478205  0.092121  0.132231  1
  F  F27  1  0.641498  0.671093  0.222757  1
  F  F28  1  0.097416  0.829446  0.017741  1
  F  F29  1  0.101527  0.000617  0.661953  1
  F  F30  1  0.903307  0.171180  0.981830  1
  F  F31  1  0.730436  0.826804  0.517511  1
  F  F32  1  0.581175  0.704425  0.046253  1
  F  F33  1  0.580096  0.771881  0.707662  1
  F  F34  1  0.972460  0.329054  0.276776  1
  F  F35  1  0.265932  0.167857  0.482309  1
  F  F36  1  0.388923  0.907927  0.367055  1
  F  F37  1  0.109653  0.998055  0.836122  1
  F  F38  1  0.029454  0.671476  0.722737  1
  F  F39  1  0.857003  0.499104  0.102720  1
