# generated using pymatgen
data_ZnCu(PO3)4
_symmetry_space_group_name_H-M   'P 1'
_cell_length_a   7.28005400
_cell_length_b   7.29197734
_cell_length_c   9.83513966
_cell_angle_alpha   98.26825159
_cell_angle_beta   110.06323604
_cell_angle_gamma   109.97976153
_symmetry_Int_Tables_number   1
_chemical_formula_structural   ZnCu(PO3)4
_chemical_formula_sum   'Zn2 Cu2 P8 O24'
_cell_volume   440.29734577
_cell_formula_units_Z   2
loop_
 _symmetry_equiv_pos_site_id
 _symmetry_equiv_pos_as_xyz
  1  'x, y, z'
loop_
 _atom_site_type_symbol
 _atom_site_label
 _atom_site_symmetry_multiplicity
 _atom_site_fract_x
 _atom_site_fract_y
 _atom_site_fract_z
 _atom_site_occupancy
  Zn  Zn0  1  0.701145  0.947930  0.751733  1
  Zn  Zn1  1  0.304553  0.052940  0.250098  1
  Cu  Cu2  1  0.498387  0.499531  0.500946  1
  Cu  Cu3  1  0.499910  0.998095  0.999393  1
  P  P4  1  0.506394  0.312440  0.803338  1
  P  P5  1  0.008699  0.703742  0.694603  1
  P  P6  1  0.491326  0.685358  0.195886  1
  P  P7  1  0.990381  0.295533  0.304842  1
  P  P8  1  0.769626  0.728866  0.023437  1
  P  P9  1  0.206870  0.745288  0.476570  1
  P  P10  1  0.230758  0.270491  0.976952  1
  P  P11  1  0.794248  0.254537  0.524420  1
  O  O12  1  0.313281  0.315812  0.846976  1
  O  O13  1  0.969579  0.468078  0.651952  1
  O  O14  1  0.683074  0.679655  0.150932  1
  O  O15  1  0.031944  0.531995  0.348684  1
  O  O16  1  0.720743  0.503902  0.929922  1
  O  O17  1  0.069774  0.787017  0.565880  1
  O  O18  1  0.279662  0.496615  0.066521  1
  O  O19  1  0.928855  0.211669  0.433581  1
  O  O20  1  0.457158  0.334814  0.648903  1
  O  O21  1  0.186749  0.809704  0.848604  1
  O  O22  1  0.537534  0.659823  0.349121  1
  O  O23  1  0.809726  0.189562  0.152155  1
  O  O24  1  0.537933  0.121368  0.826740  1
  O  O25  1  0.795068  0.714197  0.671393  1
  O  O26  1  0.458678  0.876116  0.172864  1
  O  O27  1  0.204143  0.286525  0.326867  1
  O  O28  1  0.628270  0.809342  0.918090  1
  O  O29  1  0.391295  0.709414  0.583515  1
  O  O30  1  0.373676  0.191270  0.082145  1
  O  O31  1  0.608910  0.291274  0.419631  1
  O  O32  1  0.005447  0.849224  0.096845  1
  O  O33  1  0.253524  0.908652  0.403780  1
  O  O34  1  0.994333  0.153922  0.906370  1
  O  O35  1  0.749754  0.091660  0.597894  1
