# generated using pymatgen
data_MgGe2WO6
_symmetry_space_group_name_H-M   'P 1'
_cell_length_a   5.57907693
_cell_length_b   8.51801437
_cell_length_c   12.33356776
_cell_angle_alpha   90.00000000
_cell_angle_beta   100.62947902
_cell_angle_gamma   90.00000000
_symmetry_Int_Tables_number   1
_chemical_formula_structural   MgGe2WO6
_chemical_formula_sum   'Mg4 Ge8 W4 O24'
_cell_volume   576.06636696
_cell_formula_units_Z   4
loop_
 _symmetry_equiv_pos_site_id
 _symmetry_equiv_pos_as_xyz
  1  'x, y, z'
loop_
 _atom_site_type_symbol
 _atom_site_label
 _atom_site_symmetry_multiplicity
 _atom_site_fract_x
 _atom_site_fract_y
 _atom_site_fract_z
 _atom_site_occupancy
  Mg  Mg0  1  0.461588  0.418517  0.235664  1
  Mg  Mg1  1  0.038412  0.918517  0.764336  1
  Mg  Mg2  1  0.538412  0.581483  0.764336  1
  Mg  Mg3  1  0.961588  0.081483  0.235664  1
  Ge  Ge4  1  0.847788  0.370186  0.082685  1
  Ge  Ge5  1  0.652212  0.870186  0.917315  1
  Ge  Ge6  1  0.152212  0.629814  0.917315  1
  Ge  Ge7  1  0.347788  0.129814  0.082685  1
  Ge  Ge8  1  0.212464  0.340794  0.462264  1
  Ge  Ge9  1  0.287536  0.840794  0.537736  1
  Ge  Ge10  1  0.787536  0.659206  0.537736  1
  Ge  Ge11  1  0.712464  0.159206  0.462264  1
  W  W12  1  0.985129  0.662098  0.292392  1
  W  W13  1  0.514871  0.162098  0.707608  1
  W  W14  1  0.014871  0.337902  0.707608  1
  W  W15  1  0.485129  0.837902  0.292392  1
  O  O16  1  0.468485  0.288214  0.396066  1
  O  O17  1  0.031515  0.788214  0.603934  1
  O  O18  1  0.531515  0.711786  0.603934  1
  O  O19  1  0.968485  0.211786  0.396066  1
  O  O20  1  0.157255  0.288267  0.160193  1
  O  O21  1  0.342745  0.788267  0.839808  1
  O  O22  1  0.842745  0.711733  0.839808  1
  O  O23  1  0.657255  0.211733  0.160193  1
  O  O24  1  0.662328  0.967083  0.422288  1
  O  O25  1  0.837672  0.467083  0.577712  1
  O  O26  1  0.337672  0.032917  0.577712  1
  O  O27  1  0.162328  0.532917  0.422288  1
  O  O28  1  0.282761  0.998828  0.198786  1
  O  O29  1  0.217239  0.498828  0.801214  1
  O  O30  1  0.717239  0.001172  0.801214  1
  O  O31  1  0.782761  0.501172  0.198786  1
  O  O32  1  0.696061  0.357517  0.772313  1
  O  O33  1  0.803939  0.857517  0.227687  1
  O  O34  1  0.303939  0.642483  0.227687  1
  O  O35  1  0.196061  0.142483  0.772313  1
  O  O36  1  0.297716  0.336506  0.606722  1
  O  O37  1  0.202284  0.836506  0.393278  1
  O  O38  1  0.702284  0.663494  0.393278  1
  O  O39  1  0.797716  0.163494  0.606722  1
