# generated using pymatgen
data_Ti2Zn(CuO4)2
_symmetry_space_group_name_H-M   'P 1'
_cell_length_a   6.45439344
_cell_length_b   8.39809326
_cell_length_c   12.01013801
_cell_angle_alpha   90.00000000
_cell_angle_beta   91.50207531
_cell_angle_gamma   90.00000000
_symmetry_Int_Tables_number   1
_chemical_formula_structural   Ti2Zn(CuO4)2
_chemical_formula_sum   'Ti8 Zn4 Cu8 O32'
_cell_volume   650.78100314
_cell_formula_units_Z   4
loop_
 _symmetry_equiv_pos_site_id
 _symmetry_equiv_pos_as_xyz
  1  'x, y, z'
loop_
 _atom_site_type_symbol
 _atom_site_label
 _atom_site_symmetry_multiplicity
 _atom_site_fract_x
 _atom_site_fract_y
 _atom_site_fract_z
 _atom_site_occupancy
  Ti  Ti0  1  0.099467  0.457033  0.841475  1
  Ti  Ti1  1  0.099467  0.042967  0.341475  1
  Ti  Ti2  1  0.608888  0.089645  0.136395  1
  Ti  Ti3  1  0.900533  0.957033  0.658525  1
  Ti  Ti4  1  0.391112  0.910355  0.863605  1
  Ti  Ti5  1  0.391112  0.589645  0.363605  1
  Ti  Ti6  1  0.608888  0.410355  0.636395  1
  Ti  Ti7  1  0.900533  0.542967  0.158525  1
  Zn  Zn8  1  0.110192  0.158942  0.050529  1
  Zn  Zn9  1  0.889808  0.841058  0.949471  1
  Zn  Zn10  1  0.889808  0.658942  0.449471  1
  Zn  Zn11  1  0.110192  0.341058  0.550529  1
  Cu  Cu12  1  0.762752  0.183738  0.875636  1
  Cu  Cu13  1  0.375493  0.059538  0.628089  1
  Cu  Cu14  1  0.624507  0.940462  0.371911  1
  Cu  Cu15  1  0.237248  0.816262  0.124364  1
  Cu  Cu16  1  0.762752  0.316262  0.375636  1
  Cu  Cu17  1  0.375493  0.440462  0.128089  1
  Cu  Cu18  1  0.237248  0.683738  0.624364  1
  Cu  Cu19  1  0.624507  0.559538  0.871911  1
  O  O20  1  0.028794  0.243204  0.398364  1
  O  O21  1  0.651032  0.015108  0.602560  1
  O  O22  1  0.196098  0.577996  0.476501  1
  O  O23  1  0.803902  0.077996  0.023499  1
  O  O24  1  0.028794  0.256796  0.898364  1
  O  O25  1  0.971206  0.756796  0.601636  1
  O  O26  1  0.095506  0.107897  0.614356  1
  O  O27  1  0.499583  0.896759  0.141468  1
  O  O28  1  0.499583  0.603241  0.641468  1
  O  O29  1  0.308342  0.873803  0.709756  1
  O  O30  1  0.691658  0.373803  0.790244  1
  O  O31  1  0.500417  0.103241  0.858532  1
  O  O32  1  0.904494  0.892103  0.385644  1
  O  O33  1  0.880731  0.533704  0.307075  1
  O  O34  1  0.416555  0.269058  0.585868  1
  O  O35  1  0.416555  0.230942  0.085868  1
  O  O36  1  0.119269  0.033704  0.192925  1
  O  O37  1  0.500417  0.396759  0.358532  1
  O  O38  1  0.119269  0.466296  0.692925  1
  O  O39  1  0.803902  0.422004  0.523499  1
  O  O40  1  0.651032  0.484892  0.102560  1
  O  O41  1  0.691658  0.126197  0.290244  1
  O  O42  1  0.971206  0.743204  0.101636  1
  O  O43  1  0.095506  0.392103  0.114356  1
  O  O44  1  0.196098  0.922004  0.976501  1
  O  O45  1  0.583445  0.769058  0.914132  1
  O  O46  1  0.348968  0.984892  0.397440  1
  O  O47  1  0.348968  0.515108  0.897440  1
  O  O48  1  0.904494  0.607897  0.885644  1
  O  O49  1  0.583445  0.730942  0.414132  1
  O  O50  1  0.308342  0.626197  0.209756  1
  O  O51  1  0.880731  0.966296  0.807075  1
