# generated using pymatgen
data_CaSb4O9
_symmetry_space_group_name_H-M   'P 1'
_cell_length_a   5.51707058
_cell_length_b   8.93420050
_cell_length_c   9.83220189
_cell_angle_alpha   95.46460044
_cell_angle_beta   98.51408128
_cell_angle_gamma   92.53304544
_symmetry_Int_Tables_number   1
_chemical_formula_structural   CaSb4O9
_chemical_formula_sum   'Ca2 Sb8 O18'
_cell_volume   476.27889711
_cell_formula_units_Z   2
loop_
 _symmetry_equiv_pos_site_id
 _symmetry_equiv_pos_as_xyz
  1  'x, y, z'
loop_
 _atom_site_type_symbol
 _atom_site_label
 _atom_site_symmetry_multiplicity
 _atom_site_fract_x
 _atom_site_fract_y
 _atom_site_fract_z
 _atom_site_occupancy
  Ca  Ca0  1  0.191786  0.264845  0.230972  1
  Ca  Ca1  1  0.808438  0.735260  0.769139  1
  Sb  Sb2  1  0.759366  0.577084  0.436578  1
  Sb  Sb3  1  0.280353  0.808907  0.503597  1
  Sb  Sb4  1  0.611194  0.347271  0.973707  1
  Sb  Sb5  1  0.329502  0.023833  0.847091  1
  Sb  Sb6  1  0.670913  0.976232  0.152558  1
  Sb  Sb7  1  0.719115  0.190407  0.496146  1
  Sb  Sb8  1  0.239878  0.422781  0.563706  1
  Sb  Sb9  1  0.389159  0.652590  0.026447  1
  O  O10  1  0.567445  0.768154  0.193973  1
  O  O11  1  0.433623  0.231785  0.805739  1
  O  O12  1  0.060593  0.672475  0.964761  1
  O  O13  1  0.894014  0.481780  0.612205  1
  O  O14  1  0.994532  0.982992  0.835643  1
  O  O15  1  0.956969  0.774585  0.561887  1
  O  O16  1  0.939687  0.328172  0.035550  1
  O  O17  1  0.105620  0.518350  0.388158  1
  O  O18  1  0.005808  0.017442  0.164347  1
  O  O19  1  0.042625  0.225250  0.438211  1
  O  O20  1  0.556266  0.060660  0.318916  1
  O  O21  1  0.473480  0.136412  0.046552  1
  O  O22  1  0.535879  0.352960  0.405440  1
  O  O23  1  0.433508  0.454238  0.111640  1
  O  O24  1  0.566313  0.545603  0.888352  1
  O  O25  1  0.526676  0.863849  0.953256  1
  O  O26  1  0.464022  0.646829  0.594881  1
  O  O27  1  0.443245  0.939256  0.680549  1
