# generated using pymatgen
data_PrMg(MoO3)2
_symmetry_space_group_name_H-M   'P 1'
_cell_length_a   5.47867633
_cell_length_b   5.69176215
_cell_length_c   8.08332332
_cell_angle_alpha   89.99939225
_cell_angle_beta   90.26903442
_cell_angle_gamma   89.99996114
_symmetry_Int_Tables_number   1
_chemical_formula_structural   PrMg(MoO3)2
_chemical_formula_sum   'Pr2 Mg2 Mo4 O12'
_cell_volume   252.06209997
_cell_formula_units_Z   2
loop_
 _symmetry_equiv_pos_site_id
 _symmetry_equiv_pos_as_xyz
  1  'x, y, z'
loop_
 _atom_site_type_symbol
 _atom_site_label
 _atom_site_symmetry_multiplicity
 _atom_site_fract_x
 _atom_site_fract_y
 _atom_site_fract_z
 _atom_site_occupancy
  Pr  Pr0  1  0.008543  0.944737  0.749369  1
  Pr  Pr1  1  0.508551  0.555256  0.249356  1
  Mg  Mg2  1  0.484388  0.451778  0.749677  1
  Mg  Mg3  1  0.984370  0.048230  0.249664  1
  Mo  Mo4  1  0.998722  0.496920  0.999554  1
  Mo  Mo5  1  0.998042  0.493418  0.499731  1
  Mo  Mo6  1  0.498700  0.003078  0.499550  1
  Mo  Mo7  1  0.498054  0.006583  0.999727  1
  O  O8  1  0.108352  0.419071  0.251556  1
  O  O9  1  0.212890  0.205048  0.931201  1
  O  O10  1  0.195504  0.210695  0.568100  1
  O  O11  1  0.310675  0.681086  0.570190  1
  O  O12  1  0.328808  0.692629  0.934048  1
  O  O13  1  0.354080  0.952426  0.246607  1
  O  O14  1  0.608343  0.080943  0.751549  1
  O  O15  1  0.695550  0.289283  0.068120  1
  O  O16  1  0.712869  0.294959  0.431208  1
  O  O17  1  0.810709  0.818922  0.070157  1
  O  O18  1  0.828777  0.807361  0.434023  1
  O  O19  1  0.854067  0.547578  0.746613  1
