# generated using pymatgen
data_Ca4Cu5(TeO6)3
_symmetry_space_group_name_H-M   'P 1'
_cell_length_a   9.29327041
_cell_length_b   9.29327036
_cell_length_c   10.60372991
_cell_angle_alpha   81.55832100
_cell_angle_beta   81.55831838
_cell_angle_gamma   60.08194129
_symmetry_Int_Tables_number   1
_chemical_formula_structural   Ca4Cu5(TeO6)3
_chemical_formula_sum   'Ca8 Cu10 Te6 O36'
_cell_volume   782.25449190
_cell_formula_units_Z   2
loop_
 _symmetry_equiv_pos_site_id
 _symmetry_equiv_pos_as_xyz
  1  'x, y, z'
loop_
 _atom_site_type_symbol
 _atom_site_label
 _atom_site_symmetry_multiplicity
 _atom_site_fract_x
 _atom_site_fract_y
 _atom_site_fract_z
 _atom_site_occupancy
  Ca  Ca0  1  0.869361  0.511545  0.358386  1
  Ca  Ca1  1  0.473951  0.540672  0.220404  1
  Ca  Ca2  1  0.488455  0.130639  0.641614  1
  Ca  Ca3  1  0.459328  0.526049  0.779596  1
  Ca  Ca4  1  0.148841  0.865635  0.720485  1
  Ca  Ca5  1  0.120086  0.261088  0.858292  1
  Ca  Ca6  1  0.738912  0.879914  0.141708  1
  Ca  Ca7  1  0.134365  0.851159  0.279515  1
  Cu  Cu8  1  0.775492  0.541366  0.990518  1
  Cu  Cu9  1  0.150038  0.167021  0.490689  1
  Cu  Cu10  1  0.345454  0.315702  0.313795  1
  Cu  Cu11  1  0.923826  0.737437  0.813795  1
  Cu  Cu12  1  0.684298  0.654546  0.686205  1
  Cu  Cu13  1  0.959394  0.040606  0.000000  1
  Cu  Cu14  1  0.646742  0.353258  0.500000  1
  Cu  Cu15  1  0.262563  0.076175  0.186205  1
  Cu  Cu16  1  0.832979  0.849962  0.509311  1
  Cu  Cu17  1  0.458634  0.224508  0.009482  1
  Te  Te18  1  0.446790  0.872451  0.945444  1
  Te  Te19  1  0.803982  0.195774  0.250160  1
  Te  Te20  1  0.804226  0.196018  0.749840  1
  Te  Te21  1  0.480824  0.838519  0.445450  1
  Te  Te22  1  0.161481  0.519176  0.554550  1
  Te  Te23  1  0.127549  0.553210  0.054556  1
  O  O24  1  0.394700  0.070288  0.836071  1
  O  O25  1  0.744146  0.423992  0.790283  1
  O  O26  1  0.583729  0.619210  0.549783  1
  O  O27  1  0.768200  0.086860  0.417402  1
  O  O28  1  0.576008  0.255854  0.209717  1
  O  O29  1  0.913140  0.231800  0.582598  1
  O  O30  1  0.390823  0.762202  0.338760  1
  O  O31  1  0.013080  0.099932  0.830405  1
  O  O32  1  0.595147  0.291925  0.669807  1
  O  O33  1  0.120384  0.393975  0.429436  1
  O  O34  1  0.550589  0.671391  0.060680  1
  O  O35  1  0.488090  0.997378  0.070567  1
  O  O36  1  0.864058  0.967886  0.709899  1
  O  O37  1  0.682935  0.745462  0.859286  1
  O  O38  1  0.328609  0.449411  0.939320  1
  O  O39  1  0.217435  0.629280  0.161602  1
  O  O40  1  0.057827  0.720043  0.439171  1
  O  O41  1  0.254538  0.317065  0.140714  1
  O  O42  1  0.380790  0.416271  0.450217  1
  O  O43  1  0.279957  0.942173  0.560829  1
  O  O44  1  0.678600  0.786204  0.336030  1
  O  O45  1  0.925343  0.646221  0.640730  1
  O  O46  1  0.900068  0.986920  0.169595  1
  O  O47  1  0.370720  0.782565  0.838398  1
  O  O48  1  0.024817  0.772506  0.950089  1
  O  O49  1  0.695821  0.159751  0.917658  1
  O  O50  1  0.002622  0.511910  0.929433  1
  O  O51  1  0.237798  0.609177  0.661240  1
  O  O52  1  0.032114  0.135942  0.290101  1
  O  O53  1  0.353779  0.074657  0.359270  1
  O  O54  1  0.213796  0.321400  0.663970  1
  O  O55  1  0.840249  0.304179  0.082342  1
  O  O56  1  0.708075  0.404853  0.330193  1
  O  O57  1  0.606025  0.879616  0.570564  1
  O  O58  1  0.227494  0.975183  0.049911  1
  O  O59  1  0.929712  0.605300  0.163929  1
