# generated using pymatgen
data_Sr2TiCu2O7
_symmetry_space_group_name_H-M   'P 1'
_cell_length_a   5.15452068
_cell_length_b   5.27688470
_cell_length_c   13.14119878
_cell_angle_alpha   101.57746106
_cell_angle_beta   101.10105654
_cell_angle_gamma   90.09008785
_symmetry_Int_Tables_number   1
_chemical_formula_structural   Sr2TiCu2O7
_chemical_formula_sum   'Sr4 Ti2 Cu4 O14'
_cell_volume   343.31310333
_cell_formula_units_Z   2
loop_
 _symmetry_equiv_pos_site_id
 _symmetry_equiv_pos_as_xyz
  1  'x, y, z'
loop_
 _atom_site_type_symbol
 _atom_site_label
 _atom_site_symmetry_multiplicity
 _atom_site_fract_x
 _atom_site_fract_y
 _atom_site_fract_z
 _atom_site_occupancy
  Sr  Sr0  1  0.337244  0.344984  0.712940  1
  Sr  Sr1  1  0.627548  0.654844  0.287648  1
  Sr  Sr2  1  0.837075  0.867555  0.712929  1
  Sr  Sr3  1  0.127629  0.132156  0.287621  1
  Ti  Ti4  1  0.295462  0.678978  0.500322  1
  Ti  Ti5  1  0.795297  0.320694  0.500274  1
  Cu  Cu6  1  0.918157  0.442022  0.879824  1
  Cu  Cu7  1  0.044477  0.557929  0.120790  1
  Cu  Cu8  1  0.417971  0.937805  0.879735  1
  Cu  Cu9  1  0.544582  0.062101  0.120764  1
  O  O10  1  0.160179  0.348909  0.500291  1
  O  O11  1  0.660235  0.650507  0.500294  1
  O  O12  1  0.153854  0.175691  0.850556  1
  O  O13  1  0.309494  0.824712  0.151013  1
  O  O14  1  0.653304  0.174098  0.849502  1
  O  O15  1  0.808914  0.825164  0.150030  1
  O  O16  1  0.651146  0.672930  0.845904  1
  O  O17  1  0.811362  0.327700  0.155859  1
  O  O18  1  0.150637  0.672362  0.844632  1
  O  O19  1  0.311002  0.326906  0.154752  1
  O  O20  1  0.270876  0.859090  0.628756  1
  O  O21  1  0.644277  0.140445  0.371827  1
  O  O22  1  0.770671  0.268840  0.628693  1
  O  O23  1  0.144310  0.730820  0.371952  1
