# generated using pymatgen
data_NaCaFe2(SiO3)4
_symmetry_space_group_name_H-M   'P 1'
_cell_length_a   5.34804455
_cell_length_b   6.68267687
_cell_length_c   6.68267706
_cell_angle_alpha   84.49891887
_cell_angle_beta   77.92822206
_cell_angle_gamma   77.92822910
_symmetry_Int_Tables_number   1
_chemical_formula_structural   NaCaFe2(SiO3)4
_chemical_formula_sum   'Na1 Ca1 Fe2 Si4 O12'
_cell_volume   228.04815305
_cell_formula_units_Z   1
loop_
 _symmetry_equiv_pos_site_id
 _symmetry_equiv_pos_as_xyz
  1  'x, y, z'
loop_
 _atom_site_type_symbol
 _atom_site_label
 _atom_site_symmetry_multiplicity
 _atom_site_fract_x
 _atom_site_fract_y
 _atom_site_fract_z
 _atom_site_occupancy
  Na  Na0  1  0.250000  0.697293  0.302707  1
  Ca  Ca1  1  0.750000  0.301863  0.698137  1
  Fe  Fe2  1  0.250000  0.093094  0.906906  1
  Fe  Fe3  1  0.750000  0.898367  0.101633  1
  Si  Si4  1  0.270445  0.197372  0.377689  1
  Si  Si5  1  0.229555  0.622311  0.802628  1
  Si  Si6  1  0.762001  0.380690  0.196669  1
  Si  Si7  1  0.737999  0.803331  0.619310  1
  O  O8  1  0.001683  0.631775  0.662558  1
  O  O9  1  0.178013  0.115035  0.610327  1
  O  O10  1  0.370726  0.028847  0.201930  1
  O  O11  1  0.129274  0.798070  0.971153  1
  O  O12  1  0.321987  0.389673  0.884965  1
  O  O13  1  0.498317  0.337442  0.368225  1
  O  O14  1  0.502433  0.669656  0.640906  1
  O  O15  1  0.689476  0.614411  0.107104  1
  O  O16  1  0.839439  0.201140  0.032360  1
  O  O17  1  0.660561  0.967640  0.798860  1
  O  O18  1  0.810524  0.892896  0.385589  1
  O  O19  1  0.997567  0.359094  0.330344  1
