# generated using pymatgen
data_CaCr2O6
_symmetry_space_group_name_H-M   'P 1'
_cell_length_a   5.33294975
_cell_length_b   5.38743640
_cell_length_c   7.37193521
_cell_angle_alpha   89.75744704
_cell_angle_beta   90.10872225
_cell_angle_gamma   89.54970578
_symmetry_Int_Tables_number   1
_chemical_formula_structural   CaCr2O6
_chemical_formula_sum   'Ca2 Cr4 O12'
_cell_volume   211.79370288
_cell_formula_units_Z   2
loop_
 _symmetry_equiv_pos_site_id
 _symmetry_equiv_pos_as_xyz
  1  'x, y, z'
loop_
 _atom_site_type_symbol
 _atom_site_label
 _atom_site_symmetry_multiplicity
 _atom_site_fract_x
 _atom_site_fract_y
 _atom_site_fract_z
 _atom_site_occupancy
  Ca  Ca0  1  0.509551  0.546202  0.262049  1
  Ca  Ca1  1  0.014542  0.952462  0.740265  1
  Cr  Cr2  1  0.551321  0.017548  0.008874  1
  Cr  Cr3  1  0.042464  0.482718  0.991117  1
  Cr  Cr4  1  0.025878  0.491752  0.501128  1
  Cr  Cr5  1  0.519437  0.014701  0.502125  1
  O  O6  1  0.938660  0.508217  0.750554  1
  O  O7  1  0.435047  0.996174  0.230479  1
  O  O8  1  0.549286  0.012087  0.766815  1
  O  O9  1  0.047221  0.488509  0.249274  1
  O  O10  1  0.705949  0.285433  0.467858  1
  O  O11  1  0.206401  0.211130  0.531101  1
  O  O12  1  0.767836  0.789736  0.029757  1
  O  O13  1  0.260005  0.711550  0.971134  1
  O  O14  1  0.706525  0.286062  0.033826  1
  O  O15  1  0.197863  0.209524  0.965325  1
  O  O16  1  0.270657  0.714080  0.526115  1
  O  O17  1  0.767599  0.782117  0.472205  1
