# generated using pymatgen
data_Mg2Nb2SbO8
_symmetry_space_group_name_H-M   'P 1'
_cell_length_a   5.37290657
_cell_length_b   5.98527922
_cell_length_c   10.65598831
_cell_angle_alpha   106.34858283
_cell_angle_beta   94.10800896
_cell_angle_gamma   89.79722173
_symmetry_Int_Tables_number   1
_chemical_formula_structural   Mg2Nb2SbO8
_chemical_formula_sum   'Mg4 Nb4 Sb2 O16'
_cell_volume   327.92910375
_cell_formula_units_Z   2
loop_
 _symmetry_equiv_pos_site_id
 _symmetry_equiv_pos_as_xyz
  1  'x, y, z'
loop_
 _atom_site_type_symbol
 _atom_site_label
 _atom_site_symmetry_multiplicity
 _atom_site_fract_x
 _atom_site_fract_y
 _atom_site_fract_z
 _atom_site_occupancy
  Mg  Mg0  1  0.761030  0.420433  0.542385  1
  Mg  Mg1  1  0.739306  0.878023  0.455478  1
  Mg  Mg2  1  0.239579  0.576419  0.455517  1
  Mg  Mg3  1  0.259648  0.119222  0.543010  1
  Nb  Nb4  1  0.732225  0.287874  0.246954  1
  Nb  Nb5  1  0.770500  0.043652  0.751660  1
  Nb  Nb6  1  0.267777  0.710994  0.749986  1
  Nb  Nb7  1  0.233880  0.959707  0.247303  1
  Sb  Sb8  1  0.749735  0.676226  0.999823  1
  Sb  Sb9  1  0.254470  0.331556  0.999237  1
  O  O10  1  0.028180  0.165060  0.155752  1
  O  O11  1  0.474457  0.009331  0.841144  1
  O  O12  1  0.971297  0.833815  0.842857  1
  O  O13  1  0.532810  0.983486  0.155056  1
  O  O14  1  0.611170  0.456367  0.115379  1
  O  O15  1  0.889394  0.339442  0.877536  1
  O  O16  1  0.389976  0.542415  0.882974  1
  O  O17  1  0.111054  0.658122  0.116548  1
  O  O18  1  0.439174  0.290303  0.371286  1
  O  O19  1  0.057776  0.916299  0.623957  1
  O  O20  1  0.367788  0.835180  0.392373  1
  O  O21  1  0.131083  0.440931  0.605698  1
  O  O22  1  0.629476  0.162340  0.605312  1
  O  O23  1  0.868344  0.555769  0.391808  1
  O  O24  1  0.939320  0.081586  0.373237  1
  O  O25  1  0.557134  0.704371  0.623664  1
