# generated using pymatgen
data_MgCoO2
_symmetry_space_group_name_H-M   'P 1'
_cell_length_a   2.93594126
_cell_length_b   8.33956669
_cell_length_c   8.41801397
_cell_angle_alpha   85.14616085
_cell_angle_beta   79.42503272
_cell_angle_gamma   80.89574088
_symmetry_Int_Tables_number   1
_chemical_formula_structural   MgCoO2
_chemical_formula_sum   'Mg4 Co4 O8'
_cell_volume   199.72934715
_cell_formula_units_Z   4
loop_
 _symmetry_equiv_pos_site_id
 _symmetry_equiv_pos_as_xyz
  1  'x, y, z'
loop_
 _atom_site_type_symbol
 _atom_site_label
 _atom_site_symmetry_multiplicity
 _atom_site_fract_x
 _atom_site_fract_y
 _atom_site_fract_z
 _atom_site_occupancy
  Mg  Mg0  1  0.364247  0.061488  0.234670  1
  Mg  Mg1  1  0.635354  0.918453  0.793694  1
  Mg  Mg2  1  0.081852  0.701971  0.138123  1
  Mg  Mg3  1  0.913515  0.277997  0.889764  1
  Co  Co4  1  0.626799  0.180957  0.565781  1
  Co  Co5  1  0.191266  0.376561  0.212168  1
  Co  Co6  1  0.802977  0.603692  0.815802  1
  Co  Co7  1  0.367421  0.798229  0.462101  1
  O  O8  1  0.804572  0.758423  0.612559  1
  O  O9  1  0.370761  0.431846  0.838947  1
  O  O10  1  0.623664  0.548453  0.189894  1
  O  O11  1  0.186564  0.221465  0.415653  1
  O  O12  1  0.081441  0.098455  0.736751  1
  O  O13  1  0.859190  0.199720  0.117813  1
  O  O14  1  0.921517  0.881221  0.291477  1
  O  O15  1  0.137135  0.780406  0.910420  1
