# generated using pymatgen
data_Mn2ZnO4
_symmetry_space_group_name_H-M   'P 1'
_cell_length_a   6.22751992
_cell_length_b   6.22718570
_cell_length_c   17.61271822
_cell_angle_alpha   61.69950302
_cell_angle_beta   61.69546774
_cell_angle_gamma   56.17300688
_symmetry_Int_Tables_number   1
_chemical_formula_structural   Mn2ZnO4
_chemical_formula_sum   'Mn12 Zn6 O24'
_cell_volume   478.49883676
_cell_formula_units_Z   6
loop_
 _symmetry_equiv_pos_site_id
 _symmetry_equiv_pos_as_xyz
  1  'x, y, z'
loop_
 _atom_site_type_symbol
 _atom_site_label
 _atom_site_symmetry_multiplicity
 _atom_site_fract_x
 _atom_site_fract_y
 _atom_site_fract_z
 _atom_site_occupancy
  Mn  Mn0  1  0.005180  0.504090  0.166448  1
  Mn  Mn1  1  0.501384  0.501511  0.167194  1
  Mn  Mn2  1  0.000085  0.500136  0.499987  1
  Mn  Mn3  1  0.504155  0.005208  0.166419  1
  Mn  Mn4  1  0.501352  0.501592  0.333265  1
  Mn  Mn5  1  0.500490  0.500450  0.499588  1
  Mn  Mn6  1  0.994782  0.494379  0.834010  1
  Mn  Mn7  1  0.500146  0.000055  0.499992  1
  Mn  Mn8  1  0.494221  0.994861  0.834040  1
  Mn  Mn9  1  0.497968  0.497627  0.666392  1
  Mn  Mn10  1  0.500184  0.500053  0.831721  1
  Mn  Mn11  1  0.877959  0.877922  0.956107  1
  Zn  Zn12  1  0.121322  0.121415  0.046083  1
  Zn  Zn13  1  0.124807  0.124890  0.375443  1
  Zn  Zn14  1  0.499407  0.499514  0.001093  1
  Zn  Zn15  1  0.121096  0.120782  0.709324  1
  Zn  Zn16  1  0.877964  0.878244  0.290089  1
  Zn  Zn17  1  0.876062  0.875894  0.623841  1
  O  O18  1  0.257222  0.257158  0.090523  1
  O  O19  1  0.256490  0.256415  0.241025  1
  O  O20  1  0.259703  0.723224  0.091945  1
  O  O21  1  0.723178  0.260111  0.091844  1
  O  O22  1  0.282260  0.732147  0.249244  1
  O  O23  1  0.254624  0.254532  0.423875  1
  O  O24  1  0.732316  0.282554  0.249161  1
  O  O25  1  0.744278  0.744269  0.094899  1
  O  O26  1  0.270089  0.719872  0.418877  1
  O  O27  1  0.252989  0.252906  0.573937  1
  O  O28  1  0.744513  0.744643  0.244532  1
  O  O29  1  0.719812  0.270488  0.418772  1
  O  O30  1  0.280263  0.728969  0.581271  1
  O  O31  1  0.253703  0.253646  0.756235  1
  O  O32  1  0.729455  0.280117  0.581161  1
  O  O33  1  0.746634  0.746686  0.426414  1
  O  O34  1  0.253236  0.253458  0.907184  1
  O  O35  1  0.263984  0.714931  0.751613  1
  O  O36  1  0.744362  0.744399  0.576837  1
  O  O37  1  0.715301  0.264094  0.751538  1
  O  O38  1  0.283838  0.742783  0.906235  1
  O  O39  1  0.745085  0.745151  0.758406  1
  O  O40  1  0.743281  0.283847  0.906128  1
  O  O41  1  0.744817  0.744984  0.907308  1
