# generated using pymatgen
data_ZnNi3(P2O7)2
_symmetry_space_group_name_H-M   'P 1'
_cell_length_a   7.23734062
_cell_length_b   7.49350805
_cell_length_c   9.48371400
_cell_angle_alpha   90.00000000
_cell_angle_beta   112.38501769
_cell_angle_gamma   90.00000000
_symmetry_Int_Tables_number   1
_chemical_formula_structural   ZnNi3(P2O7)2
_chemical_formula_sum   'Zn2 Ni6 P8 O28'
_cell_volume   475.57385366
_cell_formula_units_Z   2
loop_
 _symmetry_equiv_pos_site_id
 _symmetry_equiv_pos_as_xyz
  1  'x, y, z'
loop_
 _atom_site_type_symbol
 _atom_site_label
 _atom_site_symmetry_multiplicity
 _atom_site_fract_x
 _atom_site_fract_y
 _atom_site_fract_z
 _atom_site_occupancy
  Zn  Zn0  1  0.500000  -0.000000  0.000000  1
  Zn  Zn1  1  0.500000  0.500000  0.500000  1
  Ni  Ni2  1  0.185720  0.871581  0.522495  1
  Ni  Ni3  1  0.814280  0.371581  0.977505  1
  Ni  Ni4  1  0.814280  0.128419  0.477505  1
  Ni  Ni5  1  0.185720  0.628419  0.022495  1
  Ni  Ni6  1  0.000000  -0.000000  0.000000  1
  Ni  Ni7  1  0.000000  0.500000  0.500000  1
  P  P8  1  0.588247  0.075879  0.703633  1
  P  P9  1  0.411753  0.575879  0.796367  1
  P  P10  1  0.411753  0.924121  0.296367  1
  P  P11  1  0.588247  0.424121  0.203633  1
  P  P12  1  0.867720  0.792125  0.687251  1
  P  P13  1  0.132280  0.292125  0.812749  1
  P  P14  1  0.132280  0.207875  0.312749  1
  P  P15  1  0.867720  0.707875  0.187251  1
  O  O16  1  0.804492  0.615231  0.598744  1
  O  O17  1  0.195508  0.115231  0.901256  1
  O  O18  1  0.195508  0.384769  0.401256  1
  O  O19  1  0.804492  0.884769  0.098744  1
  O  O20  1  0.278668  0.621644  0.626868  1
  O  O21  1  0.721332  0.121644  0.873132  1
  O  O22  1  0.721332  0.378356  0.373132  1
  O  O23  1  0.278668  0.878356  0.126868  1
  O  O24  1  0.618638  0.209294  0.592036  1
  O  O25  1  0.381362  0.709294  0.907964  1
  O  O26  1  0.381362  0.790706  0.407964  1
  O  O27  1  0.618638  0.290706  0.092036  1
  O  O28  1  0.663161  0.884459  0.671388  1
  O  O29  1  0.336839  0.384459  0.828612  1
  O  O30  1  0.336839  0.115541  0.328612  1
  O  O31  1  0.663161  0.615541  0.171388  1
  O  O32  1  0.378368  0.467163  0.190603  1
  O  O33  1  0.621632  0.967163  0.309397  1
  O  O34  1  0.621632  0.532837  0.809397  1
  O  O35  1  0.378368  0.032837  0.690603  1
  O  O36  1  0.016400  0.215991  0.139958  1
  O  O37  1  0.983600  0.715991  0.360042  1
  O  O38  1  0.983600  0.784009  0.860042  1
  O  O39  1  0.016400  0.284009  0.639958  1
  O  O40  1  0.967776  0.584149  0.109409  1
  O  O41  1  0.032224  0.084149  0.390591  1
  O  O42  1  0.032224  0.415851  0.890591  1
  O  O43  1  0.967776  0.915851  0.609409  1
