# generated using pymatgen
data_La2ZnSnO6
_symmetry_space_group_name_H-M   'P 1'
_cell_length_a   5.70767101
_cell_length_b   5.70767063
_cell_length_c   5.70767125
_cell_angle_alpha   61.07513857
_cell_angle_beta   61.07513963
_cell_angle_gamma   61.07514269
_symmetry_Int_Tables_number   1
_chemical_formula_structural   La2ZnSnO6
_chemical_formula_sum   'La2 Zn1 Sn1 O6'
_cell_volume   134.66312965
_cell_formula_units_Z   1
loop_
 _symmetry_equiv_pos_site_id
 _symmetry_equiv_pos_as_xyz
  1  'x, y, z'
loop_
 _atom_site_type_symbol
 _atom_site_label
 _atom_site_symmetry_multiplicity
 _atom_site_fract_x
 _atom_site_fract_y
 _atom_site_fract_z
 _atom_site_occupancy
  La  La0  1  0.750792  0.750792  0.750792  1
  La  La1  1  0.249208  0.249208  0.249208  1
  Zn  Zn2  1  0.500000  0.500000  0.500000  1
  Sn  Sn3  1  0.000000  0.000000  0.000000  1
  O  O4  1  0.339371  0.756662  0.155155  1
  O  O5  1  0.756662  0.155155  0.339371  1
  O  O6  1  0.155155  0.339371  0.756662  1
  O  O7  1  0.660629  0.243338  0.844845  1
  O  O8  1  0.844845  0.660629  0.243338  1
  O  O9  1  0.243338  0.844845  0.660629  1
