# generated using pymatgen
data_Zn(BiO2)2
_symmetry_space_group_name_H-M   'P 1'
_cell_length_a   3.31413760
_cell_length_b   5.89483154
_cell_length_c   11.20011980
_cell_angle_alpha   90.00000000
_cell_angle_beta   90.00000000
_cell_angle_gamma   106.32618769
_symmetry_Int_Tables_number   1
_chemical_formula_structural   Zn(BiO2)2
_chemical_formula_sum   'Zn2 Bi4 O8'
_cell_volume   209.98566525
_cell_formula_units_Z   2
loop_
 _symmetry_equiv_pos_site_id
 _symmetry_equiv_pos_as_xyz
  1  'x, y, z'
loop_
 _atom_site_type_symbol
 _atom_site_label
 _atom_site_symmetry_multiplicity
 _atom_site_fract_x
 _atom_site_fract_y
 _atom_site_fract_z
 _atom_site_occupancy
  Zn  Zn0  1  0.395940  0.791879  0.750000  1
  Zn  Zn1  1  0.604060  0.208121  0.250000  1
  Bi  Bi2  1  0.867397  0.734795  0.076790  1
  Bi  Bi3  1  0.132603  0.265205  0.923210  1
  Bi  Bi4  1  0.867397  0.734795  0.423210  1
  Bi  Bi5  1  0.132603  0.265205  0.576790  1
  O  O6  1  0.221141  0.442282  0.382604  1
  O  O7  1  0.778859  0.557718  0.617396  1
  O  O8  1  0.778859  0.557718  0.882604  1
  O  O9  1  0.221141  0.442282  0.117396  1
  O  O10  1  0.001869  0.003739  0.250000  1
  O  O11  1  0.998131  0.996261  0.750000  1
  O  O12  1  0.500000  -0.000000  0.000000  1
  O  O13  1  0.500000  -0.000000  0.500000  1
