# generated using pymatgen
data_Zn(SnO2)2
_symmetry_space_group_name_H-M   'P 1'
_cell_length_a   6.55270777
_cell_length_b   6.63891330
_cell_length_c   6.63891257
_cell_angle_alpha   59.99999393
_cell_angle_beta   59.56384660
_cell_angle_gamma   59.56384786
_symmetry_Int_Tables_number   1
_chemical_formula_structural   Zn(SnO2)2
_chemical_formula_sum   'Zn2 Sn4 O8'
_cell_volume   202.86400000
_cell_formula_units_Z   2
loop_
 _symmetry_equiv_pos_site_id
 _symmetry_equiv_pos_as_xyz
  1  'x, y, z'
loop_
 _atom_site_type_symbol
 _atom_site_label
 _atom_site_symmetry_multiplicity
 _atom_site_fract_x
 _atom_site_fract_y
 _atom_site_fract_z
 _atom_site_occupancy
  Zn  Zn0  1  0.988782  0.003740  0.003740  1
  Zn  Zn1  1  0.126479  0.624507  0.624507  1
  Sn  Sn2  1  0.263657  0.245448  0.245448  1
  Sn  Sn3  1  0.625886  0.121471  0.626321  1
  Sn  Sn4  1  0.625886  0.626321  0.121471  1
  Sn  Sn5  1  0.625886  0.626321  0.626321  1
  O  O6  1  0.400983  0.393071  0.393071  1
  O  O7  1  0.400983  0.393071  0.812875  1
  O  O8  1  0.400983  0.812875  0.393071  1
  O  O9  1  0.821018  0.392994  0.392994  1
  O  O10  1  0.391359  0.869546  0.869546  1
  O  O11  1  0.859367  0.403383  0.868626  1
  O  O12  1  0.859367  0.868626  0.403383  1
  O  O13  1  0.859367  0.868626  0.868626  1
