# generated using pymatgen
data_Ca(NiO2)2
_symmetry_space_group_name_H-M   'P 1'
_cell_length_a   6.30161857
_cell_length_b   6.04412160
_cell_length_c   6.04412149
_cell_angle_alpha   59.99999431
_cell_angle_beta   61.34274828
_cell_angle_gamma   61.34274627
_symmetry_Int_Tables_number   1
_chemical_formula_structural   Ca(NiO2)2
_chemical_formula_sum   'Ca2 Ni4 O8'
_cell_volume   166.00678339
_cell_formula_units_Z   2
loop_
 _symmetry_equiv_pos_site_id
 _symmetry_equiv_pos_as_xyz
  1  'x, y, z'
loop_
 _atom_site_type_symbol
 _atom_site_label
 _atom_site_symmetry_multiplicity
 _atom_site_fract_x
 _atom_site_fract_y
 _atom_site_fract_z
 _atom_site_occupancy
  Ca  Ca0  1  0.958590  0.013804  0.013804  1
  Ca  Ca1  1  0.125442  0.624852  0.624852  1
  Ni  Ni2  1  0.300638  0.233121  0.233121  1
  Ni  Ni3  1  0.607896  0.113902  0.639101  1
  Ni  Ni4  1  0.607896  0.639101  0.113902  1
  Ni  Ni5  1  0.607896  0.639101  0.639101  1
  O  O6  1  0.437546  0.362981  0.362981  1
  O  O7  1  0.437546  0.362981  0.836491  1
  O  O8  1  0.437546  0.836491  0.362981  1
  O  O9  1  0.960476  0.346508  0.346508  1
  O  O10  1  0.377586  0.874138  0.874138  1
  O  O11  1  0.796982  0.449058  0.876980  1
  O  O12  1  0.796982  0.876980  0.449058  1
  O  O13  1  0.796982  0.876980  0.876980  1
