# generated using pymatgen
data_BaAlVCuO5
_symmetry_space_group_name_H-M   'P 1'
_cell_length_a   3.81708515
_cell_length_b   3.69254570
_cell_length_c   8.07729536
_cell_angle_alpha   89.99574168
_cell_angle_beta   90.01211189
_cell_angle_gamma   89.98471999
_symmetry_Int_Tables_number   1
_chemical_formula_structural   BaAlVCuO5
_chemical_formula_sum   'Ba1 Al1 V1 Cu1 O5'
_cell_volume   113.84754365
_cell_formula_units_Z   1
loop_
 _symmetry_equiv_pos_site_id
 _symmetry_equiv_pos_as_xyz
  1  'x, y, z'
loop_
 _atom_site_type_symbol
 _atom_site_label
 _atom_site_symmetry_multiplicity
 _atom_site_fract_x
 _atom_site_fract_y
 _atom_site_fract_z
 _atom_site_occupancy
  Ba  Ba0  1  0.000006  0.999995  0.030472  1
  Al  Al1  1  -0.000012  0.000071  0.465201  1
  V  V2  1  0.499989  0.500001  0.687956  1
  Cu  Cu3  1  0.500027  0.499989  0.285424  1
  O  O4  1  0.999944  0.500001  0.604391  1
  O  O5  1  0.499903  0.000012  0.603354  1
  O  O6  1  0.000042  0.499943  0.296622  1
  O  O7  1  0.500102  0.999988  0.297714  1
  O  O8  1  0.499995  0.499997  0.916781  1
