# generated using pymatgen
data_VZnO2
_symmetry_space_group_name_H-M   'P 1'
_cell_length_a   3.03059644
_cell_length_b   9.86680123
_cell_length_c   8.79550276
_cell_angle_alpha   65.66655791
_cell_angle_beta   79.13753830
_cell_angle_gamma   84.99250445
_symmetry_Int_Tables_number   1
_chemical_formula_structural   VZnO2
_chemical_formula_sum   'V4 Zn4 O8'
_cell_volume   235.33360444
_cell_formula_units_Z   4
loop_
 _symmetry_equiv_pos_site_id
 _symmetry_equiv_pos_as_xyz
  1  'x, y, z'
loop_
 _atom_site_type_symbol
 _atom_site_label
 _atom_site_symmetry_multiplicity
 _atom_site_fract_x
 _atom_site_fract_y
 _atom_site_fract_z
 _atom_site_occupancy
  V  V0  1  0.584428  0.213882  0.587173  1
  V  V1  1  0.202268  0.366810  0.168451  1
  V  V2  1  0.792653  0.613230  0.859958  1
  V  V3  1  0.427958  0.763697  0.441792  1
  Zn  Zn4  1  0.443510  0.052114  0.354811  1
  Zn  Zn5  1  0.536559  0.927007  0.673070  1
  Zn  Zn6  1  0.128677  0.684535  0.125674  1
  Zn  Zn7  1  0.871529  0.293982  0.903571  1
  O  O8  1  0.840496  0.721893  0.615312  1
  O  O9  1  0.314655  0.452861  0.897406  1
  O  O10  1  0.674893  0.527576  0.131295  1
  O  O11  1  0.137224  0.257693  0.412373  1
  O  O12  1  0.006042  0.236820  0.723462  1
  O  O13  1  0.746303  0.233157  0.149786  1
  O  O14  1  0.011890  0.747845  0.302083  1
  O  O15  1  0.249191  0.746235  0.879400  1
