# generated using pymatgen
data_AlBiO3
_symmetry_space_group_name_H-M   'P 1'
_cell_length_a   5.38486332
_cell_length_b   5.39596536
_cell_length_c   9.42456845
_cell_angle_alpha   89.99988869
_cell_angle_beta   89.99996033
_cell_angle_gamma   90.00004602
_symmetry_Int_Tables_number   1
_chemical_formula_structural   AlBiO3
_chemical_formula_sum   'Al4 Bi4 O12'
_cell_volume   273.84531191
_cell_formula_units_Z   4
loop_
 _symmetry_equiv_pos_site_id
 _symmetry_equiv_pos_as_xyz
  1  'x, y, z'
loop_
 _atom_site_type_symbol
 _atom_site_label
 _atom_site_symmetry_multiplicity
 _atom_site_fract_x
 _atom_site_fract_y
 _atom_site_fract_z
 _atom_site_occupancy
  Al  Al0  1  0.958293  0.030553  0.749997  1
  Al  Al1  1  0.458295  0.469449  0.250001  1
  Al  Al2  1  0.541707  0.530552  0.749998  1
  Al  Al3  1  0.041707  0.969448  0.250002  1
  Bi  Bi4  1  -0.000003  0.499996  0.499999  1
  Bi  Bi5  1  0.500003  -0.000003  0.500001  1
  Bi  Bi6  1  0.499999  -0.000002  0.000001  1
  Bi  Bi7  1  -0.000004  0.499998  0.000001  1
  O  O8  1  0.626491  0.368831  0.399107  1
  O  O9  1  0.126490  0.131173  0.600893  1
  O  O10  1  0.873506  0.868829  0.100891  1
  O  O11  1  0.373510  0.631172  0.899110  1
  O  O12  1  0.373512  0.631173  0.600891  1
  O  O13  1  0.873511  0.868831  0.399108  1
  O  O14  1  0.126489  0.131172  0.899110  1
  O  O15  1  0.626493  0.368829  0.100892  1
  O  O16  1  0.168051  0.284897  0.250000  1
  O  O17  1  0.668051  0.215103  0.749999  1
  O  O18  1  0.331948  0.784898  0.249999  1
  O  O19  1  0.831950  0.715103  0.749999  1
