# generated using pymatgen
data_Zn3W2O7
_symmetry_space_group_name_H-M   'P 1'
_cell_length_a   5.38911956
_cell_length_b   5.44571023
_cell_length_c   9.83238446
_cell_angle_alpha   106.07689286
_cell_angle_beta   90.00000000
_cell_angle_gamma   90.00000000
_symmetry_Int_Tables_number   1
_chemical_formula_structural   Zn3W2O7
_chemical_formula_sum   'Zn6 W4 O14'
_cell_volume   277.27153499
_cell_formula_units_Z   2
loop_
 _symmetry_equiv_pos_site_id
 _symmetry_equiv_pos_as_xyz
  1  'x, y, z'
loop_
 _atom_site_type_symbol
 _atom_site_label
 _atom_site_symmetry_multiplicity
 _atom_site_fract_x
 _atom_site_fract_y
 _atom_site_fract_z
 _atom_site_occupancy
  Zn  Zn0  1  0.739503  0.740269  1.000000  1
  Zn  Zn1  1  0.239503  0.259731  0.000000  1
  Zn  Zn2  1  0.781555  0.578266  0.593080  1
  Zn  Zn3  1  0.281555  0.421734  0.406920  1
  Zn  Zn4  1  0.781555  0.985185  0.406920  1
  Zn  Zn5  1  0.281555  0.014815  0.593080  1
  W  W6  1  0.757254  0.356270  0.206900  1
  W  W7  1  0.257254  0.643730  0.793100  1
  W  W8  1  0.257254  0.850630  0.206900  1
  W  W9  1  0.757254  0.149370  0.793100  1
  O  O10  1  0.656621  0.929159  0.589467  1
  O  O11  1  0.156621  0.070841  0.410533  1
  O  O12  1  0.156621  0.660307  0.589467  1
  O  O13  1  0.656621  0.339693  0.410533  1
  O  O14  1  0.094290  0.289650  0.734395  1
  O  O15  1  0.594290  0.710350  0.265605  1
  O  O16  1  0.594290  0.444744  0.734395  1
  O  O17  1  0.094290  0.555256  0.265605  1
  O  O18  1  0.919205  0.848381  0.846883  1
  O  O19  1  0.419205  0.151619  0.153117  1
  O  O20  1  0.862650  0.376125  0.000000  1
  O  O21  1  0.362650  0.623875  1.000000  1
  O  O22  1  0.919205  0.001498  0.153117  1
  O  O23  1  0.419205  0.998502  0.846883  1
