# generated using pymatgen
data_ZnP4WO12
_symmetry_space_group_name_H-M   'P 1'
_cell_length_a   7.74424400
_cell_length_b   7.73948045
_cell_length_c   10.28903690
_cell_angle_alpha   97.40223042
_cell_angle_beta   111.16714136
_cell_angle_gamma   110.44783273
_symmetry_Int_Tables_number   1
_chemical_formula_structural   ZnP4WO12
_chemical_formula_sum   'Zn2 P8 W2 O24'
_cell_volume   515.39149311
_cell_formula_units_Z   2
loop_
 _symmetry_equiv_pos_site_id
 _symmetry_equiv_pos_as_xyz
  1  'x, y, z'
loop_
 _atom_site_type_symbol
 _atom_site_label
 _atom_site_symmetry_multiplicity
 _atom_site_fract_x
 _atom_site_fract_y
 _atom_site_fract_z
 _atom_site_occupancy
  Zn  Zn0  1  0.734262  0.985215  0.750048  1
  Zn  Zn1  1  0.263849  0.015447  0.250717  1
  P  P2  1  0.495420  0.327081  0.809417  1
  P  P3  1  0.017068  0.686997  0.691743  1
  P  P4  1  0.502803  0.673749  0.191657  1
  P  P5  1  0.981124  0.313457  0.308859  1
  P  P6  1  0.752732  0.717689  0.029310  1
  P  P7  1  0.187963  0.725810  0.472115  1
  P  P8  1  0.245054  0.283635  0.971568  1
  P  P9  1  0.810860  0.274482  0.528595  1
  W  W10  1  0.499061  0.499791  0.500244  1
  W  W11  1  0.498692  0.000427  0.000593  1
  O  O12  1  0.308689  0.333995  0.841102  1
  O  O13  1  0.992009  0.468362  0.659315  1
  O  O14  1  0.689554  0.667049  0.159884  1
  O  O15  1  0.006475  0.532197  0.341345  1
  O  O16  1  0.696205  0.507708  0.932704  1
  O  O17  1  0.075070  0.765553  0.569075  1
  O  O18  1  0.301813  0.493831  0.067958  1
  O  O19  1  0.924346  0.235140  0.431988  1
  O  O20  1  0.461006  0.352026  0.661935  1
  O  O21  1  0.189269  0.799419  0.839444  1
  O  O22  1  0.537215  0.647707  0.338834  1
  O  O23  1  0.808102  0.201249  0.161467  1
  O  O24  1  0.523607  0.148063  0.835584  1
  O  O25  1  0.811975  0.689067  0.665405  1
  O  O26  1  0.475068  0.853252  0.166175  1
  O  O27  1  0.186060  0.311211  0.334475  1
  O  O28  1  0.611509  0.797401  0.941699  1
  O  O29  1  0.355260  0.671864  0.559220  1
  O  O30  1  0.385946  0.203670  0.059363  1
  O  O31  1  0.643285  0.328074  0.441265  1
  O  O32  1  0.978247  0.825611  0.089588  1
  O  O33  1  0.235430  0.891599  0.412284  1
  O  O34  1  0.019492  0.176085  0.911170  1
  O  O35  1  0.763670  0.108738  0.588508  1
