# generated using pymatgen
data_YCr2O4
_symmetry_space_group_name_H-M   'P 1'
_cell_length_a   5.78397936
_cell_length_b   5.78485256
_cell_length_c   6.45115323
_cell_angle_alpha   116.64937877
_cell_angle_beta   116.64503396
_cell_angle_gamma   89.97807583
_symmetry_Int_Tables_number   1
_chemical_formula_structural   YCr2O4
_chemical_formula_sum   'Y2 Cr4 O8'
_cell_volume   166.89952068
_cell_formula_units_Z   2
loop_
 _symmetry_equiv_pos_site_id
 _symmetry_equiv_pos_as_xyz
  1  'x, y, z'
loop_
 _atom_site_type_symbol
 _atom_site_label
 _atom_site_symmetry_multiplicity
 _atom_site_fract_x
 _atom_site_fract_y
 _atom_site_fract_z
 _atom_site_occupancy
  Y  Y0  1  0.875002  0.125002  0.750005  1
  Y  Y1  1  0.124998  0.874998  0.249995  1
  Cr  Cr2  1  0.500000  0.000000  0.000000  1
  Cr  Cr3  1  0.500000  0.500000  0.000000  1
  Cr  Cr4  1  0.000000  0.500000  0.500000  1
  Cr  Cr5  1  0.500000  0.500000  0.500000  1
  O  O6  1  0.730946  0.540655  0.862038  1
  O  O7  1  0.131091  0.821383  0.862038  1
  O  O8  1  0.269054  0.459345  0.137962  1
  O  O9  1  0.868909  0.178617  0.137962  1
  O  O10  1  0.540891  0.131272  0.362114  1
  O  O11  1  0.821222  0.730842  0.362114  1
  O  O12  1  0.178778  0.269158  0.637886  1
  O  O13  1  0.459109  0.868728  0.637886  1
