# generated using pymatgen
data_Zn(MoO2)2
_symmetry_space_group_name_H-M   'P 1'
_cell_length_a   6.32938775
_cell_length_b   6.41454543
_cell_length_c   6.41454463
_cell_angle_alpha   59.99999232
_cell_angle_beta   59.55392872
_cell_angle_gamma   59.55392461
_symmetry_Int_Tables_number   1
_chemical_formula_structural   Zn(MoO2)2
_chemical_formula_sum   'Zn2 Mo4 O8'
_cell_volume   182.90141532
_cell_formula_units_Z   2
loop_
 _symmetry_equiv_pos_site_id
 _symmetry_equiv_pos_as_xyz
  1  'x, y, z'
loop_
 _atom_site_type_symbol
 _atom_site_label
 _atom_site_symmetry_multiplicity
 _atom_site_fract_x
 _atom_site_fract_y
 _atom_site_fract_z
 _atom_site_occupancy
  Zn  Zn0  1  0.987826  0.004058  0.004058  1
  Zn  Zn1  1  0.111931  0.629356  0.629356  1
  Mo  Mo2  1  0.285533  0.238156  0.238156  1
  Mo  Mo3  1  0.627287  0.122524  0.625095  1
  Mo  Mo4  1  0.627287  0.625095  0.122524  1
  Mo  Mo5  1  0.627287  0.625095  0.625095  1
  O  O6  1  0.384492  0.384161  0.384161  1
  O  O7  1  0.384492  0.384161  0.847186  1
  O  O8  1  0.384492  0.847186  0.384161  1
  O  O9  1  0.837509  0.387497  0.387497  1
  O  O10  1  0.395947  0.868018  0.868018  1
  O  O11  1  0.865305  0.398190  0.868252  1
  O  O12  1  0.865305  0.868252  0.398190  1
  O  O13  1  0.865305  0.868252  0.868252  1
