# generated using pymatgen
data_MgVAsO5
_symmetry_space_group_name_H-M   'P 1'
_cell_length_a   8.18340902
_cell_length_b   6.24280332
_cell_length_c   8.46834802
_cell_angle_alpha   90.01427805
_cell_angle_beta   89.99376770
_cell_angle_gamma   89.99830813
_symmetry_Int_Tables_number   1
_chemical_formula_structural   MgVAsO5
_chemical_formula_sum   'Mg4 V4 As4 O20'
_cell_volume   432.62597635
_cell_formula_units_Z   4
loop_
 _symmetry_equiv_pos_site_id
 _symmetry_equiv_pos_as_xyz
  1  'x, y, z'
loop_
 _atom_site_type_symbol
 _atom_site_label
 _atom_site_symmetry_multiplicity
 _atom_site_fract_x
 _atom_site_fract_y
 _atom_site_fract_z
 _atom_site_occupancy
  Mg  Mg0  1  0.904774  0.634194  0.068355  1
  Mg  Mg1  1  0.595518  0.366254  0.569051  1
  Mg  Mg2  1  0.404850  0.865712  0.931647  1
  Mg  Mg3  1  0.095541  0.133645  0.430922  1
  V  V4  1  0.992132  0.487600  0.743262  1
  V  V5  1  0.507932  0.512266  0.243960  1
  V  V6  1  0.492184  0.012427  0.256694  1
  V  V7  1  0.008002  0.987755  0.756093  1
  As  As8  1  0.659743  0.266236  0.930246  1
  As  As9  1  0.840211  0.734306  0.430041  1
  As  As10  1  0.159718  0.233773  0.069759  1
  As  As11  1  0.340217  0.765692  0.569955  1
  O  O12  1  0.848126  0.234324  0.838403  1
  O  O13  1  0.651183  0.765816  0.339690  1
  O  O14  1  0.348083  0.265715  0.161618  1
  O  O15  1  0.151197  0.734207  0.660353  1
  O  O16  1  0.523109  0.331897  0.788030  1
  O  O17  1  0.976476  0.669397  0.287297  1
  O  O18  1  0.023061  0.168221  0.211979  1
  O  O19  1  0.476489  0.830687  0.712668  1
  O  O20  1  0.601923  0.034845  0.025454  1
  O  O21  1  0.898044  0.965798  0.525157  1
  O  O22  1  0.101891  0.465125  0.974493  1
  O  O23  1  0.398000  0.534134  0.474895  1
  O  O24  1  0.684020  0.472850  0.066670  1
  O  O25  1  0.816410  0.527381  0.566244  1
  O  O26  1  0.184089  0.027134  0.933344  1
  O  O27  1  0.316455  0.972582  0.433742  1
  O  O28  1  0.903925  0.746606  0.853656  1
  O  O29  1  0.596394  0.253507  0.354247  1
  O  O30  1  0.403934  0.753421  0.146361  1
  O  O31  1  0.096371  0.246497  0.645716  1
