# generated using pymatgen
data_LaMgFeSbO6
_symmetry_space_group_name_H-M   'P 1'
_cell_length_a   5.64940328
_cell_length_b   5.42761860
_cell_length_c   8.09941898
_cell_angle_alpha   89.97550543
_cell_angle_beta   90.00000000
_cell_angle_gamma   90.00000000
_symmetry_Int_Tables_number   1
_chemical_formula_structural   LaMgFeSbO6
_chemical_formula_sum   'La2 Mg2 Fe2 Sb2 O12'
_cell_volume   248.35089282
_cell_formula_units_Z   2
loop_
 _symmetry_equiv_pos_site_id
 _symmetry_equiv_pos_as_xyz
  1  'x, y, z'
loop_
 _atom_site_type_symbol
 _atom_site_label
 _atom_site_symmetry_multiplicity
 _atom_site_fract_x
 _atom_site_fract_y
 _atom_site_fract_z
 _atom_site_occupancy
  La  La0  1  0.044753  0.985025  0.250852  1
  La  La1  1  0.455247  0.485025  0.750852  1
  Mg  Mg2  1  0.557366  0.530082  0.255981  1
  Mg  Mg3  1  0.942634  0.030082  0.755981  1
  Fe  Fe4  1  0.498838  0.000377  0.998362  1
  Fe  Fe5  1  0.001162  0.500377  0.498362  1
  Sb  Sb6  1  0.503943  0.001707  0.498277  1
  Sb  Sb7  1  0.996057  0.501707  0.998277  1
  O  O8  1  0.040499  0.649074  0.769245  1
  O  O9  1  0.188295  0.194790  0.938502  1
  O  O10  1  0.204229  0.174404  0.573152  1
  O  O11  1  0.295771  0.674404  0.073152  1
  O  O12  1  0.311705  0.694790  0.438502  1
  O  O13  1  0.459501  0.149074  0.269244  1
  O  O14  1  0.569857  0.898369  0.733299  1
  O  O15  1  0.718845  0.280235  0.559486  1
  O  O16  1  0.732508  0.285935  0.922844  1
  O  O17  1  0.767492  0.785935  0.422844  1
  O  O18  1  0.781155  0.780235  0.059486  1
  O  O19  1  0.930143  0.398369  0.233299  1
