# generated using pymatgen
data_Sr2YGaCo2O7
_symmetry_space_group_name_H-M   'P 1'
_cell_length_a   5.52656995
_cell_length_b   5.68122723
_cell_length_c   11.99329953
_cell_angle_alpha   103.58429453
_cell_angle_beta   103.37237887
_cell_angle_gamma   90.10024875
_symmetry_Int_Tables_number   1
_chemical_formula_structural   Sr2YGaCo2O7
_chemical_formula_sum   'Sr4 Y2 Ga2 Co4 O14'
_cell_volume   355.47740082
_cell_formula_units_Z   2
loop_
 _symmetry_equiv_pos_site_id
 _symmetry_equiv_pos_as_xyz
  1  'x, y, z'
loop_
 _atom_site_type_symbol
 _atom_site_label
 _atom_site_symmetry_multiplicity
 _atom_site_fract_x
 _atom_site_fract_y
 _atom_site_fract_z
 _atom_site_occupancy
  Sr  Sr0  1  0.143949  0.178818  0.302539  1
  Sr  Sr1  1  0.843581  0.829530  0.699554  1
  Sr  Sr2  1  0.641889  0.631332  0.301760  1
  Sr  Sr3  1  0.340830  0.377568  0.699525  1
  Y  Y4  1  0.500758  0.503328  -0.000265  1
  Y  Y5  1  -0.001470  0.002646  0.999064  1
  Ga  Ga6  1  0.211044  0.829801  0.503379  1
  Ga  Ga7  1  0.708113  0.179012  0.500494  1
  Co  Co8  1  0.419448  0.929012  0.841446  1
  Co  Co9  1  0.071776  0.577925  0.144141  1
  Co  Co10  1  0.921524  0.422584  0.845716  1
  Co  Co11  1  0.577220  0.078392  0.158794  1
  O  O12  1  0.807095  0.326773  0.127069  1
  O  O13  1  0.864672  0.879264  0.500711  1
  O  O14  1  0.303312  0.306058  0.123992  1
  O  O15  1  0.850376  0.378244  0.647349  1
  O  O16  1  0.694407  0.182137  0.872725  1
  O  O17  1  0.193079  0.195924  0.868891  1
  O  O18  1  0.364415  0.131050  0.502019  1
  O  O19  1  0.180414  0.700476  0.875775  1
  O  O20  1  0.680194  0.681352  0.874388  1
  O  O21  1  0.349405  0.783004  0.652132  1
  O  O22  1  0.213645  0.625731  0.359652  1
  O  O23  1  0.697670  0.224445  0.350683  1
  O  O24  1  0.821999  0.827283  0.128985  1
  O  O25  1  0.321972  0.810726  0.130939  1
