# generated using pymatgen
data_V4Zn(PO4)6
_symmetry_space_group_name_H-M   'P 1'
_cell_length_a   6.24628127
_cell_length_b   8.23074474
_cell_length_c   9.46252846
_cell_angle_alpha   109.36969807
_cell_angle_beta   106.50881307
_cell_angle_gamma   101.06157944
_symmetry_Int_Tables_number   1
_chemical_formula_structural   V4Zn(PO4)6
_chemical_formula_sum   'V4 Zn1 P6 O24'
_cell_volume   417.43408679
_cell_formula_units_Z   1
loop_
 _symmetry_equiv_pos_site_id
 _symmetry_equiv_pos_as_xyz
  1  'x, y, z'
loop_
 _atom_site_type_symbol
 _atom_site_label
 _atom_site_symmetry_multiplicity
 _atom_site_fract_x
 _atom_site_fract_y
 _atom_site_fract_z
 _atom_site_occupancy
  V  V0  1  0.376329  0.478473  0.118825  1
  V  V1  1  0.944370  0.282433  0.478292  1
  V  V2  1  0.624461  0.522856  0.882319  1
  V  V3  1  0.055844  0.717846  0.521724  1
  Zn  Zn4  1  0.001433  0.000913  0.998599  1
  P  P5  1  0.783600  0.839319  0.239479  1
  P  P6  1  0.215123  0.160821  0.760285  1
  P  P7  1  0.618085  0.759368  0.652715  1
  P  P8  1  0.381361  0.239734  0.346400  1
  P  P9  1  0.891488  0.393480  0.163665  1
  P  P10  1  0.109159  0.606619  0.837556  1
  O  O11  1  0.744526  0.947889  0.783268  1
  O  O12  1  0.254583  0.051525  0.215595  1
  O  O13  1  0.145742  0.805371  0.910870  1
  O  O14  1  0.856355  0.194947  0.089167  1
  O  O15  1  0.199825  0.962459  0.699374  1
  O  O16  1  0.801575  0.038477  0.299154  1
  O  O17  1  0.366589  0.731096  0.533945  1
  O  O18  1  0.632903  0.268008  0.465002  1
  O  O19  1  0.077911  0.544523  0.652808  1
  O  O20  1  0.921847  0.454710  0.348309  1
  O  O21  1  0.763735  0.705441  0.543247  1
  O  O22  1  0.236760  0.294802  0.456219  1
  O  O23  1  0.984160  0.804287  0.353071  1
  O  O24  1  0.675415  0.448829  0.080579  1
  O  O25  1  0.324485  0.550695  0.920673  1
  O  O26  1  0.545964  0.723983  0.234379  1
  O  O27  1  0.452124  0.278106  0.766188  1
  O  O28  1  0.102100  0.513949  0.152311  1
  O  O29  1  0.013974  0.194664  0.646210  1
  O  O30  1  0.425036  0.379533  0.272484  1
  O  O31  1  0.575536  0.619448  0.726207  1
  O  O32  1  0.220281  0.227799  0.938122  1
  O  O33  1  0.777658  0.770520  0.061617  1
  O  O34  1  0.899666  0.487076  0.851344  1
