# generated using pymatgen
data_CaBiWO5
_symmetry_space_group_name_H-M   'P 1'
_cell_length_a   5.56331501
_cell_length_b   11.68705381
_cell_length_c   16.46722054
_cell_angle_alpha   90.00000000
_cell_angle_beta   90.00000000
_cell_angle_gamma   90.00000000
_symmetry_Int_Tables_number   1
_chemical_formula_structural   CaBiWO5
_chemical_formula_sum   'Ca8 Bi8 W8 O40'
_cell_volume   1070.67829118
_cell_formula_units_Z   8
loop_
 _symmetry_equiv_pos_site_id
 _symmetry_equiv_pos_as_xyz
  1  'x, y, z'
loop_
 _atom_site_type_symbol
 _atom_site_label
 _atom_site_symmetry_multiplicity
 _atom_site_fract_x
 _atom_site_fract_y
 _atom_site_fract_z
 _atom_site_occupancy
  Ca  Ca0  1  0.501719  0.359201  0.445402  1
  Ca  Ca1  1  0.001719  0.140799  0.445402  1
  Ca  Ca2  1  0.001719  0.640799  0.054598  1
  Ca  Ca3  1  0.998281  0.359201  0.945402  1
  Ca  Ca4  1  0.498281  0.140799  0.945402  1
  Ca  Ca5  1  0.998281  0.859201  0.554598  1
  Ca  Ca6  1  0.498281  0.640799  0.554598  1
  Ca  Ca7  1  0.501719  0.859201  0.054598  1
  Bi  Bi8  1  0.945758  0.840323  0.229531  1
  Bi  Bi9  1  0.054242  0.159677  0.770469  1
  Bi  Bi10  1  0.554242  0.340323  0.770469  1
  Bi  Bi11  1  0.054242  0.659677  0.729531  1
  Bi  Bi12  1  0.445758  0.159677  0.270469  1
  Bi  Bi13  1  0.445758  0.659677  0.229531  1
  Bi  Bi14  1  0.554242  0.840323  0.729531  1
  Bi  Bi15  1  0.945758  0.340323  0.270469  1
  W  W16  1  0.998486  0.402034  0.594648  1
  W  W17  1  0.501514  0.902034  0.405352  1
  W  W18  1  0.001514  0.597966  0.405352  1
  W  W19  1  0.498486  0.097966  0.594648  1
  W  W20  1  0.001514  0.097966  0.094648  1
  W  W21  1  0.998486  0.902034  0.905352  1
  W  W22  1  0.501514  0.402034  0.094648  1
  W  W23  1  0.498486  0.597966  0.905352  1
  O  O24  1  0.948304  0.326513  0.696990  1
  O  O25  1  0.279333  0.034544  0.048707  1
  O  O26  1  0.220667  0.534544  0.951293  1
  O  O27  1  0.238849  0.770572  0.153521  1
  O  O28  1  0.261151  0.270572  0.846479  1
  O  O29  1  0.948304  0.826513  0.803010  1
  O  O30  1  0.261151  0.770572  0.653521  1
  O  O31  1  0.551696  0.826513  0.303010  1
  O  O32  1  0.279333  0.534544  0.451293  1
  O  O33  1  0.051696  0.673487  0.303010  1
  O  O34  1  0.551696  0.326513  0.196990  1
  O  O35  1  0.644078  0.201679  0.524593  1
  O  O36  1  0.779333  0.965456  0.451293  1
  O  O37  1  0.761151  0.729428  0.653521  1
  O  O38  1  0.176962  0.030806  0.867407  1
  O  O39  1  0.779333  0.465456  0.048707  1
  O  O40  1  0.051696  0.173487  0.196990  1
  O  O41  1  0.738849  0.229428  0.346479  1
  O  O42  1  0.144078  0.798321  0.975407  1
  O  O43  1  0.220667  0.034544  0.548707  1
  O  O44  1  0.355922  0.798321  0.475407  1
  O  O45  1  0.823038  0.969194  0.132593  1
  O  O46  1  0.761151  0.229428  0.846479  1
  O  O47  1  0.676962  0.969194  0.632593  1
  O  O48  1  0.355922  0.298321  0.024593  1
  O  O49  1  0.144078  0.298321  0.524593  1
  O  O50  1  0.720667  0.465456  0.548707  1
  O  O51  1  0.720667  0.965456  0.951293  1
  O  O52  1  0.676962  0.469194  0.867407  1
  O  O53  1  0.855922  0.701679  0.475407  1
  O  O54  1  0.855922  0.201679  0.024593  1
  O  O55  1  0.644078  0.701679  0.975407  1
  O  O56  1  0.823038  0.469194  0.367407  1
  O  O57  1  0.738849  0.729428  0.153521  1
  O  O58  1  0.238849  0.270572  0.346479  1
  O  O59  1  0.176962  0.530806  0.632593  1
  O  O60  1  0.323038  0.530806  0.132593  1
  O  O61  1  0.448304  0.173487  0.696990  1
  O  O62  1  0.323038  0.030806  0.367407  1
  O  O63  1  0.448304  0.673487  0.803010  1
