# generated using pymatgen
data_Zn2W3O8
_symmetry_space_group_name_H-M   'P 1'
_cell_length_a   5.00367812
_cell_length_b   5.91102765
_cell_length_c   6.90906783
_cell_angle_alpha   115.32632429
_cell_angle_beta   116.45152091
_cell_angle_gamma   89.99999700
_symmetry_Int_Tables_number   1
_chemical_formula_structural   Zn2W3O8
_chemical_formula_sum   'Zn2 W3 O8'
_cell_volume   160.72161568
_cell_formula_units_Z   1
loop_
 _symmetry_equiv_pos_site_id
 _symmetry_equiv_pos_as_xyz
  1  'x, y, z'
loop_
 _atom_site_type_symbol
 _atom_site_label
 _atom_site_symmetry_multiplicity
 _atom_site_fract_x
 _atom_site_fract_y
 _atom_site_fract_z
 _atom_site_occupancy
  Zn  Zn0  1  0.736159  0.687011  0.374021  1
  Zn  Zn1  1  0.263840  0.312990  0.625979  1
  W  W2  1  0.500000  0.999999  0.000000  1
  W  W3  1  0.999999  0.771469  0.000000  1
  W  W4  1  0.999999  0.228531  1.000000  1
  O  O5  1  0.028571  0.402676  0.805352  1
  O  O6  1  0.971429  0.597323  0.194648  1
  O  O7  1  0.999796  0.867551  0.735101  1
  O  O8  1  0.000204  0.132448  0.264898  1
  O  O9  1  0.457486  0.353437  0.218998  1
  O  O10  1  0.457486  0.865561  0.218998  1
  O  O11  1  0.542515  0.134438  0.781002  1
  O  O12  1  0.542515  0.646563  0.781002  1
