# generated using pymatgen
data_CaFe2(PO4)2
_symmetry_space_group_name_H-M   'P 1'
_cell_length_a   5.05437634
_cell_length_b   9.10097335
_cell_length_c   15.20614457
_cell_angle_alpha   84.50186362
_cell_angle_beta   80.33465721
_cell_angle_gamma   73.90866318
_symmetry_Int_Tables_number   1
_chemical_formula_structural   CaFe2(PO4)2
_chemical_formula_sum   'Ca4 Fe8 P8 O32'
_cell_volume   661.63671861
_cell_formula_units_Z   4
loop_
 _symmetry_equiv_pos_site_id
 _symmetry_equiv_pos_as_xyz
  1  'x, y, z'
loop_
 _atom_site_type_symbol
 _atom_site_label
 _atom_site_symmetry_multiplicity
 _atom_site_fract_x
 _atom_site_fract_y
 _atom_site_fract_z
 _atom_site_occupancy
  Ca  Ca0  1  0.477251  0.831846  0.858321  1
  Ca  Ca1  1  0.163942  0.669615  0.640599  1
  Ca  Ca2  1  0.833193  0.331359  0.358578  1
  Ca  Ca3  1  0.523029  0.169305  0.140558  1
  Fe  Fe4  1  0.190022  0.226735  0.960518  1
  Fe  Fe5  1  0.375776  0.273684  0.539096  1
  Fe  Fe6  1  0.809566  0.774058  0.038475  1
  Fe  Fe7  1  0.500144  0.500571  0.999757  1
  Fe  Fe8  1  0.621674  0.726081  0.460752  1
  Fe  Fe9  1  0.658824  0.750837  0.249192  1
  Fe  Fe10  1  0.337643  0.250391  0.749891  1
  Fe  Fe11  1  0.997842  0.001690  0.500345  1
  P  P12  1  0.049275  0.567391  0.868020  1
  P  P13  1  0.770018  0.422993  0.610902  1
  P  P14  1  0.951583  0.433769  0.131549  1
  P  P15  1  0.193285  0.922884  0.110183  1
  P  P16  1  0.515206  0.066479  0.367899  1
  P  P17  1  0.480792  0.933992  0.631825  1
  P  P18  1  0.228692  0.576882  0.389652  1
  P  P19  1  0.804575  0.078128  0.888789  1
  O  O20  1  0.697619  0.393321  0.104484  1
  O  O21  1  0.816716  0.911289  0.927046  1
  O  O22  1  0.802523  0.893906  0.604704  1
  O  O23  1  0.796477  0.305320  0.538875  1
  O  O24  1  0.198302  0.392274  0.052545  1
  O  O25  1  0.563601  0.400893  0.693933  1
  O  O26  1  0.641653  0.195201  0.961172  1
  O  O27  1  0.884636  0.911854  0.132649  1
  O  O28  1  0.201679  0.693539  0.462201  1
  O  O29  1  0.653028  0.589672  0.572592  1
  O  O30  1  0.878755  0.610319  0.142566  1
  O  O31  1  0.603148  0.159181  0.284933  1
  O  O32  1  0.181669  0.089730  0.071995  1
  O  O33  1  0.067209  0.412351  0.633053  1
  O  O34  1  0.302525  0.608461  0.895160  1
  O  O35  1  0.123384  0.390899  0.856986  1
  O  O36  1  0.951079  0.660361  0.785316  1
  O  O37  1  0.356905  0.805755  0.037902  1
  O  O38  1  0.365792  0.110365  0.643075  1
  O  O39  1  0.393784  0.840453  0.714527  1
  O  O40  1  0.932028  0.587738  0.367217  1
  O  O41  1  0.355236  0.892710  0.552749  1
  O  O42  1  0.112792  0.089683  0.865950  1
  O  O43  1  0.338421  0.900610  0.193102  1
  O  O44  1  0.346386  0.409849  0.427355  1
  O  O45  1  0.193457  0.107868  0.395227  1
  O  O46  1  0.049217  0.340680  0.214308  1
  O  O47  1  0.641402  0.107477  0.446876  1
  O  O48  1  0.802737  0.608220  0.947104  1
  O  O49  1  0.657976  0.099997  0.806160  1
  O  O50  1  0.436129  0.599652  0.306938  1
  O  O51  1  0.627593  0.889912  0.356773  1
