# generated using pymatgen
data_ZnFe3O7
_symmetry_space_group_name_H-M   'P 1'
_cell_length_a   5.44893654
_cell_length_b   10.34257400
_cell_length_c   10.00070753
_cell_angle_alpha   90.00000000
_cell_angle_beta   90.00000000
_cell_angle_gamma   90.00000000
_symmetry_Int_Tables_number   1
_chemical_formula_structural   ZnFe3O7
_chemical_formula_sum   'Zn4 Fe12 O28'
_cell_volume   563.60016744
_cell_formula_units_Z   4
loop_
 _symmetry_equiv_pos_site_id
 _symmetry_equiv_pos_as_xyz
  1  'x, y, z'
loop_
 _atom_site_type_symbol
 _atom_site_label
 _atom_site_symmetry_multiplicity
 _atom_site_fract_x
 _atom_site_fract_y
 _atom_site_fract_z
 _atom_site_occupancy
  Zn  Zn0  1  0.607576  0.750000  0.946653  1
  Zn  Zn1  1  0.107577  0.250000  0.553347  1
  Zn  Zn2  1  0.392423  0.250000  0.053347  1
  Zn  Zn3  1  0.892424  0.750000  0.446653  1
  Fe  Fe4  1  0.292176  0.030529  0.315540  1
  Fe  Fe5  1  0.792176  0.969471  0.184460  1
  Fe  Fe6  1  0.707824  0.530529  0.684460  1
  Fe  Fe7  1  0.207824  0.469471  0.815540  1
  Fe  Fe8  1  0.294089  0.750000  0.231899  1
  Fe  Fe9  1  0.794089  0.250000  0.268101  1
  Fe  Fe10  1  0.705911  0.250000  0.768101  1
  Fe  Fe11  1  0.205911  0.750000  0.731899  1
  Fe  Fe12  1  0.792176  0.530529  0.184460  1
  Fe  Fe13  1  0.292176  0.469471  0.315540  1
  Fe  Fe14  1  0.207824  0.030529  0.815540  1
  Fe  Fe15  1  0.707824  0.969471  0.684460  1
  O  O16  1  0.949223  0.123616  0.708581  1
  O  O17  1  0.449223  0.876384  0.791419  1
  O  O18  1  0.050777  0.623616  0.291419  1
  O  O19  1  0.550777  0.376384  0.208581  1
  O  O20  1  0.050777  0.876384  0.291419  1
  O  O21  1  0.550777  0.123616  0.208581  1
  O  O22  1  0.949223  0.376384  0.708581  1
  O  O23  1  0.449223  0.623616  0.791419  1
  O  O24  1  0.476591  0.115137  0.720548  1
  O  O25  1  0.976591  0.884863  0.779452  1
  O  O26  1  0.523409  0.615137  0.279452  1
  O  O27  1  0.023409  0.384863  0.220548  1
  O  O28  1  0.523409  0.884863  0.279452  1
  O  O29  1  0.023409  0.115137  0.220548  1
  O  O30  1  0.476591  0.384863  0.720548  1
  O  O31  1  0.976591  0.615137  0.779452  1
  O  O32  1  0.191513  0.750000  0.553964  1
  O  O33  1  0.691512  0.250000  0.946036  1
  O  O34  1  0.808488  0.250000  0.446036  1
  O  O35  1  0.308488  0.750000  0.053964  1
  O  O36  1  0.221696  0.400795  0.980566  1
  O  O37  1  0.721696  0.599205  0.519434  1
  O  O38  1  0.778304  0.900795  0.019434  1
  O  O39  1  0.278304  0.099205  0.480566  1
  O  O40  1  0.778304  0.599205  0.019434  1
  O  O41  1  0.278304  0.400795  0.480566  1
  O  O42  1  0.221696  0.099205  0.980566  1
  O  O43  1  0.721696  0.900795  0.519434  1
