# generated using pymatgen
data_Sb(WO4)2
_symmetry_space_group_name_H-M   'P 1'
_cell_length_a   5.21528357
_cell_length_b   6.52236149
_cell_length_c   6.57317311
_cell_angle_alpha   108.87241188
_cell_angle_beta   124.57410405
_cell_angle_gamma   87.28204853
_symmetry_Int_Tables_number   1
_chemical_formula_structural   Sb(WO4)2
_chemical_formula_sum   'Sb1 W2 O8'
_cell_volume   171.52760628
_cell_formula_units_Z   1
loop_
 _symmetry_equiv_pos_site_id
 _symmetry_equiv_pos_as_xyz
  1  'x, y, z'
loop_
 _atom_site_type_symbol
 _atom_site_label
 _atom_site_symmetry_multiplicity
 _atom_site_fract_x
 _atom_site_fract_y
 _atom_site_fract_z
 _atom_site_occupancy
  Sb  Sb0  1  0.124680  0.223290  0.099709  1
  W  W1  1  0.903496  0.413144  0.627280  1
  W  W2  1  0.345884  0.033314  0.572105  1
  O  O3  1  0.148014  0.666443  0.809216  1
  O  O4  1  0.535464  0.467225  0.353642  1
  O  O5  1  0.189143  0.189486  0.792226  1
  O  O6  1  0.457435  0.054865  0.346926  1
  O  O7  1  0.713893  0.979268  0.845746  1
  O  O8  1  0.101311  0.779898  0.389987  1
  O  O9  1  0.060216  0.256947  0.407135  1
  O  O10  1  0.792125  0.391751  0.852641  1
