# generated using pymatgen
data_Y2V3(SiO4)3
_symmetry_space_group_name_H-M   'P 1'
_cell_length_a   10.78890455
_cell_length_b   10.78890406
_cell_length_c   10.78890419
_cell_angle_alpha   109.47122090
_cell_angle_beta   109.47121998
_cell_angle_gamma   109.47122222
_symmetry_Int_Tables_number   1
_chemical_formula_structural   Y2V3(SiO4)3
_chemical_formula_sum   'Y8 V12 Si12 O48'
_cell_volume   966.74096348
_cell_formula_units_Z   4
loop_
 _symmetry_equiv_pos_site_id
 _symmetry_equiv_pos_as_xyz
  1  'x, y, z'
loop_
 _atom_site_type_symbol
 _atom_site_label
 _atom_site_symmetry_multiplicity
 _atom_site_fract_x
 _atom_site_fract_y
 _atom_site_fract_z
 _atom_site_occupancy
  Y  Y0  1  0.500000  0.000000  0.000000  1
  Y  Y1  1  0.000000  0.000000  0.000000  1
  Y  Y2  1  0.000000  0.500000  0.000000  1
  Y  Y3  1  0.000000  0.000000  0.500000  1
  Y  Y4  1  0.000000  0.500000  0.500001  1
  Y  Y5  1  0.500000  0.000000  0.500001  1
  Y  Y6  1  0.500000  0.500000  0.000000  1
  Y  Y7  1  0.500000  0.500000  0.500000  1
  V  V8  1  0.250000  0.875001  0.625000  1
  V  V9  1  0.875000  0.625000  0.250000  1
  V  V10  1  0.625001  0.875001  0.750001  1
  V  V11  1  0.875001  0.750001  0.625001  1
  V  V12  1  0.625000  0.250000  0.875000  1
  V  V13  1  0.750000  0.625000  0.875000  1
  V  V14  1  0.750000  0.125000  0.375000  1
  V  V15  1  0.125000  0.375000  0.750000  1
  V  V16  1  0.375000  0.125000  0.250000  1
  V  V17  1  0.125000  0.250000  0.375000  1
  V  V18  1  0.375000  0.750001  0.125000  1
  V  V19  1  0.250000  0.375000  0.125000  1
  Si  Si20  1  0.250000  0.125000  0.875000  1
  Si  Si21  1  0.875000  0.250000  0.125000  1
  Si  Si22  1  0.625000  0.750001  0.375000  1
  Si  Si23  1  0.250000  0.625000  0.375001  1
  Si  Si24  1  0.375000  0.625000  0.750000  1
  Si  Si25  1  0.750000  0.375000  0.625000  1
  Si  Si26  1  0.875000  0.125000  0.750000  1
  Si  Si27  1  0.125000  0.750001  0.875000  1
  Si  Si28  1  0.125000  0.875001  0.250000  1
  Si  Si29  1  0.625000  0.375000  0.250000  1
  Si  Si30  1  0.375000  0.250000  0.625000  1
  Si  Si31  1  0.750000  0.875001  0.125000  1
  O  O32  1  0.277022  0.481442  0.371520  1
  O  O33  1  0.018558  0.295581  0.890078  1
  O  O34  1  0.128480  0.609922  0.905503  1
  O  O35  1  0.222977  0.594497  0.204419  1
  O  O36  1  0.222977  0.128479  0.018557  1
  O  O37  1  0.594496  0.204418  0.222977  1
  O  O38  1  0.609921  0.204418  0.481442  1
  O  O39  1  0.204419  0.222977  0.594498  1
  O  O40  1  0.890079  0.371520  0.594497  1
  O  O41  1  0.295582  0.905503  0.277023  1
  O  O42  1  0.905503  0.277023  0.295582  1
  O  O43  1  0.018558  0.222977  0.128479  1
  O  O44  1  0.204419  0.481442  0.609922  1
  O  O45  1  0.594497  0.890079  0.371521  1
  O  O46  1  0.128479  0.018557  0.222977  1
  O  O47  1  0.481442  0.609922  0.204418  1
  O  O48  1  0.371520  0.594497  0.890078  1
  O  O49  1  0.890078  0.018557  0.295581  1
  O  O50  1  0.609921  0.905503  0.128480  1
  O  O51  1  0.109921  0.628479  0.405503  1
  O  O52  1  0.481442  0.371520  0.277022  1
  O  O53  1  0.371520  0.277023  0.481442  1
  O  O54  1  0.295582  0.890079  0.018558  1
  O  O55  1  0.277022  0.295581  0.905502  1
  O  O56  1  0.722977  0.518557  0.628480  1
  O  O57  1  0.981442  0.704418  0.109921  1
  O  O58  1  0.871521  0.390079  0.094497  1
  O  O59  1  0.777023  0.405503  0.795582  1
  O  O60  1  0.777022  0.871521  0.981443  1
  O  O61  1  0.405503  0.795581  0.777022  1
  O  O62  1  0.390079  0.795581  0.518557  1
  O  O63  1  0.795582  0.777023  0.405503  1
  O  O64  1  0.722977  0.704418  0.094497  1
  O  O65  1  0.704419  0.109922  0.981442  1
  O  O66  1  0.628479  0.722978  0.518558  1
  O  O67  1  0.518558  0.628479  0.722977  1
  O  O68  1  0.094497  0.871521  0.390078  1
  O  O69  1  0.390078  0.094496  0.871520  1
  O  O70  1  0.109922  0.981442  0.704418  1
  O  O71  1  0.628480  0.405503  0.109921  1
  O  O72  1  0.518558  0.390079  0.795582  1
  O  O73  1  0.871521  0.981442  0.777023  1
  O  O74  1  0.405504  0.109922  0.628480  1
  O  O75  1  0.795581  0.518557  0.390079  1
  O  O76  1  0.981442  0.777023  0.871521  1
  O  O77  1  0.094498  0.722978  0.704419  1
  O  O78  1  0.704418  0.094496  0.722977  1
  O  O79  1  0.905503  0.128479  0.609921  1
