# generated using pymatgen
data_AlSn3F15
_symmetry_space_group_name_H-M   'P 1'
_cell_length_a   10.05452571
_cell_length_b   5.98294792
_cell_length_c   10.15612010
_cell_angle_alpha   90.00000000
_cell_angle_beta   90.00000000
_cell_angle_gamma   104.96432402
_symmetry_Int_Tables_number   1
_chemical_formula_structural   AlSn3F15
_chemical_formula_sum   'Al2 Sn6 F30'
_cell_volume   590.22932870
_cell_formula_units_Z   2
loop_
 _symmetry_equiv_pos_site_id
 _symmetry_equiv_pos_as_xyz
  1  'x, y, z'
loop_
 _atom_site_type_symbol
 _atom_site_label
 _atom_site_symmetry_multiplicity
 _atom_site_fract_x
 _atom_site_fract_y
 _atom_site_fract_z
 _atom_site_occupancy
  Al  Al0  1  0.896412  0.443342  0.250000  1
  Al  Al1  1  0.436921  0.556658  0.750000  1
  Sn  Sn2  1  0.166667  0.000000  0.500000  1
  Sn  Sn3  1  0.499343  0.984562  0.450327  1
  Sn  Sn4  1  0.833990  0.015438  0.549673  1
  Sn  Sn5  1  0.166667  0.000000  0.000000  1
  Sn  Sn6  1  0.499343  0.984562  0.049673  1
  Sn  Sn7  1  0.833990  0.015438  0.950327  1
  F  F8  1  0.061525  0.589556  0.250000  1
  F  F9  1  0.495738  0.880797  0.250000  1
  F  F10  1  0.773226  0.578791  0.250000  1
  F  F11  1  0.271808  0.410444  0.750000  1
  F  F12  1  0.560108  0.421209  0.750000  1
  F  F13  1  0.837595  0.119203  0.750000  1
  F  F14  1  0.038175  0.177370  0.597217  1
  F  F15  1  0.363916  0.100979  0.585499  1
  F  F16  1  0.663930  0.143212  0.581802  1
  F  F17  1  0.295159  0.822630  0.402783  1
  F  F18  1  0.669403  0.856788  0.418198  1
  F  F19  1  0.969417  0.899021  0.414501  1
  F  F20  1  0.113265  0.743672  0.882959  1
  F  F21  1  0.464437  0.735227  0.893820  1
  F  F22  1  0.802312  0.707428  0.883747  1
  F  F23  1  0.220069  0.256328  0.117041  1
  F  F24  1  0.531021  0.292572  0.116253  1
  F  F25  1  0.868896  0.264773  0.106180  1
  F  F26  1  0.220069  0.256328  0.382959  1
  F  F27  1  0.531021  0.292572  0.383747  1
  F  F28  1  0.868896  0.264773  0.393820  1
  F  F29  1  0.113265  0.743672  0.617041  1
  F  F30  1  0.464437  0.735227  0.606180  1
  F  F31  1  0.802312  0.707428  0.616253  1
  F  F32  1  0.038175  0.177370  0.902783  1
  F  F33  1  0.363916  0.100979  0.914501  1
  F  F34  1  0.663930  0.143212  0.918198  1
  F  F35  1  0.295159  0.822630  0.097217  1
  F  F36  1  0.669403  0.856788  0.081802  1
  F  F37  1  0.969417  0.899021  0.085499  1
