# generated using pymatgen
data_BaYMn4O7
_symmetry_space_group_name_H-M   'P 1'
_cell_length_a   6.54999195
_cell_length_b   6.54999124
_cell_length_c   10.84281981
_cell_angle_alpha   90.00000000
_cell_angle_beta   90.00000000
_cell_angle_gamma   120.00000364
_symmetry_Int_Tables_number   1
_chemical_formula_structural   BaYMn4O7
_chemical_formula_sum   'Ba2 Y2 Mn8 O14'
_cell_volume   402.86017932
_cell_formula_units_Z   2
loop_
 _symmetry_equiv_pos_site_id
 _symmetry_equiv_pos_as_xyz
  1  'x, y, z'
loop_
 _atom_site_type_symbol
 _atom_site_label
 _atom_site_symmetry_multiplicity
 _atom_site_fract_x
 _atom_site_fract_y
 _atom_site_fract_z
 _atom_site_occupancy
  Ba  Ba0  1  0.666667  0.333333  0.475155  1
  Ba  Ba1  1  0.333333  0.666667  0.975155  1
  Y  Y2  1  0.666667  0.333333  0.879925  1
  Y  Y3  1  0.333333  0.666667  0.379925  1
  Mn  Mn4  1  0.829789  0.170212  0.189639  1
  Mn  Mn5  1  0.659577  0.829788  0.689640  1
  Mn  Mn6  1  0.170212  0.340423  0.689640  1
  Mn  Mn7  1  0.829789  0.659577  0.189639  1
  Mn  Mn8  1  0.340422  0.170212  0.189639  1
  Mn  Mn9  1  0.170212  0.829788  0.689640  1
  Mn  Mn10  1  -0.000000  0.000000  0.442272  1
  Mn  Mn11  1  -0.000000  -0.000000  0.942272  1
  O  O12  1  0.831376  0.168625  0.003778  1
  O  O13  1  0.662750  0.831375  0.503777  1
  O  O14  1  0.168624  0.337249  0.503777  1
  O  O15  1  0.831377  0.662751  0.003778  1
  O  O16  1  0.337249  0.168625  0.003778  1
  O  O17  1  0.168624  0.831375  0.503777  1
  O  O18  1  -0.000000  0.000000  0.750931  1
  O  O19  1  -0.000000  -0.000000  0.250932  1
  O  O20  1  0.504833  0.495169  0.268488  1
  O  O21  1  0.009664  0.504833  0.768488  1
  O  O22  1  0.495168  0.990336  0.768488  1
  O  O23  1  0.504833  0.009664  0.268488  1
  O  O24  1  0.495169  0.504833  0.768488  1
  O  O25  1  0.990336  0.495169  0.268488  1
