# generated using pymatgen
data_ZnW4O9
_symmetry_space_group_name_H-M   'P 1'
_cell_length_a   3.88002881
_cell_length_b   9.78519837
_cell_length_c   9.78663963
_cell_angle_alpha   90.01002758
_cell_angle_beta   90.00010518
_cell_angle_gamma   90.00033642
_symmetry_Int_Tables_number   1
_chemical_formula_structural   ZnW4O9
_chemical_formula_sum   'Zn2 W8 O18'
_cell_volume   371.56788882
_cell_formula_units_Z   2
loop_
 _symmetry_equiv_pos_site_id
 _symmetry_equiv_pos_as_xyz
  1  'x, y, z'
loop_
 _atom_site_type_symbol
 _atom_site_label
 _atom_site_symmetry_multiplicity
 _atom_site_fract_x
 _atom_site_fract_y
 _atom_site_fract_z
 _atom_site_occupancy
  Zn  Zn0  1  0.002729  0.249628  0.249940  1
  Zn  Zn1  1  0.999325  0.749751  0.750120  1
  W  W2  1  0.499903  0.533243  0.337303  1
  W  W3  1  0.499854  0.835137  0.464757  1
  W  W4  1  0.499944  0.337424  0.966592  1
  W  W5  1  0.499940  0.035207  0.835173  1
  W  W6  1  0.499895  0.966753  0.162669  1
  W  W7  1  0.499966  0.162636  0.533411  1
  W  W8  1  0.499956  0.464838  0.664808  1
  W  W9  1  0.499823  0.664912  0.035264  1
  O  O10  1  0.499813  0.750036  0.250011  1
  O  O11  1  0.499953  0.250049  0.750020  1
  O  O12  1  0.999845  0.668974  0.035825  1
  O  O13  1  0.999963  0.464283  0.668893  1
  O  O14  1  0.999949  0.035767  0.831100  1
  O  O15  1  0.999874  0.831107  0.464206  1
  O  O16  1  0.999919  0.335105  0.966242  1
  O  O17  1  0.999878  0.533582  0.334898  1
  O  O18  1  0.999872  0.966397  0.165053  1
  O  O19  1  0.999944  0.164991  0.533774  1
  O  O20  1  0.500035  0.022111  0.368434  1
  O  O21  1  0.500058  0.131707  0.022056  1
  O  O22  1  0.500074  0.368345  0.477926  1
  O  O23  1  0.500015  0.477924  0.131559  1
  O  O24  1  0.499875  0.524131  0.870150  1
  O  O25  1  0.499845  0.870214  0.976021  1
  O  O26  1  0.499866  0.629823  0.523946  1
  O  O27  1  0.499890  0.975927  0.629847  1
