# generated using pymatgen
data_Zn(AgO2)2
_symmetry_space_group_name_H-M   'P 1'
_cell_length_a   3.09826706
_cell_length_b   5.52054821
_cell_length_c   9.97183321
_cell_angle_alpha   90.00000000
_cell_angle_beta   90.00000000
_cell_angle_gamma   106.29675430
_symmetry_Int_Tables_number   1
_chemical_formula_structural   Zn(AgO2)2
_chemical_formula_sum   'Zn2 Ag4 O8'
_cell_volume   163.70667805
_cell_formula_units_Z   2
loop_
 _symmetry_equiv_pos_site_id
 _symmetry_equiv_pos_as_xyz
  1  'x, y, z'
loop_
 _atom_site_type_symbol
 _atom_site_label
 _atom_site_symmetry_multiplicity
 _atom_site_fract_x
 _atom_site_fract_y
 _atom_site_fract_z
 _atom_site_occupancy
  Zn  Zn0  1  0.390345  0.780691  0.750000  1
  Zn  Zn1  1  0.609655  0.219309  0.250000  1
  Ag  Ag2  1  0.869436  0.738872  0.072040  1
  Ag  Ag3  1  0.130565  0.261128  0.927960  1
  Ag  Ag4  1  0.869436  0.738872  0.427960  1
  Ag  Ag5  1  0.130565  0.261128  0.572040  1
  O  O6  1  0.212829  0.425659  0.379872  1
  O  O7  1  0.787171  0.574341  0.620128  1
  O  O8  1  0.787171  0.574341  0.879872  1
  O  O9  1  0.212829  0.425659  0.120128  1
  O  O10  1  0.975628  0.951256  0.250000  1
  O  O11  1  0.024372  0.048744  0.750000  1
  O  O12  1  0.500000  -0.000000  -0.000000  1
  O  O13  1  0.500000  -0.000000  0.500000  1
