# generated using pymatgen
data_Ca3Mn2(GaO5)2
_symmetry_space_group_name_H-M   'P 1'
_cell_length_a   5.41464432
_cell_length_b   5.68449477
_cell_length_c   7.88730061
_cell_angle_alpha   109.52044838
_cell_angle_beta   109.05588131
_cell_angle_gamma   90.47898999
_symmetry_Int_Tables_number   1
_chemical_formula_structural   Ca3Mn2(GaO5)2
_chemical_formula_sum   'Ca3 Mn2 Ga2 O10'
_cell_volume   214.38683485
_cell_formula_units_Z   1
loop_
 _symmetry_equiv_pos_site_id
 _symmetry_equiv_pos_as_xyz
  1  'x, y, z'
loop_
 _atom_site_type_symbol
 _atom_site_label
 _atom_site_symmetry_multiplicity
 _atom_site_fract_x
 _atom_site_fract_y
 _atom_site_fract_z
 _atom_site_occupancy
  Ca  Ca0  1  0.398605  0.873071  0.809058  1
  Ca  Ca1  1  0.105658  0.569118  0.220406  1
  Ca  Ca2  1  0.885540  0.429852  0.769879  1
  Mn  Mn3  1  0.985738  0.003227  0.011461  1
  Mn  Mn4  1  0.489206  0.493353  0.010676  1
  Ga  Ga5  1  0.293158  0.166295  0.494875  1
  Ga  Ga6  1  0.781011  0.841669  0.491397  1
  O  O7  1  0.631677  0.129821  0.499222  1
  O  O8  1  0.136781  0.873238  0.504660  1
  O  O9  1  0.315681  0.430992  0.718655  1
  O  O10  1  0.586889  0.568735  0.275827  1
  O  O11  1  0.810932  0.803302  0.724265  1
  O  O12  1  0.092062  0.202746  0.271156  1
  O  O13  1  0.232096  0.753875  0.022309  1
  O  O14  1  0.199258  0.228616  0.955061  1
  O  O15  1  0.716166  0.239960  0.956318  1
  O  O16  1  0.754698  0.736353  0.026648  1
