# generated using pymatgen
data_CaCuP2O7
_symmetry_space_group_name_H-M   'P 1'
_cell_length_a   7.43209361
_cell_length_b   8.91759758
_cell_length_c   8.55545011
_cell_angle_alpha   90.00000000
_cell_angle_beta   110.35396388
_cell_angle_gamma   90.00000000
_symmetry_Int_Tables_number   1
_chemical_formula_structural   CaCuP2O7
_chemical_formula_sum   'Ca4 Cu4 P8 O28'
_cell_volume   531.62058569
_cell_formula_units_Z   4
loop_
 _symmetry_equiv_pos_site_id
 _symmetry_equiv_pos_as_xyz
  1  'x, y, z'
loop_
 _atom_site_type_symbol
 _atom_site_label
 _atom_site_symmetry_multiplicity
 _atom_site_fract_x
 _atom_site_fract_y
 _atom_site_fract_z
 _atom_site_occupancy
  Ca  Ca0  1  0.143766  0.955669  0.871145  1
  Ca  Ca1  1  0.356234  0.455669  0.628855  1
  Ca  Ca2  1  0.643766  0.544331  0.371145  1
  Ca  Ca3  1  0.856234  0.044331  0.128855  1
  Cu  Cu4  1  0.388964  0.083475  0.608882  1
  Cu  Cu5  1  0.611036  0.916525  0.391118  1
  Cu  Cu6  1  0.111036  0.583475  0.891118  1
  Cu  Cu7  1  0.888964  0.416525  0.108882  1
  P  P8  1  0.181979  0.718565  0.234591  1
  P  P9  1  0.448023  0.241191  0.961769  1
  P  P10  1  0.681979  0.781435  0.734591  1
  P  P11  1  0.948023  0.258809  0.461769  1
  P  P12  1  0.318021  0.218565  0.265409  1
  P  P13  1  0.051977  0.741191  0.538231  1
  P  P14  1  0.551977  0.758809  0.038231  1
  P  P15  1  0.818021  0.281435  0.765409  1
  O  O16  1  0.371351  0.172325  0.103737  1
  O  O17  1  0.582999  0.637570  0.654576  1
  O  O18  1  0.082999  0.862430  0.154576  1
  O  O19  1  0.342323  0.384610  0.891066  1
  O  O20  1  0.628649  0.827675  0.896263  1
  O  O21  1  0.392444  0.077632  0.379483  1
  O  O22  1  0.657677  0.615390  0.108934  1
  O  O23  1  0.394843  0.103099  0.842424  1
  O  O24  1  0.166411  0.241924  0.547361  1
  O  O25  1  0.607556  0.922368  0.620517  1
  O  O26  1  0.892444  0.422368  0.879483  1
  O  O27  1  0.900560  0.776635  0.799646  1
  O  O28  1  0.599440  0.276635  0.700354  1
  O  O29  1  0.871351  0.327675  0.603737  1
  O  O30  1  0.107556  0.577632  0.120517  1
  O  O31  1  0.917001  0.137570  0.845424  1
  O  O32  1  0.099440  0.223365  0.200354  1
  O  O33  1  0.605157  0.896901  0.157576  1
  O  O34  1  0.666411  0.258076  0.047361  1
  O  O35  1  0.333589  0.741924  0.952639  1
  O  O36  1  0.157677  0.884610  0.608934  1
  O  O37  1  0.894843  0.396901  0.342424  1
  O  O38  1  0.105157  0.603099  0.657576  1
  O  O39  1  0.417001  0.362430  0.345424  1
  O  O40  1  0.400560  0.723365  0.299646  1
  O  O41  1  0.842323  0.115390  0.391066  1
  O  O42  1  0.833589  0.758076  0.452639  1
  O  O43  1  0.128649  0.672325  0.396263  1
