# generated using pymatgen
data_Mn9Zn2O13
_symmetry_space_group_name_H-M   'P 1'
_cell_length_a   3.04985814
_cell_length_b   5.31755629
_cell_length_c   17.27855795
_cell_angle_alpha   97.95238379
_cell_angle_beta   90.36958897
_cell_angle_gamma   105.24838092
_symmetry_Int_Tables_number   1
_chemical_formula_structural   Mn9Zn2O13
_chemical_formula_sum   'Mn9 Zn2 O13'
_cell_volume   267.48574211
_cell_formula_units_Z   1
loop_
 _symmetry_equiv_pos_site_id
 _symmetry_equiv_pos_as_xyz
  1  'x, y, z'
loop_
 _atom_site_type_symbol
 _atom_site_label
 _atom_site_symmetry_multiplicity
 _atom_site_fract_x
 _atom_site_fract_y
 _atom_site_fract_z
 _atom_site_occupancy
  Mn  Mn0  1  0.500000  0.000000  0.500000  1
  Mn  Mn1  1  0.646078  0.292181  0.040904  1
  Mn  Mn2  1  0.353922  0.707819  0.959096  1
  Mn  Mn3  1  0.751456  0.499382  0.416421  1
  Mn  Mn4  1  0.248544  0.500618  0.583579  1
  Mn  Mn5  1  0.941011  0.871958  0.128372  1
  Mn  Mn6  1  0.058989  0.128042  0.871628  1
  Mn  Mn7  1  0.995070  0.983432  0.328121  1
  Mn  Mn8  1  0.004930  0.016568  0.671879  1
  Zn  Zn9  1  0.227850  0.436383  0.228180  1
  Zn  Zn10  1  0.772150  0.563617  0.771820  1
  O  O11  1  -0.000000  0.000000  -0.000000  1
  O  O12  1  0.852215  0.701292  0.229181  1
  O  O13  1  0.147785  0.298708  0.770819  1
  O  O14  1  0.299747  0.593039  0.065624  1
  O  O15  1  0.700253  0.406961  0.934376  1
  O  O16  1  0.586810  0.174374  0.143045  1
  O  O17  1  0.413190  0.825626  0.856955  1
  O  O18  1  0.623308  0.254118  0.310660  1
  O  O19  1  0.376692  0.745882  0.689340  1
  O  O20  1  0.393887  0.787746  0.393543  1
  O  O21  1  0.606113  0.212254  0.606457  1
  O  O22  1  0.135269  0.257997  0.465922  1
  O  O23  1  0.864731  0.742003  0.534078  1
