# generated using pymatgen
data_MgVBiO6
_symmetry_space_group_name_H-M   'P 1'
_cell_length_a   5.84493300
_cell_length_b   9.30105547
_cell_length_c   7.83974405
_cell_angle_alpha   130.91096905
_cell_angle_beta   90.00000000
_cell_angle_gamma   90.00000000
_symmetry_Int_Tables_number   1
_chemical_formula_structural   MgVBiO6
_chemical_formula_sum   'Mg2 V2 Bi2 O12'
_cell_volume   322.09147569
_cell_formula_units_Z   2
loop_
 _symmetry_equiv_pos_site_id
 _symmetry_equiv_pos_as_xyz
  1  'x, y, z'
loop_
 _atom_site_type_symbol
 _atom_site_label
 _atom_site_symmetry_multiplicity
 _atom_site_fract_x
 _atom_site_fract_y
 _atom_site_fract_z
 _atom_site_occupancy
  Mg  Mg0  1  0.750000  0.086563  0.304592  1
  Mg  Mg1  1  0.249999  0.913436  0.695408  1
  V  V2  1  0.750000  0.193487  0.843496  1
  V  V3  1  0.249999  0.806514  0.156504  1
  Bi  Bi4  1  0.249999  0.486707  0.589296  1
  Bi  Bi5  1  0.750000  0.513293  0.410705  1
  O  O6  1  0.750000  0.173389  0.612716  1
  O  O7  1  0.249999  0.826612  0.387284  1
  O  O8  1  0.249999  0.545154  0.892742  1
  O  O9  1  0.750000  0.454845  0.107257  1
  O  O10  1  0.012507  0.907514  0.146099  1
  O  O11  1  0.512506  0.092487  0.853902  1
  O  O12  1  0.987494  0.092487  0.853902  1
  O  O13  1  0.487493  0.907514  0.146099  1
  O  O14  1  0.525935  0.308620  0.377382  1
  O  O15  1  0.025935  0.691380  0.622618  1
  O  O16  1  0.974065  0.308620  0.377382  1
  O  O17  1  0.474065  0.691380  0.622618  1
