# generated using pymatgen
data_Ba2ZnCuNi2F14
_symmetry_space_group_name_H-M   'P 1'
_cell_length_a   5.32747418
_cell_length_b   7.45346872
_cell_length_c   14.47845527
_cell_angle_alpha   90.03120750
_cell_angle_beta   89.75027798
_cell_angle_gamma   111.54527228
_symmetry_Int_Tables_number   1
_chemical_formula_structural   Ba2ZnCuNi2F14
_chemical_formula_sum   'Ba4 Zn2 Cu2 Ni4 F28'
_cell_volume   534.73693541
_cell_formula_units_Z   2
loop_
 _symmetry_equiv_pos_site_id
 _symmetry_equiv_pos_as_xyz
  1  'x, y, z'
loop_
 _atom_site_type_symbol
 _atom_site_label
 _atom_site_symmetry_multiplicity
 _atom_site_fract_x
 _atom_site_fract_y
 _atom_site_fract_z
 _atom_site_occupancy
  Ba  Ba0  1  0.143862  0.387233  0.618512  1
  Ba  Ba1  1  0.245091  0.386652  0.118765  1
  Ba  Ba2  1  0.839816  0.604793  0.376845  1
  Ba  Ba3  1  0.765625  0.606674  0.878662  1
  Zn  Zn4  1  0.444424  0.047236  0.759639  1
  Zn  Zn5  1  0.588698  0.038313  0.258426  1
  Cu  Cu6  1  0.510451  0.000059  0.001433  1
  Cu  Cu7  1  0.490457  -0.001019  0.502807  1
  Ni  Ni8  1  0.110308  0.227371  0.873878  1
  Ni  Ni9  1  0.898008  0.767842  0.128693  1
  Ni  Ni10  1  0.113586  0.218685  0.373069  1
  Ni  Ni11  1  0.873047  0.770179  0.628433  1
  F  F12  1  0.861452  0.964055  0.332648  1
  F  F13  1  0.799614  0.223459  0.461929  1
  F  F14  1  0.177121  0.770899  0.543098  1
  F  F15  1  0.705385  0.519525  0.577642  1
  F  F16  1  0.601685  0.096857  0.627771  1
  F  F17  1  0.522896  0.904148  0.879062  1
  F  F18  1  0.419311  0.233991  0.959842  1
  F  F19  1  0.935924  0.017551  0.156420  1
  F  F20  1  0.384246  0.321026  0.771187  1
  F  F21  1  0.290045  0.487892  0.419048  1
  F  F22  1  0.825184  0.241623  0.787641  1
  F  F23  1  0.195173  0.491475  0.919039  1
  F  F24  1  0.412407  0.236905  0.285554  1
  F  F25  1  0.168076  0.757752  0.209208  1
  F  F26  1  0.506374  0.097372  0.124315  1
  F  F27  1  0.622008  0.657801  0.219498  1
  F  F28  1  0.140665  0.845858  0.017175  1
  F  F29  1  0.091222  0.018366  0.658911  1
  F  F30  1  0.872451  0.151984  0.985577  1
  F  F31  1  0.715794  0.848630  0.516955  1
  F  F32  1  0.604236  0.761483  0.042570  1
  F  F33  1  0.587192  0.746435  0.706921  1
  F  F34  1  0.933973  0.316183  0.272264  1
  F  F35  1  0.274366  0.153438  0.489082  1
  F  F36  1  0.369920  0.906430  0.379733  1
  F  F37  1  0.094382  0.969453  0.834538  1
  F  F38  1  0.036327  0.659315  0.719086  1
  F  F39  1  0.824688  0.517388  0.081590  1
