# generated using pymatgen
data_CaBi2O5
_symmetry_space_group_name_H-M   'P 1'
_cell_length_a   5.65141382
_cell_length_b   10.82538318
_cell_length_c   16.50246253
_cell_angle_alpha   90.00000000
_cell_angle_beta   90.00000000
_cell_angle_gamma   90.00000000
_symmetry_Int_Tables_number   1
_chemical_formula_structural   CaBi2O5
_chemical_formula_sum   'Ca8 Bi16 O40'
_cell_volume   1009.59953625
_cell_formula_units_Z   8
loop_
 _symmetry_equiv_pos_site_id
 _symmetry_equiv_pos_as_xyz
  1  'x, y, z'
loop_
 _atom_site_type_symbol
 _atom_site_label
 _atom_site_symmetry_multiplicity
 _atom_site_fract_x
 _atom_site_fract_y
 _atom_site_fract_z
 _atom_site_occupancy
  Ca  Ca0  1  0.536476  0.365334  0.425947  1
  Ca  Ca1  1  0.036476  0.134666  0.425947  1
  Ca  Ca2  1  0.036476  0.634666  0.074053  1
  Ca  Ca3  1  0.963524  0.365334  0.925947  1
  Ca  Ca4  1  0.463524  0.134666  0.925947  1
  Ca  Ca5  1  0.963524  0.865334  0.574053  1
  Ca  Ca6  1  0.463524  0.634666  0.574053  1
  Ca  Ca7  1  0.536476  0.865334  0.074053  1
  Bi  Bi8  1  0.035980  0.381132  0.574250  1
  Bi  Bi9  1  0.464020  0.881132  0.425750  1
  Bi  Bi10  1  0.964020  0.618868  0.425750  1
  Bi  Bi11  1  0.535980  0.118868  0.574250  1
  Bi  Bi12  1  0.964020  0.118868  0.074250  1
  Bi  Bi13  1  0.035980  0.881132  0.925750  1
  Bi  Bi14  1  0.464020  0.381132  0.074250  1
  Bi  Bi15  1  0.535980  0.618868  0.925750  1
  Bi  Bi16  1  0.970429  0.851069  0.241462  1
  Bi  Bi17  1  0.029571  0.148931  0.758538  1
  Bi  Bi18  1  0.529571  0.351069  0.758538  1
  Bi  Bi19  1  0.029571  0.648931  0.741462  1
  Bi  Bi20  1  0.470429  0.148931  0.258538  1
  Bi  Bi21  1  0.470429  0.648931  0.241462  1
  Bi  Bi22  1  0.529571  0.851069  0.741462  1
  Bi  Bi23  1  0.970429  0.351069  0.258538  1
  O  O24  1  0.883679  0.309337  0.683138  1
  O  O25  1  0.224466  0.994989  0.027965  1
  O  O26  1  0.275534  0.494989  0.972035  1
  O  O27  1  0.262729  0.773200  0.164738  1
  O  O28  1  0.237271  0.273200  0.835262  1
  O  O29  1  0.883679  0.809337  0.816862  1
  O  O30  1  0.237271  0.773200  0.664738  1
  O  O31  1  0.616321  0.809337  0.316862  1
  O  O32  1  0.224466  0.494989  0.472035  1
  O  O33  1  0.116322  0.690663  0.316862  1
  O  O34  1  0.616321  0.309337  0.183138  1
  O  O35  1  0.786939  0.245248  0.518080  1
  O  O36  1  0.724466  0.005011  0.472035  1
  O  O37  1  0.737271  0.726800  0.664738  1
  O  O38  1  0.239698  0.994736  0.851117  1
  O  O39  1  0.724466  0.505011  0.027965  1
  O  O40  1  0.116322  0.190663  0.183138  1
  O  O41  1  0.762729  0.226800  0.335262  1
  O  O42  1  0.286938  0.754752  0.981920  1
  O  O43  1  0.275534  0.994989  0.527965  1
  O  O44  1  0.213062  0.754752  0.481920  1
  O  O45  1  0.760302  0.005264  0.148883  1
  O  O46  1  0.737271  0.226800  0.835262  1
  O  O47  1  0.739698  0.005264  0.648883  1
  O  O48  1  0.213062  0.254752  0.018080  1
  O  O49  1  0.286938  0.254752  0.518080  1
  O  O50  1  0.775534  0.505011  0.527965  1
  O  O51  1  0.775534  0.005011  0.972035  1
  O  O52  1  0.739698  0.505264  0.851117  1
  O  O53  1  0.713061  0.745248  0.481920  1
  O  O54  1  0.713061  0.245248  0.018080  1
  O  O55  1  0.786939  0.745248  0.981920  1
  O  O56  1  0.760302  0.505264  0.351117  1
  O  O57  1  0.762729  0.726800  0.164738  1
  O  O58  1  0.262729  0.273200  0.335262  1
  O  O59  1  0.239698  0.494736  0.648883  1
  O  O60  1  0.260302  0.494736  0.148883  1
  O  O61  1  0.383678  0.190663  0.683138  1
  O  O62  1  0.260302  0.994736  0.351117  1
  O  O63  1  0.383678  0.690663  0.816862  1
