# generated using pymatgen
data_Zn(WO2)2
_symmetry_space_group_name_H-M   'P 1'
_cell_length_a   6.44791858
_cell_length_b   6.45512077
_cell_length_c   18.92530271
_cell_angle_alpha   60.13453171
_cell_angle_beta   60.13471048
_cell_angle_gamma   59.26509892
_symmetry_Int_Tables_number   1
_chemical_formula_structural   Zn(WO2)2
_chemical_formula_sum   'Zn6 W12 O24'
_cell_volume   554.94836823
_cell_formula_units_Z   6
loop_
 _symmetry_equiv_pos_site_id
 _symmetry_equiv_pos_as_xyz
  1  'x, y, z'
loop_
 _atom_site_type_symbol
 _atom_site_label
 _atom_site_symmetry_multiplicity
 _atom_site_fract_x
 _atom_site_fract_y
 _atom_site_fract_z
 _atom_site_occupancy
  Zn  Zn0  1  0.117023  0.118476  0.045708  1
  Zn  Zn1  1  0.122269  0.121883  0.375693  1
  Zn  Zn2  1  0.494217  0.497470  0.004467  1
  Zn  Zn3  1  0.131046  0.130006  0.708228  1
  Zn  Zn4  1  0.873231  0.873457  0.289841  1
  Zn  Zn5  1  0.878668  0.878118  0.624262  1
  W  W6  1  0.999170  0.495032  0.164973  1
  W  W7  1  0.491987  0.491691  0.166534  1
  W  W8  1  0.000921  0.500635  0.499534  1
  W  W9  1  0.495481  0.998681  0.164952  1
  W  W10  1  0.498195  0.497989  0.332545  1
  W  W11  1  0.500776  0.500367  0.499898  1
  W  W12  1  0.004230  0.505644  0.833944  1
  W  W13  1  0.500864  0.000473  0.499635  1
  W  W14  1  0.504828  0.003431  0.834370  1
  W  W15  1  0.505566  0.503921  0.666883  1
  W  W16  1  0.504171  0.505264  0.834999  1
  W  W17  1  0.873148  0.880061  0.956659  1
  O  O18  1  0.260861  0.260373  0.080967  1
  O  O19  1  0.254505  0.253628  0.242057  1
  O  O20  1  0.244105  0.725957  0.086830  1
  O  O21  1  0.725196  0.244304  0.086855  1
  O  O22  1  0.268852  0.743528  0.246180  1
  O  O23  1  0.257743  0.257608  0.417713  1
  O  O24  1  0.743830  0.268585  0.246266  1
  O  O25  1  0.727047  0.726189  0.092251  1
  O  O26  1  0.252619  0.726793  0.419778  1
  O  O27  1  0.261469  0.260932  0.575773  1
  O  O28  1  0.736627  0.735969  0.248280  1
  O  O29  1  0.726870  0.252357  0.419867  1
  O  O30  1  0.274797  0.747505  0.580531  1
  O  O31  1  0.266970  0.266209  0.750815  1
  O  O32  1  0.748624  0.273801  0.580442  1
  O  O33  1  0.739504  0.739688  0.423999  1
  O  O34  1  0.265145  0.264506  0.909720  1
  O  O35  1  0.257968  0.733138  0.754110  1
  O  O36  1  0.744224  0.743366  0.581808  1
  O  O37  1  0.733570  0.256439  0.754769  1
  O  O38  1  0.274323  0.769178  0.908677  1
  O  O39  1  0.743588  0.744072  0.758117  1
  O  O40  1  0.768601  0.277814  0.908440  1
  O  O41  1  0.727167  0.725464  0.922634  1
