# generated using pymatgen
data_Mg2CrN2
_symmetry_space_group_name_H-M   'P 1'
_cell_length_a   4.46289362
_cell_length_b   5.43659145
_cell_length_c   6.24703770
_cell_angle_alpha   61.96568989
_cell_angle_beta   69.07161639
_cell_angle_gamma   65.76692146
_symmetry_Int_Tables_number   1
_chemical_formula_structural   Mg2CrN2
_chemical_formula_sum   'Mg4 Cr2 N4'
_cell_volume   119.42970774
_cell_formula_units_Z   2
loop_
 _symmetry_equiv_pos_site_id
 _symmetry_equiv_pos_as_xyz
  1  'x, y, z'
loop_
 _atom_site_type_symbol
 _atom_site_label
 _atom_site_symmetry_multiplicity
 _atom_site_fract_x
 _atom_site_fract_y
 _atom_site_fract_z
 _atom_site_occupancy
  Mg  Mg0  1  0.675821  0.255791  0.392568  1
  Mg  Mg1  1  0.324179  0.744209  0.607432  1
  Mg  Mg2  1  0.026357  0.710616  0.236669  1
  Mg  Mg3  1  0.973643  0.289384  0.763331  1
  Cr  Cr4  1  0.361384  0.147165  0.130067  1
  Cr  Cr5  1  0.638616  0.852835  0.869933  1
  N  N6  1  0.178306  0.248438  0.394952  1
  N  N7  1  0.821694  0.751562  0.605048  1
  N  N8  1  0.485558  0.249401  0.779483  1
  N  N9  1  0.514442  0.750599  0.220517  1
