# generated using pymatgen
data_Ba2Ni3O7
_symmetry_space_group_name_H-M   'P 1'
_cell_length_a   3.70732595
_cell_length_b   3.73639796
_cell_length_c   13.04578256
_cell_angle_alpha   89.87002017
_cell_angle_beta   90.22898921
_cell_angle_gamma   90.32796819
_symmetry_Int_Tables_number   1
_chemical_formula_structural   Ba2Ni3O7
_chemical_formula_sum   'Ba2 Ni3 O7'
_cell_volume   180.70590915
_cell_formula_units_Z   1
loop_
 _symmetry_equiv_pos_site_id
 _symmetry_equiv_pos_as_xyz
  1  'x, y, z'
loop_
 _atom_site_type_symbol
 _atom_site_label
 _atom_site_symmetry_multiplicity
 _atom_site_fract_x
 _atom_site_fract_y
 _atom_site_fract_z
 _atom_site_occupancy
  Ba  Ba0  1  0.500658  0.501935  0.804063  1
  Ba  Ba1  1  0.502586  0.501471  0.198423  1
  Ni  Ni2  1  0.996596  0.002240  0.618509  1
  Ni  Ni3  1  0.004593  0.999919  0.382954  1
  Ni  Ni4  1  0.002678  0.002009  0.001182  1
  O  O5  1  0.011168  0.502115  0.000619  1
  O  O6  1  0.497160  0.001513  0.642443  1
  O  O7  1  0.504287  0.000377  0.358195  1
  O  O8  1  0.997884  0.501934  0.643978  1
  O  O9  1  0.004269  0.500052  0.358596  1
  O  O10  1  0.001312  0.002423  0.862827  1
  O  O11  1  0.001413  0.001517  0.138818  1
