# generated using pymatgen
data_Al(WO2)2
_symmetry_space_group_name_H-M   'P 1'
_cell_length_a   5.92524520
_cell_length_b   5.38850899
_cell_length_c   6.38829216
_cell_angle_alpha   112.16791845
_cell_angle_beta   115.04664000
_cell_angle_gamma   95.49717238
_symmetry_Int_Tables_number   1
_chemical_formula_structural   Al(WO2)2
_chemical_formula_sum   'Al2 W4 O8'
_cell_volume   162.99690487
_cell_formula_units_Z   2
loop_
 _symmetry_equiv_pos_site_id
 _symmetry_equiv_pos_as_xyz
  1  'x, y, z'
loop_
 _atom_site_type_symbol
 _atom_site_label
 _atom_site_symmetry_multiplicity
 _atom_site_fract_x
 _atom_site_fract_y
 _atom_site_fract_z
 _atom_site_occupancy
  Al  Al0  1  0.933135  0.183135  0.866272  1
  Al  Al1  1  0.066865  0.816865  0.133728  1
  W  W2  1  0.500000  0.000000  0.000000  1
  W  W3  1  0.500000  0.500000  0.000000  1
  W  W4  1  0.000000  0.500000  0.500000  1
  W  W5  1  0.500000  0.500000  0.500000  1
  O  O6  1  0.757003  0.475509  0.842059  1
  O  O7  1  0.085056  0.866550  0.842059  1
  O  O8  1  0.242997  0.524491  0.157941  1
  O  O9  1  0.914944  0.133450  0.157941  1
  O  O10  1  0.392873  0.082181  0.306904  1
  O  O11  1  0.914031  0.724723  0.306904  1
  O  O12  1  0.085969  0.275277  0.693096  1
  O  O13  1  0.607127  0.917819  0.693096  1
