# generated using pymatgen
data_CaVAs2O7
_symmetry_space_group_name_H-M   'P 1'
_cell_length_a   8.13614273
_cell_length_b   8.57865866
_cell_length_c   10.65287522
_cell_angle_alpha   90.00000000
_cell_angle_beta   119.27018246
_cell_angle_gamma   90.00000000
_symmetry_Int_Tables_number   1
_chemical_formula_structural   CaVAs2O7
_chemical_formula_sum   'Ca4 V4 As8 O28'
_cell_volume   648.60833652
_cell_formula_units_Z   4
loop_
 _symmetry_equiv_pos_site_id
 _symmetry_equiv_pos_as_xyz
  1  'x, y, z'
loop_
 _atom_site_type_symbol
 _atom_site_label
 _atom_site_symmetry_multiplicity
 _atom_site_fract_x
 _atom_site_fract_y
 _atom_site_fract_z
 _atom_site_occupancy
  Ca  Ca0  1  0.259322  0.932148  0.905021  1
  Ca  Ca1  1  0.740678  0.432148  0.594979  1
  Ca  Ca2  1  0.740678  0.067852  0.094979  1
  Ca  Ca3  1  0.259322  0.567852  0.405021  1
  V  V4  1  0.798915  0.063427  0.715870  1
  V  V5  1  0.201085  0.563427  0.784130  1
  V  V6  1  0.201085  0.936573  0.284130  1
  V  V7  1  0.798915  0.436573  0.215870  1
  As  As8  1  0.448201  0.238172  0.750365  1
  As  As9  1  0.551799  0.738172  0.749635  1
  As  As10  1  0.551799  0.761828  0.249635  1
  As  As11  1  0.448201  0.261828  0.250364  1
  As  As12  1  0.048472  0.315727  0.955803  1
  As  As13  1  0.951528  0.815727  0.544197  1
  As  As14  1  0.951528  0.684273  0.044197  1
  As  As15  1  0.048472  0.184273  0.455803  1
  O  O16  1  0.761163  0.334566  0.070768  1
  O  O17  1  0.238837  0.834566  0.429232  1
  O  O18  1  0.238837  0.665434  0.929232  1
  O  O19  1  0.761163  0.165434  0.570768  1
  O  O20  1  0.366730  0.421054  0.757120  1
  O  O21  1  0.633270  0.921053  0.742880  1
  O  O22  1  0.633270  0.578947  0.242880  1
  O  O23  1  0.366730  0.078947  0.257120  1
  O  O24  1  0.444486  0.111513  0.872083  1
  O  O25  1  0.555514  0.611513  0.627917  1
  O  O26  1  0.555514  0.888487  0.127917  1
  O  O27  1  0.444486  0.388487  0.372083  1
  O  O28  1  0.312962  0.180799  0.569052  1
  O  O29  1  0.687038  0.680799  0.930948  1
  O  O30  1  0.687038  0.819201  0.430948  1
  O  O31  1  0.312962  0.319201  0.069052  1
  O  O32  1  0.038147  0.099348  0.299492  1
  O  O33  1  0.961853  0.599348  0.200508  1
  O  O34  1  0.961853  0.900652  0.700508  1
  O  O35  1  0.038147  0.400652  0.799492  1
  O  O36  1  0.669709  0.250392  0.267802  1
  O  O37  1  0.330291  0.750392  0.232198  1
  O  O38  1  0.330291  0.749608  0.732198  1
  O  O39  1  0.669709  0.249608  0.767802  1
  O  O40  1  0.027311  0.384606  0.392675  1
  O  O41  1  0.972689  0.884606  0.107325  1
  O  O42  1  0.972689  0.615394  0.607325  1
  O  O43  1  0.027311  0.115394  0.892675  1
