# generated using pymatgen
data_LaCrCuO6
_symmetry_space_group_name_H-M   'P 1'
_cell_length_a   4.73336621
_cell_length_b   7.19929080
_cell_length_c   4.63676947
_cell_angle_alpha   67.60138100
_cell_angle_beta   109.13131656
_cell_angle_gamma   88.87363158
_symmetry_Int_Tables_number   1
_chemical_formula_structural   LaCrCuO6
_chemical_formula_sum   'La1 Cr1 Cu1 O6'
_cell_volume   136.11483999
_cell_formula_units_Z   1
loop_
 _symmetry_equiv_pos_site_id
 _symmetry_equiv_pos_as_xyz
  1  'x, y, z'
loop_
 _atom_site_type_symbol
 _atom_site_label
 _atom_site_symmetry_multiplicity
 _atom_site_fract_x
 _atom_site_fract_y
 _atom_site_fract_z
 _atom_site_occupancy
  La  La0  1  0.836027  0.232527  0.521986  1
  Cr  Cr1  1  0.956998  0.667818  0.853269  1
  Cu  Cu2  1  0.515271  0.971630  0.027820  1
  O  O3  1  0.362221  0.156435  0.597956  1
  O  O4  1  0.144166  0.471338  0.858289  1
  O  O5  1  0.801810  0.578964  0.142942  1
  O  O6  1  0.173983  0.838788  0.933892  1
  O  O7  1  0.800005  0.130332  0.076142  1
  O  O8  1  0.669755  0.793578  0.488118  1
