# generated using pymatgen
data_TiZnAg(PO4)3
_symmetry_space_group_name_H-M   'P 1'
_cell_length_a   8.58546175
_cell_length_b   8.58546424
_cell_length_c   8.58546492
_cell_angle_alpha   61.73343208
_cell_angle_beta   61.73337948
_cell_angle_gamma   61.73337191
_symmetry_Int_Tables_number   1
_chemical_formula_structural   TiZnAg(PO4)3
_chemical_formula_sum   'Ti2 Zn2 Ag2 P6 O24'
_cell_volume   464.86569760
_cell_formula_units_Z   2
loop_
 _symmetry_equiv_pos_site_id
 _symmetry_equiv_pos_as_xyz
  1  'x, y, z'
loop_
 _atom_site_type_symbol
 _atom_site_label
 _atom_site_symmetry_multiplicity
 _atom_site_fract_x
 _atom_site_fract_y
 _atom_site_fract_z
 _atom_site_occupancy
  Ti  Ti0  1  0.145416  0.145419  0.145418  1
  Ti  Ti1  1  0.645409  0.645408  0.645409  1
  Zn  Zn2  1  0.995751  0.995751  0.995751  1
  Zn  Zn3  1  0.495763  0.495763  0.495763  1
  Ag  Ag4  1  0.350830  0.350829  0.350830  1
  Ag  Ag5  1  0.850775  0.850774  0.850774  1
  P  P6  1  0.047699  0.445067  0.756204  1
  P  P7  1  0.445067  0.756203  0.047699  1
  P  P8  1  0.756202  0.047699  0.445066  1
  P  P9  1  0.256236  0.945140  0.547667  1
  P  P10  1  0.547668  0.256236  0.945140  1
  P  P11  1  0.945139  0.547668  0.256237  1
  O  O12  1  0.091154  0.531381  0.320153  1
  O  O13  1  0.320153  0.091154  0.531380  1
  O  O14  1  0.051155  0.253438  0.917023  1
  O  O15  1  0.531380  0.320153  0.091153  1
  O  O16  1  0.031494  0.591032  0.820121  1
  O  O17  1  0.240788  0.426982  0.600489  1
  O  O18  1  0.253439  0.917022  0.051155  1
  O  O19  1  0.426982  0.600490  0.240787  1
  O  O20  1  0.192896  0.005635  0.377892  1
  O  O21  1  0.600489  0.240788  0.426982  1
  O  O22  1  0.100602  0.926991  0.740744  1
  O  O23  1  0.377892  0.192896  0.005636  1
  O  O24  1  0.591034  0.820121  0.031493  1
  O  O25  1  0.917021  0.051155  0.253439  1
  O  O26  1  0.417032  0.753460  0.551151  1
  O  O27  1  0.820121  0.031494  0.591033  1
  O  O28  1  0.551151  0.417032  0.753460  1
  O  O29  1  0.740744  0.100603  0.926991  1
  O  O30  1  0.753460  0.551151  0.417032  1
  O  O31  1  0.005636  0.377892  0.192896  1
  O  O32  1  0.505630  0.692895  0.877894  1
  O  O33  1  0.926992  0.740744  0.100603  1
  O  O34  1  0.692895  0.877895  0.505630  1
  O  O35  1  0.877895  0.505630  0.692895  1
