# generated using pymatgen
data_YCo3Se2ClO8
_symmetry_space_group_name_H-M   'P 1'
_cell_length_a   6.40497259
_cell_length_b   7.23154852
_cell_length_c   9.65993605
_cell_angle_alpha   90.00171541
_cell_angle_beta   89.92702348
_cell_angle_gamma   89.97912991
_symmetry_Int_Tables_number   1
_chemical_formula_structural   YCo3Se2ClO8
_chemical_formula_sum   'Y2 Co6 Se4 Cl2 O16'
_cell_volume   447.42727022
_cell_formula_units_Z   2
loop_
 _symmetry_equiv_pos_site_id
 _symmetry_equiv_pos_as_xyz
  1  'x, y, z'
loop_
 _atom_site_type_symbol
 _atom_site_label
 _atom_site_symmetry_multiplicity
 _atom_site_fract_x
 _atom_site_fract_y
 _atom_site_fract_z
 _atom_site_occupancy
  Y  Y0  1  0.249927  0.262437  0.249976  1
  Y  Y1  1  0.750074  0.737228  0.750015  1
  Co  Co2  1  0.500154  -0.000041  -0.000057  1
  Co  Co3  1  0.499989  0.999759  0.499722  1
  Co  Co4  1  0.000102  0.999725  0.000268  1
  Co  Co5  1  0.748965  0.205921  0.750002  1
  Co  Co6  1  0.250951  0.794016  0.250009  1
  Co  Co7  1  -0.000130  0.999911  0.500026  1
  Se  Se8  1  0.750088  0.410291  0.061026  1
  Se  Se9  1  0.250083  0.589881  0.938848  1
  Se  Se10  1  0.749847  0.410303  0.439047  1
  Se  Se11  1  0.249985  0.589867  0.561093  1
  Cl  Cl12  1  0.250983  0.138912  0.750122  1
  Cl  Cl13  1  0.749170  0.861724  0.249890  1
  O  O14  1  0.250186  0.000056  0.113763  1
  O  O15  1  0.249825  0.575440  0.118864  1
  O  O16  1  0.749929  0.424995  0.618553  1
  O  O17  1  0.539080  0.263498  0.088793  1
  O  O18  1  0.460799  0.736345  0.588708  1
  O  O19  1  0.039147  0.736699  0.588944  1
  O  O20  1  0.750416  -0.000679  0.886472  1
  O  O21  1  0.961288  0.263662  0.088753  1
  O  O22  1  0.960996  0.263443  0.411304  1
  O  O23  1  0.039101  0.736348  0.911161  1
  O  O24  1  0.249877  0.000134  0.386274  1
  O  O25  1  0.749685  -0.000726  0.613510  1
  O  O26  1  0.460774  0.736688  0.911031  1
  O  O27  1  0.538799  0.263726  0.411289  1
  O  O28  1  0.750287  0.425013  0.881523  1
  O  O29  1  0.249623  0.575425  0.381071  1
