# generated using pymatgen
data_Zn(SbO2)2
_symmetry_space_group_name_H-M   'P 1'
_cell_length_a   7.21224655
_cell_length_b   6.54811467
_cell_length_c   26.15686872
_cell_angle_alpha   59.95497817
_cell_angle_beta   60.53546783
_cell_angle_gamma   63.00208731
_symmetry_Int_Tables_number   1
_chemical_formula_structural   Zn(SbO2)2
_chemical_formula_sum   'Zn8 Sb16 O32'
_cell_volume   894.96607027
_cell_formula_units_Z   8
loop_
 _symmetry_equiv_pos_site_id
 _symmetry_equiv_pos_as_xyz
  1  'x, y, z'
loop_
 _atom_site_type_symbol
 _atom_site_label
 _atom_site_symmetry_multiplicity
 _atom_site_fract_x
 _atom_site_fract_y
 _atom_site_fract_z
 _atom_site_occupancy
  Zn  Zn0  1  0.261806  0.057130  0.030984  1
  Zn  Zn1  1  0.036685  0.539627  0.096015  1
  Zn  Zn2  1  0.153831  0.086017  0.293534  1
  Zn  Zn3  1  0.053383  0.464742  0.379283  1
  Zn  Zn4  1  0.032440  0.434552  0.649614  1
  Zn  Zn5  1  0.420628  0.513943  0.512872  1
  Zn  Zn6  1  0.977410  0.556667  0.852314  1
  Zn  Zn7  1  0.569802  0.485614  0.739742  1
  Sb  Sb8  1  0.525469  0.493661  0.119480  1
  Sb  Sb9  1  0.360705  0.577797  0.245925  1
  Sb  Sb10  1  0.525469  0.002948  0.119480  1
  Sb  Sb11  1  0.102023  0.136570  0.531209  1
  Sb  Sb12  1  0.563672  0.468563  0.378184  1
  Sb  Sb13  1  0.833565  0.925300  0.203959  1
  Sb  Sb14  1  0.057043  0.117869  0.801805  1
  Sb  Sb15  1  0.563672  0.955031  0.378184  1
  Sb  Sb16  1  0.502279  0.499637  0.624491  1
  Sb  Sb17  1  0.819949  0.915815  0.462105  1
  Sb  Sb18  1  0.502279  0.000119  0.624491  1
  Sb  Sb19  1  0.385736  0.045368  0.880823  1
  Sb  Sb20  1  0.385736  0.545605  0.880823  1
  Sb  Sb21  1  0.921281  0.880851  0.704254  1
  Sb  Sb22  1  0.574008  0.504830  0.979083  1
  Sb  Sb23  1  0.791329  0.926750  0.963792  1
  O  O24  1  0.311384  0.241452  0.061376  1
  O  O25  1  0.371276  0.207622  0.178370  1
  O  O26  1  0.311384  0.701663  0.061376  1
  O  O27  1  0.675567  0.294860  0.058679  1
  O  O28  1  0.151378  0.780158  0.197076  1
  O  O29  1  0.214041  0.309418  0.308096  1
  O  O30  1  0.843250  0.267411  0.145099  1
  O  O31  1  0.219429  0.269433  0.435426  1
  O  O32  1  0.214041  0.744158  0.308096  1
  O  O33  1  0.815130  0.741143  0.050646  1
  O  O34  1  0.843679  0.103225  0.362469  1
  O  O35  1  0.843250  0.808942  0.145099  1
  O  O36  1  0.258220  0.244645  0.584242  1
  O  O37  1  0.361254  0.712918  0.428227  1
  O  O38  1  0.607033  0.250481  0.461763  1
  O  O39  1  0.209227  0.224415  0.710486  1
  O  O40  1  0.258220  0.660166  0.584242  1
  O  O41  1  0.788273  0.642047  0.356908  1
  O  O42  1  0.788899  0.276757  0.539396  1
  O  O43  1  0.607033  0.795435  0.461763  1
  O  O44  1  0.377084  0.693280  0.684089  1
  O  O45  1  0.226257  0.261609  0.816555  1
  O  O46  1  0.778832  0.257029  0.689556  1
  O  O47  1  0.247559  0.245737  0.940241  1
  O  O48  1  0.226257  0.745911  0.816555  1
  O  O49  1  0.642601  0.796875  0.565913  1
  O  O50  1  0.550926  0.319621  0.827458  1
  O  O51  1  0.778832  0.705917  0.689556  1
  O  O52  1  0.118715  0.845915  0.922364  1
  O  O53  1  0.821352  0.285949  0.929630  1
  O  O54  1  0.798064  0.756622  0.797173  1
  O  O55  1  0.821352  0.674178  0.929630  1
