# generated using pymatgen
data_BaCa(NiO2)4
_symmetry_space_group_name_H-M   'P 1'
_cell_length_a   5.34652820
_cell_length_b   5.34652840
_cell_length_c   7.88834478
_cell_angle_alpha   90.00000000
_cell_angle_beta   90.00000000
_cell_angle_gamma   119.99999879
_symmetry_Int_Tables_number   1
_chemical_formula_structural   BaCa(NiO2)4
_chemical_formula_sum   'Ba1 Ca1 Ni4 O8'
_cell_volume   195.28112165
_cell_formula_units_Z   1
loop_
 _symmetry_equiv_pos_site_id
 _symmetry_equiv_pos_as_xyz
  1  'x, y, z'
loop_
 _atom_site_type_symbol
 _atom_site_label
 _atom_site_symmetry_multiplicity
 _atom_site_fract_x
 _atom_site_fract_y
 _atom_site_fract_z
 _atom_site_occupancy
  Ba  Ba0  1  0.000000  -0.000000  -0.000000  1
  Ca  Ca1  1  0.000000  -0.000000  0.500000  1
  Ni  Ni2  1  0.333333  0.666667  0.766387  1
  Ni  Ni3  1  0.666667  0.333333  0.766387  1
  Ni  Ni4  1  0.333333  0.666667  0.233613  1
  Ni  Ni5  1  0.666667  0.333333  0.233613  1
  O  O6  1  0.334856  0.334856  0.696354  1
  O  O7  1  0.665144  -0.000000  0.696354  1
  O  O8  1  0.000000  0.665144  0.696354  1
  O  O9  1  0.665144  0.665144  0.303646  1
  O  O10  1  1.000000  0.334856  0.303646  1
  O  O11  1  0.334856  0.000000  0.303646  1
  O  O12  1  0.333333  0.666667  -0.000000  1
  O  O13  1  0.666667  0.333333  -0.000000  1
