# generated using pymatgen
data_Mg(CrS2)4
_symmetry_space_group_name_H-M   'P 1'
_cell_length_a   7.15822781
_cell_length_b   7.15822758
_cell_length_c   7.15822872
_cell_angle_alpha   56.93655586
_cell_angle_beta   56.93655039
_cell_angle_gamma   56.93655688
_symmetry_Int_Tables_number   1
_chemical_formula_structural   Mg(CrS2)4
_chemical_formula_sum   'Mg1 Cr4 S8'
_cell_volume   241.03332402
_cell_formula_units_Z   1
loop_
 _symmetry_equiv_pos_site_id
 _symmetry_equiv_pos_as_xyz
  1  'x, y, z'
loop_
 _atom_site_type_symbol
 _atom_site_label
 _atom_site_symmetry_multiplicity
 _atom_site_fract_x
 _atom_site_fract_y
 _atom_site_fract_z
 _atom_site_occupancy
  Mg  Mg0  1  0.500000  0.500001  0.499999  1
  Cr  Cr1  1  0.500001  0.999999  0.500001  1
  Cr  Cr2  1  0.999999  0.500000  0.500001  1
  Cr  Cr3  1  0.500000  0.500000  0.000000  1
  Cr  Cr4  1  0.000000  0.000000  0.000000  1
  S  S5  1  0.759075  0.256951  0.759075  1
  S  S6  1  0.240924  0.240925  0.743049  1
  S  S7  1  0.240924  0.743050  0.240924  1
  S  S8  1  0.743048  0.240925  0.240925  1
  S  S9  1  0.259549  0.259550  0.259549  1
  S  S10  1  0.740451  0.740451  0.740451  1
  S  S11  1  0.256952  0.759076  0.759075  1
  S  S12  1  0.759076  0.759076  0.256951  1
