# generated using pymatgen
data_V2ZnO4
_symmetry_space_group_name_H-M   'P 1'
_cell_length_a   6.09040338
_cell_length_b   6.07213052
_cell_length_c   18.30326667
_cell_angle_alpha   60.09699186
_cell_angle_beta   59.30211726
_cell_angle_gamma   60.16324681
_symmetry_Int_Tables_number   1
_chemical_formula_structural   V2ZnO4
_chemical_formula_sum   'V12 Zn6 O24'
_cell_volume   476.97975094
_cell_formula_units_Z   6
loop_
 _symmetry_equiv_pos_site_id
 _symmetry_equiv_pos_as_xyz
  1  'x, y, z'
loop_
 _atom_site_type_symbol
 _atom_site_label
 _atom_site_symmetry_multiplicity
 _atom_site_fract_x
 _atom_site_fract_y
 _atom_site_fract_z
 _atom_site_occupancy
  V  V0  1  0.495661  0.002896  0.167019  1
  V  V1  1  0.130488  0.118639  0.377291  1
  V  V2  1  0.497708  0.497364  0.002155  1
  V  V3  1  0.496576  0.500809  0.166406  1
  V  V4  1  0.500698  0.000076  0.499497  1
  V  V5  1  0.133379  0.120136  0.708896  1
  V  V6  1  0.500819  0.501017  0.499416  1
  V  V7  1  0.501324  0.000083  0.833349  1
  V  V8  1  0.868072  0.883319  0.287958  1
  V  V9  1  0.503049  0.496666  0.833256  1
  V  V10  1  0.868420  0.881282  0.623129  1
  V  V11  1  0.870744  0.876427  0.958966  1
  Zn  Zn12  1  0.134169  0.119774  0.042182  1
  Zn  Zn13  1  0.500948  0.500125  0.333183  1
  Zn  Zn14  1  0.996776  0.502391  0.166537  1
  Zn  Zn15  1  0.498071  0.501497  0.666535  1
  Zn  Zn16  1  -0.000060  0.501037  0.499332  1
  Zn  Zn17  1  0.005200  0.496693  0.833591  1
  O  O18  1  0.268849  0.259033  0.084445  1
  O  O19  1  0.261478  0.246508  0.246128  1
  O  O20  1  0.269832  0.718759  0.087233  1
  O  O21  1  0.719055  0.259023  0.086865  1
  O  O22  1  0.260774  0.249433  0.420521  1
  O  O23  1  0.265367  0.755104  0.242266  1
  O  O24  1  0.272847  0.250823  0.576870  1
  O  O25  1  0.733117  0.273820  0.244218  1
  O  O26  1  0.264307  0.726590  0.421120  1
  O  O27  1  0.732002  0.753767  0.089071  1
  O  O28  1  0.733825  0.244308  0.422530  1
  O  O29  1  0.736703  0.753901  0.245825  1
  O  O30  1  0.264058  0.243504  0.754093  1
  O  O31  1  0.265486  0.755460  0.577808  1
  O  O32  1  0.736244  0.272122  0.579296  1
  O  O33  1  0.262037  0.731045  0.754573  1
  O  O34  1  0.274896  0.250080  0.906424  1
  O  O35  1  0.728380  0.751264  0.421551  1
  O  O36  1  0.736798  0.249685  0.756304  1
  O  O37  1  0.740056  0.750710  0.579698  1
  O  O38  1  0.274014  0.738068  0.914901  1
  O  O39  1  0.734339  0.270390  0.915593  1
  O  O40  1  0.732567  0.750948  0.756920  1
  O  O41  1  0.730927  0.745423  0.917054  1
