# generated using pymatgen
data_Sr2GaSb2O7
_symmetry_space_group_name_H-M   'P 1'
_cell_length_a   5.85734825
_cell_length_b   6.04555875
_cell_length_c   11.53926117
_cell_angle_alpha   105.60933677
_cell_angle_beta   104.64421266
_cell_angle_gamma   89.99067577
_symmetry_Int_Tables_number   1
_chemical_formula_structural   Sr2GaSb2O7
_chemical_formula_sum   'Sr4 Ga2 Sb4 O14'
_cell_volume   379.75012569
_cell_formula_units_Z   2
loop_
 _symmetry_equiv_pos_site_id
 _symmetry_equiv_pos_as_xyz
  1  'x, y, z'
loop_
 _atom_site_type_symbol
 _atom_site_label
 _atom_site_symmetry_multiplicity
 _atom_site_fract_x
 _atom_site_fract_y
 _atom_site_fract_z
 _atom_site_occupancy
  Sr  Sr0  1  0.149452  0.176530  0.301931  1
  Sr  Sr1  1  0.847404  0.824201  0.698569  1
  Sr  Sr2  1  0.647350  0.625468  0.301931  1
  Sr  Sr3  1  0.345921  0.374450  0.698645  1
  Ga  Ga4  1  0.209974  0.837181  0.499460  1
  Ga  Ga5  1  0.710457  0.163178  0.500656  1
  Sb  Sb6  1  0.427508  0.933913  0.854678  1
  Sb  Sb7  1  0.074382  0.573281  0.144953  1
  Sb  Sb8  1  0.928615  0.427217  0.855736  1
  Sb  Sb9  1  0.574517  0.066244  0.146009  1
  O  O10  1  0.832587  0.338823  0.157059  1
  O  O11  1  0.890056  0.901311  0.500039  1
  O  O12  1  0.322009  0.327684  0.154992  1
  O  O13  1  0.844076  0.383915  0.649971  1
  O  O14  1  0.666678  0.167334  0.814160  1
  O  O15  1  0.153247  0.165561  0.815585  1
  O  O16  1  0.390068  0.098882  0.500006  1
  O  O17  1  0.165804  0.671958  0.845008  1
  O  O18  1  0.674562  0.661918  0.843313  1
  O  O19  1  0.340236  0.769352  0.650566  1
  O  O20  1  0.197115  0.615809  0.350663  1
  O  O21  1  0.691539  0.231817  0.350050  1
  O  O22  1  0.854808  0.833323  0.187806  1
  O  O23  1  0.339337  0.835115  0.185021  1
