# generated using pymatgen
data_Sr2YGaFe2O7
_symmetry_space_group_name_H-M   'P 1'
_cell_length_a   5.59828920
_cell_length_b   5.73664412
_cell_length_c   12.03034115
_cell_angle_alpha   103.87821756
_cell_angle_beta   103.49187080
_cell_angle_gamma   89.95207981
_symmetry_Int_Tables_number   1
_chemical_formula_structural   Sr2YGaFe2O7
_chemical_formula_sum   'Sr4 Y2 Ga2 Fe4 O14'
_cell_volume   364.10699263
_cell_formula_units_Z   2
loop_
 _symmetry_equiv_pos_site_id
 _symmetry_equiv_pos_as_xyz
  1  'x, y, z'
loop_
 _atom_site_type_symbol
 _atom_site_label
 _atom_site_symmetry_multiplicity
 _atom_site_fract_x
 _atom_site_fract_y
 _atom_site_fract_z
 _atom_site_occupancy
  Sr  Sr0  1  0.142173  0.176686  0.302466  1
  Sr  Sr1  1  0.834189  0.821285  0.694371  1
  Sr  Sr2  1  0.640490  0.625979  0.302696  1
  Sr  Sr3  1  0.335259  0.374916  0.694430  1
  Y  Y4  1  0.494646  0.504314  0.003511  1
  Y  Y5  1  0.995217  0.002609  0.003342  1
  Ga  Ga6  1  0.209328  0.822045  0.496886  1
  Ga  Ga7  1  0.709547  0.175538  0.496982  1
  Fe  Fe8  1  0.421680  0.932697  0.855481  1
  Fe  Fe9  1  0.073435  0.583389  0.157446  1
  Fe  Fe10  1  0.921502  0.424880  0.855243  1
  Fe  Fe11  1  0.574232  0.076604  0.157144  1
  O  O12  1  0.810705  0.328847  0.125392  1
  O  O13  1  0.869033  0.878966  0.497844  1
  O  O14  1  0.311292  0.299667  0.125979  1
  O  O15  1  0.853139  0.380063  0.640882  1
  O  O16  1  0.686638  0.179504  0.869883  1
  O  O17  1  0.187064  0.193082  0.870926  1
  O  O18  1  0.369115  0.119307  0.497830  1
  O  O19  1  0.178558  0.695793  0.873979  1
  O  O20  1  0.677658  0.679844  0.872687  1
  O  O21  1  0.353049  0.761850  0.640689  1
  O  O22  1  0.203265  0.622468  0.350772  1
  O  O23  1  0.702545  0.227682  0.350643  1
  O  O24  1  0.810957  0.827765  0.127731  1
  O  O25  1  0.311495  0.803695  0.129851  1
