# generated using pymatgen
data_Ba2AlTlFe2O7
_symmetry_space_group_name_H-M   'P 1'
_cell_length_a   3.85735341
_cell_length_b   3.85777794
_cell_length_c   12.99053892
_cell_angle_alpha   89.33254422
_cell_angle_beta   89.70433800
_cell_angle_gamma   89.98945626
_symmetry_Int_Tables_number   1
_chemical_formula_structural   Ba2AlTlFe2O7
_chemical_formula_sum   'Ba2 Al1 Tl1 Fe2 O7'
_cell_volume   193.29408722
_cell_formula_units_Z   1
loop_
 _symmetry_equiv_pos_site_id
 _symmetry_equiv_pos_as_xyz
  1  'x, y, z'
loop_
 _atom_site_type_symbol
 _atom_site_label
 _atom_site_symmetry_multiplicity
 _atom_site_fract_x
 _atom_site_fract_y
 _atom_site_fract_z
 _atom_site_occupancy
  Ba  Ba0  1  0.499584  0.499124  0.204595  1
  Ba  Ba1  1  0.500178  0.500535  0.795348  1
  Al  Al2  1  0.500622  0.499145  0.500001  1
  Tl  Tl3  1  0.999929  0.999868  0.999974  1
  Fe  Fe4  1  -0.001285  -0.002761  0.384594  1
  Fe  Fe5  1  0.000586  0.001507  0.615424  1
  O  O6  1  0.999625  0.999199  0.168529  1
  O  O7  1  0.995666  0.497852  0.402731  1
  O  O8  1  0.499070  0.991559  0.402734  1
  O  O9  1  0.502287  0.009321  0.597303  1
  O  O10  1  0.499877  0.499839  0.999982  1
  O  O11  1  0.003731  0.504379  0.597360  1
  O  O12  1  0.000126  0.000434  0.831427  1
