# generated using pymatgen
data_MgCoO2
_symmetry_space_group_name_H-M   'P 1'
_cell_length_a   3.01138237
_cell_length_b   7.98633229
_cell_length_c   7.39423524
_cell_angle_alpha   107.50587949
_cell_angle_beta   89.93534067
_cell_angle_gamma   68.09396350
_symmetry_Int_Tables_number   1
_chemical_formula_structural   MgCoO2
_chemical_formula_sum   'Mg4 Co4 O8'
_cell_volume   156.05280525
_cell_formula_units_Z   4
loop_
 _symmetry_equiv_pos_site_id
 _symmetry_equiv_pos_as_xyz
  1  'x, y, z'
loop_
 _atom_site_type_symbol
 _atom_site_label
 _atom_site_symmetry_multiplicity
 _atom_site_fract_x
 _atom_site_fract_y
 _atom_site_fract_z
 _atom_site_occupancy
  Mg  Mg0  1  0.187353  0.053933  0.201493  1
  Mg  Mg1  1  0.813798  0.926799  0.824312  1
  Mg  Mg2  1  0.059893  0.678072  0.074003  1
  Mg  Mg3  1  0.941070  0.302816  0.951789  1
  Co  Co4  1  0.564663  0.177816  0.577559  1
  Co  Co5  1  0.313071  0.428732  0.324492  1
  Co  Co6  1  0.687922  0.552131  0.701400  1
  Co  Co7  1  0.436181  0.803198  0.447823  1
  O  O8  1  0.051214  0.682296  0.576637  1
  O  O9  1  0.315611  0.429582  0.830864  1
  O  O10  1  0.685123  0.551425  0.194542  1
  O  O11  1  0.950525  0.298041  0.449130  1
  O  O12  1  0.182946  0.056305  0.706089  1
  O  O13  1  0.568389  0.174342  0.073728  1
  O  O14  1  0.818249  0.924412  0.319653  1
  O  O15  1  0.432470  0.806734  0.952008  1
