# generated using pymatgen
data_CaTi2S5
_symmetry_space_group_name_H-M   'P 1'
_cell_length_a   4.27622483
_cell_length_b   6.06395830
_cell_length_c   14.50753574
_cell_angle_alpha   90.00549701
_cell_angle_beta   89.99987294
_cell_angle_gamma   89.99989534
_symmetry_Int_Tables_number   1
_chemical_formula_structural   CaTi2S5
_chemical_formula_sum   'Ca2 Ti4 S10'
_cell_volume   376.19271778
_cell_formula_units_Z   2
loop_
 _symmetry_equiv_pos_site_id
 _symmetry_equiv_pos_as_xyz
  1  'x, y, z'
loop_
 _atom_site_type_symbol
 _atom_site_label
 _atom_site_symmetry_multiplicity
 _atom_site_fract_x
 _atom_site_fract_y
 _atom_site_fract_z
 _atom_site_occupancy
  Ca  Ca0  1  0.750000  0.871877  0.249976  1
  Ca  Ca1  1  0.250000  0.128102  0.750018  1
  Ti  Ti2  1  0.249998  0.398330  0.096639  1
  Ti  Ti3  1  0.749999  0.601617  0.903360  1
  Ti  Ti4  1  0.749999  0.601509  0.596625  1
  Ti  Ti5  1  0.250000  0.398468  0.403377  1
  S  S6  1  0.750000  0.461491  0.750018  1
  S  S7  1  0.250000  0.538498  0.249976  1
  S  S8  1  0.749997  0.574267  0.074842  1
  S  S9  1  0.250000  0.425720  0.925162  1
  S  S10  1  0.750000  0.574408  0.425158  1
  S  S11  1  0.249999  0.425607  0.574839  1
  S  S12  1  0.250001  0.048759  0.373929  1
  S  S13  1  0.750000  0.951295  0.626087  1
  S  S14  1  0.750001  0.951353  0.873954  1
  S  S15  1  0.249999  0.048699  0.126039  1
