# generated using pymatgen
data_Mn2Nb4Zn3O16
_symmetry_space_group_name_H-M   'P 1'
_cell_length_a   5.18286617
_cell_length_b   5.94618820
_cell_length_c   10.32420224
_cell_angle_alpha   109.64569891
_cell_angle_beta   90.52469896
_cell_angle_gamma   90.00130215
_symmetry_Int_Tables_number   1
_chemical_formula_structural   Mn2Nb4Zn3O16
_chemical_formula_sum   'Mn2 Nb4 Zn3 O16'
_cell_volume   299.63909171
_cell_formula_units_Z   1
loop_
 _symmetry_equiv_pos_site_id
 _symmetry_equiv_pos_as_xyz
  1  'x, y, z'
loop_
 _atom_site_type_symbol
 _atom_site_label
 _atom_site_symmetry_multiplicity
 _atom_site_fract_x
 _atom_site_fract_y
 _atom_site_fract_z
 _atom_site_occupancy
  Mn  Mn0  1  0.750388  0.649996  0.005886  1
  Mn  Mn1  1  0.244649  0.347948  0.003019  1
  Nb  Nb2  1  0.753346  0.280934  0.226079  1
  Nb  Nb3  1  0.758522  0.039930  0.751248  1
  Nb  Nb4  1  0.262908  0.723753  0.782125  1
  Nb  Nb5  1  0.243017  0.954884  0.247498  1
  Zn  Zn6  1  0.764568  0.428297  0.544651  1
  Zn  Zn7  1  0.239377  0.569245  0.445531  1
  Zn  Zn8  1  0.271332  0.114389  0.557154  1
  O  O9  1  0.077421  0.189962  0.130042  1
  O  O10  1  0.429086  0.047146  0.867175  1
  O  O11  1  0.934404  0.809743  0.863467  1
  O  O12  1  0.583660  0.940564  0.133393  1
  O  O13  1  0.555145  0.426117  0.113830  1
  O  O14  1  0.925732  0.322482  0.894935  1
  O  O15  1  0.429798  0.566772  0.893911  1
  O  O16  1  0.067650  0.684349  0.110945  1
  O  O17  1  0.439502  0.276695  0.353866  1
  O  O18  1  0.076904  0.927624  0.652633  1
  O  O19  1  0.353328  0.832280  0.386588  1
  O  O20  1  0.141255  0.449745  0.613983  1
  O  O21  1  0.629954  0.199587  0.634258  1
  O  O22  1  0.870201  0.538835  0.382813  1
  O  O23  1  0.941404  0.087573  0.345943  1
  O  O24  1  0.571884  0.723657  0.650666  1
