# generated using pymatgen
data_MgFeAsO5
_symmetry_space_group_name_H-M   'P 1'
_cell_length_a   8.11970646
_cell_length_b   6.14053860
_cell_length_c   8.50679586
_cell_angle_alpha   89.94551438
_cell_angle_beta   90.00494739
_cell_angle_gamma   90.08112827
_symmetry_Int_Tables_number   1
_chemical_formula_structural   MgFeAsO5
_chemical_formula_sum   'Mg4 Fe4 As4 O20'
_cell_volume   424.14287135
_cell_formula_units_Z   4
loop_
 _symmetry_equiv_pos_site_id
 _symmetry_equiv_pos_as_xyz
  1  'x, y, z'
loop_
 _atom_site_type_symbol
 _atom_site_label
 _atom_site_symmetry_multiplicity
 _atom_site_fract_x
 _atom_site_fract_y
 _atom_site_fract_z
 _atom_site_occupancy
  Mg  Mg0  1  0.905683  0.640253  0.067528  1
  Mg  Mg1  1  0.594048  0.358631  0.567706  1
  Mg  Mg2  1  0.404188  0.855857  0.931851  1
  Mg  Mg3  1  0.095673  0.143498  0.431686  1
  Fe  Fe4  1  0.997831  0.490247  0.744532  1
  Fe  Fe5  1  0.502183  0.509917  0.244750  1
  Fe  Fe6  1  0.497739  0.010023  0.255085  1
  Fe  Fe7  1  0.002215  0.990181  0.755234  1
  As  As8  1  0.656946  0.270141  0.928218  1
  As  As9  1  0.843093  0.729541  0.427866  1
  As  As10  1  0.157150  0.229462  0.071567  1
  As  As11  1  0.343024  0.770764  0.571927  1
  O  O12  1  0.845796  0.234783  0.834850  1
  O  O13  1  0.654411  0.765688  0.334274  1
  O  O14  1  0.344768  0.265073  0.167227  1
  O  O15  1  0.155351  0.734952  0.667393  1
  O  O16  1  0.519410  0.337916  0.786898  1
  O  O17  1  0.980406  0.662002  0.286698  1
  O  O18  1  0.018636  0.163507  0.212540  1
  O  O19  1  0.481443  0.837527  0.712868  1
  O  O20  1  0.598216  0.034666  0.022900  1
  O  O21  1  0.901801  0.964906  0.522645  1
  O  O22  1  0.100940  0.465454  0.976186  1
  O  O23  1  0.399348  0.534887  0.476900  1
  O  O24  1  0.682533  0.477616  0.064034  1
  O  O25  1  0.817379  0.522007  0.564033  1
  O  O26  1  0.182702  0.021819  0.936008  1
  O  O27  1  0.317609  0.978617  0.436230  1
  O  O28  1  0.899153  0.746537  0.850413  1
  O  O29  1  0.600807  0.253646  0.350450  1
  O  O30  1  0.398597  0.752921  0.149896  1
  O  O31  1  0.100923  0.246961  0.649606  1
