# generated using pymatgen
data_Zn2CrWO6
_symmetry_space_group_name_H-M   'P 1'
_cell_length_a   5.54443175
_cell_length_b   5.21419145
_cell_length_c   7.66269025
_cell_angle_alpha   90.35480086
_cell_angle_beta   136.63426718
_cell_angle_gamma   117.84323567
_symmetry_Int_Tables_number   1
_chemical_formula_structural   Zn2CrWO6
_chemical_formula_sum   'Zn2 Cr1 W1 O6'
_cell_volume   110.56562915
_cell_formula_units_Z   1
loop_
 _symmetry_equiv_pos_site_id
 _symmetry_equiv_pos_as_xyz
  1  'x, y, z'
loop_
 _atom_site_type_symbol
 _atom_site_label
 _atom_site_symmetry_multiplicity
 _atom_site_fract_x
 _atom_site_fract_y
 _atom_site_fract_z
 _atom_site_occupancy
  Zn  Zn0  1  0.966895  0.467066  0.239431  1
  Zn  Zn1  1  0.109845  0.538549  0.779410  1
  Cr  Cr2  1  0.991873  0.980196  0.498085  1
  W  W3  1  0.002555  0.985951  0.000649  1
  O  O4  1  0.961812  0.091812  0.231662  1
  O  O5  1  0.010953  0.861362  0.758450  1
  O  O6  1  0.362025  0.474964  0.118731  1
  O  O7  1  0.356259  0.839922  0.618128  1
  O  O8  1  0.623554  0.112869  0.381124  1
  O  O9  1  0.611966  0.489629  0.878826  1
