# generated using pymatgen
data_CaGe2WO6
_symmetry_space_group_name_H-M   'P 1'
_cell_length_a   5.64981177
_cell_length_b   8.85345428
_cell_length_c   12.71834166
_cell_angle_alpha   90.00000000
_cell_angle_beta   104.19941406
_cell_angle_gamma   90.00000000
_symmetry_Int_Tables_number   1
_chemical_formula_structural   CaGe2WO6
_chemical_formula_sum   'Ca4 Ge8 W4 O24'
_cell_volume   616.73936742
_cell_formula_units_Z   4
loop_
 _symmetry_equiv_pos_site_id
 _symmetry_equiv_pos_as_xyz
  1  'x, y, z'
loop_
 _atom_site_type_symbol
 _atom_site_label
 _atom_site_symmetry_multiplicity
 _atom_site_fract_x
 _atom_site_fract_y
 _atom_site_fract_z
 _atom_site_occupancy
  Ca  Ca0  1  0.468187  0.417089  0.245964  1
  Ca  Ca1  1  0.031813  0.917089  0.754036  1
  Ca  Ca2  1  0.531813  0.582911  0.754036  1
  Ca  Ca3  1  0.968187  0.082911  0.245964  1
  Ge  Ge4  1  0.826651  0.371444  0.077002  1
  Ge  Ge5  1  0.673349  0.871444  0.922998  1
  Ge  Ge6  1  0.173349  0.628556  0.922998  1
  Ge  Ge7  1  0.326651  0.128556  0.077002  1
  Ge  Ge8  1  0.187282  0.345293  0.466767  1
  Ge  Ge9  1  0.312718  0.845293  0.533233  1
  Ge  Ge10  1  0.812718  0.654707  0.533233  1
  Ge  Ge11  1  0.687282  0.154707  0.466767  1
  W  W12  1  0.995227  0.661513  0.292568  1
  W  W13  1  0.504773  0.161513  0.707432  1
  W  W14  1  0.004773  0.338487  0.707432  1
  W  W15  1  0.495227  0.838487  0.292568  1
  O  O16  1  0.405011  0.250976  0.403673  1
  O  O17  1  0.094989  0.750976  0.596327  1
  O  O18  1  0.594989  0.749024  0.596327  1
  O  O19  1  0.905011  0.249024  0.403673  1
  O  O20  1  0.132428  0.275169  0.146003  1
  O  O21  1  0.367572  0.775169  0.853998  1
  O  O22  1  0.867572  0.724831  0.853998  1
  O  O23  1  0.632428  0.224831  0.146003  1
  O  O24  1  0.693703  0.972143  0.418679  1
  O  O25  1  0.806297  0.472143  0.581321  1
  O  O26  1  0.306297  0.027857  0.581321  1
  O  O27  1  0.193703  0.527857  0.418679  1
  O  O28  1  0.321026  0.004379  0.201351  1
  O  O29  1  0.178974  0.504379  0.798649  1
  O  O30  1  0.678974  0.995621  0.798649  1
  O  O31  1  0.821026  0.495621  0.201351  1
  O  O32  1  0.701432  0.341157  0.772822  1
  O  O33  1  0.798568  0.841157  0.227178  1
  O  O34  1  0.298568  0.658843  0.227178  1
  O  O35  1  0.201432  0.158843  0.772822  1
  O  O36  1  0.279645  0.337839  0.609425  1
  O  O37  1  0.220355  0.837839  0.390575  1
  O  O38  1  0.720355  0.662161  0.390575  1
  O  O39  1  0.779645  0.162161  0.609425  1
