# generated using pymatgen
data_Mg(WN)2
_symmetry_space_group_name_H-M   'P 1'
_cell_length_a   3.28881846
_cell_length_b   3.29367111
_cell_length_c   7.16217941
_cell_angle_alpha   90.00004177
_cell_angle_beta   90.00004847
_cell_angle_gamma   90.00002403
_symmetry_Int_Tables_number   1
_chemical_formula_structural   Mg(WN)2
_chemical_formula_sum   'Mg1 W2 N2'
_cell_volume   77.58277824
_cell_formula_units_Z   1
loop_
 _symmetry_equiv_pos_site_id
 _symmetry_equiv_pos_as_xyz
  1  'x, y, z'
loop_
 _atom_site_type_symbol
 _atom_site_label
 _atom_site_symmetry_multiplicity
 _atom_site_fract_x
 _atom_site_fract_y
 _atom_site_fract_z
 _atom_site_occupancy
  Mg  Mg0  1  1.000000  0.000000  0.249668  1
  W  W1  1  0.500000  0.499999  0.929043  1
  W  W2  1  0.500000  0.500000  0.570985  1
  N  N3  1  0.500000  0.000000  0.432994  1
  N  N4  1  1.000000  0.500000  0.067310  1
