# generated using pymatgen
data_Mg2MoWO6
_symmetry_space_group_name_H-M   'P 1'
_cell_length_a   5.34349900
_cell_length_b   5.42754734
_cell_length_c   7.78724583
_cell_angle_alpha   90.00000000
_cell_angle_beta   89.87170548
_cell_angle_gamma   90.00000000
_symmetry_Int_Tables_number   1
_chemical_formula_structural   Mg2MoWO6
_chemical_formula_sum   'Mg4 Mo2 W2 O12'
_cell_volume   225.84586762
_cell_formula_units_Z   2
loop_
 _symmetry_equiv_pos_site_id
 _symmetry_equiv_pos_as_xyz
  1  'x, y, z'
loop_
 _atom_site_type_symbol
 _atom_site_label
 _atom_site_symmetry_multiplicity
 _atom_site_fract_x
 _atom_site_fract_y
 _atom_site_fract_z
 _atom_site_occupancy
  Mg  Mg0  1  0.009253  0.037033  0.252357  1
  Mg  Mg1  1  0.490747  0.537034  0.247643  1
  Mg  Mg2  1  0.990748  0.962968  0.747643  1
  Mg  Mg3  1  0.509252  0.462967  0.752357  1
  Mo  Mo4  1  0.500000  0.000000  0.000000  1
  Mo  Mo5  1  0.000001  0.499999  0.500000  1
  W  W6  1  0.500000  0.000000  0.499999  1
  W  W7  1  0.000000  0.499999  0.000000  1
  O  O8  1  0.658262  0.316569  0.426562  1
  O  O9  1  0.841738  0.816570  0.073438  1
  O  O10  1  0.341737  0.683431  0.573438  1
  O  O11  1  0.158263  0.183430  0.926562  1
  O  O12  1  0.181329  0.161646  0.565736  1
  O  O13  1  0.318671  0.661645  0.934264  1
  O  O14  1  0.818672  0.838354  0.434264  1
  O  O15  1  0.681328  0.338355  0.065736  1
  O  O16  1  0.128885  0.405894  0.241318  1
  O  O17  1  0.371116  0.905895  0.258681  1
  O  O18  1  0.628885  0.094105  0.741319  1
  O  O19  1  0.871116  0.594106  0.758682  1
