# generated using pymatgen
data_Al4Si2Sn13(SbO14)2
_symmetry_space_group_name_H-M   'P 1'
_cell_length_a   5.48087527
_cell_length_b   10.08449084
_cell_length_c   14.69984810
_cell_angle_alpha   88.08711470
_cell_angle_beta   79.25571378
_cell_angle_gamma   79.68548274
_symmetry_Int_Tables_number   1
_chemical_formula_structural   Al4Si2Sn13(SbO14)2
_chemical_formula_sum   'Al4 Si2 Sn13 Sb2 O28'
_cell_volume   785.34401596
_cell_formula_units_Z   1
loop_
 _symmetry_equiv_pos_site_id
 _symmetry_equiv_pos_as_xyz
  1  'x, y, z'
loop_
 _atom_site_type_symbol
 _atom_site_label
 _atom_site_symmetry_multiplicity
 _atom_site_fract_x
 _atom_site_fract_y
 _atom_site_fract_z
 _atom_site_occupancy
  Al  Al0  1  0.017166  0.720101  0.435302  1
  Al  Al1  1  0.547533  0.279898  0.435302  1
  Al  Al2  1  0.982834  0.279898  0.564698  1
  Al  Al3  1  0.452467  0.720101  0.564698  1
  Si  Si4  1  0.279259  0.285505  0.000000  1
  Si  Si5  1  0.720741  0.714495  1.000000  1
  Sn  Sn6  1  0.915291  0.622500  0.677663  1
  Sn  Sn7  1  0.694330  0.340764  0.140624  1
  Sn  Sn8  1  0.407045  0.377500  0.677663  1
  Sn  Sn9  1  0.084709  0.377500  0.322337  1
  Sn  Sn10  1  0.305670  0.659236  0.859376  1
  Sn  Sn11  1  0.297153  0.000000  0.405696  1
  Sn  Sn12  1  0.165047  0.659236  0.140624  1
  Sn  Sn13  1  0.000000  0.000000  -0.000000  1
  Sn  Sn14  1  0.426258  1.000000  0.147485  1
  Sn  Sn15  1  0.834953  0.340764  0.859376  1
  Sn  Sn16  1  0.592955  0.622500  0.322337  1
  Sn  Sn17  1  0.573742  0.000000  0.852515  1
  Sn  Sn18  1  0.702847  1.000000  0.594304  1
  Sb  Sb19  1  0.861843  0.000000  0.276313  1
  Sb  Sb20  1  0.138157  1.000000  0.723687  1
  O  O21  1  0.680443  0.402595  0.363099  1
  O  O22  1  0.204964  0.298171  0.459228  1
  O  O23  1  0.962635  0.320043  0.000000  1
  O  O24  1  0.343151  0.120038  0.000000  1
  O  O25  1  0.795036  0.701829  0.540772  1
  O  O26  1  0.319557  0.597405  0.636901  1
  O  O27  1  0.001350  0.125195  0.626677  1
  O  O28  1  0.998650  0.874805  0.373323  1
  O  O29  1  0.656849  0.879962  1.000000  1
  O  O30  1  0.069902  0.878938  0.167305  1
  O  O31  1  0.350702  0.342172  0.093321  1
  O  O32  1  0.956458  0.597405  0.363099  1
  O  O33  1  0.371973  0.874805  0.626677  1
  O  O34  1  0.762795  0.121062  0.167305  1
  O  O35  1  0.555978  0.657828  0.093321  1
  O  O36  1  0.037365  0.679957  1.000000  1
  O  O37  1  0.237205  0.878938  0.832695  1
  O  O38  1  0.930098  0.121062  0.832695  1
  O  O39  1  0.628027  0.125195  0.373323  1
  O  O40  1  0.135143  0.100648  0.288429  1
  O  O41  1  0.864857  0.899352  0.711571  1
  O  O42  1  0.444022  0.342172  0.906679  1
  O  O43  1  0.423572  0.100648  0.711571  1
  O  O44  1  0.664192  0.298171  0.540772  1
  O  O45  1  0.649298  0.657828  0.906679  1
  O  O46  1  0.576428  0.899352  0.288429  1
  O  O47  1  0.043542  0.402595  0.636901  1
  O  O48  1  0.335808  0.701829  0.459228  1
