# generated using pymatgen
data_Ca(FeO2)2
_symmetry_space_group_name_H-M   'P 1'
_cell_length_a   6.01371537
_cell_length_b   6.01371614
_cell_length_c   6.15357398
_cell_angle_alpha   119.25096886
_cell_angle_beta   119.25097154
_cell_angle_gamma   89.99999503
_symmetry_Int_Tables_number   1
_chemical_formula_structural   Ca(FeO2)2
_chemical_formula_sum   'Ca2 Fe4 O8'
_cell_volume   160.85841549
_cell_formula_units_Z   2
loop_
 _symmetry_equiv_pos_site_id
 _symmetry_equiv_pos_as_xyz
  1  'x, y, z'
loop_
 _atom_site_type_symbol
 _atom_site_label
 _atom_site_symmetry_multiplicity
 _atom_site_fract_x
 _atom_site_fract_y
 _atom_site_fract_z
 _atom_site_occupancy
  Ca  Ca0  1  0.375000  0.625000  0.750000  1
  Ca  Ca1  1  0.625000  0.375000  0.250000  1
  Fe  Fe2  1  0.000000  0.000000  0.500000  1
  Fe  Fe3  1  0.000000  0.500000  0.000000  1
  Fe  Fe4  1  0.500000  0.000000  0.500000  1
  Fe  Fe5  1  0.000000  0.000000  0.000000  1
  O  O6  1  0.774191  0.810046  0.548383  1
  O  O7  1  0.761664  0.225809  0.951617  1
  O  O8  1  0.189954  0.225809  0.951617  1
  O  O9  1  0.225809  0.189954  0.451617  1
  O  O10  1  0.225809  0.761664  0.451617  1
  O  O11  1  0.238336  0.774191  0.048383  1
  O  O12  1  0.774191  0.238336  0.548383  1
  O  O13  1  0.810046  0.774191  0.048383  1
