# generated using pymatgen
data_CaBi6(PO5)4
_symmetry_space_group_name_H-M   'P 1'
_cell_length_a   6.98475380
_cell_length_b   7.68874634
_cell_length_c   9.29745412
_cell_angle_alpha   106.95352546
_cell_angle_beta   93.68330744
_cell_angle_gamma   112.47353342
_symmetry_Int_Tables_number   1
_chemical_formula_structural   CaBi6(PO5)4
_chemical_formula_sum   'Ca1 Bi6 P4 O20'
_cell_volume   432.53183628
_cell_formula_units_Z   1
loop_
 _symmetry_equiv_pos_site_id
 _symmetry_equiv_pos_as_xyz
  1  'x, y, z'
loop_
 _atom_site_type_symbol
 _atom_site_label
 _atom_site_symmetry_multiplicity
 _atom_site_fract_x
 _atom_site_fract_y
 _atom_site_fract_z
 _atom_site_occupancy
  Ca  Ca0  1  0.000000  0.500000  0.000000  1
  Bi  Bi1  1  0.810031  0.802618  0.323623  1
  Bi  Bi2  1  0.335934  0.632026  0.512112  1
  Bi  Bi3  1  0.432504  0.289522  0.084206  1
  Bi  Bi4  1  0.567496  0.710478  0.915794  1
  Bi  Bi5  1  0.664066  0.367974  0.487888  1
  Bi  Bi6  1  0.189969  0.197382  0.676377  1
  P  P7  1  0.340435  0.890599  0.252454  1
  P  P8  1  0.659565  0.109401  0.747546  1
  P  P9  1  0.948172  0.233066  0.238509  1
  P  P10  1  0.051828  0.766934  0.761491  1
  O  O11  1  0.447726  0.471858  0.637070  1
  O  O12  1  0.148796  -0.000109  0.833891  1
  O  O13  1  0.345034  0.814918  0.079462  1
  O  O14  1  0.225188  0.685146  0.759757  1
  O  O15  1  0.519043  0.878259  0.352821  1
  O  O16  1  0.889994  0.670292  0.853202  1
  O  O17  1  0.480957  0.121741  0.647179  1
  O  O18  1  0.052406  0.296187  0.410691  1
  O  O19  1  0.637940  0.890248  0.692772  1
  O  O20  1  0.851204  1.000109  0.166109  1
  O  O21  1  0.774812  0.314854  0.240243  1
  O  O22  1  0.947594  0.703813  0.589309  1
  O  O23  1  0.552274  0.528142  0.362930  1
  O  O24  1  0.878363  0.253087  0.729200  1
  O  O25  1  0.316667  0.409169  0.904469  1
  O  O26  1  0.654966  0.185082  0.920538  1
  O  O27  1  0.683333  0.590831  0.095531  1
  O  O28  1  0.110006  0.329708  0.146798  1
  O  O29  1  0.362060  0.109752  0.307228  1
  O  O30  1  0.121637  0.746913  0.270800  1
