# generated using pymatgen
data_ZnNiF5
_symmetry_space_group_name_H-M   'P 1'
_cell_length_a   5.12514275
_cell_length_b   7.41773991
_cell_length_c   9.63050597
_cell_angle_alpha   90.00000000
_cell_angle_beta   90.00000000
_cell_angle_gamma   110.73661589
_symmetry_Int_Tables_number   1
_chemical_formula_structural   ZnNiF5
_chemical_formula_sum   'Zn4 Ni4 F20'
_cell_volume   342.40453224
_cell_formula_units_Z   4
loop_
 _symmetry_equiv_pos_site_id
 _symmetry_equiv_pos_as_xyz
  1  'x, y, z'
loop_
 _atom_site_type_symbol
 _atom_site_label
 _atom_site_symmetry_multiplicity
 _atom_site_fract_x
 _atom_site_fract_y
 _atom_site_fract_z
 _atom_site_occupancy
  Zn  Zn0  1  0.468115  0.741415  0.014839  1
  Zn  Zn1  1  0.531885  0.758585  0.514839  1
  Zn  Zn2  1  0.531885  0.258585  0.985161  1
  Zn  Zn3  1  0.468115  0.241415  0.485161  1
  Ni  Ni4  1  0.893758  0.601926  0.750985  1
  Ni  Ni5  1  0.106242  0.898074  0.250985  1
  Ni  Ni6  1  0.106242  0.398074  0.249015  1
  Ni  Ni7  1  0.893758  0.101926  0.749015  1
  F  F8  1  0.593880  0.566632  0.881908  1
  F  F9  1  0.406120  0.933368  0.381908  1
  F  F10  1  0.406120  0.433368  0.118092  1
  F  F11  1  0.593880  0.066632  0.618092  1
  F  F12  1  0.638320  0.491028  0.608591  1
  F  F13  1  0.361680  0.008972  0.108591  1
  F  F14  1  0.361680  0.508972  0.391409  1
  F  F15  1  0.638320  0.991028  0.891409  1
  F  F16  1  0.865298  0.792205  0.397850  1
  F  F17  1  0.134702  0.707795  0.897850  1
  F  F18  1  0.134702  0.207795  0.602150  1
  F  F19  1  0.865298  0.292205  0.102150  1
  F  F20  1  0.802818  0.859086  0.131800  1
  F  F21  1  0.197182  0.640914  0.631800  1
  F  F22  1  0.197182  0.140914  0.868200  1
  F  F23  1  0.802818  0.359086  0.368200  1
  F  F24  1  0.845589  0.839721  0.682645  1
  F  F25  1  0.154411  0.660279  0.182645  1
  F  F26  1  0.154411  0.160279  0.317355  1
  F  F27  1  0.845589  0.339721  0.817355  1
