# generated using pymatgen
data_Ba2W3O7
_symmetry_space_group_name_H-M   'P 1'
_cell_length_a   4.03830006
_cell_length_b   4.03719609
_cell_length_c   12.13381633
_cell_angle_alpha   89.98271952
_cell_angle_beta   90.00046639
_cell_angle_gamma   89.98592001
_symmetry_Int_Tables_number   1
_chemical_formula_structural   Ba2W3O7
_chemical_formula_sum   'Ba2 W3 O7'
_cell_volume   197.82255768
_cell_formula_units_Z   1
loop_
 _symmetry_equiv_pos_site_id
 _symmetry_equiv_pos_as_xyz
  1  'x, y, z'
loop_
 _atom_site_type_symbol
 _atom_site_label
 _atom_site_symmetry_multiplicity
 _atom_site_fract_x
 _atom_site_fract_y
 _atom_site_fract_z
 _atom_site_occupancy
  Ba  Ba0  1  0.497102  0.501176  0.799254  1
  Ba  Ba1  1  0.498489  0.500505  0.198040  1
  W  W2  1  0.997051  0.000919  0.616928  1
  W  W3  1  0.998168  0.000047  0.382449  1
  W  W4  1  0.998123  0.001330  0.999198  1
  O  O5  1  0.999043  0.501359  0.000092  1
  O  O6  1  0.497024  0.000927  0.643943  1
  O  O7  1  0.498255  0.999885  0.354874  1
  O  O8  1  0.996962  0.500903  0.633442  1
  O  O9  1  0.998258  0.499989  0.368683  1
  O  O10  1  0.997067  0.001422  0.840285  1
  O  O11  1  0.999036  0.000989  0.158459  1
