# generated using pymatgen
data_SrCaFe(PO4)2
_symmetry_space_group_name_H-M   'P 1'
_cell_length_a   5.73033878
_cell_length_b   6.96447526
_cell_length_c   9.57771945
_cell_angle_alpha   109.34407656
_cell_angle_beta   101.49958601
_cell_angle_gamma   98.28271433
_symmetry_Int_Tables_number   1
_chemical_formula_structural   SrCaFe(PO4)2
_chemical_formula_sum   'Sr2 Ca2 Fe2 P4 O16'
_cell_volume   344.17236779
_cell_formula_units_Z   2
loop_
 _symmetry_equiv_pos_site_id
 _symmetry_equiv_pos_as_xyz
  1  'x, y, z'
loop_
 _atom_site_type_symbol
 _atom_site_label
 _atom_site_symmetry_multiplicity
 _atom_site_fract_x
 _atom_site_fract_y
 _atom_site_fract_z
 _atom_site_occupancy
  Sr  Sr0  1  0.269207  0.808199  0.059951  1
  Sr  Sr1  1  0.730793  0.191801  0.940049  1
  Ca  Ca2  1  0.009354  0.419177  0.662773  1
  Ca  Ca3  1  0.990646  0.580823  0.337227  1
  Fe  Fe4  1  0.633992  0.846896  0.557347  1
  Fe  Fe5  1  0.366008  0.153104  0.442653  1
  P  P6  1  0.386251  0.414843  0.222822  1
  P  P7  1  0.613749  0.585157  0.777178  1
  P  P8  1  0.842096  0.033977  0.298175  1
  P  P9  1  0.157904  0.966023  0.701825  1
  O  O10  1  0.849489  0.561507  0.878427  1
  O  O11  1  0.612281  0.453467  0.162778  1
  O  O12  1  0.652615  0.801726  0.763692  1
  O  O13  1  0.955941  0.096353  0.689921  1
  O  O14  1  0.387719  0.546533  0.837222  1
  O  O15  1  0.023380  0.733704  0.597766  1
  O  O16  1  0.976620  0.266296  0.402234  1
  O  O17  1  0.262959  0.997922  0.870183  1
  O  O18  1  0.347385  0.198274  0.236308  1
  O  O19  1  0.737041  0.002078  0.129817  1
  O  O20  1  0.150511  0.438493  0.121573  1
  O  O21  1  0.418518  0.586147  0.385444  1
  O  O22  1  0.581482  0.413853  0.614556  1
  O  O23  1  0.633961  0.962259  0.367029  1
  O  O24  1  0.044059  0.903647  0.310079  1
  O  O25  1  0.366039  0.037741  0.632971  1
