# generated using pymatgen
data_V3Zn(P2O7)2
_symmetry_space_group_name_H-M   'P 1'
_cell_length_a   7.44267066
_cell_length_b   7.78320808
_cell_length_c   9.53749749
_cell_angle_alpha   90.00000000
_cell_angle_beta   111.54199467
_cell_angle_gamma   90.00000000
_symmetry_Int_Tables_number   1
_chemical_formula_structural   V3Zn(P2O7)2
_chemical_formula_sum   'V6 Zn2 P8 O28'
_cell_volume   513.89484330
_cell_formula_units_Z   2
loop_
 _symmetry_equiv_pos_site_id
 _symmetry_equiv_pos_as_xyz
  1  'x, y, z'
loop_
 _atom_site_type_symbol
 _atom_site_label
 _atom_site_symmetry_multiplicity
 _atom_site_fract_x
 _atom_site_fract_y
 _atom_site_fract_z
 _atom_site_occupancy
  V  V0  1  0.189354  0.871005  0.523687  1
  V  V1  1  0.810646  0.371005  0.976313  1
  V  V2  1  0.810646  0.128995  0.476313  1
  V  V3  1  0.189354  0.628995  0.023687  1
  V  V4  1  -0.000000  0.000000  -0.000000  1
  V  V5  1  -0.000000  0.500000  0.500000  1
  Zn  Zn6  1  0.500000  0.000000  -0.000000  1
  Zn  Zn7  1  0.500000  0.500000  0.500000  1
  P  P8  1  0.592188  0.067201  0.709024  1
  P  P9  1  0.407812  0.567201  0.790976  1
  P  P10  1  0.407812  0.932799  0.290976  1
  P  P11  1  0.592188  0.432799  0.209024  1
  P  P12  1  0.862713  0.791045  0.685510  1
  P  P13  1  0.137287  0.291045  0.814490  1
  P  P14  1  0.137287  0.208955  0.314490  1
  P  P15  1  0.862713  0.708955  0.185510  1
  O  O16  1  0.800267  0.620367  0.598698  1
  O  O17  1  0.199733  0.120367  0.901302  1
  O  O18  1  0.199733  0.379633  0.401302  1
  O  O19  1  0.800267  0.879633  0.098698  1
  O  O20  1  0.281391  0.615464  0.623806  1
  O  O21  1  0.718609  0.115464  0.876194  1
  O  O22  1  0.718609  0.384536  0.376194  1
  O  O23  1  0.281391  0.884536  0.123806  1
  O  O24  1  0.618823  0.195254  0.596743  1
  O  O25  1  0.381177  0.695254  0.903257  1
  O  O26  1  0.381177  0.804746  0.403257  1
  O  O27  1  0.618823  0.304746  0.096743  1
  O  O28  1  0.666425  0.881642  0.676908  1
  O  O29  1  0.333575  0.381642  0.823092  1
  O  O30  1  0.333575  0.118358  0.323092  1
  O  O31  1  0.666425  0.618358  0.176908  1
  O  O32  1  0.389768  0.474002  0.201776  1
  O  O33  1  0.610232  0.974002  0.298224  1
  O  O34  1  0.610232  0.525998  0.798224  1
  O  O35  1  0.389768  0.025998  0.701776  1
  O  O36  1  0.018404  0.219693  0.145136  1
  O  O37  1  0.981596  0.719693  0.354864  1
  O  O38  1  0.981596  0.780307  0.854864  1
  O  O39  1  0.018404  0.280307  0.645136  1
  O  O40  1  0.959787  0.588752  0.107175  1
  O  O41  1  0.040213  0.088752  0.392825  1
  O  O42  1  0.040213  0.411248  0.892825  1
  O  O43  1  0.959787  0.911248  0.607175  1
