# generated using pymatgen
data_Sr3MgMn2S2O5
_symmetry_space_group_name_H-M   'P 1'
_cell_length_a   3.93372780
_cell_length_b   3.93372780
_cell_length_c   14.13220625
_cell_angle_alpha   98.00016955
_cell_angle_beta   98.00016955
_cell_angle_gamma   90.00000000
_symmetry_Int_Tables_number   1
_chemical_formula_structural   Sr3MgMn2S2O5
_chemical_formula_sum   'Sr3 Mg1 Mn2 S2 O5'
_cell_volume   214.40703301
_cell_formula_units_Z   1
loop_
 _symmetry_equiv_pos_site_id
 _symmetry_equiv_pos_as_xyz
  1  'x, y, z'
loop_
 _atom_site_type_symbol
 _atom_site_label
 _atom_site_symmetry_multiplicity
 _atom_site_fract_x
 _atom_site_fract_y
 _atom_site_fract_z
 _atom_site_occupancy
  Sr  Sr0  1  0.500000  0.500000  0.000000  1
  Sr  Sr1  1  0.638185  0.638185  0.276371  1
  Sr  Sr2  1  0.361815  0.361815  0.723629  1
  Mg  Mg3  1  0.750000  0.250000  0.500000  1
  Mn  Mn4  1  0.071757  0.071757  0.143515  1
  Mn  Mn5  1  0.928243  0.928243  0.856485  1
  S  S6  1  0.193919  0.193919  0.387838  1
  S  S7  1  0.806081  0.806081  0.612162  1
  O  O8  1  0.079521  0.579521  0.159041  1
  O  O9  1  0.580300  0.080300  0.160600  1
  O  O10  1  0.919700  0.419700  0.839400  1
  O  O11  1  0.420479  0.920479  0.840959  1
  O  O12  1  0.000000  0.000000  0.000000  1
