# generated using pymatgen
data_Sr2Y2Cu2O7
_symmetry_space_group_name_H-M   'P 1'
_cell_length_a   12.98177616
_cell_length_b   12.98177616
_cell_length_c   12.98177616
_cell_angle_alpha   34.38324815
_cell_angle_beta   155.81228104
_cell_angle_gamma   155.93320765
_symmetry_Int_Tables_number   1
_chemical_formula_structural   Sr2Y2Cu2O7
_chemical_formula_sum   'Sr4 Y4 Cu4 O14'
_cell_volume   365.16793195
_cell_formula_units_Z   2
loop_
 _symmetry_equiv_pos_site_id
 _symmetry_equiv_pos_as_xyz
  1  'x, y, z'
loop_
 _atom_site_type_symbol
 _atom_site_label
 _atom_site_symmetry_multiplicity
 _atom_site_fract_x
 _atom_site_fract_y
 _atom_site_fract_z
 _atom_site_occupancy
  Sr  Sr0  1  0.035411  0.882804  0.868989  1
  Sr  Sr1  1  0.013815  0.166421  0.131011  1
  Sr  Sr2  1  0.035411  0.666421  0.652606  1
  Sr  Sr3  1  0.013815  0.382804  0.347394  1
  Y  Y4  1  0.022131  0.522131  0.500000  1
  Y  Y5  1  0.022131  0.022131  -0.000000  1
  Y  Y6  1  0.530166  0.743008  0.287159  1
  Y  Y7  1  0.455849  0.243008  0.712841  1
  Cu  Cu8  1  0.525382  0.457777  0.932732  1
  Cu  Cu9  1  0.525044  0.592650  0.067268  1
  Cu  Cu10  1  0.525382  0.092650  0.567605  1
  Cu  Cu11  1  0.525044  0.957777  0.432395  1
  O  O12  1  0.016068  0.830998  0.685070  1
  O  O13  1  0.145927  0.330997  0.314930  1
  O  O14  1  0.514624  0.212667  0.187059  1
  O  O15  1  0.025609  0.327566  0.812941  1
  O  O16  1  0.514624  0.827566  0.801957  1
  O  O17  1  0.025609  0.712667  0.198043  1
  O  O18  1  0.533167  0.717679  0.692590  1
  O  O19  1  0.025090  0.840577  0.307410  1
  O  O20  1  0.533167  0.340577  0.315488  1
  O  O21  1  0.025090  0.217679  0.684512  1
  O  O22  1  0.526565  0.897284  0.298128  1
  O  O23  1  0.599155  0.228436  0.701872  1
  O  O24  1  0.526565  0.728436  0.129280  1
  O  O25  1  0.599155  0.397284  0.870720  1
