# generated using pymatgen
data_ZnWF5
_symmetry_space_group_name_H-M   'P 1'
_cell_length_a   5.34846290
_cell_length_b   8.06747446
_cell_length_c   10.51362378
_cell_angle_alpha   90.00000000
_cell_angle_beta   90.00000000
_cell_angle_gamma   109.13980844
_symmetry_Int_Tables_number   1
_chemical_formula_structural   ZnWF5
_chemical_formula_sum   'Zn4 W4 F20'
_cell_volume   428.57096362
_cell_formula_units_Z   4
loop_
 _symmetry_equiv_pos_site_id
 _symmetry_equiv_pos_as_xyz
  1  'x, y, z'
loop_
 _atom_site_type_symbol
 _atom_site_label
 _atom_site_symmetry_multiplicity
 _atom_site_fract_x
 _atom_site_fract_y
 _atom_site_fract_z
 _atom_site_occupancy
  Zn  Zn0  1  0.517826  0.778284  0.986879  1
  Zn  Zn1  1  0.482174  0.721716  0.486879  1
  Zn  Zn2  1  0.482174  0.221716  0.013121  1
  Zn  Zn3  1  0.517826  0.278284  0.513121  1
  W  W4  1  0.927066  0.621550  0.756626  1
  W  W5  1  0.072934  0.878450  0.256626  1
  W  W6  1  0.072934  0.378450  0.243374  1
  W  W7  1  0.927066  0.121550  0.743374  1
  F  F8  1  0.612427  0.596850  0.886144  1
  F  F9  1  0.387573  0.903150  0.386144  1
  F  F10  1  0.387573  0.403150  0.113856  1
  F  F11  1  0.612427  0.096850  0.613856  1
  F  F12  1  0.671627  0.511670  0.601941  1
  F  F13  1  0.328373  0.988330  0.101941  1
  F  F14  1  0.328373  0.488330  0.398059  1
  F  F15  1  0.671627  0.011670  0.898059  1
  F  F16  1  0.834742  0.778643  0.416842  1
  F  F17  1  0.165258  0.721357  0.916842  1
  F  F18  1  0.165258  0.221357  0.583158  1
  F  F19  1  0.834742  0.278643  0.083158  1
  F  F20  1  0.735531  0.831638  0.137256  1
  F  F21  1  0.264469  0.668362  0.637256  1
  F  F22  1  0.264469  0.168362  0.862744  1
  F  F23  1  0.735531  0.331638  0.362744  1
  F  F24  1  0.907723  0.864761  0.688301  1
  F  F25  1  0.092277  0.635239  0.188301  1
  F  F26  1  0.092277  0.135239  0.311699  1
  F  F27  1  0.907723  0.364761  0.811699  1
