# generated using pymatgen
data_BaTl(CoO3)2
_symmetry_space_group_name_H-M   'P 1'
_cell_length_a   3.66689691
_cell_length_b   3.66858204
_cell_length_c   23.39788027
_cell_angle_alpha   94.29287319
_cell_angle_beta   94.63121384
_cell_angle_gamma   89.85244202
_symmetry_Int_Tables_number   1
_chemical_formula_structural   BaTl(CoO3)2
_chemical_formula_sum   'Ba2 Tl2 Co4 O12'
_cell_volume   312.84584035
_cell_formula_units_Z   2
loop_
 _symmetry_equiv_pos_site_id
 _symmetry_equiv_pos_as_xyz
  1  'x, y, z'
loop_
 _atom_site_type_symbol
 _atom_site_label
 _atom_site_symmetry_multiplicity
 _atom_site_fract_x
 _atom_site_fract_y
 _atom_site_fract_z
 _atom_site_occupancy
  Ba  Ba0  1  0.154075  0.160278  0.313383  1
  Ba  Ba1  1  0.844289  0.839455  0.686355  1
  Tl  Tl2  1  0.727368  0.721188  0.447106  1
  Tl  Tl3  1  0.281619  0.272685  0.552830  1
  Co  Co4  1  0.533587  0.543577  0.076507  1
  Co  Co5  1  0.393155  0.387607  0.783412  1
  Co  Co6  1  0.606998  0.614803  0.216529  1
  Co  Co7  1  0.457670  0.466126  0.924397  1
  O  O8  1  0.385393  0.880212  0.768108  1
  O  O9  1  0.533237  0.043293  0.075937  1
  O  O10  1  0.223075  0.226993  0.460800  1
  O  O11  1  0.958226  0.466641  0.925469  1
  O  O12  1  0.763152  0.764087  0.539140  1
  O  O13  1  0.111803  0.621451  0.230430  1
  O  O14  1  0.604436  0.118101  0.223250  1
  O  O15  1  0.321810  0.316771  0.641350  1
  O  O16  1  0.890930  0.385603  0.779075  1
  O  O17  1  0.033132  0.543141  0.075741  1
  O  O18  1  0.457667  0.966111  0.924321  1
  O  O19  1  0.677020  0.681056  0.358597  1
