# generated using pymatgen
data_LaMg(FeO3)2
_symmetry_space_group_name_H-M   'P 1'
_cell_length_a   5.49575261
_cell_length_b   5.35397532
_cell_length_c   7.71288061
_cell_angle_alpha   89.97898296
_cell_angle_beta   90.00000000
_cell_angle_gamma   90.00000000
_symmetry_Int_Tables_number   1
_chemical_formula_structural   LaMg(FeO3)2
_chemical_formula_sum   'La2 Mg2 Fe4 O12'
_cell_volume   226.94473881
_cell_formula_units_Z   2
loop_
 _symmetry_equiv_pos_site_id
 _symmetry_equiv_pos_as_xyz
  1  'x, y, z'
loop_
 _atom_site_type_symbol
 _atom_site_label
 _atom_site_symmetry_multiplicity
 _atom_site_fract_x
 _atom_site_fract_y
 _atom_site_fract_z
 _atom_site_occupancy
  La  La0  1  0.032811  0.992715  0.249994  1
  La  La1  1  0.467189  0.492715  0.749994  1
  Mg  Mg2  1  0.555900  0.526506  0.250130  1
  Mg  Mg3  1  0.944100  0.026506  0.750130  1
  Fe  Fe4  1  0.500229  0.000520  0.498063  1
  Fe  Fe5  1  -0.000229  0.500520  0.998063  1
  Fe  Fe6  1  0.499964  0.000466  0.001927  1
  Fe  Fe7  1  0.000036  0.500466  0.501927  1
  O  O8  1  0.021091  0.630896  0.750092  1
  O  O9  1  0.198626  0.192474  0.941682  1
  O  O10  1  0.198780  0.192677  0.558454  1
  O  O11  1  0.301220  0.692677  0.058454  1
  O  O12  1  0.301374  0.692474  0.441682  1
  O  O13  1  0.478909  0.130896  0.250091  1
  O  O14  1  0.544789  0.924205  0.749843  1
  O  O15  1  0.732136  0.269843  0.554005  1
  O  O16  1  0.731802  0.269697  0.945810  1
  O  O17  1  0.768198  0.769697  0.445810  1
  O  O18  1  0.767864  0.769843  0.054005  1
  O  O19  1  0.955211  0.424205  0.249843  1
