# generated using pymatgen
data_Ba2Fe2CuF14
_symmetry_space_group_name_H-M   'P 1'
_cell_length_a   5.46373330
_cell_length_b   7.62106995
_cell_length_c   15.21369013
_cell_angle_alpha   91.06412343
_cell_angle_beta   89.85648925
_cell_angle_gamma   111.10604145
_symmetry_Int_Tables_number   1
_chemical_formula_structural   Ba2Fe2CuF14
_chemical_formula_sum   'Ba4 Fe4 Cu2 F28'
_cell_volume   590.88514979
_cell_formula_units_Z   2
loop_
 _symmetry_equiv_pos_site_id
 _symmetry_equiv_pos_as_xyz
  1  'x, y, z'
loop_
 _atom_site_type_symbol
 _atom_site_label
 _atom_site_symmetry_multiplicity
 _atom_site_fract_x
 _atom_site_fract_y
 _atom_site_fract_z
 _atom_site_occupancy
  Ba  Ba0  1  0.124537  0.364394  0.632353  1
  Ba  Ba1  1  0.239747  0.362266  0.127979  1
  Ba  Ba2  1  0.883102  0.640312  0.371210  1
  Ba  Ba3  1  0.761027  0.637622  0.870374  1
  Fe  Fe4  1  0.107648  0.247146  0.870398  1
  Fe  Fe5  1  0.893521  0.751894  0.130128  1
  Fe  Fe6  1  0.144723  0.248895  0.371601  1
  Fe  Fe7  1  0.855687  0.755777  0.629303  1
  Cu  Cu8  1  0.500430  0.001194  0.000418  1
  Cu  Cu9  1  0.499418  0.001481  0.500567  1
  F  F10  1  0.943979  0.004459  0.348150  1
  F  F11  1  0.896911  0.270316  0.453500  1
  F  F12  1  0.109076  0.732103  0.544984  1
  F  F13  1  0.644358  0.510370  0.584983  1
  F  F14  1  0.611532  0.120605  0.602161  1
  F  F15  1  0.498242  0.882376  0.899227  1
  F  F16  1  0.383438  0.276800  0.955021  1
  F  F17  1  0.938399  -0.001289  0.152569  1
  F  F18  1  0.369751  0.361922  0.782380  1
  F  F19  1  0.351151  0.489749  0.412535  1
  F  F20  1  0.843623  0.251934  0.794323  1
  F  F21  1  0.139649  0.494281  0.912180  1
  F  F22  1  0.406563  0.251803  0.296628  1
  F  F23  1  0.155562  0.750433  0.205133  1
  F  F24  1  0.503488  0.118888  0.102156  1
  F  F25  1  0.631467  0.637318  0.218814  1
  F  F26  1  0.159650  0.847665  0.019479  1
  F  F27  1  0.058258  0.005592  0.652903  1
  F  F28  1  0.842098  0.153855  0.981628  1
  F  F29  1  0.689619  0.850532  0.519477  1
  F  F30  1  0.620915  0.724518  0.047392  1
  F  F31  1  0.583137  0.744989  0.705780  1
  F  F32  1  0.996549  0.362744  0.283249  1
  F  F33  1  0.312760  0.154185  0.481245  1
  F  F34  1  0.390478  0.884341  0.398151  1
  F  F35  1  0.059530  0.996627  0.848947  1
  F  F36  1  0.998918  0.638643  0.716656  1
  F  F37  1  0.862421  0.509161  0.088844  1
