# generated using pymatgen
data_MnAlO3
_symmetry_space_group_name_H-M   'P 1'
_cell_length_a   4.87401429
_cell_length_b   4.95994248
_cell_length_c   8.30327849
_cell_angle_alpha   89.98858147
_cell_angle_beta   90.00935406
_cell_angle_gamma   89.99903715
_symmetry_Int_Tables_number   1
_chemical_formula_structural   MnAlO3
_chemical_formula_sum   'Mn4 Al4 O12'
_cell_volume   200.73034367
_cell_formula_units_Z   4
loop_
 _symmetry_equiv_pos_site_id
 _symmetry_equiv_pos_as_xyz
  1  'x, y, z'
loop_
 _atom_site_type_symbol
 _atom_site_label
 _atom_site_symmetry_multiplicity
 _atom_site_fract_x
 _atom_site_fract_y
 _atom_site_fract_z
 _atom_site_occupancy
  Mn  Mn0  1  0.000022  0.500091  0.500082  1
  Mn  Mn1  1  0.500056  0.000048  0.499915  1
  Mn  Mn2  1  0.499939  0.999995  0.000075  1
  Mn  Mn3  1  0.000034  0.499945  0.000164  1
  Al  Al4  1  0.983575  0.008083  0.750011  1
  Al  Al5  1  0.483567  0.491870  0.250016  1
  Al  Al6  1  0.516354  0.508093  0.750059  1
  Al  Al7  1  0.016442  0.991881  0.249991  1
  O  O8  1  0.660682  0.326692  0.414885  1
  O  O9  1  0.160563  0.173295  0.585047  1
  O  O10  1  0.839416  0.826658  0.085118  1
  O  O11  1  0.339337  0.673405  0.914911  1
  O  O12  1  0.339518  0.673386  0.585057  1
  O  O13  1  0.839429  0.826663  0.414834  1
  O  O14  1  0.160579  0.173407  0.914907  1
  O  O15  1  0.660522  0.326650  0.085165  1
  O  O16  1  0.149420  0.332856  0.249895  1
  O  O17  1  0.649372  0.167072  0.749990  1
  O  O18  1  0.350595  0.832852  0.249950  1
  O  O19  1  0.850578  0.667057  0.749927  1
