# generated using pymatgen
data_BaCa(SbO2)4
_symmetry_space_group_name_H-M   'P 1'
_cell_length_a   6.25644774
_cell_length_b   6.25644781
_cell_length_c   7.37227269
_cell_angle_alpha   90.00000000
_cell_angle_beta   90.00000000
_cell_angle_gamma   119.99999964
_symmetry_Int_Tables_number   1
_chemical_formula_structural   BaCa(SbO2)4
_chemical_formula_sum   'Ba1 Ca1 Sb4 O8'
_cell_volume   249.91232299
_cell_formula_units_Z   1
loop_
 _symmetry_equiv_pos_site_id
 _symmetry_equiv_pos_as_xyz
  1  'x, y, z'
loop_
 _atom_site_type_symbol
 _atom_site_label
 _atom_site_symmetry_multiplicity
 _atom_site_fract_x
 _atom_site_fract_y
 _atom_site_fract_z
 _atom_site_occupancy
  Ba  Ba0  1  -0.000000  -0.000000  0.000000  1
  Ca  Ca1  1  -0.000000  -0.000000  0.500000  1
  Sb  Sb2  1  0.333333  0.666667  0.727957  1
  Sb  Sb3  1  0.666667  0.333333  0.727957  1
  Sb  Sb4  1  0.333333  0.666667  0.272043  1
  Sb  Sb5  1  0.666667  0.333333  0.272043  1
  O  O6  1  0.299865  0.299865  0.719650  1
  O  O7  1  0.700135  -0.000000  0.719650  1
  O  O8  1  0.000000  0.700135  0.719650  1
  O  O9  1  0.700135  0.700135  0.280350  1
  O  O10  1  1.000000  0.299865  0.280350  1
  O  O11  1  0.299865  -0.000000  0.280350  1
  O  O12  1  0.333333  0.666667  -0.000000  1
  O  O13  1  0.666667  0.333333  -0.000000  1
