# generated using pymatgen
data_Mg2VN2
_symmetry_space_group_name_H-M   'P 1'
_cell_length_a   4.48761259
_cell_length_b   5.40822997
_cell_length_c   6.45626118
_cell_angle_alpha   60.22856758
_cell_angle_beta   69.68278289
_cell_angle_gamma   65.47442263
_symmetry_Int_Tables_number   1
_chemical_formula_structural   Mg2VN2
_chemical_formula_sum   'Mg4 V2 N4'
_cell_volume   121.74931406
_cell_formula_units_Z   2
loop_
 _symmetry_equiv_pos_site_id
 _symmetry_equiv_pos_as_xyz
  1  'x, y, z'
loop_
 _atom_site_type_symbol
 _atom_site_label
 _atom_site_symmetry_multiplicity
 _atom_site_fract_x
 _atom_site_fract_y
 _atom_site_fract_z
 _atom_site_occupancy
  Mg  Mg0  1  0.667429  0.262253  0.396894  1
  Mg  Mg1  1  0.323043  0.740499  0.607754  1
  Mg  Mg2  1  0.010249  0.724958  0.249928  1
  Mg  Mg3  1  0.980865  0.277631  0.755685  1
  V  V4  1  0.345275  0.183567  0.120861  1
  V  V5  1  0.644696  0.822231  0.882113  1
  N  N6  1  0.173953  0.253871  0.393556  1
  N  N7  1  0.818717  0.749430  0.609481  1
  N  N8  1  0.491930  0.237465  0.772190  1
  N  N9  1  0.496962  0.767376  0.230446  1
