# generated using pymatgen
data_CaFeBiO5
_symmetry_space_group_name_H-M   'P 1'
_cell_length_a   5.59840987
_cell_length_b   11.37985901
_cell_length_c   15.39691461
_cell_angle_alpha   90.00000000
_cell_angle_beta   90.00000000
_cell_angle_gamma   90.00000000
_symmetry_Int_Tables_number   1
_chemical_formula_structural   CaFeBiO5
_chemical_formula_sum   'Ca8 Fe8 Bi8 O40'
_cell_volume   980.92380355
_cell_formula_units_Z   8
loop_
 _symmetry_equiv_pos_site_id
 _symmetry_equiv_pos_as_xyz
  1  'x, y, z'
loop_
 _atom_site_type_symbol
 _atom_site_label
 _atom_site_symmetry_multiplicity
 _atom_site_fract_x
 _atom_site_fract_y
 _atom_site_fract_z
 _atom_site_occupancy
  Ca  Ca0  1  0.506313  0.359494  0.449481  1
  Ca  Ca1  1  0.006313  0.140506  0.449481  1
  Ca  Ca2  1  0.006313  0.640506  0.050519  1
  Ca  Ca3  1  0.993687  0.359494  0.949481  1
  Ca  Ca4  1  0.493687  0.140506  0.949481  1
  Ca  Ca5  1  0.993687  0.859494  0.550519  1
  Ca  Ca6  1  0.493687  0.640506  0.550519  1
  Ca  Ca7  1  0.506313  0.859494  0.050519  1
  Fe  Fe8  1  0.977199  0.402529  0.596989  1
  Fe  Fe9  1  0.522801  0.902529  0.403011  1
  Fe  Fe10  1  0.022801  0.597471  0.403011  1
  Fe  Fe11  1  0.477199  0.097471  0.596989  1
  Fe  Fe12  1  0.022801  0.097471  0.096989  1
  Fe  Fe13  1  0.977199  0.902529  0.903011  1
  Fe  Fe14  1  0.522801  0.402529  0.096989  1
  Fe  Fe15  1  0.477199  0.597471  0.903011  1
  Bi  Bi16  1  0.948967  0.845160  0.231680  1
  Bi  Bi17  1  0.051033  0.154840  0.768320  1
  Bi  Bi18  1  0.551033  0.345160  0.768320  1
  Bi  Bi19  1  0.051033  0.654840  0.731680  1
  Bi  Bi20  1  0.448967  0.154840  0.268320  1
  Bi  Bi21  1  0.448967  0.654840  0.231680  1
  Bi  Bi22  1  0.551033  0.845160  0.731680  1
  Bi  Bi23  1  0.948967  0.345160  0.268320  1
  O  O24  1  0.919097  0.321615  0.697477  1
  O  O25  1  0.310606  0.045398  0.074212  1
  O  O26  1  0.189394  0.545398  0.925788  1
  O  O27  1  0.240919  0.768771  0.150572  1
  O  O28  1  0.259081  0.268771  0.849428  1
  O  O29  1  0.919097  0.821615  0.802523  1
  O  O30  1  0.259081  0.768771  0.650572  1
  O  O31  1  0.580903  0.821615  0.302523  1
  O  O32  1  0.310606  0.545398  0.425788  1
  O  O33  1  0.080903  0.678385  0.302523  1
  O  O34  1  0.580903  0.321615  0.197477  1
  O  O35  1  0.643242  0.181926  0.524593  1
  O  O36  1  0.810606  0.954602  0.425788  1
  O  O37  1  0.759081  0.731229  0.650572  1
  O  O38  1  0.170318  0.025916  0.872731  1
  O  O39  1  0.810606  0.454602  0.074212  1
  O  O40  1  0.080903  0.178385  0.197477  1
  O  O41  1  0.740919  0.231229  0.349428  1
  O  O42  1  0.143242  0.818074  0.975407  1
  O  O43  1  0.189394  0.045398  0.574212  1
  O  O44  1  0.356758  0.818074  0.475407  1
  O  O45  1  0.829682  0.974084  0.127269  1
  O  O46  1  0.759081  0.231229  0.849428  1
  O  O47  1  0.670318  0.974084  0.627269  1
  O  O48  1  0.356758  0.318074  0.024593  1
  O  O49  1  0.143242  0.318074  0.524593  1
  O  O50  1  0.689394  0.454602  0.574212  1
  O  O51  1  0.689394  0.954602  0.925788  1
  O  O52  1  0.670318  0.474084  0.872731  1
  O  O53  1  0.856758  0.681926  0.475407  1
  O  O54  1  0.856758  0.181926  0.024593  1
  O  O55  1  0.643242  0.681926  0.975407  1
  O  O56  1  0.829682  0.474084  0.372731  1
  O  O57  1  0.740919  0.731229  0.150572  1
  O  O58  1  0.240919  0.268771  0.349428  1
  O  O59  1  0.170318  0.525916  0.627269  1
  O  O60  1  0.329682  0.525916  0.127269  1
  O  O61  1  0.419097  0.178385  0.697477  1
  O  O62  1  0.329682  0.025916  0.372731  1
  O  O63  1  0.419097  0.678385  0.802523  1
