# generated using pymatgen
data_Mg3Ni2O7
_symmetry_space_group_name_H-M   'P 1'
_cell_length_a   5.19731102
_cell_length_b   4.96731650
_cell_length_c   9.10295799
_cell_angle_alpha   105.83337616
_cell_angle_beta   90.00000000
_cell_angle_gamma   90.00000000
_symmetry_Int_Tables_number   1
_chemical_formula_structural   Mg3Ni2O7
_chemical_formula_sum   'Mg6 Ni4 O14'
_cell_volume   226.09183790
_cell_formula_units_Z   2
loop_
 _symmetry_equiv_pos_site_id
 _symmetry_equiv_pos_as_xyz
  1  'x, y, z'
loop_
 _atom_site_type_symbol
 _atom_site_label
 _atom_site_symmetry_multiplicity
 _atom_site_fract_x
 _atom_site_fract_y
 _atom_site_fract_z
 _atom_site_occupancy
  Mg  Mg0  1  0.675297  0.776634  1.000000  1
  Mg  Mg1  1  0.175297  0.223366  0.000000  1
  Mg  Mg2  1  0.828307  0.565582  0.615712  1
  Mg  Mg3  1  0.328307  0.434418  0.384288  1
  Mg  Mg4  1  0.828307  0.949869  0.384288  1
  Mg  Mg5  1  0.328307  0.050131  0.615712  1
  Ni  Ni6  1  0.749333  0.355495  0.204548  1
  Ni  Ni7  1  0.249333  0.644505  0.795452  1
  Ni  Ni8  1  0.249333  0.849052  0.204548  1
  Ni  Ni9  1  0.749333  0.150948  0.795452  1
  O  O10  1  0.707016  0.934567  0.594344  1
  O  O11  1  0.207016  0.065433  0.405656  1
  O  O12  1  0.207016  0.659776  0.594344  1
  O  O13  1  0.707016  0.340224  0.405656  1
  O  O14  1  0.040053  0.313223  0.727760  1
  O  O15  1  0.540053  0.686777  0.272240  1
  O  O16  1  0.540053  0.414538  0.727760  1
  O  O17  1  0.040053  0.585462  0.272240  1
  O  O18  1  0.942227  0.863734  0.849761  1
  O  O19  1  0.442227  0.136266  0.150239  1
  O  O20  1  0.810832  0.387874  0.000000  1
  O  O21  1  0.310832  0.612126  1.000000  1
  O  O22  1  0.942227  0.013974  0.150239  1
  O  O23  1  0.442227  0.986026  0.849761  1
