# generated using pymatgen
data_Mg2FeSbO6
_symmetry_space_group_name_H-M   'P 1'
_cell_length_a   5.21611655
_cell_length_b   5.39303044
_cell_length_c   7.64594948
_cell_angle_alpha   90.00000000
_cell_angle_beta   90.00000000
_cell_angle_gamma   90.82785312
_symmetry_Int_Tables_number   1
_chemical_formula_structural   Mg2FeSbO6
_chemical_formula_sum   'Mg4 Fe2 Sb2 O12'
_cell_volume   215.06327115
_cell_formula_units_Z   2
loop_
 _symmetry_equiv_pos_site_id
 _symmetry_equiv_pos_as_xyz
  1  'x, y, z'
loop_
 _atom_site_type_symbol
 _atom_site_label
 _atom_site_symmetry_multiplicity
 _atom_site_fract_x
 _atom_site_fract_y
 _atom_site_fract_z
 _atom_site_occupancy
  Mg  Mg0  1  0.520231  0.569972  0.750000  1
  Mg  Mg1  1  0.479769  0.430028  0.250000  1
  Mg  Mg2  1  0.011707  0.035103  0.750000  1
  Mg  Mg3  1  0.988293  0.964897  0.250000  1
  Fe  Fe4  1  0.500000  0.000000  0.500000  1
  Fe  Fe5  1  0.500000  0.000000  0.000000  1
  Sb  Sb6  1  0.000000  0.500000  0.500000  1
  Sb  Sb7  1  0.000000  0.500000  0.000000  1
  O  O8  1  0.318479  0.677193  0.430738  1
  O  O9  1  0.171759  0.188767  0.069243  1
  O  O10  1  0.681521  0.322807  0.930738  1
  O  O11  1  0.828241  0.811233  0.569243  1
  O  O12  1  0.171759  0.188767  0.430757  1
  O  O13  1  0.828241  0.811233  0.930757  1
  O  O14  1  0.860953  0.573702  0.250000  1
  O  O15  1  0.318479  0.677193  0.069262  1
  O  O16  1  0.379304  0.928979  0.750000  1
  O  O17  1  0.681521  0.322807  0.569262  1
  O  O18  1  0.139047  0.426298  0.750000  1
  O  O19  1  0.620696  0.071021  0.250000  1
