# generated using pymatgen
data_TaZn2CrO6
_symmetry_space_group_name_H-M   'P 1'
_cell_length_a   5.23859101
_cell_length_b   5.32082034
_cell_length_c   7.67265445
_cell_angle_alpha   90.00000000
_cell_angle_beta   90.00000000
_cell_angle_gamma   89.20700828
_symmetry_Int_Tables_number   1
_chemical_formula_structural   TaZn2CrO6
_chemical_formula_sum   'Ta2 Zn4 Cr2 O12'
_cell_volume   213.84403022
_cell_formula_units_Z   2
loop_
 _symmetry_equiv_pos_site_id
 _symmetry_equiv_pos_as_xyz
  1  'x, y, z'
loop_
 _atom_site_type_symbol
 _atom_site_label
 _atom_site_symmetry_multiplicity
 _atom_site_fract_x
 _atom_site_fract_y
 _atom_site_fract_z
 _atom_site_occupancy
  Ta  Ta0  1  0.000000  0.500000  0.000000  1
  Ta  Ta1  1  0.000000  0.500000  0.500000  1
  Zn  Zn2  1  0.987155  0.981409  0.250000  1
  Zn  Zn3  1  0.492390  0.452644  0.250000  1
  Zn  Zn4  1  0.507610  0.547356  0.750000  1
  Zn  Zn5  1  0.012845  0.018591  0.750000  1
  Cr  Cr6  1  0.500000  0.000000  0.000000  1
  Cr  Cr7  1  0.500000  0.000000  0.500000  1
  O  O8  1  0.827363  0.818096  0.563855  1
  O  O9  1  0.317509  0.678010  0.435482  1
  O  O10  1  0.172637  0.181904  0.436145  1
  O  O11  1  0.682491  0.321990  0.935482  1
  O  O12  1  0.122481  0.437947  0.750000  1
  O  O13  1  0.682491  0.321990  0.564518  1
  O  O14  1  0.317509  0.678010  0.064518  1
  O  O15  1  0.827363  0.818096  0.936145  1
  O  O16  1  0.616241  0.078557  0.250000  1
  O  O17  1  0.172637  0.181904  0.063855  1
  O  O18  1  0.383759  0.921443  0.750000  1
  O  O19  1  0.877519  0.562053  0.250000  1
