# generated using pymatgen
data_Ba2YTlNi2O7
_symmetry_space_group_name_H-M   'P 1'
_cell_length_a   3.88191616
_cell_length_b   3.88127749
_cell_length_c   12.94262442
_cell_angle_alpha   89.99446541
_cell_angle_beta   89.99096038
_cell_angle_gamma   90.11466369
_symmetry_Int_Tables_number   1
_chemical_formula_structural   Ba2YTlNi2O7
_chemical_formula_sum   'Ba2 Y1 Tl1 Ni2 O7'
_cell_volume   195.00345950
_cell_formula_units_Z   1
loop_
 _symmetry_equiv_pos_site_id
 _symmetry_equiv_pos_as_xyz
  1  'x, y, z'
loop_
 _atom_site_type_symbol
 _atom_site_label
 _atom_site_symmetry_multiplicity
 _atom_site_fract_x
 _atom_site_fract_y
 _atom_site_fract_z
 _atom_site_occupancy
  Ba  Ba0  1  0.499944  0.500054  0.205863  1
  Ba  Ba1  1  0.499992  0.500037  0.794295  1
  Y  Y2  1  0.500072  0.499936  0.499929  1
  Tl  Tl3  1  0.000115  0.000014  0.000153  1
  Ni  Ni4  1  0.000026  0.000033  0.373774  1
  Ni  Ni5  1  0.000037  0.999897  0.626001  1
  O  O6  1  0.999910  0.000064  0.162315  1
  O  O7  1  0.000015  0.500041  0.388359  1
  O  O8  1  0.500032  0.000048  0.388275  1
  O  O9  1  0.500063  0.999873  0.611523  1
  O  O10  1  0.499789  0.500069  0.000112  1
  O  O11  1  0.000042  0.499862  0.611415  1
  O  O12  1  0.999962  0.000074  0.837987  1
