# generated using pymatgen
data_CoF4
_symmetry_space_group_name_H-M   'P 1'
_cell_length_a   5.59643520
_cell_length_b   5.59741973
_cell_length_c   6.45926208
_cell_angle_alpha   115.92342760
_cell_angle_beta   115.71963318
_cell_angle_gamma   89.97085379
_symmetry_Int_Tables_number   1
_chemical_formula_structural   CoF4
_chemical_formula_sum   'Co2 F8'
_cell_volume   159.41887222
_cell_formula_units_Z   2
loop_
 _symmetry_equiv_pos_site_id
 _symmetry_equiv_pos_as_xyz
  1  'x, y, z'
loop_
 _atom_site_type_symbol
 _atom_site_label
 _atom_site_symmetry_multiplicity
 _atom_site_fract_x
 _atom_site_fract_y
 _atom_site_fract_z
 _atom_site_occupancy
  Co  Co0  1  0.997793  0.499099  0.998647  1
  Co  Co1  1  0.499136  0.999645  0.998855  1
  F  F2  1  0.961055  0.458567  0.233563  1
  F  F3  1  0.721588  0.227322  0.760054  1
  F  F4  1  0.035619  0.538747  0.763892  1
  F  F5  1  0.225607  0.038672  0.764128  1
  F  F6  1  0.272876  0.771864  0.237188  1
  F  F7  1  0.463913  0.272917  0.237756  1
  F  F8  1  0.770516  0.957805  0.233312  1
  F  F9  1  0.536544  0.728000  0.760073  1
