# generated using pymatgen
data_Ca2YSbO5
_symmetry_space_group_name_H-M   'P 1'
_cell_length_a   6.03482040
_cell_length_b   6.33211524
_cell_length_c   8.91233840
_cell_angle_alpha   110.86947552
_cell_angle_beta   106.83089137
_cell_angle_gamma   89.86843664
_symmetry_Int_Tables_number   1
_chemical_formula_structural   Ca2YSbO5
_chemical_formula_sum   'Ca4 Y2 Sb2 O10'
_cell_volume   302.65113877
_cell_formula_units_Z   2
loop_
 _symmetry_equiv_pos_site_id
 _symmetry_equiv_pos_as_xyz
  1  'x, y, z'
loop_
 _atom_site_type_symbol
 _atom_site_label
 _atom_site_symmetry_multiplicity
 _atom_site_fract_x
 _atom_site_fract_y
 _atom_site_fract_z
 _atom_site_occupancy
  Ca  Ca0  1  0.154538  0.626542  0.225159  1
  Ca  Ca1  1  0.406698  0.926668  0.746053  1
  Ca  Ca2  1  0.906972  0.321989  0.746592  1
  Ca  Ca3  1  0.657588  0.101722  0.225253  1
  Y  Y4  1  0.290856  0.296122  0.482055  1
  Y  Y5  1  0.789529  0.688072  0.482094  1
  Sb  Sb6  1  0.494210  0.505401  0.019070  1
  Sb  Sb7  1  0.994087  0.015242  0.017728  1
  O  O8  1  0.665567  0.380065  0.508977  1
  O  O9  1  0.164735  0.630949  0.508225  1
  O  O10  1  0.595053  0.756390  0.256488  1
  O  O11  1  0.214491  0.197075  0.664844  1
  O  O12  1  0.093593  0.004437  0.255999  1
  O  O13  1  0.715147  0.970499  0.665925  1
  O  O14  1  0.174123  0.613227  0.966631  1
  O  O15  1  0.383938  0.321058  0.137724  1
  O  O16  1  0.881899  0.318753  0.133864  1
  O  O17  1  0.675332  0.855596  0.965986  1
