# generated using pymatgen
data_CaMo3O7
_symmetry_space_group_name_H-M   'P 1'
_cell_length_a   5.79675243
_cell_length_b   11.35429783
_cell_length_c   10.50843627
_cell_angle_alpha   90.00000000
_cell_angle_beta   90.00000000
_cell_angle_gamma   90.00000000
_symmetry_Int_Tables_number   1
_chemical_formula_structural   CaMo3O7
_chemical_formula_sum   'Ca4 Mo12 O28'
_cell_volume   691.64482101
_cell_formula_units_Z   4
loop_
 _symmetry_equiv_pos_site_id
 _symmetry_equiv_pos_as_xyz
  1  'x, y, z'
loop_
 _atom_site_type_symbol
 _atom_site_label
 _atom_site_symmetry_multiplicity
 _atom_site_fract_x
 _atom_site_fract_y
 _atom_site_fract_z
 _atom_site_occupancy
  Ca  Ca0  1  0.668330  0.750000  0.920213  1
  Ca  Ca1  1  0.168330  0.250000  0.579787  1
  Ca  Ca2  1  0.331670  0.250000  0.079787  1
  Ca  Ca3  1  0.831670  0.750000  0.420213  1
  Mo  Mo4  1  0.326233  0.017463  0.317238  1
  Mo  Mo5  1  0.826233  0.982537  0.182762  1
  Mo  Mo6  1  0.673767  0.517463  0.682762  1
  Mo  Mo7  1  0.173767  0.482537  0.817238  1
  Mo  Mo8  1  0.317395  0.750000  0.213170  1
  Mo  Mo9  1  0.817395  0.250000  0.286830  1
  Mo  Mo10  1  0.682605  0.250000  0.786830  1
  Mo  Mo11  1  0.182605  0.750000  0.713170  1
  Mo  Mo12  1  0.826233  0.517463  0.182762  1
  Mo  Mo13  1  0.326233  0.482537  0.317238  1
  Mo  Mo14  1  0.173767  0.017463  0.817238  1
  Mo  Mo15  1  0.673767  0.982537  0.682762  1
  O  O16  1  0.916909  0.113380  0.725823  1
  O  O17  1  0.416909  0.886620  0.774177  1
  O  O18  1  0.083091  0.613380  0.274177  1
  O  O19  1  0.583091  0.386620  0.225823  1
  O  O20  1  0.083091  0.886620  0.274177  1
  O  O21  1  0.583091  0.113380  0.225823  1
  O  O22  1  0.916909  0.386620  0.725823  1
  O  O23  1  0.416909  0.613380  0.774177  1
  O  O24  1  0.450077  0.122418  0.729235  1
  O  O25  1  0.950077  0.877582  0.770765  1
  O  O26  1  0.549923  0.622418  0.270765  1
  O  O27  1  0.049923  0.377582  0.229235  1
  O  O28  1  0.549923  0.877582  0.270765  1
  O  O29  1  0.049923  0.122418  0.229235  1
  O  O30  1  0.450077  0.377582  0.729235  1
  O  O31  1  0.950077  0.622418  0.770765  1
  O  O32  1  0.173318  0.750000  0.539853  1
  O  O33  1  0.673318  0.250000  0.960147  1
  O  O34  1  0.826682  0.250000  0.460147  1
  O  O35  1  0.326682  0.750000  0.039853  1
  O  O36  1  0.225779  0.412039  0.968181  1
  O  O37  1  0.725779  0.587961  0.531819  1
  O  O38  1  0.774221  0.912039  0.031819  1
  O  O39  1  0.274221  0.087960  0.468181  1
  O  O40  1  0.774221  0.587961  0.031819  1
  O  O41  1  0.274221  0.412039  0.468181  1
  O  O42  1  0.225779  0.087960  0.968181  1
  O  O43  1  0.725779  0.912039  0.531819  1
