# generated using pymatgen
data_SnO2
_symmetry_space_group_name_H-M   'P 1'
_cell_length_a   5.59542711
_cell_length_b   6.46147319
_cell_length_c   10.79056160
_cell_angle_alpha   89.98874173
_cell_angle_beta   90.00829043
_cell_angle_gamma   90.00000215
_symmetry_Int_Tables_number   1
_chemical_formula_structural   SnO2
_chemical_formula_sum   'Sn8 O16'
_cell_volume   390.12953073
_cell_formula_units_Z   8
loop_
 _symmetry_equiv_pos_site_id
 _symmetry_equiv_pos_as_xyz
  1  'x, y, z'
loop_
 _atom_site_type_symbol
 _atom_site_label
 _atom_site_symmetry_multiplicity
 _atom_site_fract_x
 _atom_site_fract_y
 _atom_site_fract_z
 _atom_site_occupancy
  Sn  Sn0  1  0.500278  0.750000  0.497568  1
  Sn  Sn1  1  0.500245  0.750002  0.002448  1
  Sn  Sn2  1  0.499775  0.249992  0.502427  1
  Sn  Sn3  1  0.499736  0.250005  0.997541  1
  Sn  Sn4  1  0.000001  0.499998  0.500021  1
  Sn  Sn5  1  0.999989  0.000005  0.999995  1
  Sn  Sn6  1  0.000001  0.999997  0.500020  1
  Sn  Sn7  1  0.999990  0.500002  0.999994  1
  O  O8  1  0.834407  0.750020  0.404644  1
  O  O9  1  0.834438  0.749971  0.095380  1
  O  O10  1  0.165635  0.249973  0.595388  1
  O  O11  1  0.165544  0.250035  0.904605  1
  O  O12  1  0.167885  0.749976  0.592911  1
  O  O13  1  0.167817  0.750041  0.907111  1
  O  O14  1  0.832164  0.250018  0.407121  1
  O  O15  1  0.832167  0.249966  0.092872  1
  O  O16  1  0.666709  0.501880  0.594145  1
  O  O17  1  0.666652  0.998092  0.905838  1
  O  O18  1  0.333284  0.001951  0.405841  1
  O  O19  1  0.333323  0.498029  0.094144  1
  O  O20  1  0.333276  0.498111  0.405843  1
  O  O21  1  0.333325  0.001916  0.094149  1
  O  O22  1  0.666700  0.998039  0.594149  1
  O  O23  1  0.666657  0.501980  0.905846  1
