# generated using pymatgen
data_Ba2AlW3O7
_symmetry_space_group_name_H-M   'P 1'
_cell_length_a   3.90805548
_cell_length_b   4.15829447
_cell_length_c   12.57040852
_cell_angle_alpha   90.00002184
_cell_angle_beta   90.00001718
_cell_angle_gamma   90.00001323
_symmetry_Int_Tables_number   1
_chemical_formula_structural   Ba2AlW3O7
_chemical_formula_sum   'Ba2 Al1 W3 O7'
_cell_volume   204.27976662
_cell_formula_units_Z   1
loop_
 _symmetry_equiv_pos_site_id
 _symmetry_equiv_pos_as_xyz
  1  'x, y, z'
loop_
 _atom_site_type_symbol
 _atom_site_label
 _atom_site_symmetry_multiplicity
 _atom_site_fract_x
 _atom_site_fract_y
 _atom_site_fract_z
 _atom_site_occupancy
  Ba  Ba0  1  0.500000  0.500000  0.814010  1
  Ba  Ba1  1  0.500000  0.500000  0.185357  1
  Al  Al2  1  0.500002  0.500003  0.482100  1
  W  W3  1  1.000000  0.000000  0.627213  1
  W  W4  1  0.000000  1.000000  0.390574  1
  W  W5  1  0.000000  0.000000  0.998350  1
  O  O6  1  1.000000  0.500000  0.998969  1
  O  O7  1  0.500000  0.999998  0.665538  1
  O  O8  1  0.500000  0.999999  0.331975  1
  O  O9  1  0.999999  0.500000  0.649751  1
  O  O10  1  0.999999  0.500000  0.360344  1
  O  O11  1  0.000000  0.000000  0.845098  1
  O  O12  1  1.000000  1.000000  0.150718  1
