# generated using pymatgen
data_Ti2ZnS4
_symmetry_space_group_name_H-M   'P 1'
_cell_length_a   7.06961842
_cell_length_b   7.06286292
_cell_length_c   7.06765643
_cell_angle_alpha   89.02951585
_cell_angle_beta   120.11373534
_cell_angle_gamma   120.07153587
_symmetry_Int_Tables_number   1
_chemical_formula_structural   Ti2ZnS4
_chemical_formula_sum   'Ti4 Zn2 S8'
_cell_volume   250.88866064
_cell_formula_units_Z   2
loop_
 _symmetry_equiv_pos_site_id
 _symmetry_equiv_pos_as_xyz
  1  'x, y, z'
loop_
 _atom_site_type_symbol
 _atom_site_label
 _atom_site_symmetry_multiplicity
 _atom_site_fract_x
 _atom_site_fract_y
 _atom_site_fract_z
 _atom_site_occupancy
  Ti  Ti0  1  0.499989  0.999998  0.499995  1
  Ti  Ti1  1  0.500030  0.500016  0.500022  1
  Ti  Ti2  1  0.000008  0.499992  0.000005  1
  Ti  Ti3  1  0.999983  0.499986  0.499986  1
  Zn  Zn4  1  0.999982  0.999987  0.999981  1
  Zn  Zn5  1  0.500040  0.000019  0.000030  1
  S  S6  1  0.007484  0.749977  0.248632  1
  S  S7  1  0.495920  0.746596  0.744480  1
  S  S8  1  0.492366  0.751308  0.250018  1
  S  S9  1  0.995950  0.744447  0.746579  1
  S  S10  1  0.507649  0.248693  0.749998  1
  S  S11  1  0.504046  0.253400  0.255515  1
  S  S12  1  0.004107  0.255546  0.253452  1
  S  S13  1  0.992496  0.250000  0.751348  1
