# generated using pymatgen
data_CaMn2O4
_symmetry_space_group_name_H-M   'P 1'
_cell_length_a   6.32900259
_cell_length_b   6.27327115
_cell_length_c   18.85771117
_cell_angle_alpha   59.41436519
_cell_angle_beta   60.48389463
_cell_angle_gamma   61.13816819
_symmetry_Int_Tables_number   1
_chemical_formula_structural   CaMn2O4
_chemical_formula_sum   'Ca6 Mn12 O24'
_cell_volume   533.31871027
_cell_formula_units_Z   6
loop_
 _symmetry_equiv_pos_site_id
 _symmetry_equiv_pos_as_xyz
  1  'x, y, z'
loop_
 _atom_site_type_symbol
 _atom_site_label
 _atom_site_symmetry_multiplicity
 _atom_site_fract_x
 _atom_site_fract_y
 _atom_site_fract_z
 _atom_site_occupancy
  Ca  Ca0  1  0.140107  0.105860  0.042772  1
  Ca  Ca1  1  0.491914  0.515661  0.329548  1
  Ca  Ca2  1  0.996765  0.505363  0.165273  1
  Ca  Ca3  1  0.507728  0.486565  0.669594  1
  Ca  Ca4  1  0.000600  0.499121  0.500085  1
  Ca  Ca5  1  0.001257  0.495146  0.835822  1
  Mn  Mn6  1  0.493030  0.014232  0.162885  1
  Mn  Mn7  1  0.139553  0.108437  0.380256  1
  Mn  Mn8  1  0.497598  0.499881  0.001218  1
  Mn  Mn9  1  0.500459  0.498665  0.164268  1
  Mn  Mn10  1  0.501106  0.000244  0.499469  1
  Mn  Mn11  1  0.152760  0.098760  0.711262  1
  Mn  Mn12  1  0.500173  0.500066  0.499668  1
  Mn  Mn13  1  0.506133  0.989383  0.836513  1
  Mn  Mn14  1  0.847705  0.899236  0.289400  1
  Mn  Mn15  1  0.502733  0.497943  0.835387  1
  Mn  Mn16  1  0.859894  0.891308  0.620009  1
  Mn  Mn17  1  0.849854  0.894975  0.959225  1
  O  O18  1  0.298450  0.263288  0.080957  1
  O  O19  1  0.295001  0.242347  0.236746  1
  O  O20  1  0.318840  0.683790  0.080711  1
  O  O21  1  0.705383  0.257707  0.077300  1
  O  O22  1  0.281797  0.219346  0.427350  1
  O  O23  1  0.255425  0.803873  0.233005  1
  O  O24  1  0.296994  0.237662  0.573110  1
  O  O25  1  0.713309  0.290317  0.235829  1
  O  O26  1  0.288196  0.716916  0.426076  1
  O  O27  1  0.691173  0.771152  0.094741  1
  O  O28  1  0.717856  0.252917  0.428511  1
  O  O29  1  0.724614  0.804878  0.229615  1
  O  O30  1  0.276944  0.198044  0.768706  1
  O  O31  1  0.283048  0.748122  0.570568  1
  O  O32  1  0.712626  0.282781  0.573418  1
  O  O33  1  0.289460  0.709385  0.763260  1
  O  O34  1  0.319051  0.235877  0.898212  1
  O  O35  1  0.705139  0.761331  0.426526  1
  O  O36  1  0.750786  0.194001  0.763436  1
  O  O37  1  0.720211  0.781401  0.571739  1
  O  O38  1  0.275064  0.748886  0.926997  1
  O  O39  1  0.685707  0.299959  0.922397  1
  O  O40  1  0.701513  0.753468  0.766028  1
  O  O41  1  0.704047  0.741703  0.922111  1
