# generated using pymatgen
data_Ca2CuIrO6
_symmetry_space_group_name_H-M   'P 1'
_cell_length_a   6.48700341
_cell_length_b   6.50047745
_cell_length_c   6.50047679
_cell_angle_alpha   92.10614195
_cell_angle_beta   91.60384048
_cell_angle_gamma   91.60383331
_symmetry_Int_Tables_number   1
_chemical_formula_structural   Ca2CuIrO6
_chemical_formula_sum   'Ca4 Cu2 Ir2 O12'
_cell_volume   273.70809111
_cell_formula_units_Z   2
loop_
 _symmetry_equiv_pos_site_id
 _symmetry_equiv_pos_as_xyz
  1  'x, y, z'
loop_
 _atom_site_type_symbol
 _atom_site_label
 _atom_site_symmetry_multiplicity
 _atom_site_fract_x
 _atom_site_fract_y
 _atom_site_fract_z
 _atom_site_occupancy
  Ca  Ca0  1  0.750000  0.600687  0.399313  1
  Ca  Ca1  1  0.250000  0.405749  0.594251  1
  Ca  Ca2  1  0.624615  0.740133  0.888953  1
  Ca  Ca3  1  0.875385  0.111047  0.259867  1
  Cu  Cu4  1  0.250000  0.836383  0.163617  1
  Cu  Cu5  1  0.750000  0.186653  0.813347  1
  Ir  Ir6  1  0.012025  0.497519  0.999706  1
  Ir  Ir7  1  0.487975  0.000294  0.502481  1
  O  O8  1  0.544871  0.881446  0.210538  1
  O  O9  1  0.955129  0.789462  0.118554  1
  O  O10  1  0.463247  0.106885  0.787540  1
  O  O11  1  0.036753  0.212460  0.893115  1
  O  O12  1  0.207236  0.027183  0.386098  1
  O  O13  1  0.292764  0.613902  0.972817  1
  O  O14  1  0.782028  0.971020  0.608402  1
  O  O15  1  0.717972  0.391598  0.028980  1
  O  O16  1  0.449392  0.708645  0.573194  1
  O  O17  1  0.050608  0.426806  0.291355  1
  O  O18  1  0.571577  0.277331  0.434869  1
  O  O19  1  0.928423  0.565131  0.722669  1
