# generated using pymatgen
data_Sb2O3
_symmetry_space_group_name_H-M   'P 1'
_cell_length_a   3.35651202
_cell_length_b   6.72618415
_cell_length_c   16.64689878
_cell_angle_alpha   90.00000000
_cell_angle_beta   90.00000000
_cell_angle_gamma   104.44856947
_symmetry_Int_Tables_number   1
_chemical_formula_structural   Sb2O3
_chemical_formula_sum   'Sb8 O12'
_cell_volume   363.94228876
_cell_formula_units_Z   4
loop_
 _symmetry_equiv_pos_site_id
 _symmetry_equiv_pos_as_xyz
  1  'x, y, z'
loop_
 _atom_site_type_symbol
 _atom_site_label
 _atom_site_symmetry_multiplicity
 _atom_site_fract_x
 _atom_site_fract_y
 _atom_site_fract_z
 _atom_site_occupancy
  Sb  Sb0  1  0.872669  0.745342  0.055169  1
  Sb  Sb1  1  0.127329  0.254657  0.944831  1
  Sb  Sb2  1  0.872669  0.745342  0.444831  1
  Sb  Sb3  1  0.127329  0.254657  0.555169  1
  Sb  Sb4  1  0.405417  0.810833  0.632587  1
  Sb  Sb5  1  0.594583  0.189167  0.367414  1
  Sb  Sb6  1  0.594583  0.189167  0.132586  1
  Sb  Sb7  1  0.405417  0.810833  0.867413  1
  O  O8  1  0.499999  0.000000  0.500000  1
  O  O9  1  0.499999  0.000000  -0.000000  1
  O  O10  1  0.003285  0.006570  0.862344  1
  O  O11  1  0.996715  0.993430  0.137657  1
  O  O12  1  0.996715  0.993430  0.362343  1
  O  O13  1  0.003285  0.006570  0.637657  1
  O  O14  1  0.678216  0.356435  0.884415  1
  O  O15  1  0.321783  0.643566  0.115585  1
  O  O16  1  0.321783  0.643566  0.384415  1
  O  O17  1  0.678216  0.356435  0.615585  1
  O  O18  1  0.393020  0.786040  0.750000  1
  O  O19  1  0.606978  0.213959  0.250000  1
