# generated using pymatgen
data_Ti(GeO3)2
_symmetry_space_group_name_H-M   'P 1'
_cell_length_a   5.61186920
_cell_length_b   9.04084508
_cell_length_c   9.95123809
_cell_angle_alpha   90.00000000
_cell_angle_beta   105.08662315
_cell_angle_gamma   90.00000000
_symmetry_Int_Tables_number   1
_chemical_formula_structural   Ti(GeO3)2
_chemical_formula_sum   'Ti4 Ge8 O24'
_cell_volume   487.48470840
_cell_formula_units_Z   4
loop_
 _symmetry_equiv_pos_site_id
 _symmetry_equiv_pos_as_xyz
  1  'x, y, z'
loop_
 _atom_site_type_symbol
 _atom_site_label
 _atom_site_symmetry_multiplicity
 _atom_site_fract_x
 _atom_site_fract_y
 _atom_site_fract_z
 _atom_site_occupancy
  Ti  Ti0  1  0.988631  0.643455  0.249941  1
  Ti  Ti1  1  0.511369  0.143455  0.750059  1
  Ti  Ti2  1  0.011369  0.356545  0.750059  1
  Ti  Ti3  1  0.488631  0.856545  0.249941  1
  Ge  Ge4  1  0.845465  0.332632  0.044033  1
  Ge  Ge5  1  0.654535  0.832631  0.955967  1
  Ge  Ge6  1  0.154535  0.667369  0.955967  1
  Ge  Ge7  1  0.345465  0.167369  0.044033  1
  Ge  Ge8  1  0.181960  0.336338  0.459476  1
  Ge  Ge9  1  0.318040  0.836338  0.540524  1
  Ge  Ge10  1  0.818040  0.663662  0.540524  1
  Ge  Ge11  1  0.681960  0.163662  0.459476  1
  O  O12  1  0.401359  0.252781  0.387705  1
  O  O13  1  0.098641  0.752781  0.612295  1
  O  O14  1  0.598641  0.747219  0.612295  1
  O  O15  1  0.901359  0.247220  0.387705  1
  O  O16  1  0.151677  0.277683  0.114428  1
  O  O17  1  0.348323  0.777683  0.885572  1
  O  O18  1  0.848323  0.722317  0.885573  1
  O  O19  1  0.651677  0.222317  0.114427  1
  O  O20  1  0.649487  0.981098  0.391314  1
  O  O21  1  0.850513  0.481098  0.608686  1
  O  O22  1  0.350513  0.018902  0.608686  1
  O  O23  1  0.149487  0.518902  0.391314  1
  O  O24  1  0.337346  0.987455  0.113255  1
  O  O25  1  0.162654  0.487455  0.886745  1
  O  O26  1  0.662654  0.012545  0.886745  1
  O  O27  1  0.837346  0.512545  0.113255  1
  O  O28  1  0.760250  0.311740  0.859233  1
  O  O29  1  0.739750  0.811740  0.140767  1
  O  O30  1  0.239750  0.688260  0.140767  1
  O  O31  1  0.260250  0.188260  0.859233  1
  O  O32  1  0.268578  0.317146  0.644524  1
  O  O33  1  0.231422  0.817146  0.355476  1
  O  O34  1  0.731422  0.682854  0.355476  1
  O  O35  1  0.768578  0.182854  0.644524  1
