# generated using pymatgen
data_Ca3Cr3(AsO4)4
_symmetry_space_group_name_H-M   'P 1'
_cell_length_a   5.22903137
_cell_length_b   9.34354740
_cell_length_c   15.56813658
_cell_angle_alpha   95.60327352
_cell_angle_beta   90.00000000
_cell_angle_gamma   90.00000000
_symmetry_Int_Tables_number   1
_chemical_formula_structural   Ca3Cr3(AsO4)4
_chemical_formula_sum   'Ca6 Cr6 As8 O32'
_cell_volume   756.98899157
_cell_formula_units_Z   2
loop_
 _symmetry_equiv_pos_site_id
 _symmetry_equiv_pos_as_xyz
  1  'x, y, z'
loop_
 _atom_site_type_symbol
 _atom_site_label
 _atom_site_symmetry_multiplicity
 _atom_site_fract_x
 _atom_site_fract_y
 _atom_site_fract_z
 _atom_site_occupancy
  Ca  Ca0  1  0.966848  0.038101  0.733859  1
  Ca  Ca1  1  0.466848  0.461899  0.766141  1
  Ca  Ca2  1  0.033152  0.961899  0.266141  1
  Ca  Ca3  1  0.533152  0.538101  0.233859  1
  Ca  Ca4  1  -0.000000  -0.000000  -0.000000  1
  Ca  Ca5  1  0.500000  0.500000  0.500000  1
  Cr  Cr6  1  0.022597  0.326837  0.119435  1
  Cr  Cr7  1  0.977403  0.673163  0.880565  1
  Cr  Cr8  1  0.522597  0.173163  0.380565  1
  Cr  Cr9  1  0.477403  0.826837  0.619435  1
  Cr  Cr10  1  0.500000  0.500000  -0.000000  1
  Cr  Cr11  1  -0.000000  -0.000000  0.500000  1
  As  As12  1  0.493195  0.882790  0.841558  1
  As  As13  1  0.007602  0.338354  0.903103  1
  As  As14  1  0.507602  0.161646  0.596897  1
  As  As15  1  0.492398  0.838354  0.403103  1
  As  As16  1  0.506805  0.117210  0.158442  1
  As  As17  1  0.992398  0.661646  0.096897  1
  As  As18  1  0.006805  0.382790  0.341558  1
  As  As19  1  0.993195  0.617210  0.658442  1
  O  O20  1  0.057377  0.573566  0.762528  1
  O  O21  1  0.559086  0.253638  0.508098  1
  O  O22  1  0.110455  0.247701  0.810855  1
  O  O23  1  0.087238  0.793822  0.650553  1
  O  O24  1  0.889545  0.752299  0.189145  1
  O  O25  1  0.442623  0.073566  0.262528  1
  O  O26  1  0.610455  0.252299  0.689145  1
  O  O27  1  0.803094  0.900719  0.396084  1
  O  O28  1  0.834452  0.503909  0.404757  1
  O  O29  1  0.942623  0.426434  0.237472  1
  O  O30  1  0.412762  0.293822  0.150553  1
  O  O31  1  0.196906  0.099281  0.603916  1
  O  O32  1  0.195034  0.495679  0.918789  1
  O  O33  1  0.165548  0.496090  0.595243  1
  O  O34  1  0.834251  0.102859  0.142338  1
  O  O35  1  0.334251  0.397141  0.357662  1
  O  O36  1  0.695034  0.004321  0.581211  1
  O  O37  1  0.389545  0.747701  0.310855  1
  O  O38  1  0.334452  0.996091  0.095243  1
  O  O39  1  0.303094  0.599281  0.103916  1
  O  O40  1  0.665749  0.602859  0.642338  1
  O  O41  1  0.165749  0.897141  0.857662  1
  O  O42  1  0.440914  0.746362  0.491902  1
  O  O43  1  0.059086  0.246362  0.991902  1
  O  O44  1  0.804966  0.504321  0.081211  1
  O  O45  1  0.557377  0.926434  0.737472  1
  O  O46  1  0.912762  0.206178  0.349447  1
  O  O47  1  0.665548  0.003909  0.904757  1
  O  O48  1  0.940914  0.753638  0.008098  1
  O  O49  1  0.696906  0.400719  0.896084  1
  O  O50  1  0.304966  0.995679  0.418789  1
  O  O51  1  0.587238  0.706178  0.849447  1
