# generated using pymatgen
data_Cu5O7
_symmetry_space_group_name_H-M   'P 1'
_cell_length_a   2.91689285
_cell_length_b   5.12667851
_cell_length_c   17.87939696
_cell_angle_alpha   90.00000000
_cell_angle_beta   90.00000000
_cell_angle_gamma   106.52787701
_symmetry_Int_Tables_number   1
_chemical_formula_structural   Cu5O7
_chemical_formula_sum   'Cu10 O14'
_cell_volume   256.32073744
_cell_formula_units_Z   2
loop_
 _symmetry_equiv_pos_site_id
 _symmetry_equiv_pos_as_xyz
  1  'x, y, z'
loop_
 _atom_site_type_symbol
 _atom_site_label
 _atom_site_symmetry_multiplicity
 _atom_site_fract_x
 _atom_site_fract_y
 _atom_site_fract_z
 _atom_site_occupancy
  Cu  Cu0  1  0.267378  0.534754  0.574611  1
  Cu  Cu1  1  0.000000  0.000000  0.500000  1
  Cu  Cu2  1  -0.000000  0.000000  0.000000  1
  Cu  Cu3  1  0.732622  0.465245  0.425389  1
  Cu  Cu4  1  0.732622  0.465245  0.074611  1
  Cu  Cu5  1  0.267378  0.534754  0.925389  1
  Cu  Cu6  1  0.468040  0.936078  0.155187  1
  Cu  Cu7  1  0.531960  0.063921  0.844814  1
  Cu  Cu8  1  0.531960  0.063921  0.655186  1
  Cu  Cu9  1  0.468040  0.936078  0.344814  1
  O  O10  1  0.641295  0.282588  0.977020  1
  O  O11  1  0.358706  0.717413  0.022980  1
  O  O12  1  0.358706  0.717413  0.477020  1
  O  O13  1  0.641295  0.282588  0.522980  1
  O  O14  1  0.158210  0.316421  0.841402  1
  O  O15  1  0.841790  0.683579  0.158598  1
  O  O16  1  0.841790  0.683579  0.341403  1
  O  O17  1  0.158210  0.316421  0.658598  1
  O  O18  1  0.917100  0.834199  0.898907  1
  O  O19  1  0.082900  0.165801  0.101093  1
  O  O20  1  0.082900  0.165801  0.398907  1
  O  O21  1  0.917100  0.834199  0.601093  1
  O  O22  1  0.453440  0.906880  0.750000  1
  O  O23  1  0.546561  0.093122  0.250000  1
