# generated using pymatgen
data_ZnCr2F12
_symmetry_space_group_name_H-M   'P 1'
_cell_length_a   5.38522316
_cell_length_b   10.74729294
_cell_length_c   5.39157931
_cell_angle_alpha   56.85624312
_cell_angle_beta   56.91036237
_cell_angle_gamma   56.92125089
_symmetry_Int_Tables_number   1
_chemical_formula_structural   ZnCr2F12
_chemical_formula_sum   'Zn1 Cr2 F12'
_cell_volume   204.84926199
_cell_formula_units_Z   1
loop_
 _symmetry_equiv_pos_site_id
 _symmetry_equiv_pos_as_xyz
  1  'x, y, z'
loop_
 _atom_site_type_symbol
 _atom_site_label
 _atom_site_symmetry_multiplicity
 _atom_site_fract_x
 _atom_site_fract_y
 _atom_site_fract_z
 _atom_site_occupancy
  Zn  Zn0  1  0.000000  0.500000  0.000000  1
  Cr  Cr1  1  0.501047  0.239892  0.511966  1
  Cr  Cr2  1  0.498953  0.760108  0.488034  1
  F  F3  1  0.160791  0.190620  0.728219  1
  F  F4  1  0.158465  0.687265  0.732773  1
  F  F5  1  0.372297  0.366750  0.159364  1
  F  F6  1  0.377080  0.863104  0.163962  1
  F  F7  1  0.732420  0.083023  0.371513  1
  F  F8  1  0.732384  0.579035  0.374472  1
  F  F9  1  0.267616  0.420965  0.625528  1
  F  F10  1  0.267580  0.916977  0.628487  1
  F  F11  1  0.622920  0.136896  0.836038  1
  F  F12  1  0.627703  0.633250  0.840636  1
  F  F13  1  0.841535  0.312735  0.267227  1
  F  F14  1  0.839209  0.809380  0.271781  1
