# generated using pymatgen
data_Sr2Cu2WO7
_symmetry_space_group_name_H-M   'P 1'
_cell_length_a   5.35602569
_cell_length_b   5.26750648
_cell_length_c   13.59119451
_cell_angle_alpha   101.30299087
_cell_angle_beta   101.22585300
_cell_angle_gamma   89.48231611
_symmetry_Int_Tables_number   1
_chemical_formula_structural   Sr2Cu2WO7
_chemical_formula_sum   'Sr4 Cu4 W2 O14'
_cell_volume   368.64672092
_cell_formula_units_Z   2
loop_
 _symmetry_equiv_pos_site_id
 _symmetry_equiv_pos_as_xyz
  1  'x, y, z'
loop_
 _atom_site_type_symbol
 _atom_site_label
 _atom_site_symmetry_multiplicity
 _atom_site_fract_x
 _atom_site_fract_y
 _atom_site_fract_z
 _atom_site_occupancy
  Sr  Sr0  1  0.345348  0.357629  0.730436  1
  Sr  Sr1  1  0.618297  0.642460  0.269149  1
  Sr  Sr2  1  0.846236  0.873600  0.731534  1
  Sr  Sr3  1  0.118428  0.127484  0.270278  1
  Cu  Cu4  1  0.918070  0.441444  0.879144  1
  Cu  Cu5  1  0.045686  0.558227  0.121386  1
  Cu  Cu6  1  0.418196  0.937578  0.879102  1
  Cu  Cu7  1  0.545593  0.062169  0.121490  1
  W  W8  1  0.305618  0.638343  0.500312  1
  W  W9  1  0.736484  0.348067  0.500246  1
  O  O10  1  0.122003  0.325389  0.500194  1
  O  O11  1  0.671881  0.723433  0.500197  1
  O  O12  1  0.154319  0.174956  0.850048  1
  O  O13  1  0.309166  0.824531  0.150050  1
  O  O14  1  0.653607  0.174894  0.850502  1
  O  O15  1  0.810250  0.824961  0.150554  1
  O  O16  1  0.651817  0.673164  0.846513  1
  O  O17  1  0.811762  0.326153  0.153651  1
  O  O18  1  0.152847  0.673160  0.846922  1
  O  O19  1  0.311420  0.326483  0.154121  1
  O  O20  1  0.300929  0.811759  0.632247  1
  O  O21  1  0.647306  0.168217  0.365885  1
  O  O22  1  0.779259  0.303177  0.634625  1
  O  O23  1  0.171185  0.679964  0.368322  1
