# generated using pymatgen
data_MgSn(GeO3)2
_symmetry_space_group_name_H-M   'P 1'
_cell_length_a   5.57936818
_cell_length_b   7.40720301
_cell_length_c   7.40720264
_cell_angle_alpha   88.31522739
_cell_angle_beta   78.33779111
_cell_angle_gamma   78.33778320
_symmetry_Int_Tables_number   1
_chemical_formula_structural   MgSn(GeO3)2
_chemical_formula_sum   'Mg2 Sn2 Ge4 O12'
_cell_volume   293.59182982
_cell_formula_units_Z   2
loop_
 _symmetry_equiv_pos_site_id
 _symmetry_equiv_pos_as_xyz
  1  'x, y, z'
loop_
 _atom_site_type_symbol
 _atom_site_label
 _atom_site_symmetry_multiplicity
 _atom_site_fract_x
 _atom_site_fract_y
 _atom_site_fract_z
 _atom_site_occupancy
  Mg  Mg0  1  0.750000  0.257943  0.742057  1
  Mg  Mg1  1  0.250000  0.742057  0.257943  1
  Sn  Sn2  1  0.750000  0.875820  0.124180  1
  Sn  Sn3  1  0.250000  0.124180  0.875820  1
  Ge  Ge4  1  0.750188  0.389407  0.205025  1
  Ge  Ge5  1  0.749812  0.794975  0.610593  1
  Ge  Ge6  1  0.249812  0.610593  0.794975  1
  Ge  Ge7  1  0.250188  0.205025  0.389407  1
  O  O8  1  0.531592  0.294725  0.375676  1
  O  O9  1  0.968408  0.624324  0.705275  1
  O  O10  1  0.468408  0.705275  0.624324  1
  O  O11  1  0.031592  0.375676  0.294725  1
  O  O12  1  0.105440  0.189398  0.622477  1
  O  O13  1  0.394560  0.377523  0.810602  1
  O  O14  1  0.894560  0.810602  0.377523  1
  O  O15  1  0.605440  0.622477  0.189398  1
  O  O16  1  0.835744  0.280549  0.989321  1
  O  O17  1  0.664256  0.010679  0.719451  1
  O  O18  1  0.164256  0.719451  0.010679  1
  O  O19  1  0.335744  0.989321  0.280549  1
