# generated using pymatgen
data_Mo(PO3)4
_symmetry_space_group_name_H-M   'P 1'
_cell_length_a   7.61492706
_cell_length_b   7.61724115
_cell_length_c   10.07701691
_cell_angle_alpha   85.27619959
_cell_angle_beta   67.88809380
_cell_angle_gamma   113.10411837
_symmetry_Int_Tables_number   1
_chemical_formula_structural   Mo(PO3)4
_chemical_formula_sum   'Mo2 P8 O24'
_cell_volume   479.59424629
_cell_formula_units_Z   2
loop_
 _symmetry_equiv_pos_site_id
 _symmetry_equiv_pos_as_xyz
  1  'x, y, z'
loop_
 _atom_site_type_symbol
 _atom_site_label
 _atom_site_symmetry_multiplicity
 _atom_site_fract_x
 _atom_site_fract_y
 _atom_site_fract_z
 _atom_site_occupancy
  Mo  Mo0  1  1.000000  0.000003  0.499998  1
  Mo  Mo1  1  0.000002  0.499998  0.000001  1
  P  P2  1  0.283628  0.262612  0.968354  1
  P  P3  1  0.730994  0.252029  0.531302  1
  P  P4  1  0.994177  0.656565  0.314926  1
  P  P5  1  0.268998  0.747971  0.468701  1
  P  P6  1  0.716379  0.737389  0.031644  1
  P  P7  1  0.471634  0.309025  0.185052  1
  P  P8  1  0.528372  0.690974  0.814945  1
  P  P9  1  0.005816  0.343434  0.685078  1
  O  O10  1  0.493593  0.468771  0.848838  1
  O  O11  1  0.953046  0.350301  0.843999  1
  O  O12  1  0.046949  0.649692  0.156005  1
  O  O13  1  0.119686  0.331255  0.061396  1
  O  O14  1  0.107483  0.819157  0.561553  1
  O  O15  1  0.182118  0.657180  0.349284  1
  O  O16  1  0.045381  0.169614  0.648672  1
  O  O17  1  0.210552  0.544502  0.578244  1
  O  O18  1  0.378015  0.211683  0.077688  1
  O  O19  1  0.497318  0.875979  0.397379  1
  O  O20  1  0.506415  0.531228  0.151158  1
  O  O21  1  0.305578  0.202512  0.343796  1
  O  O22  1  0.318124  0.694063  0.851148  1
  O  O23  1  0.773362  0.894422  0.102926  1
  O  O24  1  0.226639  0.105579  0.897073  1
  O  O25  1  0.892513  0.180848  0.438446  1
  O  O26  1  0.694423  0.797490  0.656199  1
  O  O27  1  0.880323  0.668747  0.938606  1
  O  O28  1  0.502675  0.124018  0.602621  1
  O  O29  1  0.621999  0.788317  0.922305  1
  O  O30  1  0.789436  0.455502  0.421764  1
  O  O31  1  0.954621  0.830390  0.351324  1
  O  O32  1  0.817872  0.342813  0.650722  1
  O  O33  1  0.681880  0.305934  0.148852  1
