# generated using pymatgen
data_CaTiP2O7
_symmetry_space_group_name_H-M   'P 1'
_cell_length_a   7.42697501
_cell_length_b   8.87145822
_cell_length_c   9.00522443
_cell_angle_alpha   90.00000000
_cell_angle_beta   110.53823492
_cell_angle_gamma   90.00000000
_symmetry_Int_Tables_number   1
_chemical_formula_structural   CaTiP2O7
_chemical_formula_sum   'Ca4 Ti4 P8 O28'
_cell_volume   555.62358595
_cell_formula_units_Z   4
loop_
 _symmetry_equiv_pos_site_id
 _symmetry_equiv_pos_as_xyz
  1  'x, y, z'
loop_
 _atom_site_type_symbol
 _atom_site_label
 _atom_site_symmetry_multiplicity
 _atom_site_fract_x
 _atom_site_fract_y
 _atom_site_fract_z
 _atom_site_occupancy
  Ca  Ca0  1  0.142029  0.946113  0.857903  1
  Ca  Ca1  1  0.357971  0.446113  0.642097  1
  Ca  Ca2  1  0.642029  0.553887  0.357903  1
  Ca  Ca3  1  0.857971  0.053887  0.142097  1
  Ti  Ti4  1  0.388644  0.069463  0.602623  1
  Ti  Ti5  1  0.611356  0.930537  0.397377  1
  Ti  Ti6  1  0.111356  0.569463  0.897377  1
  Ti  Ti7  1  0.888644  0.430537  0.102623  1
  P  P8  1  0.189578  0.729563  0.246971  1
  P  P9  1  0.434390  0.241760  0.963015  1
  P  P10  1  0.689578  0.770437  0.746971  1
  P  P11  1  0.934390  0.258240  0.463015  1
  P  P12  1  0.310422  0.229563  0.253029  1
  P  P13  1  0.065610  0.741760  0.536985  1
  P  P14  1  0.565610  0.758240  0.036985  1
  P  P15  1  0.810422  0.270437  0.753029  1
  O  O16  1  0.359382  0.176360  0.098718  1
  O  O17  1  0.583628  0.627725  0.674527  1
  O  O18  1  0.083628  0.872275  0.174527  1
  O  O19  1  0.328334  0.388452  0.895060  1
  O  O20  1  0.640618  0.823640  0.901282  1
  O  O21  1  0.377104  0.090845  0.362797  1
  O  O22  1  0.671666  0.611549  0.104940  1
  O  O23  1  0.379406  0.109395  0.844382  1
  O  O24  1  0.152680  0.239424  0.540383  1
  O  O25  1  0.622896  0.909155  0.637203  1
  O  O26  1  0.877104  0.409155  0.862797  1
  O  O27  1  0.909825  0.757325  0.811866  1
  O  O28  1  0.590175  0.257325  0.688134  1
  O  O29  1  0.859382  0.323640  0.598718  1
  O  O30  1  0.122896  0.590845  0.137203  1
  O  O31  1  0.916372  0.127725  0.825473  1
  O  O32  1  0.090175  0.242675  0.188134  1
  O  O33  1  0.620594  0.890605  0.155618  1
  O  O34  1  0.652680  0.260576  0.040383  1
  O  O35  1  0.347320  0.739424  0.959617  1
  O  O36  1  0.171666  0.888451  0.604940  1
  O  O37  1  0.879406  0.390605  0.344382  1
  O  O38  1  0.120594  0.609395  0.655618  1
  O  O39  1  0.416372  0.372275  0.325473  1
  O  O40  1  0.409825  0.742675  0.311866  1
  O  O41  1  0.828334  0.111548  0.395060  1
  O  O42  1  0.847320  0.760576  0.459617  1
  O  O43  1  0.140618  0.676360  0.401282  1
