# generated using pymatgen
data_BaAlSn4O7
_symmetry_space_group_name_H-M   'P 1'
_cell_length_a   6.10688876
_cell_length_b   6.10688869
_cell_length_c   14.18577320
_cell_angle_alpha   90.00000000
_cell_angle_beta   90.00000000
_cell_angle_gamma   120.00000040
_symmetry_Int_Tables_number   1
_chemical_formula_structural   BaAlSn4O7
_chemical_formula_sum   'Ba2 Al2 Sn8 O14'
_cell_volume   458.16684159
_cell_formula_units_Z   2
loop_
 _symmetry_equiv_pos_site_id
 _symmetry_equiv_pos_as_xyz
  1  'x, y, z'
loop_
 _atom_site_type_symbol
 _atom_site_label
 _atom_site_symmetry_multiplicity
 _atom_site_fract_x
 _atom_site_fract_y
 _atom_site_fract_z
 _atom_site_occupancy
  Ba  Ba0  1  0.666667  0.333333  0.449992  1
  Ba  Ba1  1  0.333333  0.666667  0.949992  1
  Al  Al2  1  0.666667  0.333333  0.874051  1
  Al  Al3  1  0.333333  0.666667  0.374051  1
  Sn  Sn4  1  0.829331  0.170670  0.204032  1
  Sn  Sn5  1  0.658659  0.829330  0.704033  1
  Sn  Sn6  1  0.170670  0.341340  0.704033  1
  Sn  Sn7  1  0.829331  0.658659  0.204032  1
  Sn  Sn8  1  0.341340  0.170670  0.204032  1
  Sn  Sn9  1  0.170670  0.829330  0.704033  1
  Sn  Sn10  1  0.000000  0.000000  0.438132  1
  Sn  Sn11  1  0.000000  0.000000  0.938132  1
  O  O12  1  0.815655  0.184346  0.958508  1
  O  O13  1  0.631308  0.815654  0.458507  1
  O  O14  1  0.184345  0.368691  0.458507  1
  O  O15  1  0.815656  0.631309  0.958508  1
  O  O16  1  0.368691  0.184346  0.958508  1
  O  O17  1  0.184345  0.815654  0.458507  1
  O  O18  1  0.000000  0.000000  0.795053  1
  O  O19  1  0.000000  0.000000  0.295054  1
  O  O20  1  0.493864  0.506138  0.296383  1
  O  O21  1  0.987724  0.493864  0.796383  1
  O  O22  1  0.506137  0.012276  0.796383  1
  O  O23  1  0.493864  0.987724  0.296383  1
  O  O24  1  0.506138  0.493864  0.796383  1
  O  O25  1  0.012276  0.506138  0.296383  1
