# generated using pymatgen
data_Mg2Co2O5
_symmetry_space_group_name_H-M   'P 1'
_cell_length_a   3.51367166
_cell_length_b   5.07844911
_cell_length_c   10.70967003
_cell_angle_alpha   90.00276746
_cell_angle_beta   89.98747190
_cell_angle_gamma   89.99582109
_symmetry_Int_Tables_number   1
_chemical_formula_structural   Mg2Co2O5
_chemical_formula_sum   'Mg4 Co4 O10'
_cell_volume   191.10337617
_cell_formula_units_Z   2
loop_
 _symmetry_equiv_pos_site_id
 _symmetry_equiv_pos_as_xyz
  1  'x, y, z'
loop_
 _atom_site_type_symbol
 _atom_site_label
 _atom_site_symmetry_multiplicity
 _atom_site_fract_x
 _atom_site_fract_y
 _atom_site_fract_z
 _atom_site_occupancy
  Mg  Mg0  1  0.500005  0.234805  0.903957  1
  Mg  Mg1  1  0.500008  0.764382  0.096003  1
  Mg  Mg2  1  0.499993  0.735632  0.596046  1
  Mg  Mg3  1  0.499980  0.265252  0.404003  1
  Co  Co4  1  0.000425  0.219159  0.637096  1
  Co  Co5  1  -0.000363  0.781037  0.362841  1
  Co  Co6  1  0.000407  0.280886  0.137060  1
  Co  Co7  1  0.000050  0.719048  0.862816  1
  O  O8  1  0.999995  0.499878  0.500168  1
  O  O9  1  0.999986  0.151101  0.306993  1
  O  O10  1  0.000001  0.650610  0.193130  1
  O  O11  1  0.999995  0.348602  0.807178  1
  O  O12  1  0.499628  0.327770  0.091232  1
  O  O13  1  0.499963  0.673937  0.908188  1
  O  O14  1  -0.000010  0.849007  0.692966  1
  O  O15  1  0.499586  0.172673  0.591438  1
  O  O16  1  0.000053  0.999643  0.000499  1
  O  O17  1  0.500307  0.826577  0.408386  1
