# generated using pymatgen
data_ZnWF5
_symmetry_space_group_name_H-M   'P 1'
_cell_length_a   5.58122186
_cell_length_b   5.58122139
_cell_length_c   7.91080220
_cell_angle_alpha   99.01546322
_cell_angle_beta   110.83462109
_cell_angle_gamma   105.88841414
_symmetry_Int_Tables_number   1
_chemical_formula_structural   ZnWF5
_chemical_formula_sum   'Zn2 W2 F10'
_cell_volume   212.47775349
_cell_formula_units_Z   2
loop_
 _symmetry_equiv_pos_site_id
 _symmetry_equiv_pos_as_xyz
  1  'x, y, z'
loop_
 _atom_site_type_symbol
 _atom_site_label
 _atom_site_symmetry_multiplicity
 _atom_site_fract_x
 _atom_site_fract_y
 _atom_site_fract_z
 _atom_site_occupancy
  Zn  Zn0  1  0.253142  0.503142  0.750000  1
  Zn  Zn1  1  0.746858  0.496858  0.250000  1
  W  W2  1  0.000000  0.000000  0.000000  1
  W  W3  1  0.500000  0.000000  0.500000  1
  F  F4  1  0.373204  0.123204  0.250000  1
  F  F5  1  0.626796  0.876796  0.750000  1
  F  F6  1  0.583349  0.698278  0.361899  1
  F  F7  1  0.836378  0.221450  0.138101  1
  F  F8  1  0.755233  0.681051  0.048659  1
  F  F9  1  0.132391  0.706573  0.451341  1
  F  F10  1  0.244767  0.318949  0.951341  1
  F  F11  1  0.867609  0.293427  0.548659  1
  F  F12  1  0.163622  0.778550  0.861899  1
  F  F13  1  0.416651  0.301722  0.638101  1
