# generated using pymatgen
data_Sr2AlCoCu2O7
_symmetry_space_group_name_H-M   'P 1'
_cell_length_a   5.32656325
_cell_length_b   5.39079661
_cell_length_c   12.07124544
_cell_angle_alpha   102.92915826
_cell_angle_beta   102.68669388
_cell_angle_gamma   90.05619210
_symmetry_Int_Tables_number   1
_chemical_formula_structural   Sr2AlCoCu2O7
_chemical_formula_sum   'Sr4 Al2 Co2 Cu4 O14'
_cell_volume   329.12500512
_cell_formula_units_Z   2
loop_
 _symmetry_equiv_pos_site_id
 _symmetry_equiv_pos_as_xyz
  1  'x, y, z'
loop_
 _atom_site_type_symbol
 _atom_site_label
 _atom_site_symmetry_multiplicity
 _atom_site_fract_x
 _atom_site_fract_y
 _atom_site_fract_z
 _atom_site_occupancy
  Sr  Sr0  1  0.339118  0.337261  0.699659  1
  Sr  Sr1  1  0.640528  0.661374  0.301804  1
  Sr  Sr2  1  0.838438  0.861134  0.699815  1
  Sr  Sr3  1  0.140792  0.137305  0.301826  1
  Al  Al4  1  0.983685  0.999333  0.000670  1
  Al  Al5  1  0.484108  0.498355  0.000522  1
  Co  Co6  1  0.273504  0.685122  0.500571  1
  Co  Co7  1  0.773674  0.312751  0.500734  1
  Cu  Cu8  1  0.923630  0.441880  0.882608  1
  Cu  Cu9  1  0.041787  0.557365  0.118816  1
  Cu  Cu10  1  0.423389  0.939509  0.882712  1
  Cu  Cu11  1  0.541963  0.059321  0.119175  1
  O  O12  1  0.136412  0.352167  0.500749  1
  O  O13  1  0.636151  0.645237  0.500700  1
  O  O14  1  0.249596  0.267069  0.892146  1
  O  O15  1  0.358207  0.731748  0.108357  1
  O  O16  1  0.749642  0.124316  0.893402  1
  O  O17  1  0.857995  0.875728  0.108954  1
  O  O18  1  0.603692  0.621167  0.890496  1
  O  O19  1  0.713670  0.377984  0.111392  1
  O  O20  1  0.103576  0.768899  0.890120  1
  O  O21  1  0.214566  0.230769  0.110956  1
  O  O22  1  0.295958  0.851994  0.653328  1
  O  O23  1  0.645709  0.146585  0.347563  1
  O  O24  1  0.795636  0.301075  0.653878  1
  O  O25  1  0.145534  0.697452  0.347301  1
