# generated using pymatgen
data_MgBiMoO5
_symmetry_space_group_name_H-M   'P 1'
_cell_length_a   5.25538094
_cell_length_b   10.48941342
_cell_length_c   16.09384174
_cell_angle_alpha   90.00000000
_cell_angle_beta   90.00000000
_cell_angle_gamma   90.00000000
_symmetry_Int_Tables_number   1
_chemical_formula_structural   MgBiMoO5
_chemical_formula_sum   'Mg8 Bi8 Mo8 O40'
_cell_volume   887.18692068
_cell_formula_units_Z   8
loop_
 _symmetry_equiv_pos_site_id
 _symmetry_equiv_pos_as_xyz
  1  'x, y, z'
loop_
 _atom_site_type_symbol
 _atom_site_label
 _atom_site_symmetry_multiplicity
 _atom_site_fract_x
 _atom_site_fract_y
 _atom_site_fract_z
 _atom_site_occupancy
  Mg  Mg0  1  0.527538  0.368442  0.443108  1
  Mg  Mg1  1  0.027538  0.131558  0.443108  1
  Mg  Mg2  1  0.027538  0.631558  0.056892  1
  Mg  Mg3  1  0.972462  0.368442  0.943108  1
  Mg  Mg4  1  0.472462  0.131558  0.943108  1
  Mg  Mg5  1  0.972462  0.868442  0.556892  1
  Mg  Mg6  1  0.472462  0.631558  0.556892  1
  Mg  Mg7  1  0.527538  0.868442  0.056892  1
  Bi  Bi8  1  0.978095  0.858625  0.222419  1
  Bi  Bi9  1  0.021905  0.141375  0.777581  1
  Bi  Bi10  1  0.521905  0.358625  0.777581  1
  Bi  Bi11  1  0.021905  0.641375  0.722419  1
  Bi  Bi12  1  0.478095  0.141375  0.277581  1
  Bi  Bi13  1  0.478095  0.641375  0.222419  1
  Bi  Bi14  1  0.521905  0.858625  0.722419  1
  Bi  Bi15  1  0.978095  0.358625  0.277581  1
  Mo  Mo16  1  0.991867  0.377655  0.583724  1
  Mo  Mo17  1  0.508133  0.877655  0.416276  1
  Mo  Mo18  1  0.008133  0.622345  0.416276  1
  Mo  Mo19  1  0.491867  0.122345  0.583724  1
  Mo  Mo20  1  0.008133  0.122345  0.083724  1
  Mo  Mo21  1  0.991867  0.877655  0.916276  1
  Mo  Mo22  1  0.508133  0.377655  0.083724  1
  Mo  Mo23  1  0.491867  0.622345  0.916276  1
  O  O24  1  0.914824  0.327737  0.695311  1
  O  O25  1  0.280832  0.029251  0.047131  1
  O  O26  1  0.219168  0.529251  0.952869  1
  O  O27  1  0.293594  0.783391  0.146157  1
  O  O28  1  0.206406  0.283391  0.853843  1
  O  O29  1  0.914824  0.827737  0.804689  1
  O  O30  1  0.206406  0.783391  0.646157  1
  O  O31  1  0.585176  0.827737  0.304689  1
  O  O32  1  0.280832  0.529251  0.452869  1
  O  O33  1  0.085176  0.672263  0.304689  1
  O  O34  1  0.585176  0.327737  0.195311  1
  O  O35  1  0.750758  0.219396  0.529531  1
  O  O36  1  0.780832  0.970749  0.452869  1
  O  O37  1  0.706406  0.716609  0.646157  1
  O  O38  1  0.202145  0.020665  0.878413  1
  O  O39  1  0.780832  0.470749  0.047131  1
  O  O40  1  0.085176  0.172263  0.195311  1
  O  O41  1  0.793594  0.216609  0.353843  1
  O  O42  1  0.250758  0.780604  0.970469  1
  O  O43  1  0.219168  0.029251  0.547131  1
  O  O44  1  0.249242  0.780604  0.470469  1
  O  O45  1  0.797855  0.979335  0.121587  1
  O  O46  1  0.706406  0.216609  0.853843  1
  O  O47  1  0.702145  0.979335  0.621587  1
  O  O48  1  0.249242  0.280604  0.029531  1
  O  O49  1  0.250758  0.280604  0.529531  1
  O  O50  1  0.719168  0.470749  0.547131  1
  O  O51  1  0.719168  0.970749  0.952869  1
  O  O52  1  0.702145  0.479335  0.878413  1
  O  O53  1  0.749242  0.719396  0.470469  1
  O  O54  1  0.749242  0.219396  0.029531  1
  O  O55  1  0.750758  0.719396  0.970469  1
  O  O56  1  0.797855  0.479335  0.378413  1
  O  O57  1  0.793594  0.716609  0.146157  1
  O  O58  1  0.293594  0.283391  0.353843  1
  O  O59  1  0.202145  0.520665  0.621587  1
  O  O60  1  0.297855  0.520665  0.121587  1
  O  O61  1  0.414824  0.172263  0.695311  1
  O  O62  1  0.297855  0.020665  0.378413  1
  O  O63  1  0.414824  0.672263  0.804689  1
