# generated using pymatgen
data_PrTi2ZnO6
_symmetry_space_group_name_H-M   'P 1'
_cell_length_a   5.38050967
_cell_length_b   5.64058872
_cell_length_c   7.71976272
_cell_angle_alpha   90.00195120
_cell_angle_beta   89.99779512
_cell_angle_gamma   89.96608096
_symmetry_Int_Tables_number   1
_chemical_formula_structural   PrTi2ZnO6
_chemical_formula_sum   'Pr2 Ti4 Zn2 O12'
_cell_volume   234.28890664
_cell_formula_units_Z   2
loop_
 _symmetry_equiv_pos_site_id
 _symmetry_equiv_pos_as_xyz
  1  'x, y, z'
loop_
 _atom_site_type_symbol
 _atom_site_label
 _atom_site_symmetry_multiplicity
 _atom_site_fract_x
 _atom_site_fract_y
 _atom_site_fract_z
 _atom_site_occupancy
  Pr  Pr0  1  0.014623  0.940085  0.749878  1
  Pr  Pr1  1  0.514508  0.559916  0.250118  1
  Ti  Ti2  1  0.004154  0.476868  0.001628  1
  Ti  Ti3  1  0.004188  0.476871  0.498309  1
  Ti  Ti4  1  0.504314  0.023117  0.501666  1
  Ti  Ti5  1  0.504278  0.023169  0.998385  1
  Zn  Zn6  1  0.506271  0.545722  0.750035  1
  Zn  Zn7  1  0.006260  0.954315  0.249984  1
  O  O8  1  0.078350  0.484012  0.249965  1
  O  O9  1  0.203180  0.207755  0.952940  1
  O  O10  1  0.203542  0.207942  0.547069  1
  O  O11  1  0.306234  0.693118  0.555150  1
  O  O12  1  0.306080  0.693072  0.944795  1
  O  O13  1  0.373379  0.977366  0.250046  1
  O  O14  1  0.578371  0.015906  0.750007  1
  O  O15  1  0.703144  0.292215  0.047075  1
  O  O16  1  0.703474  0.291913  0.452900  1
  O  O17  1  0.806075  0.806987  0.055157  1
  O  O18  1  0.806186  0.806908  0.444913  1
  O  O19  1  0.873387  0.522743  0.749979  1
