# generated using pymatgen
data_Ti3Zn2O8
_symmetry_space_group_name_H-M   'P 1'
_cell_length_a   5.96688013
_cell_length_b   5.96688012
_cell_length_c   9.55316483
_cell_angle_alpha   90.00000000
_cell_angle_beta   90.00000000
_cell_angle_gamma   119.99999998
_symmetry_Int_Tables_number   1
_chemical_formula_structural   Ti3Zn2O8
_chemical_formula_sum   'Ti6 Zn4 O16'
_cell_volume   294.55915755
_cell_formula_units_Z   2
loop_
 _symmetry_equiv_pos_site_id
 _symmetry_equiv_pos_as_xyz
  1  'x, y, z'
loop_
 _atom_site_type_symbol
 _atom_site_label
 _atom_site_symmetry_multiplicity
 _atom_site_fract_x
 _atom_site_fract_y
 _atom_site_fract_z
 _atom_site_occupancy
  Ti  Ti0  1  0.674621  0.837312  0.243455  1
  Ti  Ti1  1  0.837313  0.162689  0.743455  1
  Ti  Ti2  1  0.162689  0.325380  0.243455  1
  Ti  Ti3  1  0.837311  0.674621  0.743455  1
  Ti  Ti4  1  0.325380  0.162689  0.743455  1
  Ti  Ti5  1  0.162689  0.837312  0.243455  1
  Zn  Zn6  1  0.666667  0.333334  0.028754  1
  Zn  Zn7  1  0.333333  0.666666  0.528755  1
  Zn  Zn8  1  0.666667  0.333334  0.417709  1
  Zn  Zn9  1  0.333333  0.666666  0.917710  1
  O  O10  1  0.837051  0.162950  0.145730  1
  O  O11  1  0.674101  0.837051  0.645729  1
  O  O12  1  0.162950  0.325900  0.645729  1
  O  O13  1  0.837050  0.674101  0.145730  1
  O  O14  1  0.325899  0.162950  0.145730  1
  O  O15  1  0.162950  0.837051  0.645729  1
  O  O16  1  0.518068  0.481931  0.865591  1
  O  O17  1  0.036138  0.518068  0.365590  1
  O  O18  1  0.481932  0.963863  0.365590  1
  O  O19  1  0.518068  0.036138  0.865591  1
  O  O20  1  0.000000  0.000000  0.349845  1
  O  O21  1  0.000000  -0.000000  0.849845  1
  O  O22  1  0.333333  0.666666  0.132862  1
  O  O23  1  0.963861  0.481931  0.865591  1
  O  O24  1  0.481931  0.518068  0.365590  1
  O  O25  1  0.666667  0.333334  0.632862  1
