# generated using pymatgen
data_W3O7
_symmetry_space_group_name_H-M   'P 1'
_cell_length_a   6.36057694
_cell_length_b   11.64226434
_cell_length_c   7.71593977
_cell_angle_alpha   90.00000000
_cell_angle_beta   90.00000000
_cell_angle_gamma   90.00000000
_symmetry_Int_Tables_number   1
_chemical_formula_structural   W3O7
_chemical_formula_sum   'W12 O28'
_cell_volume   571.37705346
_cell_formula_units_Z   4
loop_
 _symmetry_equiv_pos_site_id
 _symmetry_equiv_pos_as_xyz
  1  'x, y, z'
loop_
 _atom_site_type_symbol
 _atom_site_label
 _atom_site_symmetry_multiplicity
 _atom_site_fract_x
 _atom_site_fract_y
 _atom_site_fract_z
 _atom_site_occupancy
  W  W0  1  0.249998  0.022758  0.254770  1
  W  W1  1  0.749998  0.977242  0.245230  1
  W  W2  1  0.750002  0.522758  0.745230  1
  W  W3  1  0.250002  0.477242  0.754770  1
  W  W4  1  0.250009  0.750000  0.243277  1
  W  W5  1  0.750009  0.250000  0.256723  1
  W  W6  1  0.749991  0.250000  0.756723  1
  W  W7  1  0.249991  0.750000  0.743277  1
  W  W8  1  0.749998  0.522758  0.245230  1
  W  W9  1  0.249998  0.477242  0.254770  1
  W  W10  1  0.250002  0.022758  0.754770  1
  W  W11  1  0.750002  0.977242  0.745230  1
  O  O12  1  0.958038  0.113611  0.754026  1
  O  O13  1  0.458038  0.886389  0.745974  1
  O  O14  1  0.041962  0.613611  0.245974  1
  O  O15  1  0.541962  0.386389  0.254026  1
  O  O16  1  0.041962  0.886389  0.245974  1
  O  O17  1  0.541962  0.113611  0.254026  1
  O  O18  1  0.958038  0.386389  0.754026  1
  O  O19  1  0.458038  0.613611  0.745974  1
  O  O20  1  0.541939  0.113634  0.751948  1
  O  O21  1  0.041939  0.886366  0.748052  1
  O  O22  1  0.458061  0.613634  0.248052  1
  O  O23  1  0.958061  0.386366  0.251948  1
  O  O24  1  0.458061  0.886366  0.248052  1
  O  O25  1  0.958061  0.113634  0.251948  1
  O  O26  1  0.541939  0.386366  0.751948  1
  O  O27  1  0.041939  0.613634  0.748052  1
  O  O28  1  0.247999  0.750000  0.495000  1
  O  O29  1  0.747999  0.250000  0.005000  1
  O  O30  1  0.752001  0.250000  0.505000  1
  O  O31  1  0.252001  0.750000  0.995000  1
  O  O32  1  0.251373  0.462369  0.003276  1
  O  O33  1  0.751373  0.537631  0.496724  1
  O  O34  1  0.748627  0.962369  0.996724  1
  O  O35  1  0.248627  0.037631  0.503276  1
  O  O36  1  0.748627  0.537631  0.996724  1
  O  O37  1  0.248627  0.462369  0.503276  1
  O  O38  1  0.251373  0.037631  0.003276  1
  O  O39  1  0.751373  0.962369  0.496724  1
