# generated using pymatgen
data_Ca2SbMoO6
_symmetry_space_group_name_H-M   'P 1'
_cell_length_a   5.55375170
_cell_length_b   5.75111277
_cell_length_c   8.03673977
_cell_angle_alpha   90.00000000
_cell_angle_beta   90.00000000
_cell_angle_gamma   89.90183601
_symmetry_Int_Tables_number   1
_chemical_formula_structural   Ca2SbMoO6
_chemical_formula_sum   'Ca4 Sb2 Mo2 O12'
_cell_volume   256.69511941
_cell_formula_units_Z   2
loop_
 _symmetry_equiv_pos_site_id
 _symmetry_equiv_pos_as_xyz
  1  'x, y, z'
loop_
 _atom_site_type_symbol
 _atom_site_label
 _atom_site_symmetry_multiplicity
 _atom_site_fract_x
 _atom_site_fract_y
 _atom_site_fract_z
 _atom_site_occupancy
  Ca  Ca0  1  0.514978  0.566358  0.750000  1
  Ca  Ca1  1  0.485022  0.433642  0.250000  1
  Ca  Ca2  1  0.993286  0.047692  0.750000  1
  Ca  Ca3  1  0.006714  0.952308  0.250000  1
  Sb  Sb4  1  0.000000  0.500000  0.500000  1
  Sb  Sb5  1  0.000000  0.500000  0.000000  1
  Mo  Mo6  1  0.500000  0.000000  0.500000  1
  Mo  Mo7  1  0.500000  0.000000  0.000000  1
  O  O8  1  0.294637  0.683921  0.446760  1
  O  O9  1  0.180830  0.209167  0.054579  1
  O  O10  1  0.705363  0.316079  0.946760  1
  O  O11  1  0.819170  0.790833  0.554579  1
  O  O12  1  0.180830  0.209167  0.445421  1
  O  O13  1  0.819170  0.790833  0.945421  1
  O  O14  1  0.895544  0.539543  0.250000  1
  O  O15  1  0.294637  0.683921  0.053240  1
  O  O16  1  0.390451  0.955614  0.750000  1
  O  O17  1  0.705363  0.316079  0.553240  1
  O  O18  1  0.104456  0.460457  0.750000  1
  O  O19  1  0.609549  0.044386  0.250000  1
