# generated using pymatgen
data_Mg2SbMoO6
_symmetry_space_group_name_H-M   'P 1'
_cell_length_a   5.34283924
_cell_length_b   5.46457935
_cell_length_c   7.81609813
_cell_angle_alpha   90.00000000
_cell_angle_beta   90.00000000
_cell_angle_gamma   89.40962726
_symmetry_Int_Tables_number   1
_chemical_formula_structural   Mg2SbMoO6
_chemical_formula_sum   'Mg4 Sb2 Mo2 O12'
_cell_volume   228.18957108
_cell_formula_units_Z   2
loop_
 _symmetry_equiv_pos_site_id
 _symmetry_equiv_pos_as_xyz
  1  'x, y, z'
loop_
 _atom_site_type_symbol
 _atom_site_label
 _atom_site_symmetry_multiplicity
 _atom_site_fract_x
 _atom_site_fract_y
 _atom_site_fract_z
 _atom_site_occupancy
  Mg  Mg0  1  0.507430  0.555124  0.750000  1
  Mg  Mg1  1  0.492570  0.444876  0.250000  1
  Mg  Mg2  1  0.012972  0.031318  0.750000  1
  Mg  Mg3  1  0.987028  0.968682  0.250000  1
  Sb  Sb4  1  0.000000  0.500000  0.500000  1
  Sb  Sb5  1  0.000000  0.500000  0.000000  1
  Mo  Mo6  1  0.500000  0.000000  0.500000  1
  Mo  Mo7  1  0.500000  0.000000  0.000000  1
  O  O8  1  0.313605  0.664204  0.429358  1
  O  O9  1  0.156827  0.186335  0.071364  1
  O  O10  1  0.686395  0.335796  0.929358  1
  O  O11  1  0.843173  0.813665  0.571364  1
  O  O12  1  0.156827  0.186335  0.428636  1
  O  O13  1  0.843173  0.813665  0.928636  1
  O  O14  1  0.862195  0.583403  0.250000  1
  O  O15  1  0.313605  0.664204  0.070642  1
  O  O16  1  0.367253  0.905666  0.750000  1
  O  O17  1  0.686395  0.335796  0.570642  1
  O  O18  1  0.137805  0.416597  0.750000  1
  O  O19  1  0.632747  0.094334  0.250000  1
