# generated using pymatgen
data_ZnCr(GeO3)2
_symmetry_space_group_name_H-M   'P 1'
_cell_length_a   5.49872292
_cell_length_b   6.85115377
_cell_length_c   6.85115348
_cell_angle_alpha   85.26020513
_cell_angle_beta   79.08177137
_cell_angle_gamma   79.08176425
_symmetry_Int_Tables_number   1
_chemical_formula_structural   ZnCr(GeO3)2
_chemical_formula_sum   'Zn2 Cr2 Ge4 O12'
_cell_volume   248.54850167
_cell_formula_units_Z   2
loop_
 _symmetry_equiv_pos_site_id
 _symmetry_equiv_pos_as_xyz
  1  'x, y, z'
loop_
 _atom_site_type_symbol
 _atom_site_label
 _atom_site_symmetry_multiplicity
 _atom_site_fract_x
 _atom_site_fract_y
 _atom_site_fract_z
 _atom_site_occupancy
  Zn  Zn0  1  0.750000  0.248143  0.751857  1
  Zn  Zn1  1  0.250000  0.751857  0.248143  1
  Cr  Cr2  1  0.750000  0.902358  0.097642  1
  Cr  Cr3  1  0.250000  0.097642  0.902358  1
  Ge  Ge4  1  0.747028  0.389714  0.213362  1
  Ge  Ge5  1  0.752972  0.786638  0.610286  1
  Ge  Ge6  1  0.252972  0.610286  0.786638  1
  Ge  Ge7  1  0.247028  0.213362  0.389714  1
  O  O8  1  0.529027  0.299357  0.415422  1
  O  O9  1  0.970973  0.584578  0.700643  1
  O  O10  1  0.470973  0.700643  0.584578  1
  O  O11  1  0.029027  0.415422  0.299357  1
  O  O12  1  0.107182  0.143952  0.631345  1
  O  O13  1  0.392818  0.368655  0.856048  1
  O  O14  1  0.892818  0.856048  0.368655  1
  O  O15  1  0.607182  0.631345  0.143952  1
  O  O16  1  0.836830  0.202197  0.036592  1
  O  O17  1  0.663170  0.963408  0.797803  1
  O  O18  1  0.163170  0.797803  0.963408  1
  O  O19  1  0.336830  0.036592  0.202197  1
