# generated using pymatgen
data_Zn(FeO2)2
_symmetry_space_group_name_H-M   'P 1'
_cell_length_a   6.05736425
_cell_length_b   6.05146245
_cell_length_c   18.13404314
_cell_angle_alpha   59.96961331
_cell_angle_beta   59.59773187
_cell_angle_gamma   60.04076779
_symmetry_Int_Tables_number   1
_chemical_formula_structural   Zn(FeO2)2
_chemical_formula_sum   'Zn6 Fe12 O24'
_cell_volume   468.61854525
_cell_formula_units_Z   6
loop_
 _symmetry_equiv_pos_site_id
 _symmetry_equiv_pos_as_xyz
  1  'x, y, z'
loop_
 _atom_site_type_symbol
 _atom_site_label
 _atom_site_symmetry_multiplicity
 _atom_site_fract_x
 _atom_site_fract_y
 _atom_site_fract_z
 _atom_site_occupancy
  Zn  Zn0  1  0.131079  0.122656  0.042225  1
  Zn  Zn1  1  0.498688  0.500915  0.332659  1
  Zn  Zn2  1  0.999717  0.498389  0.167577  1
  Zn  Zn3  1  0.501860  0.497836  0.666809  1
  Zn  Zn4  1  0.999950  0.500522  0.499783  1
  Zn  Zn5  1  0.004943  0.497790  0.832869  1
  Fe  Fe6  1  0.497137  0.003331  0.165829  1
  Fe  Fe7  1  0.130601  0.117542  0.378097  1
  Fe  Fe8  1  0.494916  0.501157  0.002397  1
  Fe  Fe9  1  0.496922  0.501022  0.166318  1
  Fe  Fe10  1  0.500430  0.000303  0.499770  1
  Fe  Fe11  1  0.134398  0.116711  0.709743  1
  Fe  Fe12  1  0.499978  0.500947  0.499592  1
  Fe  Fe13  1  0.499532  0.001399  0.833628  1
  Fe  Fe14  1  0.867339  0.883239  0.288077  1
  Fe  Fe15  1  0.499655  0.497385  0.833888  1
  Fe  Fe16  1  0.868359  0.880813  0.623261  1
  Fe  Fe17  1  0.857177  0.883275  0.959608  1
  O  O18  1  0.270631  0.254988  0.085662  1
  O  O19  1  0.264616  0.247755  0.246404  1
  O  O20  1  0.270902  0.719222  0.086332  1
  O  O21  1  0.720433  0.261566  0.085769  1
  O  O22  1  0.262512  0.244956  0.420823  1
  O  O23  1  0.264799  0.752711  0.243404  1
  O  O24  1  0.266765  0.250374  0.577367  1
  O  O25  1  0.737644  0.270581  0.244117  1
  O  O26  1  0.262385  0.730126  0.420842  1
  O  O27  1  0.733715  0.753670  0.086937  1
  O  O28  1  0.732687  0.251057  0.421746  1
  O  O29  1  0.737609  0.756874  0.244285  1
  O  O30  1  0.263582  0.239779  0.754259  1
  O  O31  1  0.266295  0.749705  0.578371  1
  O  O32  1  0.737778  0.268372  0.579312  1
  O  O33  1  0.263999  0.730801  0.754010  1
  O  O34  1  0.272255  0.254270  0.905973  1
  O  O35  1  0.733847  0.750986  0.421414  1
  O  O36  1  0.737983  0.247344  0.755713  1
  O  O37  1  0.737891  0.755189  0.579430  1
  O  O38  1  0.276829  0.738408  0.915416  1
  O  O39  1  0.731834  0.268550  0.916960  1
  O  O40  1  0.737433  0.745975  0.756730  1
  O  O41  1  0.732894  0.751507  0.916594  1
