# generated using pymatgen
data_MgCu2(SnO4)2
_symmetry_space_group_name_H-M   'P 1'
_cell_length_a   6.24370817
_cell_length_b   8.74194369
_cell_length_c   12.19673593
_cell_angle_alpha   90.00000000
_cell_angle_beta   89.37118922
_cell_angle_gamma   90.00000000
_symmetry_Int_Tables_number   1
_chemical_formula_structural   MgCu2(SnO4)2
_chemical_formula_sum   'Mg4 Cu8 Sn8 O32'
_cell_volume   665.68391973
_cell_formula_units_Z   4
loop_
 _symmetry_equiv_pos_site_id
 _symmetry_equiv_pos_as_xyz
  1  'x, y, z'
loop_
 _atom_site_type_symbol
 _atom_site_label
 _atom_site_symmetry_multiplicity
 _atom_site_fract_x
 _atom_site_fract_y
 _atom_site_fract_z
 _atom_site_occupancy
  Mg  Mg0  1  0.101497  0.150916  0.031628  1
  Mg  Mg1  1  0.898503  0.849084  0.968372  1
  Mg  Mg2  1  0.898503  0.650916  0.468372  1
  Mg  Mg3  1  0.101497  0.349084  0.531628  1
  Cu  Cu4  1  0.754129  0.189460  0.837357  1
  Cu  Cu5  1  0.372082  0.072414  0.607995  1
  Cu  Cu6  1  0.627918  0.927586  0.392005  1
  Cu  Cu7  1  0.245871  0.810540  0.162642  1
  Cu  Cu8  1  0.754129  0.310540  0.337357  1
  Cu  Cu9  1  0.372082  0.427586  0.107995  1
  Cu  Cu10  1  0.245871  0.689460  0.662643  1
  Cu  Cu11  1  0.627918  0.572414  0.892005  1
  Sn  Sn12  1  0.094449  0.452413  0.840456  1
  Sn  Sn13  1  0.094449  0.047587  0.340456  1
  Sn  Sn14  1  0.567583  0.069458  0.147764  1
  Sn  Sn15  1  0.905551  0.952413  0.659544  1
  Sn  Sn16  1  0.432417  0.930542  0.852236  1
  Sn  Sn17  1  0.432417  0.569458  0.352236  1
  Sn  Sn18  1  0.567583  0.430542  0.647764  1
  Sn  Sn19  1  0.905551  0.547587  0.159544  1
  O  O20  1  0.032998  0.264929  0.376291  1
  O  O21  1  0.650700  0.015554  0.575241  1
  O  O22  1  0.196299  0.554580  0.459913  1
  O  O23  1  0.803701  0.054580  0.040087  1
  O  O24  1  0.032998  0.235071  0.876291  1
  O  O25  1  0.967002  0.735071  0.623709  1
  O  O26  1  0.084184  0.128383  0.605495  1
  O  O27  1  0.525492  0.847762  0.192857  1
  O  O28  1  0.525492  0.652238  0.692857  1
  O  O29  1  0.279826  0.897275  0.699977  1
  O  O30  1  0.720174  0.397275  0.800023  1
  O  O31  1  0.474508  0.152238  0.807143  1
  O  O32  1  0.915816  0.871617  0.394505  1
  O  O33  1  0.799314  0.525631  0.318339  1
  O  O34  1  0.417666  0.271192  0.557640  1
  O  O35  1  0.417666  0.228808  0.057640  1
  O  O36  1  0.200686  0.025631  0.181661  1
  O  O37  1  0.474508  0.347762  0.307143  1
  O  O38  1  0.200686  0.474369  0.681661  1
  O  O39  1  0.803701  0.445420  0.540087  1
  O  O40  1  0.650700  0.484446  0.075241  1
  O  O41  1  0.720174  0.102725  0.300023  1
  O  O42  1  0.967002  0.764929  0.123709  1
  O  O43  1  0.084184  0.371617  0.105495  1
  O  O44  1  0.196299  0.945420  0.959913  1
  O  O45  1  0.582334  0.771192  0.942360  1
  O  O46  1  0.349300  0.984446  0.424759  1
  O  O47  1  0.349300  0.515554  0.924759  1
  O  O48  1  0.915816  0.628383  0.894505  1
  O  O49  1  0.582334  0.728808  0.442360  1
  O  O50  1  0.279826  0.602725  0.199977  1
  O  O51  1  0.799314  0.974369  0.818339  1
