# generated using pymatgen
data_Ca(WO2)2
_symmetry_space_group_name_H-M   'P 1'
_cell_length_a   6.67497051
_cell_length_b   6.69712191
_cell_length_c   19.67344284
_cell_angle_alpha   60.49941355
_cell_angle_beta   59.66768741
_cell_angle_gamma   59.53042918
_symmetry_Int_Tables_number   1
_chemical_formula_structural   Ca(WO2)2
_chemical_formula_sum   'Ca6 W12 O24'
_cell_volume   620.34746796
_cell_formula_units_Z   6
loop_
 _symmetry_equiv_pos_site_id
 _symmetry_equiv_pos_as_xyz
  1  'x, y, z'
loop_
 _atom_site_type_symbol
 _atom_site_label
 _atom_site_symmetry_multiplicity
 _atom_site_fract_x
 _atom_site_fract_y
 _atom_site_fract_z
 _atom_site_occupancy
  Ca  Ca0  1  0.107945  0.119224  0.041216  1
  Ca  Ca1  1  0.131272  0.118971  0.375153  1
  Ca  Ca2  1  0.501802  0.485820  0.334924  1
  Ca  Ca3  1  0.130712  0.119740  0.718618  1
  Ca  Ca4  1  0.484880  0.511207  0.997608  1
  Ca  Ca5  1  0.895786  0.875042  0.624055  1
  W  W6  1  0.478542  0.493446  0.168660  1
  W  W7  1  0.480133  0.001991  0.163487  1
  W  W8  1  0.514023  0.494907  0.500646  1
  W  W9  1  0.986125  0.490678  0.163439  1
  W  W10  1  0.514277  0.997295  0.500305  1
  W  W11  1  0.519366  0.500918  0.665918  1
  W  W12  1  0.878921  0.794561  0.291942  1
  W  W13  1  0.504473  0.515473  0.831465  1
  W  W14  1  0.014333  0.493368  0.502578  1
  W  W15  1  0.507302  0.007459  0.834081  1
  W  W16  1  0.013993  0.511435  0.831228  1
  W  W17  1  0.804890  0.939351  0.957735  1
  O  O18  1  0.225301  0.265469  0.094216  1
  O  O19  1  0.243774  0.264320  0.233374  1
  O  O20  1  0.214045  0.697252  0.100976  1
  O  O21  1  0.687925  0.248787  0.094871  1
  O  O22  1  0.244742  0.255044  0.435089  1
  O  O23  1  0.265543  0.747661  0.248176  1
  O  O24  1  0.275938  0.264919  0.570503  1
  O  O25  1  0.743838  0.304617  0.234178  1
  O  O26  1  0.719072  0.718716  0.096235  1
  O  O27  1  0.242147  0.695293  0.436265  1
  O  O28  1  0.719812  0.244314  0.429599  1
  O  O29  1  0.733777  0.747017  0.233672  1
  O  O30  1  0.287488  0.279382  0.750945  1
  O  O31  1  0.317195  0.734929  0.577077  1
  O  O32  1  0.764681  0.299203  0.574125  1
  O  O33  1  0.275888  0.282559  0.898292  1
  O  O34  1  0.764252  0.724061  0.430638  1
  O  O35  1  0.277401  0.709236  0.752228  1
  O  O36  1  0.715508  0.267973  0.755146  1
  O  O37  1  0.760546  0.728260  0.575170  1
  O  O38  1  0.284739  0.775588  0.899730  1
  O  O39  1  0.774887  0.295708  0.898732  1
  O  O40  1  0.743980  0.741413  0.764148  1
  O  O41  1  0.748753  0.737391  0.913556  1
