# generated using pymatgen
data_Y2Cu3(SiO4)3
_symmetry_space_group_name_H-M   'P 1'
_cell_length_a   10.76710212
_cell_length_b   10.76710163
_cell_length_c   10.76710176
_cell_angle_alpha   109.47122088
_cell_angle_beta   109.47121996
_cell_angle_gamma   109.47122225
_symmetry_Int_Tables_number   1
_chemical_formula_structural   Y2Cu3(SiO4)3
_chemical_formula_sum   'Y8 Cu12 Si12 O48'
_cell_volume   960.89197145
_cell_formula_units_Z   4
loop_
 _symmetry_equiv_pos_site_id
 _symmetry_equiv_pos_as_xyz
  1  'x, y, z'
loop_
 _atom_site_type_symbol
 _atom_site_label
 _atom_site_symmetry_multiplicity
 _atom_site_fract_x
 _atom_site_fract_y
 _atom_site_fract_z
 _atom_site_occupancy
  Y  Y0  1  0.500000  0.000000  0.000000  1
  Y  Y1  1  0.000000  0.000000  0.000000  1
  Y  Y2  1  0.000000  0.500000  0.000000  1
  Y  Y3  1  0.000000  0.000000  0.500000  1
  Y  Y4  1  0.000000  0.500000  0.500001  1
  Y  Y5  1  0.500000  0.000000  0.500001  1
  Y  Y6  1  0.500000  0.500000  0.000000  1
  Y  Y7  1  0.500000  0.500000  0.500000  1
  Cu  Cu8  1  0.250000  0.875001  0.625000  1
  Cu  Cu9  1  0.875000  0.625000  0.250000  1
  Cu  Cu10  1  0.625001  0.875001  0.750001  1
  Cu  Cu11  1  0.875001  0.750001  0.625001  1
  Cu  Cu12  1  0.625000  0.250000  0.875000  1
  Cu  Cu13  1  0.750000  0.625000  0.875000  1
  Cu  Cu14  1  0.750000  0.125000  0.375000  1
  Cu  Cu15  1  0.125000  0.375000  0.750000  1
  Cu  Cu16  1  0.375000  0.125000  0.250000  1
  Cu  Cu17  1  0.125000  0.250000  0.375000  1
  Cu  Cu18  1  0.375000  0.750001  0.125000  1
  Cu  Cu19  1  0.250000  0.375000  0.125000  1
  Si  Si20  1  0.250000  0.125000  0.875000  1
  Si  Si21  1  0.875000  0.250000  0.125000  1
  Si  Si22  1  0.625000  0.750001  0.375000  1
  Si  Si23  1  0.250000  0.625000  0.375001  1
  Si  Si24  1  0.375000  0.625000  0.750000  1
  Si  Si25  1  0.750000  0.375000  0.625000  1
  Si  Si26  1  0.875000  0.125000  0.750000  1
  Si  Si27  1  0.125000  0.750001  0.875000  1
  Si  Si28  1  0.125000  0.875001  0.250000  1
  Si  Si29  1  0.625000  0.375000  0.250000  1
  Si  Si30  1  0.375000  0.250000  0.625000  1
  Si  Si31  1  0.750000  0.875001  0.125000  1
  O  O32  1  0.276688  0.480523  0.369814  1
  O  O33  1  0.019477  0.296165  0.889291  1
  O  O34  1  0.130186  0.610709  0.906874  1
  O  O35  1  0.223311  0.593126  0.203835  1
  O  O36  1  0.223311  0.130185  0.019476  1
  O  O37  1  0.593125  0.203834  0.223311  1
  O  O38  1  0.610708  0.203834  0.480523  1
  O  O39  1  0.203835  0.223311  0.593127  1
  O  O40  1  0.889292  0.369814  0.593126  1
  O  O41  1  0.296166  0.906874  0.276689  1
  O  O42  1  0.906874  0.276689  0.296166  1
  O  O43  1  0.019477  0.223311  0.130185  1
  O  O44  1  0.203835  0.480523  0.610709  1
  O  O45  1  0.593126  0.889292  0.369815  1
  O  O46  1  0.130185  0.019476  0.223311  1
  O  O47  1  0.480523  0.610709  0.203834  1
  O  O48  1  0.369814  0.593126  0.889291  1
  O  O49  1  0.889291  0.019476  0.296165  1
  O  O50  1  0.610708  0.906874  0.130186  1
  O  O51  1  0.110708  0.630185  0.406874  1
  O  O52  1  0.480523  0.369814  0.276688  1
  O  O53  1  0.369814  0.276689  0.480523  1
  O  O54  1  0.296166  0.889292  0.019477  1
  O  O55  1  0.276688  0.296165  0.906873  1
  O  O56  1  0.723311  0.519476  0.630186  1
  O  O57  1  0.980523  0.703834  0.110708  1
  O  O58  1  0.869815  0.389292  0.093126  1
  O  O59  1  0.776689  0.406874  0.796166  1
  O  O60  1  0.776688  0.869815  0.980524  1
  O  O61  1  0.406874  0.796165  0.776688  1
  O  O62  1  0.389292  0.796165  0.519476  1
  O  O63  1  0.796166  0.776689  0.406874  1
  O  O64  1  0.723311  0.703834  0.093126  1
  O  O65  1  0.703835  0.110709  0.980523  1
  O  O66  1  0.630185  0.723312  0.519477  1
  O  O67  1  0.519477  0.630185  0.723311  1
  O  O68  1  0.093126  0.869815  0.389291  1
  O  O69  1  0.389291  0.093125  0.869814  1
  O  O70  1  0.110709  0.980523  0.703834  1
  O  O71  1  0.630186  0.406874  0.110708  1
  O  O72  1  0.519477  0.389292  0.796166  1
  O  O73  1  0.869815  0.980523  0.776689  1
  O  O74  1  0.406875  0.110709  0.630186  1
  O  O75  1  0.796165  0.519476  0.389292  1
  O  O76  1  0.980523  0.776689  0.869815  1
  O  O77  1  0.093127  0.723312  0.703835  1
  O  O78  1  0.703834  0.093125  0.723311  1
  O  O79  1  0.906874  0.130185  0.610708  1
