# generated using pymatgen
data_CaP2(WO5)2
_symmetry_space_group_name_H-M   'P 1'
_cell_length_a   7.26197316
_cell_length_b   7.26197217
_cell_length_c   8.93182714
_cell_angle_alpha   102.88740080
_cell_angle_beta   102.88740219
_cell_angle_gamma   116.83075526
_symmetry_Int_Tables_number   1
_chemical_formula_structural   CaP2(WO5)2
_chemical_formula_sum   'Ca2 P4 W4 O20'
_cell_volume   380.30670608
_cell_formula_units_Z   2
loop_
 _symmetry_equiv_pos_site_id
 _symmetry_equiv_pos_as_xyz
  1  'x, y, z'
loop_
 _atom_site_type_symbol
 _atom_site_label
 _atom_site_symmetry_multiplicity
 _atom_site_fract_x
 _atom_site_fract_y
 _atom_site_fract_z
 _atom_site_occupancy
  Ca  Ca0  1  0.496767  0.996767  0.500000  1
  Ca  Ca1  1  0.246767  0.246767  1.000000  1
  P  P2  1  0.040410  0.040400  0.590757  1
  P  P3  1  0.699653  0.199643  0.909243  1
  P  P4  1  0.449643  0.449653  0.409243  1
  P  P5  1  0.290400  0.790410  0.090757  1
  W  W6  1  0.872237  0.618673  0.251756  1
  W  W7  1  0.366917  0.620481  0.748244  1
  W  W8  1  0.870481  0.116917  0.248244  1
  W  W9  1  0.868673  0.622237  0.751756  1
  O  O10  1  0.567786  0.534771  0.293356  1
  O  O11  1  0.656887  0.661552  0.829219  1
  O  O12  1  0.308429  0.606495  0.977083  1
  O  O13  1  0.784771  0.317786  0.793356  1
  O  O14  1  0.217860  0.247017  0.290206  1
  O  O15  1  0.426759  0.632018  0.519888  1
  O  O16  1  0.077667  0.582333  0.670781  1
  O  O17  1  0.832333  0.827667  0.170781  1
  O  O18  1  0.911552  0.406887  0.329219  1
  O  O19  1  0.177654  0.706811  0.209794  1
  O  O20  1  0.241416  0.274433  0.706644  1
  O  O21  1  0.497017  0.967860  0.790206  1
  O  O22  1  0.956811  0.927654  0.709794  1
  O  O23  1  0.156873  0.862132  0.980112  1
  O  O24  1  0.112132  0.906873  0.480112  1
  O  O25  1  0.882018  0.176759  0.019888  1
  O  O26  1  0.856495  0.058429  0.477083  1
  O  O27  1  0.629412  0.331346  0.022917  1
  O  O28  1  0.524433  0.991416  0.206644  1
  O  O29  1  0.581346  0.379412  0.522917  1
