# generated using pymatgen
data_MnPO4
_symmetry_space_group_name_H-M   'P 1'
_cell_length_a   4.96728108
_cell_length_b   9.46011329
_cell_length_c   14.45885590
_cell_angle_alpha   78.88313625
_cell_angle_beta   80.04316414
_cell_angle_gamma   74.76574917
_symmetry_Int_Tables_number   1
_chemical_formula_structural   MnPO4
_chemical_formula_sum   'Mn8 P8 O32'
_cell_volume   637.87555136
_cell_formula_units_Z   8
loop_
 _symmetry_equiv_pos_site_id
 _symmetry_equiv_pos_as_xyz
  1  'x, y, z'
loop_
 _atom_site_type_symbol
 _atom_site_label
 _atom_site_symmetry_multiplicity
 _atom_site_fract_x
 _atom_site_fract_y
 _atom_site_fract_z
 _atom_site_occupancy
  Mn  Mn0  1  0.174861  0.231652  0.973334  1
  Mn  Mn1  1  0.383536  0.267605  0.526160  1
  Mn  Mn2  1  0.821050  0.767081  0.026592  1
  Mn  Mn3  1  0.496183  0.499423  0.000569  1
  Mn  Mn4  1  0.616785  0.731112  0.473590  1
  Mn  Mn5  1  0.658742  0.750680  0.250231  1
  Mn  Mn6  1  0.337416  0.247845  0.749911  1
  Mn  Mn7  1  0.002322  0.998938  0.499554  1
  P  P8  1  0.045337  0.569989  0.863404  1
  P  P9  1  0.779101  0.407480  0.618693  1
  P  P10  1  0.948559  0.428909  0.137152  1
  P  P11  1  0.190542  0.908604  0.118795  1
  P  P12  1  0.519557  0.070150  0.362845  1
  P  P13  1  0.485425  0.928403  0.636814  1
  P  P14  1  0.217707  0.591267  0.381322  1
  P  P15  1  0.806056  0.090192  0.881648  1
  O  O16  1  0.704344  0.391307  0.099130  1
  O  O17  1  0.866434  0.927329  0.928467  1
  O  O18  1  0.805405  0.888870  0.598429  1
  O  O19  1  0.755680  0.300901  0.553330  1
  O  O20  1  0.205535  0.387328  0.054053  1
  O  O21  1  0.573695  0.391511  0.711452  1
  O  O22  1  0.608880  0.197143  0.946391  1
  O  O23  1  0.897681  0.863350  0.139349  1
  O  O24  1  0.242355  0.698416  0.446077  1
  O  O25  1  0.722050  0.570532  0.572131  1
  O  O26  1  0.890758  0.603904  0.130855  1
  O  O27  1  0.606752  0.140199  0.265979  1
  O  O28  1  0.132160  0.071266  0.071603  1
  O  O29  1  0.096248  0.361741  0.639639  1
  O  O30  1  0.286433  0.608702  0.902710  1
  O  O31  1  0.106461  0.394956  0.869191  1
  O  O32  1  0.991467  0.641321  0.766199  1
  O  O33  1  0.387860  0.801027  0.054398  1
  O  O34  1  0.378345  0.103613  0.630541  1
  O  O35  1  0.399577  0.858911  0.733977  1
  O  O36  1  0.899433  0.635506  0.361242  1
  O  O37  1  0.351370  0.888065  0.553784  1
  O  O38  1  0.098898  0.135740  0.861037  1
  O  O39  1  0.316960  0.894161  0.211736  1
  O  O40  1  0.276932  0.428277  0.427964  1
  O  O41  1  0.199189  0.109827  0.401046  1
  O  O42  1  0.005848  0.358101  0.234170  1
  O  O43  1  0.652842  0.109803  0.446174  1
  O  O44  1  0.786835  0.610633  0.946099  1
  O  O45  1  0.679727  0.105132  0.788671  1
  O  O46  1  0.420181  0.607741  0.287873  1
  O  O47  1  0.624723  0.894835  0.369032  1
