# generated using pymatgen
data_Ba2Mg3Mn4Tl2O12
_symmetry_space_group_name_H-M   'P 1'
_cell_length_a   3.83653220
_cell_length_b   3.83653232
_cell_length_c   23.06727864
_cell_angle_alpha   94.77019675
_cell_angle_beta   94.77019685
_cell_angle_gamma   90.00000135
_symmetry_Int_Tables_number   1
_chemical_formula_structural   Ba2Mg3Mn4Tl2O12
_chemical_formula_sum   'Ba2 Mg3 Mn4 Tl2 O12'
_cell_volume   337.17063444
_cell_formula_units_Z   1
loop_
 _symmetry_equiv_pos_site_id
 _symmetry_equiv_pos_as_xyz
  1  'x, y, z'
loop_
 _atom_site_type_symbol
 _atom_site_label
 _atom_site_symmetry_multiplicity
 _atom_site_fract_x
 _atom_site_fract_y
 _atom_site_fract_z
 _atom_site_occupancy
  Ba  Ba0  1  0.163443  0.163443  0.326886  1
  Ba  Ba1  1  0.836557  0.836557  0.673114  1
  Mg  Mg2  1  0.078288  0.078288  0.156578  1
  Mg  Mg3  1  0.921712  0.921712  0.843422  1
  Mg  Mg4  1  0.000000  0.000000  -0.000000  1
  Mn  Mn5  1  0.535790  0.535790  0.071580  1
  Mn  Mn6  1  0.391902  0.391902  0.783803  1
  Mn  Mn7  1  0.608098  0.608098  0.216197  1
  Mn  Mn8  1  0.464210  0.464210  0.928420  1
  Tl  Tl9  1  0.724865  0.724865  0.449728  1
  Tl  Tl10  1  0.275135  0.275135  0.550272  1
  O  O11  1  0.404953  0.904953  0.809906  1
  O  O12  1  0.529989  0.029989  0.059978  1
  O  O13  1  0.221128  0.221128  0.442256  1
  O  O14  1  0.970011  0.470011  0.940022  1
  O  O15  1  0.778872  0.778872  0.557744  1
  O  O16  1  0.095047  0.595047  0.190094  1
  O  O17  1  0.595047  0.095047  0.190094  1
  O  O18  1  0.347504  0.347504  0.695007  1
  O  O19  1  0.904953  0.404953  0.809906  1
  O  O20  1  0.029989  0.529989  0.059978  1
  O  O21  1  0.470011  0.970011  0.940022  1
  O  O22  1  0.652496  0.652496  0.304993  1
