# generated using pymatgen
data_MgTiSiO5
_symmetry_space_group_name_H-M   'P 1'
_cell_length_a   5.31407269
_cell_length_b   7.16059743
_cell_length_c   8.37961058
_cell_angle_alpha   90.14094773
_cell_angle_beta   142.03693378
_cell_angle_gamma   74.93595930
_symmetry_Int_Tables_number   1
_chemical_formula_structural   MgTiSiO5
_chemical_formula_sum   'Mg2 Ti2 Si2 O10'
_cell_volume   178.06819711
_cell_formula_units_Z   2
loop_
 _symmetry_equiv_pos_site_id
 _symmetry_equiv_pos_as_xyz
  1  'x, y, z'
loop_
 _atom_site_type_symbol
 _atom_site_label
 _atom_site_symmetry_multiplicity
 _atom_site_fract_x
 _atom_site_fract_y
 _atom_site_fract_z
 _atom_site_occupancy
  Mg  Mg0  1  0.492451  0.254486  0.166731  1
  Mg  Mg1  1  0.496487  0.746967  0.827804  1
  Ti  Ti2  1  0.498611  0.506386  0.505304  1
  Ti  Ti3  1  0.499978  0.006505  0.494113  1
  Si  Si4  1  0.501457  0.239856  0.826600  1
  Si  Si5  1  0.501086  0.739033  0.175064  1
  O  O6  1  0.279161  0.116486  0.604501  1
  O  O7  1  0.722915  0.362554  0.826532  1
  O  O8  1  0.728066  0.857972  0.400838  1
  O  O9  1  0.279056  0.614173  0.173628  1
  O  O10  1  0.857344  0.578023  0.225804  1
  O  O11  1  0.143821  0.899896  0.870736  1
  O  O12  1  0.143153  0.399966  0.774006  1
  O  O13  1  0.859030  0.079362  0.131881  1
  O  O14  1  0.497529  0.738544  0.587456  1
  O  O15  1  0.500485  0.237838  0.410981  1
