# generated using pymatgen
data_Al14(CuS8)3
_symmetry_space_group_name_H-M   'P 1'
_cell_length_a   7.02787447
_cell_length_b   7.02787485
_cell_length_c   21.17453481
_cell_angle_alpha   60.30399054
_cell_angle_beta   60.30399112
_cell_angle_gamma   60.25846573
_symmetry_Int_Tables_number   1
_chemical_formula_structural   Al14(CuS8)3
_chemical_formula_sum   'Al14 Cu3 S24'
_cell_volume   744.34810972
_cell_formula_units_Z   1
loop_
 _symmetry_equiv_pos_site_id
 _symmetry_equiv_pos_as_xyz
  1  'x, y, z'
loop_
 _atom_site_type_symbol
 _atom_site_label
 _atom_site_symmetry_multiplicity
 _atom_site_fract_x
 _atom_site_fract_y
 _atom_site_fract_z
 _atom_site_occupancy
  Al  Al0  1  0.016004  0.494384  0.165031  1
  Al  Al1  1  0.011609  0.495092  0.499192  1
  Al  Al2  1  0.017297  0.495157  0.830881  1
  Al  Al3  1  0.493858  0.493858  0.006139  1
  Al  Al4  1  0.495293  0.495293  0.340331  1
  Al  Al5  1  0.496067  0.496067  0.667859  1
  Al  Al6  1  0.494384  0.016004  0.165031  1
  Al  Al7  1  0.495092  0.011609  0.499192  1
  Al  Al8  1  0.495157  0.017297  0.830881  1
  Al  Al9  1  0.494549  0.494549  0.164977  1
  Al  Al10  1  0.495013  0.495013  0.830797  1
  Al  Al11  1  0.874144  0.874144  0.294541  1
  Al  Al12  1  0.882263  0.882263  0.623699  1
  Al  Al13  1  0.874950  0.874950  0.958625  1
  Cu  Cu14  1  0.125096  0.125096  0.041410  1
  Cu  Cu15  1  0.120164  0.120164  0.376911  1
  Cu  Cu16  1  0.127767  0.127767  0.705734  1
  S  S17  1  0.256828  0.256828  0.085753  1
  S  S18  1  0.257996  0.257996  0.418072  1
  S  S19  1  0.255193  0.255193  0.753305  1
  S  S20  1  0.257048  0.729181  0.085606  1
  S  S21  1  0.254741  0.729866  0.418772  1
  S  S22  1  0.258291  0.728435  0.752400  1
  S  S23  1  0.257402  0.257402  0.242994  1
  S  S24  1  0.252998  0.252998  0.577605  1
  S  S25  1  0.256848  0.256848  0.909812  1
  S  S26  1  0.729181  0.257048  0.085606  1
  S  S27  1  0.729866  0.254741  0.418772  1
  S  S28  1  0.728435  0.258291  0.752400  1
  S  S29  1  0.277442  0.741507  0.246060  1
  S  S30  1  0.272349  0.743470  0.581599  1
  S  S31  1  0.274508  0.741275  0.914350  1
  S  S32  1  0.742372  0.742372  0.091063  1
  S  S33  1  0.744729  0.744729  0.423371  1
  S  S34  1  0.739736  0.739736  0.759786  1
  S  S35  1  0.741507  0.277442  0.246060  1
  S  S36  1  0.743470  0.272349  0.581599  1
  S  S37  1  0.741275  0.274508  0.914350  1
  S  S38  1  0.742636  0.742636  0.246527  1
  S  S39  1  0.741911  0.741911  0.580996  1
  S  S40  1  0.741340  0.741340  0.914185  1
