# generated using pymatgen
data_Ca(NiS2)4
_symmetry_space_group_name_H-M   'P 1'
_cell_length_a   7.52435213
_cell_length_b   7.52435185
_cell_length_c   7.52435308
_cell_angle_alpha   53.10873358
_cell_angle_beta   53.10872853
_cell_angle_gamma   53.10873461
_symmetry_Int_Tables_number   1
_chemical_formula_structural   Ca(NiS2)4
_chemical_formula_sum   'Ca1 Ni4 S8'
_cell_volume   252.58848698
_cell_formula_units_Z   1
loop_
 _symmetry_equiv_pos_site_id
 _symmetry_equiv_pos_as_xyz
  1  'x, y, z'
loop_
 _atom_site_type_symbol
 _atom_site_label
 _atom_site_symmetry_multiplicity
 _atom_site_fract_x
 _atom_site_fract_y
 _atom_site_fract_z
 _atom_site_occupancy
  Ca  Ca0  1  0.500000  0.500001  0.499999  1
  Ni  Ni1  1  0.500001  0.999999  0.500001  1
  Ni  Ni2  1  0.999999  0.500000  0.500001  1
  Ni  Ni3  1  0.500000  0.500000  0.000000  1
  Ni  Ni4  1  0.000000  0.000000  0.000000  1
  S  S5  1  0.770094  0.274307  0.770094  1
  S  S6  1  0.229905  0.229906  0.725693  1
  S  S7  1  0.229905  0.725694  0.229905  1
  S  S8  1  0.725692  0.229906  0.229906  1
  S  S9  1  0.271471  0.271472  0.271471  1
  S  S10  1  0.728529  0.728529  0.728529  1
  S  S11  1  0.274308  0.770095  0.770094  1
  S  S12  1  0.770095  0.770095  0.274307  1
