# generated using pymatgen
data_Mg2BiWO6
_symmetry_space_group_name_H-M   'P 1'
_cell_length_a   5.51520336
_cell_length_b   5.60647165
_cell_length_c   8.11874618
_cell_angle_alpha   90.00000000
_cell_angle_beta   89.63934093
_cell_angle_gamma   90.00000000
_symmetry_Int_Tables_number   1
_chemical_formula_structural   Mg2BiWO6
_chemical_formula_sum   'Mg4 Bi2 W2 O12'
_cell_volume   251.03340744
_cell_formula_units_Z   2
loop_
 _symmetry_equiv_pos_site_id
 _symmetry_equiv_pos_as_xyz
  1  'x, y, z'
loop_
 _atom_site_type_symbol
 _atom_site_label
 _atom_site_symmetry_multiplicity
 _atom_site_fract_x
 _atom_site_fract_y
 _atom_site_fract_z
 _atom_site_occupancy
  Mg  Mg0  1  0.024908  0.020492  0.262880  1
  Mg  Mg1  1  0.475092  0.520493  0.237120  1
  Mg  Mg2  1  0.975093  0.979509  0.737120  1
  Mg  Mg3  1  0.524907  0.479508  0.762880  1
  Bi  Bi4  1  0.500000  0.000000  0.000000  1
  Bi  Bi5  1  0.000001  0.499999  0.500000  1
  W  W6  1  0.500000  0.000000  0.499999  1
  W  W7  1  0.000000  0.499999  0.000000  1
  O  O8  1  0.629866  0.311801  0.408826  1
  O  O9  1  0.870134  0.811802  0.091174  1
  O  O10  1  0.370133  0.688199  0.591174  1
  O  O11  1  0.129867  0.188198  0.908826  1
  O  O12  1  0.181983  0.134604  0.557051  1
  O  O13  1  0.318017  0.634603  0.942949  1
  O  O14  1  0.818018  0.865396  0.442949  1
  O  O15  1  0.681982  0.365397  0.057051  1
  O  O16  1  0.131720  0.375427  0.225189  1
  O  O17  1  0.368281  0.875428  0.274810  1
  O  O18  1  0.631720  0.124572  0.725190  1
  O  O19  1  0.868281  0.624573  0.774811  1
