# generated using pymatgen
data_BiMoO5
_symmetry_space_group_name_H-M   'P 1'
_cell_length_a   6.22816555
_cell_length_b   11.99599907
_cell_length_c   16.27779253
_cell_angle_alpha   90.00000000
_cell_angle_beta   90.00000000
_cell_angle_gamma   90.00000000
_symmetry_Int_Tables_number   1
_chemical_formula_structural   BiMoO5
_chemical_formula_sum   'Bi8 Mo8 O40'
_cell_volume   1216.16382255
_cell_formula_units_Z   8
loop_
 _symmetry_equiv_pos_site_id
 _symmetry_equiv_pos_as_xyz
  1  'x, y, z'
loop_
 _atom_site_type_symbol
 _atom_site_label
 _atom_site_symmetry_multiplicity
 _atom_site_fract_x
 _atom_site_fract_y
 _atom_site_fract_z
 _atom_site_occupancy
  Bi  Bi0  1  0.925424  0.819892  0.209917  1
  Bi  Bi1  1  0.074576  0.180108  0.790083  1
  Bi  Bi2  1  0.574576  0.319892  0.790083  1
  Bi  Bi3  1  0.074576  0.680108  0.709917  1
  Bi  Bi4  1  0.425424  0.180108  0.290083  1
  Bi  Bi5  1  0.425424  0.680108  0.209917  1
  Bi  Bi6  1  0.574576  0.819892  0.709917  1
  Bi  Bi7  1  0.925424  0.319892  0.290083  1
  Mo  Mo8  1  0.978183  0.397874  0.615072  1
  Mo  Mo9  1  0.521817  0.897874  0.384927  1
  Mo  Mo10  1  0.021817  0.602126  0.384927  1
  Mo  Mo11  1  0.478183  0.102126  0.615072  1
  Mo  Mo12  1  0.021817  0.102126  0.115073  1
  Mo  Mo13  1  0.978183  0.897874  0.884928  1
  Mo  Mo14  1  0.521817  0.397874  0.115073  1
  Mo  Mo15  1  0.478183  0.602126  0.884928  1
  O  O16  1  0.885164  0.297735  0.702050  1
  O  O17  1  0.251251  0.045936  0.072380  1
  O  O18  1  0.248749  0.545936  0.927620  1
  O  O19  1  0.228254  0.795937  0.151596  1
  O  O20  1  0.271746  0.295937  0.848404  1
  O  O21  1  0.885164  0.797735  0.797950  1
  O  O22  1  0.271746  0.795937  0.651596  1
  O  O23  1  0.614836  0.797735  0.297950  1
  O  O24  1  0.251251  0.545936  0.427620  1
  O  O25  1  0.114836  0.702265  0.297950  1
  O  O26  1  0.614836  0.297735  0.202050  1
  O  O27  1  0.621179  0.171877  0.540499  1
  O  O28  1  0.751251  0.954064  0.427620  1
  O  O29  1  0.771746  0.704063  0.651596  1
  O  O30  1  0.148376  0.010788  0.837910  1
  O  O31  1  0.751251  0.454064  0.072380  1
  O  O32  1  0.114836  0.202265  0.202050  1
  O  O33  1  0.728254  0.204063  0.348404  1
  O  O34  1  0.121179  0.828123  0.959501  1
  O  O35  1  0.248749  0.045936  0.572380  1
  O  O36  1  0.378821  0.828123  0.459501  1
  O  O37  1  0.851624  0.989212  0.162090  1
  O  O38  1  0.771746  0.204063  0.848404  1
  O  O39  1  0.648376  0.989212  0.662090  1
  O  O40  1  0.378821  0.328123  0.040499  1
  O  O41  1  0.121179  0.328123  0.540499  1
  O  O42  1  0.748749  0.454064  0.572380  1
  O  O43  1  0.748749  0.954064  0.927620  1
  O  O44  1  0.648376  0.489212  0.837910  1
  O  O45  1  0.878821  0.671877  0.459501  1
  O  O46  1  0.878821  0.171877  0.040499  1
  O  O47  1  0.621179  0.671877  0.959501  1
  O  O48  1  0.851624  0.489212  0.337910  1
  O  O49  1  0.728254  0.704063  0.151596  1
  O  O50  1  0.228254  0.295937  0.348404  1
  O  O51  1  0.148376  0.510788  0.662090  1
  O  O52  1  0.351624  0.510788  0.162090  1
  O  O53  1  0.385164  0.202265  0.702050  1
  O  O54  1  0.351624  0.010788  0.337910  1
  O  O55  1  0.385164  0.702265  0.797950  1
