# generated using pymatgen
data_MgMn4O9
_symmetry_space_group_name_H-M   'P 1'
_cell_length_a   4.78758180
_cell_length_b   8.48461990
_cell_length_c   8.49541685
_cell_angle_alpha   89.87225076
_cell_angle_beta   90.02009268
_cell_angle_gamma   90.03682802
_symmetry_Int_Tables_number   1
_chemical_formula_structural   MgMn4O9
_chemical_formula_sum   'Mg2 Mn8 O18'
_cell_volume   345.08977919
_cell_formula_units_Z   2
loop_
 _symmetry_equiv_pos_site_id
 _symmetry_equiv_pos_as_xyz
  1  'x, y, z'
loop_
 _atom_site_type_symbol
 _atom_site_label
 _atom_site_symmetry_multiplicity
 _atom_site_fract_x
 _atom_site_fract_y
 _atom_site_fract_z
 _atom_site_occupancy
  Mg  Mg0  1  0.094206  0.249980  0.250111  1
  Mg  Mg1  1  0.906201  0.750003  0.749888  1
  Mn  Mn2  1  0.612251  0.532120  0.339924  1
  Mn  Mn3  1  0.387535  0.839644  0.468212  1
  Mn  Mn4  1  0.612256  0.340070  0.968310  1
  Mn  Mn5  1  0.387438  0.032166  0.839589  1
  Mn  Mn6  1  0.611746  0.967870  0.160124  1
  Mn  Mn7  1  0.611874  0.160006  0.531811  1
  Mn  Mn8  1  0.387040  0.467832  0.660352  1
  Mn  Mn9  1  0.387313  0.660243  0.031622  1
  O  O10  1  0.502535  0.750070  0.250065  1
  O  O11  1  0.501640  0.249951  0.749959  1
  O  O12  1  0.044559  0.685278  0.971725  1
  O  O13  1  0.044653  0.528541  0.684659  1
  O  O14  1  0.044897  0.971497  0.815220  1
  O  O15  1  0.044868  0.814712  0.528128  1
  O  O16  1  0.955009  0.314670  0.028002  1
  O  O17  1  0.954742  0.471807  0.315236  1
  O  O18  1  0.954415  0.028107  0.184911  1
  O  O19  1  0.954643  0.185420  0.472191  1
  O  O20  1  0.463782  0.042593  0.356653  1
  O  O21  1  0.464007  0.143321  0.042547  1
  O  O22  1  0.463903  0.356607  0.457428  1
  O  O23  1  0.463985  0.457454  0.143336  1
  O  O24  1  0.536163  0.541675  0.856805  1
  O  O25  1  0.536058  0.856948  0.958299  1
  O  O26  1  0.536072  0.643159  0.541757  1
  O  O27  1  0.536210  0.958252  0.643136  1
