# generated using pymatgen
data_Zn(NiS2)2
_symmetry_space_group_name_H-M   'P 1'
_cell_length_a   6.82739325
_cell_length_b   6.82739432
_cell_length_c   6.89715441
_cell_angle_alpha   119.66597692
_cell_angle_beta   119.66598002
_cell_angle_gamma   89.99999379
_symmetry_Int_Tables_number   1
_chemical_formula_structural   Zn(NiS2)2
_chemical_formula_sum   'Zn2 Ni4 S8'
_cell_volume   229.61057927
_cell_formula_units_Z   2
loop_
 _symmetry_equiv_pos_site_id
 _symmetry_equiv_pos_as_xyz
  1  'x, y, z'
loop_
 _atom_site_type_symbol
 _atom_site_label
 _atom_site_symmetry_multiplicity
 _atom_site_fract_x
 _atom_site_fract_y
 _atom_site_fract_z
 _atom_site_occupancy
  Zn  Zn0  1  0.375000  0.625000  0.750000  1
  Zn  Zn1  1  0.625000  0.375000  0.250000  1
  Ni  Ni2  1  0.000000  0.000000  0.500000  1
  Ni  Ni3  1  0.000000  0.500000  0.000000  1
  Ni  Ni4  1  0.500000  0.000000  0.500000  1
  Ni  Ni5  1  0.000000  0.000000  0.000000  1
  S  S6  1  0.766413  0.791415  0.532826  1
  S  S7  1  0.758590  0.233587  0.967174  1
  S  S8  1  0.208585  0.233587  0.967174  1
  S  S9  1  0.233587  0.208585  0.467174  1
  S  S10  1  0.233587  0.758590  0.467174  1
  S  S11  1  0.241410  0.766413  0.032826  1
  S  S12  1  0.766413  0.241410  0.532826  1
  S  S13  1  0.791415  0.766413  0.032826  1
