# generated using pymatgen
data_Zn(SnO2)2
_symmetry_space_group_name_H-M   'P 1'
_cell_length_a   6.39974623
_cell_length_b   6.38337724
_cell_length_c   20.34019092
_cell_angle_alpha   61.94919518
_cell_angle_beta   62.95897613
_cell_angle_gamma   60.10545277
_symmetry_Int_Tables_number   1
_chemical_formula_structural   Zn(SnO2)2
_chemical_formula_sum   'Zn6 Sn12 O24'
_cell_volume   608.84251440
_cell_formula_units_Z   6
loop_
 _symmetry_equiv_pos_site_id
 _symmetry_equiv_pos_as_xyz
  1  'x, y, z'
loop_
 _atom_site_type_symbol
 _atom_site_label
 _atom_site_symmetry_multiplicity
 _atom_site_fract_x
 _atom_site_fract_y
 _atom_site_fract_z
 _atom_site_occupancy
  Zn  Zn0  1  0.134974  0.101369  0.054033  1
  Zn  Zn1  1  0.495496  0.499897  0.334929  1
  Zn  Zn2  1  0.995202  0.493544  0.172664  1
  Zn  Zn3  1  0.500861  0.501426  0.665438  1
  Zn  Zn4  1  0.998834  0.498899  0.501138  1
  Zn  Zn5  1  0.993593  0.514426  0.825761  1
  Sn  Sn6  1  0.510108  0.989540  0.167521  1
  Sn  Sn7  1  0.133317  0.121844  0.374191  1
  Sn  Sn8  1  0.492127  0.495546  0.005561  1
  Sn  Sn9  1  0.509995  0.497979  0.167519  1
  Sn  Sn10  1  0.499660  0.998990  0.500875  1
  Sn  Sn11  1  0.122701  0.123637  0.709705  1
  Sn  Sn12  1  0.499658  0.499008  0.500831  1
  Sn  Sn13  1  0.488073  0.012425  0.832156  1
  Sn  Sn14  1  0.872594  0.872202  0.294565  1
  Sn  Sn15  1  0.488137  0.502574  0.832201  1
  Sn  Sn16  1  0.865741  0.875933  0.627788  1
  Sn  Sn17  1  0.860620  0.891874  0.951903  1
  O  O18  1  0.270390  0.227244  0.093362  1
  O  O19  1  0.290066  0.277261  0.218539  1
  O  O20  1  0.270001  0.722258  0.093442  1
  O  O21  1  0.740698  0.231520  0.098758  1
  O  O22  1  0.270876  0.247564  0.425252  1
  O  O23  1  0.301622  0.741049  0.238837  1
  O  O24  1  0.279755  0.271520  0.559179  1
  O  O25  1  0.721702  0.288778  0.247875  1
  O  O26  1  0.270943  0.705494  0.425200  1
  O  O27  1  0.736129  0.713846  0.112085  1
  O  O28  1  0.707607  0.249604  0.431097  1
  O  O29  1  0.721819  0.746328  0.247873  1
  O  O30  1  0.261876  0.263722  0.757108  1
  O  O31  1  0.297061  0.746357  0.570124  1
  O  O32  1  0.725598  0.293814  0.576728  1
  O  O33  1  0.261984  0.702124  0.757136  1
  O  O34  1  0.284998  0.248135  0.906126  1
  O  O35  1  0.719629  0.727612  0.441787  1
  O  O36  1  0.687789  0.268021  0.758611  1
  O  O37  1  0.725636  0.751048  0.576775  1
  O  O38  1  0.271278  0.771693  0.895003  1
  O  O39  1  0.764108  0.290452  0.889599  1
  O  O40  1  0.692614  0.746612  0.771204  1
  O  O41  1  0.764126  0.776833  0.889523  1
