# generated using pymatgen
data_Ca(FeS2)2
_symmetry_space_group_name_H-M   'P 1'
_cell_length_a   7.25984229
_cell_length_b   7.01981621
_cell_length_c   7.03001345
_cell_angle_alpha   89.45846166
_cell_angle_beta   121.07838031
_cell_angle_gamma   121.17070110
_symmetry_Int_Tables_number   1
_chemical_formula_structural   Ca(FeS2)2
_chemical_formula_sum   'Ca2 Fe4 S8'
_cell_volume   245.77071767
_cell_formula_units_Z   2
loop_
 _symmetry_equiv_pos_site_id
 _symmetry_equiv_pos_as_xyz
  1  'x, y, z'
loop_
 _atom_site_type_symbol
 _atom_site_label
 _atom_site_symmetry_multiplicity
 _atom_site_fract_x
 _atom_site_fract_y
 _atom_site_fract_z
 _atom_site_occupancy
  Ca  Ca0  1  0.999999  0.000007  0.999986  1
  Ca  Ca1  1  0.500019  1.000000  0.000008  1
  Fe  Fe2  1  0.499930  0.999926  0.499930  1
  Fe  Fe3  1  0.500012  0.499983  0.499999  1
  Fe  Fe4  1  0.000063  0.500043  0.000076  1
  Fe  Fe5  1  0.000005  0.500011  0.499986  1
  S  S6  1  0.033990  0.727493  0.271020  1
  S  S7  1  0.458550  0.721880  0.695034  1
  S  S8  1  0.464983  0.727862  0.271553  1
  S  S9  1  0.959146  0.695731  0.722381  1
  S  S10  1  0.535126  0.272147  0.728483  1
  S  S11  1  0.541431  0.278083  0.304938  1
  S  S12  1  0.040881  0.304238  0.277669  1
  S  S13  1  0.965914  0.272563  0.728981  1
