# generated using pymatgen
data_AlRe(WO4)2
_symmetry_space_group_name_H-M   'P 1'
_cell_length_a   5.20097608
_cell_length_b   5.60283456
_cell_length_c   9.28477700
_cell_angle_alpha   89.99752338
_cell_angle_beta   89.72163585
_cell_angle_gamma   90.00201676
_symmetry_Int_Tables_number   1
_chemical_formula_structural   AlRe(WO4)2
_chemical_formula_sum   'Al2 Re2 W4 O16'
_cell_volume   270.55714453
_cell_formula_units_Z   2
loop_
 _symmetry_equiv_pos_site_id
 _symmetry_equiv_pos_as_xyz
  1  'x, y, z'
loop_
 _atom_site_type_symbol
 _atom_site_label
 _atom_site_symmetry_multiplicity
 _atom_site_fract_x
 _atom_site_fract_y
 _atom_site_fract_z
 _atom_site_occupancy
  Al  Al0  1  0.250009  0.661113  0.250015  1
  Al  Al1  1  0.749990  0.338886  0.749985  1
  Re  Re2  1  0.749989  0.364069  0.249987  1
  Re  Re3  1  0.250011  0.635930  0.750013  1
  W  W4  1  0.242996  0.156822  0.497596  1
  W  W5  1  0.257013  0.156801  0.002405  1
  W  W6  1  0.757004  0.843178  0.502404  1
  W  W7  1  0.742987  0.843199  0.997595  1
  O  O8  1  0.415847  0.395447  0.142083  1
  O  O9  1  0.084180  0.395460  0.357894  1
  O  O10  1  0.584153  0.604552  0.857917  1
  O  O11  1  0.915819  0.604539  0.642106  1
  O  O12  1  0.403552  0.868327  0.616215  1
  O  O13  1  0.096441  0.868396  0.883770  1
  O  O14  1  0.596448  0.131673  0.383785  1
  O  O15  1  0.903559  0.131604  0.116230  1
  O  O16  1  0.926795  0.623457  0.142435  1
  O  O17  1  0.573229  0.623467  0.357562  1
  O  O18  1  0.073205  0.376544  0.857565  1
  O  O19  1  0.426771  0.376534  0.642438  1
  O  O20  1  0.406089  0.880006  0.122030  1
  O  O21  1  0.593911  0.119995  0.877970  1
  O  O22  1  0.093908  0.880025  0.377969  1
  O  O23  1  0.906092  0.119976  0.622031  1
