# generated using pymatgen
data_MgBiWO5
_symmetry_space_group_name_H-M   'P 1'
_cell_length_a   5.13537956
_cell_length_b   10.19224617
_cell_length_c   18.30567173
_cell_angle_alpha   90.00000000
_cell_angle_beta   90.00000000
_cell_angle_gamma   90.00000000
_symmetry_Int_Tables_number   1
_chemical_formula_structural   MgBiWO5
_chemical_formula_sum   'Mg8 Bi8 W8 O40'
_cell_volume   958.13812785
_cell_formula_units_Z   8
loop_
 _symmetry_equiv_pos_site_id
 _symmetry_equiv_pos_as_xyz
  1  'x, y, z'
loop_
 _atom_site_type_symbol
 _atom_site_label
 _atom_site_symmetry_multiplicity
 _atom_site_fract_x
 _atom_site_fract_y
 _atom_site_fract_z
 _atom_site_occupancy
  Mg  Mg0  1  0.519018  0.361215  0.443143  1
  Mg  Mg1  1  0.019018  0.138785  0.443143  1
  Mg  Mg2  1  0.019018  0.638785  0.056857  1
  Mg  Mg3  1  0.980982  0.361215  0.943143  1
  Mg  Mg4  1  0.480982  0.138785  0.943143  1
  Mg  Mg5  1  0.980982  0.861215  0.556857  1
  Mg  Mg6  1  0.480982  0.638785  0.556857  1
  Mg  Mg7  1  0.519018  0.861215  0.056857  1
  Bi  Bi8  1  0.952185  0.847167  0.210086  1
  Bi  Bi9  1  0.047815  0.152833  0.789914  1
  Bi  Bi10  1  0.547815  0.347167  0.789914  1
  Bi  Bi11  1  0.047815  0.652833  0.710086  1
  Bi  Bi12  1  0.452185  0.152833  0.289914  1
  Bi  Bi13  1  0.452185  0.652833  0.210086  1
  Bi  Bi14  1  0.547815  0.847167  0.710086  1
  Bi  Bi15  1  0.952185  0.347167  0.289914  1
  W  W16  1  0.994907  0.380831  0.576582  1
  W  W17  1  0.505093  0.880831  0.423418  1
  W  W18  1  0.005093  0.619169  0.423418  1
  W  W19  1  0.494907  0.119169  0.576582  1
  W  W20  1  0.005093  0.119169  0.076582  1
  W  W21  1  0.994907  0.880831  0.923418  1
  W  W22  1  0.505093  0.380831  0.076582  1
  W  W23  1  0.494907  0.619169  0.923418  1
  O  O24  1  0.864938  0.318656  0.660015  1
  O  O25  1  0.259190  0.017786  0.032998  1
  O  O26  1  0.240811  0.517786  0.967002  1
  O  O27  1  0.249015  0.780568  0.128006  1
  O  O28  1  0.250985  0.280568  0.871994  1
  O  O29  1  0.864938  0.818656  0.839985  1
  O  O30  1  0.250985  0.780568  0.628006  1
  O  O31  1  0.635062  0.818656  0.339985  1
  O  O32  1  0.259190  0.517786  0.467002  1
  O  O33  1  0.135062  0.681344  0.339985  1
  O  O34  1  0.635062  0.318656  0.160015  1
  O  O35  1  0.731887  0.227991  0.523065  1
  O  O36  1  0.759189  0.982214  0.467002  1
  O  O37  1  0.750985  0.719432  0.628006  1
  O  O38  1  0.212513  0.010128  0.884946  1
  O  O39  1  0.759189  0.482214  0.032998  1
  O  O40  1  0.135062  0.181344  0.160015  1
  O  O41  1  0.749015  0.219432  0.371994  1
  O  O42  1  0.231888  0.772009  0.976935  1
  O  O43  1  0.240811  0.017786  0.532998  1
  O  O44  1  0.268112  0.772009  0.476935  1
  O  O45  1  0.787487  0.989872  0.115054  1
  O  O46  1  0.750985  0.219432  0.871994  1
  O  O47  1  0.712513  0.989872  0.615054  1
  O  O48  1  0.268112  0.272009  0.023065  1
  O  O49  1  0.231888  0.272009  0.523065  1
  O  O50  1  0.740811  0.482214  0.532998  1
  O  O51  1  0.740811  0.982214  0.967002  1
  O  O52  1  0.712513  0.489872  0.884946  1
  O  O53  1  0.768113  0.727991  0.476935  1
  O  O54  1  0.768113  0.227991  0.023065  1
  O  O55  1  0.731887  0.727991  0.976935  1
  O  O56  1  0.787487  0.489872  0.384946  1
  O  O57  1  0.749015  0.719432  0.128006  1
  O  O58  1  0.249015  0.280568  0.371994  1
  O  O59  1  0.212513  0.510128  0.615054  1
  O  O60  1  0.287487  0.510128  0.115054  1
  O  O61  1  0.364938  0.181344  0.660015  1
  O  O62  1  0.287487  0.010128  0.384946  1
  O  O63  1  0.364938  0.681344  0.839985  1
