# generated using pymatgen
data_PrMg(FeO3)2
_symmetry_space_group_name_H-M   'P 1'
_cell_length_a   5.31951611
_cell_length_b   5.48377362
_cell_length_c   7.69579813
_cell_angle_alpha   90.00185397
_cell_angle_beta   90.00862208
_cell_angle_gamma   90.00334103
_symmetry_Int_Tables_number   1
_chemical_formula_structural   PrMg(FeO3)2
_chemical_formula_sum   'Pr2 Mg2 Fe4 O12'
_cell_volume   224.49429450
_cell_formula_units_Z   2
loop_
 _symmetry_equiv_pos_site_id
 _symmetry_equiv_pos_as_xyz
  1  'x, y, z'
loop_
 _atom_site_type_symbol
 _atom_site_label
 _atom_site_symmetry_multiplicity
 _atom_site_fract_x
 _atom_site_fract_y
 _atom_site_fract_z
 _atom_site_occupancy
  Pr  Pr0  1  0.010322  0.956720  0.749988  1
  Pr  Pr1  1  0.510297  0.543254  0.250005  1
  Mg  Mg2  1  0.476885  0.441253  0.749937  1
  Mg  Mg3  1  0.976851  0.058695  0.249975  1
  Fe  Fe4  1  0.999617  0.498073  0.998470  1
  Fe  Fe5  1  0.999636  0.497966  0.501566  1
  Fe  Fe6  1  0.499569  0.002038  0.498420  1
  Fe  Fe7  1  0.499633  0.002106  0.001575  1
  O  O8  1  0.081146  0.453256  0.249994  1
  O  O9  1  0.222248  0.222949  0.944737  1
  O  O10  1  0.222291  0.223109  0.555290  1
  O  O11  1  0.308964  0.694279  0.558967  1
  O  O12  1  0.308898  0.694242  0.941016  1
  O  O13  1  0.369946  0.975000  0.250005  1
  O  O14  1  0.581198  0.046769  0.750027  1
  O  O15  1  0.722299  0.276921  0.055326  1
  O  O16  1  0.722323  0.277005  0.444688  1
  O  O17  1  0.808954  0.805688  0.058963  1
  O  O18  1  0.808924  0.805710  0.441002  1
  O  O19  1  0.869994  0.524965  0.750050  1
