# generated using pymatgen
data_Ca2AlSbO5
_symmetry_space_group_name_H-M   'P 1'
_cell_length_a   5.53496286
_cell_length_b   6.02558300
_cell_length_c   8.49986808
_cell_angle_alpha   110.68096467
_cell_angle_beta   104.97440716
_cell_angle_gamma   90.01599660
_symmetry_Int_Tables_number   1
_chemical_formula_structural   Ca2AlSbO5
_chemical_formula_sum   'Ca4 Al2 Sb2 O10'
_cell_volume   254.89143199
_cell_formula_units_Z   2
loop_
 _symmetry_equiv_pos_site_id
 _symmetry_equiv_pos_as_xyz
  1  'x, y, z'
loop_
 _atom_site_type_symbol
 _atom_site_label
 _atom_site_symmetry_multiplicity
 _atom_site_fract_x
 _atom_site_fract_y
 _atom_site_fract_z
 _atom_site_occupancy
  Ca  Ca0  1  0.137576  0.644965  0.243817  1
  Ca  Ca1  1  0.394337  0.900650  0.734518  1
  Ca  Ca2  1  0.894877  0.330097  0.736397  1
  Ca  Ca3  1  0.645564  0.098386  0.244302  1
  Al  Al4  1  0.267385  0.309818  0.482915  1
  Al  Al5  1  0.766613  0.670251  0.483164  1
  Sb  Sb6  1  0.528283  0.491410  0.013346  1
  Sb  Sb7  1  0.030953  0.017545  0.011525  1
  O  O8  1  0.588831  0.430223  0.509566  1
  O  O9  1  0.087215  0.574315  0.507459  1
  O  O10  1  0.675545  0.723363  0.277825  1
  O  O11  1  0.223086  0.194464  0.636259  1
  O  O12  1  0.168835  0.053814  0.277378  1
  O  O13  1  0.723522  0.937985  0.636430  1
  O  O14  1  0.183259  0.638058  0.978731  1
  O  O15  1  0.363722  0.315279  0.128982  1
  O  O16  1  0.860864  0.309869  0.119445  1
  O  O17  1  0.686618  0.840272  0.977661  1
