# generated using pymatgen
data_Ba2Ca3Tl2V4O12
_symmetry_space_group_name_H-M   'P 1'
_cell_length_a   3.93857409
_cell_length_b   3.93857388
_cell_length_c   22.85322928
_cell_angle_alpha   94.94337130
_cell_angle_beta   94.94337044
_cell_angle_gamma   89.99999402
_symmetry_Int_Tables_number   1
_chemical_formula_structural   Ba2Ca3Tl2V4O12
_chemical_formula_sum   'Ba2 Ca3 Tl2 V4 O12'
_cell_volume   351.86540662
_cell_formula_units_Z   1
loop_
 _symmetry_equiv_pos_site_id
 _symmetry_equiv_pos_as_xyz
  1  'x, y, z'
loop_
 _atom_site_type_symbol
 _atom_site_label
 _atom_site_symmetry_multiplicity
 _atom_site_fract_x
 _atom_site_fract_y
 _atom_site_fract_z
 _atom_site_occupancy
  Ba  Ba0  1  0.164310  0.164310  0.328619  1
  Ba  Ba1  1  0.835690  0.835690  0.671381  1
  Ca  Ca2  1  0.077048  0.077048  0.154096  1
  Ca  Ca3  1  0.922952  0.922952  0.845904  1
  Ca  Ca4  1  0.000000  -0.000000  0.000000  1
  Tl  Tl5  1  0.725493  0.725493  0.450985  1
  Tl  Tl6  1  0.274507  0.274507  0.549015  1
  V  V7  1  0.537229  0.537229  0.074458  1
  V  V8  1  0.386291  0.386291  0.772581  1
  V  V9  1  0.613709  0.613709  0.227419  1
  V  V10  1  0.462771  0.462771  0.925542  1
  O  O11  1  0.394121  0.894121  0.788240  1
  O  O12  1  0.535068  0.035068  0.070136  1
  O  O13  1  0.221415  0.221415  0.442830  1
  O  O14  1  0.964932  0.464932  0.929864  1
  O  O15  1  0.778585  0.778585  0.557170  1
  O  O16  1  0.105879  0.605879  0.211760  1
  O  O17  1  0.605879  0.105879  0.211760  1
  O  O18  1  0.344008  0.344008  0.688015  1
  O  O19  1  0.894121  0.394121  0.788240  1
  O  O20  1  0.035068  0.535068  0.070136  1
  O  O21  1  0.464932  0.964932  0.929864  1
  O  O22  1  0.655992  0.655992  0.311985  1
