# generated using pymatgen
data_Y2Cr2O7
_symmetry_space_group_name_H-M   'P 1'
_cell_length_a   7.11401540
_cell_length_b   7.11811269
_cell_length_c   7.14504013
_cell_angle_alpha   60.11112268
_cell_angle_beta   60.22831365
_cell_angle_gamma   60.01957954
_symmetry_Int_Tables_number   1
_chemical_formula_structural   Y2Cr2O7
_chemical_formula_sum   'Y4 Cr4 O14'
_cell_volume   256.53245490
_cell_formula_units_Z   2
loop_
 _symmetry_equiv_pos_site_id
 _symmetry_equiv_pos_as_xyz
  1  'x, y, z'
loop_
 _atom_site_type_symbol
 _atom_site_label
 _atom_site_symmetry_multiplicity
 _atom_site_fract_x
 _atom_site_fract_y
 _atom_site_fract_z
 _atom_site_occupancy
  Y  Y0  1  0.500088  0.999955  0.499972  1
  Y  Y1  1  -0.000011  0.499966  0.499970  1
  Y  Y2  1  0.500048  0.499908  0.000035  1
  Y  Y3  1  0.500130  0.499883  0.499994  1
  Cr  Cr4  1  0.000028  0.499973  0.000093  1
  Cr  Cr5  1  0.500073  0.000095  0.000033  1
  Cr  Cr6  1  -0.000188  0.000147  0.499864  1
  Cr  Cr7  1  -0.000274  0.000188  0.000119  1
  O  O8  1  0.624775  0.624186  0.627343  1
  O  O9  1  0.375251  0.375718  0.372725  1
  O  O10  1  0.325913  0.928915  0.914109  1
  O  O11  1  0.081936  0.664814  0.678193  1
  O  O12  1  0.918377  0.327942  0.924017  1
  O  O13  1  0.926365  0.913110  0.333830  1
  O  O14  1  0.334444  0.323099  0.922555  1
  O  O15  1  0.326750  0.917985  0.333192  1
  O  O16  1  0.918101  0.335265  0.321730  1
  O  O17  1  0.665498  0.676917  0.077447  1
  O  O18  1  0.073738  0.086873  0.666130  1
  O  O19  1  0.674076  0.070990  0.085887  1
  O  O20  1  0.673212  0.081918  0.666907  1
  O  O21  1  0.081671  0.672152  0.075855  1
