# generated using pymatgen
data_BaCo4O7
_symmetry_space_group_name_H-M   'P 1'
_cell_length_a   6.36254735
_cell_length_b   6.36254688
_cell_length_c   10.13896065
_cell_angle_alpha   90.00000000
_cell_angle_beta   90.00000000
_cell_angle_gamma   120.00000238
_symmetry_Int_Tables_number   1
_chemical_formula_structural   BaCo4O7
_chemical_formula_sum   'Ba2 Co8 O14'
_cell_volume   355.45619003
_cell_formula_units_Z   2
loop_
 _symmetry_equiv_pos_site_id
 _symmetry_equiv_pos_as_xyz
  1  'x, y, z'
loop_
 _atom_site_type_symbol
 _atom_site_label
 _atom_site_symmetry_multiplicity
 _atom_site_fract_x
 _atom_site_fract_y
 _atom_site_fract_z
 _atom_site_occupancy
  Ba  Ba0  1  0.666667  0.333333  0.496419  1
  Ba  Ba1  1  0.333333  0.666667  0.996419  1
  Co  Co2  1  0.826869  0.173132  0.187186  1
  Co  Co3  1  0.653737  0.826868  0.687187  1
  Co  Co4  1  0.173132  0.346263  0.687187  1
  Co  Co5  1  0.826869  0.653737  0.187186  1
  Co  Co6  1  0.346262  0.173132  0.187186  1
  Co  Co7  1  0.173132  0.826868  0.687187  1
  Co  Co8  1  0.000000  0.000000  0.438019  1
  Co  Co9  1  0.000000  0.000000  0.938019  1
  O  O10  1  0.850292  0.149709  0.013124  1
  O  O11  1  0.700584  0.850291  0.513123  1
  O  O12  1  0.149708  0.299415  0.513123  1
  O  O13  1  0.850293  0.700585  0.013124  1
  O  O14  1  0.299415  0.149709  0.013124  1
  O  O15  1  0.149708  0.850291  0.513123  1
  O  O16  1  0.000000  0.000000  0.750591  1
  O  O17  1  0.000000  0.000000  0.250592  1
  O  O18  1  0.515894  0.484108  0.256031  1
  O  O19  1  0.031786  0.515894  0.756031  1
  O  O20  1  0.484107  0.968214  0.756031  1
  O  O21  1  0.515894  0.031786  0.256031  1
  O  O22  1  0.484108  0.515894  0.756031  1
  O  O23  1  0.968214  0.484108  0.256031  1
