# generated using pymatgen
data_BaMgFeF7
_symmetry_space_group_name_H-M   'P 1'
_cell_length_a   5.64034768
_cell_length_b   9.70426491
_cell_length_c   9.99493956
_cell_angle_alpha   90.00000000
_cell_angle_beta   90.00000000
_cell_angle_gamma   93.07558611
_symmetry_Int_Tables_number   1
_chemical_formula_structural   BaMgFeF7
_chemical_formula_sum   'Ba4 Mg4 Fe4 F28'
_cell_volume   546.28929819
_cell_formula_units_Z   4
loop_
 _symmetry_equiv_pos_site_id
 _symmetry_equiv_pos_as_xyz
  1  'x, y, z'
loop_
 _atom_site_type_symbol
 _atom_site_label
 _atom_site_symmetry_multiplicity
 _atom_site_fract_x
 _atom_site_fract_y
 _atom_site_fract_z
 _atom_site_occupancy
  Ba  Ba0  1  0.263523  0.498999  0.321863  1
  Ba  Ba1  1  0.736477  0.001001  0.821863  1
  Ba  Ba2  1  0.736477  0.501001  0.678137  1
  Ba  Ba3  1  0.263523  0.998999  0.178137  1
  Mg  Mg4  1  0.697714  0.810009  0.394844  1
  Mg  Mg5  1  0.302286  0.689991  0.894844  1
  Mg  Mg6  1  0.697714  0.310009  0.105156  1
  Mg  Mg7  1  0.302286  0.189991  0.605156  1
  Fe  Fe8  1  0.194925  0.812786  0.609584  1
  Fe  Fe9  1  0.805075  0.187214  0.390416  1
  Fe  Fe10  1  0.194925  0.312786  0.890416  1
  Fe  Fe11  1  0.805075  0.687214  0.109584  1
  F  F12  1  0.114889  0.125878  0.446313  1
  F  F13  1  0.372731  0.368875  0.049212  1
  F  F14  1  0.470779  0.750972  0.713715  1
  F  F15  1  0.529221  0.249028  0.286285  1
  F  F16  1  0.889004  0.367082  0.457977  1
  F  F17  1  0.257387  0.498895  0.811384  1
  F  F18  1  0.026505  0.751802  0.779864  1
  F  F19  1  0.110996  0.132918  0.957977  1
  F  F20  1  0.372731  0.868875  0.450788  1
  F  F21  1  0.529221  0.749028  0.213715  1
  F  F22  1  0.114889  0.625878  0.053687  1
  F  F23  1  0.885111  0.874122  0.553687  1
  F  F24  1  0.973495  0.748198  0.279864  1
  F  F25  1  0.387236  0.872672  0.958626  1
  F  F26  1  0.110996  0.632918  0.542023  1
  F  F27  1  0.889004  0.867082  0.042023  1
  F  F28  1  0.973495  0.248198  0.220136  1
  F  F29  1  0.885111  0.374122  0.946313  1
  F  F30  1  0.612764  0.627328  0.458626  1
  F  F31  1  0.627269  0.631125  0.950788  1
  F  F32  1  0.612764  0.127328  0.041374  1
  F  F33  1  0.026505  0.251802  0.720136  1
  F  F34  1  0.387236  0.372672  0.541374  1
  F  F35  1  0.742613  0.001105  0.311384  1
  F  F36  1  0.742613  0.501105  0.188616  1
  F  F37  1  0.257387  0.998895  0.688616  1
  F  F38  1  0.627269  0.131125  0.549212  1
  F  F39  1  0.470779  0.250972  0.786285  1
