# generated using pymatgen
data_Ca(CoO2)2
_symmetry_space_group_name_H-M   'P 1'
_cell_length_a   5.99389384
_cell_length_b   5.99389363
_cell_length_c   5.99389399
_cell_angle_alpha   60.00000347
_cell_angle_beta   60.00000466
_cell_angle_gamma   59.99999879
_symmetry_Int_Tables_number   1
_chemical_formula_structural   Ca(CoO2)2
_chemical_formula_sum   'Ca2 Co4 O8'
_cell_volume   152.26923325
_cell_formula_units_Z   2
loop_
 _symmetry_equiv_pos_site_id
 _symmetry_equiv_pos_as_xyz
  1  'x, y, z'
loop_
 _atom_site_type_symbol
 _atom_site_label
 _atom_site_symmetry_multiplicity
 _atom_site_fract_x
 _atom_site_fract_y
 _atom_site_fract_z
 _atom_site_occupancy
  Ca  Ca0  1  0.875000  0.875000  0.875000  1
  Ca  Ca1  1  0.125000  0.125000  0.125000  1
  Co  Co2  1  0.500000  0.500000  0.500000  1
  Co  Co3  1  0.500000  0.500000  0.000000  1
  Co  Co4  1  0.000000  0.500000  0.500000  1
  Co  Co5  1  0.500000  0.000000  0.500000  1
  O  O6  1  0.271228  0.271228  0.271228  1
  O  O7  1  0.728772  0.728772  0.313685  1
  O  O8  1  0.313685  0.728772  0.728772  1
  O  O9  1  0.728772  0.313685  0.728772  1
  O  O10  1  0.686315  0.271228  0.271228  1
  O  O11  1  0.271228  0.686315  0.271228  1
  O  O12  1  0.271228  0.271228  0.686315  1
  O  O13  1  0.728772  0.728772  0.728772  1
