# generated using pymatgen
data_Ba2Ca2Tl2Fe3O10
_symmetry_space_group_name_H-M   'P 1'
_cell_length_a   3.98786955
_cell_length_b   3.96159931
_cell_length_c   18.60019664
_cell_angle_alpha   95.88002330
_cell_angle_beta   96.05126226
_cell_angle_gamma   89.99643345
_symmetry_Int_Tables_number   1
_chemical_formula_structural   Ba2Ca2Tl2Fe3O10
_chemical_formula_sum   'Ba2 Ca2 Tl2 Fe3 O10'
_cell_volume   290.66031710
_cell_formula_units_Z   1
loop_
 _symmetry_equiv_pos_site_id
 _symmetry_equiv_pos_as_xyz
  1  'x, y, z'
loop_
 _atom_site_type_symbol
 _atom_site_label
 _atom_site_symmetry_multiplicity
 _atom_site_fract_x
 _atom_site_fract_y
 _atom_site_fract_z
 _atom_site_occupancy
  Ba  Ba0  1  0.092112  0.162688  0.286718  1
  Ba  Ba1  1  0.791781  0.836644  0.712324  1
  Ca  Ca2  1  0.882784  0.942189  0.908766  1
  Ca  Ca3  1  0.983653  0.064134  0.089980  1
  Tl  Tl4  1  0.616802  0.722374  0.437575  1
  Tl  Tl5  1  0.175783  0.272133  0.561750  1
  Fe  Fe6  1  0.342655  0.393055  0.824073  1
  Fe  Fe7  1  0.531543  0.610107  0.174569  1
  Fe  Fe8  1  0.429795  0.505177  0.999413  1
  O  O9  1  0.343409  0.894230  0.827381  1
  O  O10  1  0.287078  0.320079  0.677024  1
  O  O11  1  0.843843  0.394243  0.826718  1
  O  O12  1  0.842611  0.767269  0.549578  1
  O  O13  1  0.929486  0.505951  0.999614  1
  O  O14  1  0.030584  0.609302  0.172264  1
  O  O15  1  0.622594  0.676743  0.322752  1
  O  O16  1  0.529461  0.108900  0.171464  1
  O  O17  1  0.296725  0.227457  0.449707  1
  O  O18  1  0.428387  0.005289  0.999292  1
