# generated using pymatgen
data_Ca(BiO2)4
_symmetry_space_group_name_H-M   'P 1'
_cell_length_a   3.48460057
_cell_length_b   8.53071672
_cell_length_c   8.95033258
_cell_angle_alpha   74.43404208
_cell_angle_beta   78.65890048
_cell_angle_gamma   78.07641526
_symmetry_Int_Tables_number   1
_chemical_formula_structural   Ca(BiO2)4
_chemical_formula_sum   'Ca1 Bi4 O8'
_cell_volume   247.94023640
_cell_formula_units_Z   1
loop_
 _symmetry_equiv_pos_site_id
 _symmetry_equiv_pos_as_xyz
  1  'x, y, z'
loop_
 _atom_site_type_symbol
 _atom_site_label
 _atom_site_symmetry_multiplicity
 _atom_site_fract_x
 _atom_site_fract_y
 _atom_site_fract_z
 _atom_site_occupancy
  Ca  Ca0  1  0.330303  0.149368  0.202278  1
  Bi  Bi1  1  0.641163  0.167202  0.559270  1
  Bi  Bi2  1  0.131700  0.547377  0.203542  1
  Bi  Bi3  1  0.851787  0.460483  0.849805  1
  Bi  Bi4  1  0.354912  0.798881  0.503799  1
  O  O5  1  0.874803  0.638395  0.625688  1
  O  O6  1  0.454591  0.321289  0.785738  1
  O  O7  1  0.528313  0.683594  0.272458  1
  O  O8  1  0.157319  0.305770  0.386475  1
  O  O9  1  0.188000  0.988511  0.643964  1
  O  O10  1  0.798157  0.325280  0.090450  1
  O  O11  1  0.818273  0.007842  0.367816  1
  O  O12  1  0.248843  0.596646  0.917510  1
