# generated using pymatgen
data_Y(FeO2)3
_symmetry_space_group_name_H-M   'P 1'
_cell_length_a   18.59871169
_cell_length_b   6.27712543
_cell_length_c   6.27712548
_cell_angle_alpha   59.87360999
_cell_angle_beta   59.72874733
_cell_angle_gamma   59.72873496
_symmetry_Int_Tables_number   1
_chemical_formula_structural   Y(FeO2)3
_chemical_formula_sum   'Y4 Fe12 O24'
_cell_volume   515.56508411
_cell_formula_units_Z   4
loop_
 _symmetry_equiv_pos_site_id
 _symmetry_equiv_pos_as_xyz
  1  'x, y, z'
loop_
 _atom_site_type_symbol
 _atom_site_label
 _atom_site_symmetry_multiplicity
 _atom_site_fract_x
 _atom_site_fract_y
 _atom_site_fract_z
 _atom_site_occupancy
  Y  Y0  1  0.226656  0.606344  0.606344  1
  Y  Y1  1  0.536148  0.629764  0.629764  1
  Y  Y2  1  0.106677  0.393656  0.393656  1
  Y  Y3  1  0.797185  0.370236  0.370236  1
  Fe  Fe4  1  -0.000105  0.508995  0.996355  1
  Fe  Fe5  1  0.333437  0.491005  0.003645  1
  Fe  Fe6  1  0.666667  0.500000  0.000000  1
  Fe  Fe7  1  0.999399  0.998342  0.998342  1
  Fe  Fe8  1  0.333934  0.001658  0.001658  1
  Fe  Fe9  1  0.666667  0.000000  0.000000  1
  Fe  Fe10  1  0.166667  0.000000  0.000000  1
  Fe  Fe11  1  0.493083  0.005951  0.005951  1
  Fe  Fe12  1  0.840250  0.994049  0.994049  1
  Fe  Fe13  1  -0.000105  0.996355  0.508995  1
  Fe  Fe14  1  0.333437  0.003645  0.491005  1
  Fe  Fe15  1  0.666667  0.000000  0.500000  1
  O  O16  1  0.081674  0.750502  0.750502  1
  O  O17  1  0.396039  0.769816  0.769816  1
  O  O18  1  0.727095  0.773434  0.773434  1
  O  O19  1  0.080074  0.229454  0.802696  1
  O  O20  1  0.402805  0.241499  0.807314  1
  O  O21  1  0.748242  0.233354  0.791131  1
  O  O22  1  0.080074  0.802696  0.229454  1
  O  O23  1  0.402805  0.807314  0.241499  1
  O  O24  1  0.748242  0.791131  0.233354  1
  O  O25  1  0.081315  0.227638  0.227638  1
  O  O26  1  0.404602  0.238469  0.238469  1
  O  O27  1  0.748921  0.231903  0.231903  1
  O  O28  1  0.253260  0.770546  0.197304  1
  O  O29  1  0.585091  0.766646  0.208869  1
  O  O30  1  0.930528  0.758501  0.192686  1
  O  O31  1  0.251660  0.249498  0.249498  1
  O  O32  1  0.606238  0.226566  0.226566  1
  O  O33  1  0.937294  0.230184  0.230184  1
  O  O34  1  0.253260  0.197304  0.770546  1
  O  O35  1  0.585091  0.208869  0.766646  1
  O  O36  1  0.930528  0.192686  0.758501  1
  O  O37  1  0.252019  0.772362  0.772362  1
  O  O38  1  0.584412  0.768097  0.768097  1
  O  O39  1  0.928731  0.761531  0.761531  1
