# generated using pymatgen
data_TiZnBi(PO4)3
_symmetry_space_group_name_H-M   'P 1'
_cell_length_a   8.45135835
_cell_length_b   8.45135879
_cell_length_c   8.45135914
_cell_angle_alpha   64.08301280
_cell_angle_beta   64.08301430
_cell_angle_gamma   64.08301811
_symmetry_Int_Tables_number   1
_chemical_formula_structural   TiZnBi(PO4)3
_chemical_formula_sum   'Ti2 Zn2 Bi2 P6 O24'
_cell_volume   465.19588735
_cell_formula_units_Z   2
loop_
 _symmetry_equiv_pos_site_id
 _symmetry_equiv_pos_as_xyz
  1  'x, y, z'
loop_
 _atom_site_type_symbol
 _atom_site_label
 _atom_site_symmetry_multiplicity
 _atom_site_fract_x
 _atom_site_fract_y
 _atom_site_fract_z
 _atom_site_occupancy
  Ti  Ti0  1  0.149447  0.149447  0.149447  1
  Ti  Ti1  1  0.649447  0.649447  0.649447  1
  Zn  Zn2  1  0.993414  0.993414  0.993414  1
  Zn  Zn3  1  0.493414  0.493414  0.493414  1
  Bi  Bi4  1  0.332186  0.332186  0.332186  1
  Bi  Bi5  1  0.832186  0.832186  0.832186  1
  P  P6  1  0.065101  0.429352  0.759529  1
  P  P7  1  0.429352  0.759529  0.065101  1
  P  P8  1  0.759529  0.065101  0.429352  1
  P  P9  1  0.259529  0.929352  0.565101  1
  P  P10  1  0.565101  0.259529  0.929352  1
  P  P11  1  0.929352  0.565101  0.259529  1
  O  O12  1  0.057261  0.564330  0.341202  1
  O  O13  1  0.341202  0.057261  0.564330  1
  O  O14  1  0.071323  0.235700  0.908022  1
  O  O15  1  0.564330  0.341202  0.057261  1
  O  O16  1  0.064330  0.557261  0.841202  1
  O  O17  1  0.241621  0.418189  0.590146  1
  O  O18  1  0.235700  0.908022  0.071323  1
  O  O19  1  0.418189  0.590146  0.241621  1
  O  O20  1  0.209618  0.005802  0.377755  1
  O  O21  1  0.590146  0.241621  0.418189  1
  O  O22  1  0.090146  0.918189  0.741621  1
  O  O23  1  0.377755  0.209618  0.005802  1
  O  O24  1  0.557261  0.841202  0.064330  1
  O  O25  1  0.908022  0.071323  0.235700  1
  O  O26  1  0.408022  0.735700  0.571323  1
  O  O27  1  0.841202  0.064330  0.557261  1
  O  O28  1  0.571323  0.408022  0.735700  1
  O  O29  1  0.741621  0.090146  0.918189  1
  O  O30  1  0.735700  0.571323  0.408022  1
  O  O31  1  0.005802  0.377755  0.209618  1
  O  O32  1  0.505802  0.709618  0.877755  1
  O  O33  1  0.918189  0.741621  0.090146  1
  O  O34  1  0.709618  0.877755  0.505802  1
  O  O35  1  0.877755  0.505802  0.709618  1
