# generated using pymatgen
data_ZnCo3P3O13
_symmetry_space_group_name_H-M   'P 1'
_cell_length_a   6.29419044
_cell_length_b   7.49787542
_cell_length_c   10.04703040
_cell_angle_alpha   100.36357004
_cell_angle_beta   90.00000000
_cell_angle_gamma   90.00000000
_symmetry_Int_Tables_number   1
_chemical_formula_structural   ZnCo3P3O13
_chemical_formula_sum   'Zn2 Co6 P6 O26'
_cell_volume   466.41480572
_cell_formula_units_Z   2
loop_
 _symmetry_equiv_pos_site_id
 _symmetry_equiv_pos_as_xyz
  1  'x, y, z'
loop_
 _atom_site_type_symbol
 _atom_site_label
 _atom_site_symmetry_multiplicity
 _atom_site_fract_x
 _atom_site_fract_y
 _atom_site_fract_z
 _atom_site_occupancy
  Zn  Zn0  1  0.750000  0.628289  0.178073  1
  Zn  Zn1  1  0.250000  0.371711  0.821927  1
  Co  Co2  1  0.250000  0.351155  0.202884  1
  Co  Co3  1  0.750000  0.648845  0.797116  1
  Co  Co4  1  0.250000  0.791336  0.431678  1
  Co  Co5  1  0.500000  -0.000000  -0.000000  1
  Co  Co6  1  0.750000  0.208664  0.568322  1
  Co  Co7  1  0.000000  -0.000000  -0.000000  1
  P  P8  1  0.250000  0.223418  0.497144  1
  P  P9  1  0.750000  0.776582  0.502856  1
  P  P10  1  0.250000  0.734449  0.760571  1
  P  P11  1  0.750000  0.265551  0.239429  1
  P  P12  1  0.750000  0.317400  0.889272  1
  P  P13  1  0.250000  0.682600  0.110728  1
  O  O14  1  0.750000  0.368617  0.746614  1
  O  O15  1  0.558700  0.745974  0.405006  1
  O  O16  1  0.250000  0.783194  0.621020  1
  O  O17  1  0.541630  0.210251  0.903225  1
  O  O18  1  0.750000  0.648347  0.605345  1
  O  O19  1  0.750000  0.876292  0.905770  1
  O  O20  1  0.250000  0.351653  0.394655  1
  O  O21  1  0.041630  0.789749  0.096775  1
  O  O22  1  0.250000  0.026267  0.412620  1
  O  O23  1  0.750000  0.973733  0.587380  1
  O  O24  1  0.061388  0.611822  0.788604  1
  O  O25  1  0.250000  0.123708  0.094230  1
  O  O26  1  0.561388  0.388178  0.211396  1
  O  O27  1  0.750000  0.510373  0.977354  1
  O  O28  1  0.750000  0.216806  0.378980  1
  O  O29  1  0.458370  0.789749  0.096775  1
  O  O30  1  0.941300  0.745974  0.405006  1
  O  O31  1  0.441300  0.254026  0.594994  1
  O  O32  1  0.438612  0.611822  0.788604  1
  O  O33  1  0.250000  0.631383  0.253386  1
  O  O34  1  0.750000  0.087774  0.131240  1
  O  O35  1  0.250000  0.912226  0.868760  1
  O  O36  1  0.938612  0.388178  0.211396  1
  O  O37  1  0.958370  0.210251  0.903225  1
  O  O38  1  0.058700  0.254026  0.594994  1
  O  O39  1  0.250000  0.489627  0.022646  1
