# generated using pymatgen
data_Ba2ZnCr2CuF14
_symmetry_space_group_name_H-M   'P 1'
_cell_length_a   5.31427117
_cell_length_b   7.57030995
_cell_length_c   14.73557357
_cell_angle_alpha   91.43121800
_cell_angle_beta   90.04079506
_cell_angle_gamma   110.50822067
_symmetry_Int_Tables_number   1
_chemical_formula_structural   Ba2ZnCr2CuF14
_chemical_formula_sum   'Ba4 Zn2 Cr4 Cu2 F28'
_cell_volume   555.04865524
_cell_formula_units_Z   2
loop_
 _symmetry_equiv_pos_site_id
 _symmetry_equiv_pos_as_xyz
  1  'x, y, z'
loop_
 _atom_site_type_symbol
 _atom_site_label
 _atom_site_symmetry_multiplicity
 _atom_site_fract_x
 _atom_site_fract_y
 _atom_site_fract_z
 _atom_site_occupancy
  Ba  Ba0  1  0.113740  0.372802  0.624364  1
  Ba  Ba1  1  0.258435  0.373406  0.124502  1
  Ba  Ba2  1  0.886643  0.626540  0.377952  1
  Ba  Ba3  1  0.738379  0.626578  0.877836  1
  Zn  Zn4  1  0.432667  0.000646  0.750586  1
  Zn  Zn5  1  0.566103  0.999590  0.250334  1
  Cr  Cr6  1  0.100785  0.239185  0.874171  1
  Cr  Cr7  1  0.896578  0.760282  0.127475  1
  Cr  Cr8  1  0.137206  0.238867  0.373849  1
  Cr  Cr9  1  0.862193  0.759405  0.627811  1
  Cu  Cu10  1  0.497932  0.000552  0.000754  1
  Cu  Cu11  1  0.500950  0.999733  0.500457  1
  F  F12  1  0.894680  0.988185  0.339713  1
  F  F13  1  0.870135  0.275290  0.455458  1
  F  F14  1  0.131208  0.724149  0.546926  1
  F  F15  1  0.652979  0.500861  0.596758  1
  F  F16  1  0.607926  0.095523  0.622626  1
  F  F17  1  0.509061  0.904331  0.877867  1
  F  F18  1  0.403654  0.275141  0.955841  1
  F  F19  1  0.903786  0.010595  0.162320  1
  F  F20  1  0.358428  0.326881  0.777804  1
  F  F21  1  0.346919  0.498550  0.404316  1
  F  F22  1  0.806804  0.225823  0.789915  1
  F  F23  1  0.151643  0.499081  0.903937  1
  F  F24  1  0.417218  0.225280  0.289964  1
  F  F25  1  0.193245  0.772888  0.210454  1
  F  F26  1  0.486775  0.096201  0.122908  1
  F  F27  1  0.641807  0.669071  0.224302  1
  F  F28  1  0.122129  0.837783  0.018085  1
  F  F29  1  0.106232  0.010528  0.662835  1
  F  F30  1  0.872920  0.163341  0.983199  1
  F  F31  1  0.714292  0.837165  0.518150  1
  F  F32  1  0.591765  0.724410  0.046713  1
  F  F33  1  0.579778  0.773116  0.711019  1
  F  F34  1  0.968617  0.328984  0.277656  1
  F  F35  1  0.287342  0.161626  0.482957  1
  F  F36  1  0.392695  0.902864  0.377737  1
  F  F37  1  0.089706  0.987601  0.840407  1
  F  F38  1  0.027094  0.668863  0.724452  1
  F  F39  1  0.847077  0.500819  0.096233  1
