# generated using pymatgen
data_Zn2Cr2O5
_symmetry_space_group_name_H-M   'P 1'
_cell_length_a   3.76034304
_cell_length_b   5.34533275
_cell_length_c   10.25536032
_cell_angle_alpha   89.99337696
_cell_angle_beta   90.00074380
_cell_angle_gamma   90.00063229
_symmetry_Int_Tables_number   1
_chemical_formula_structural   Zn2Cr2O5
_chemical_formula_sum   'Zn4 Cr4 O10'
_cell_volume   206.13566163
_cell_formula_units_Z   2
loop_
 _symmetry_equiv_pos_site_id
 _symmetry_equiv_pos_as_xyz
  1  'x, y, z'
loop_
 _atom_site_type_symbol
 _atom_site_label
 _atom_site_symmetry_multiplicity
 _atom_site_fract_x
 _atom_site_fract_y
 _atom_site_fract_z
 _atom_site_occupancy
  Zn  Zn0  1  0.499999  0.280673  0.901083  1
  Zn  Zn1  1  0.499999  0.720161  0.098607  1
  Zn  Zn2  1  0.500000  0.780271  0.598827  1
  Zn  Zn3  1  0.499997  0.219804  0.401301  1
  Cr  Cr4  1  0.000040  0.241961  0.635188  1
  Cr  Cr5  1  0.000003  0.758228  0.364903  1
  Cr  Cr6  1  -0.000010  0.258404  0.135049  1
  Cr  Cr7  1  0.999994  0.742008  0.864864  1
  O  O8  1  0.000004  0.499592  0.499874  1
  O  O9  1  0.999995  0.135083  0.313769  1
  O  O10  1  0.000001  0.634939  0.186235  1
  O  O11  1  0.999998  0.364668  0.814171  1
  O  O12  1  0.499982  0.313767  0.098619  1
  O  O13  1  0.499989  0.686536  0.900824  1
  O  O14  1  0.000002  0.864688  0.685976  1
  O  O15  1  0.500041  0.186480  0.599046  1
  O  O16  1  -0.000001  0.999039  0.000430  1
  O  O17  1  0.499976  0.813700  0.401236  1
