# generated using pymatgen
data_CaMn3P3O13
_symmetry_space_group_name_H-M   'P 1'
_cell_length_a   6.26459988
_cell_length_b   7.77863676
_cell_length_c   10.37630337
_cell_angle_alpha   99.45087017
_cell_angle_beta   90.00000000
_cell_angle_gamma   90.00000000
_symmetry_Int_Tables_number   1
_chemical_formula_structural   CaMn3P3O13
_chemical_formula_sum   'Ca2 Mn6 P6 O26'
_cell_volume   498.77460935
_cell_formula_units_Z   2
loop_
 _symmetry_equiv_pos_site_id
 _symmetry_equiv_pos_as_xyz
  1  'x, y, z'
loop_
 _atom_site_type_symbol
 _atom_site_label
 _atom_site_symmetry_multiplicity
 _atom_site_fract_x
 _atom_site_fract_y
 _atom_site_fract_z
 _atom_site_occupancy
  Ca  Ca0  1  0.750000  0.655083  0.192761  1
  Ca  Ca1  1  0.250000  0.344917  0.807239  1
  Mn  Mn2  1  0.250000  0.348701  0.206032  1
  Mn  Mn3  1  0.750000  0.651299  0.793968  1
  Mn  Mn4  1  0.250000  0.771243  0.435218  1
  Mn  Mn5  1  0.500000  -0.000000  -0.000000  1
  Mn  Mn6  1  0.750000  0.228757  0.564782  1
  Mn  Mn7  1  -0.000000  -0.000000  -0.000000  1
  P  P8  1  0.250000  0.210371  0.484942  1
  P  P9  1  0.750000  0.789629  0.515058  1
  P  P10  1  0.250000  0.742327  0.759846  1
  P  P11  1  0.750000  0.257673  0.240154  1
  P  P12  1  0.750000  0.316181  0.885663  1
  P  P13  1  0.250000  0.683819  0.114337  1
  O  O14  1  0.750000  0.360055  0.742873  1
  O  O15  1  0.559165  0.749910  0.415844  1
  O  O16  1  0.250000  0.788443  0.623683  1
  O  O17  1  0.545022  0.211617  0.903080  1
  O  O18  1  0.750000  0.651256  0.606258  1
  O  O19  1  0.750000  0.882406  0.913650  1
  O  O20  1  0.250000  0.348744  0.393742  1
  O  O21  1  0.045022  0.788383  0.096920  1
  O  O22  1  0.250000  0.026470  0.409659  1
  O  O23  1  0.750000  0.973530  0.590341  1
  O  O24  1  0.058671  0.624080  0.786823  1
  O  O25  1  0.250000  0.117594  0.086350  1
  O  O26  1  0.558671  0.375920  0.213177  1
  O  O27  1  0.750000  0.501793  0.965557  1
  O  O28  1  0.750000  0.211557  0.376317  1
  O  O29  1  0.454978  0.788383  0.096920  1
  O  O30  1  0.940835  0.749910  0.415844  1
  O  O31  1  0.440835  0.250090  0.584156  1
  O  O32  1  0.441329  0.624080  0.786823  1
  O  O33  1  0.250000  0.639945  0.257127  1
  O  O34  1  0.750000  0.088716  0.137902  1
  O  O35  1  0.250000  0.911284  0.862098  1
  O  O36  1  0.941329  0.375920  0.213177  1
  O  O37  1  0.954978  0.211617  0.903080  1
  O  O38  1  0.059165  0.250090  0.584156  1
  O  O39  1  0.250000  0.498207  0.034443  1
