# generated using pymatgen
data_TiAl(WO4)2
_symmetry_space_group_name_H-M   'P 1'
_cell_length_a   5.06902488
_cell_length_b   5.67695827
_cell_length_c   6.20689590
_cell_angle_alpha   100.60791540
_cell_angle_beta   123.07209031
_cell_angle_gamma   94.47956551
_symmetry_Int_Tables_number   1
_chemical_formula_structural   TiAl(WO4)2
_chemical_formula_sum   'Ti1 Al1 W2 O8'
_cell_volume   143.61892687
_cell_formula_units_Z   1
loop_
 _symmetry_equiv_pos_site_id
 _symmetry_equiv_pos_as_xyz
  1  'x, y, z'
loop_
 _atom_site_type_symbol
 _atom_site_label
 _atom_site_symmetry_multiplicity
 _atom_site_fract_x
 _atom_site_fract_y
 _atom_site_fract_z
 _atom_site_occupancy
  Ti  Ti0  1  0.173493  0.221752  0.132012  1
  Al  Al1  1  0.646953  0.661200  0.047223  1
  W  W2  1  0.877119  0.409584  0.594188  1
  W  W3  1  0.370159  0.055102  0.632639  1
  O  O4  1  0.236454  0.677135  0.858394  1
  O  O5  1  0.525344  0.486051  0.256017  1
  O  O6  1  0.119239  0.156028  0.789089  1
  O  O7  1  0.490558  0.069284  0.364056  1
  O  O8  1  0.713366  0.939094  0.895939  1
  O  O9  1  0.016548  0.801027  0.356581  1
  O  O10  1  0.101704  0.297484  0.401947  1
  O  O11  1  0.725062  0.404757  0.868009  1
