# generated using pymatgen
data_Ag2O3
_symmetry_space_group_name_H-M   'P 1'
_cell_length_a   3.31017741
_cell_length_b   5.74876612
_cell_length_c   15.55694662
_cell_angle_alpha   90.00000000
_cell_angle_beta   90.00000000
_cell_angle_gamma   106.73246708
_symmetry_Int_Tables_number   1
_chemical_formula_structural   Ag2O3
_chemical_formula_sum   'Ag8 O12'
_cell_volume   283.50543994
_cell_formula_units_Z   4
loop_
 _symmetry_equiv_pos_site_id
 _symmetry_equiv_pos_as_xyz
  1  'x, y, z'
loop_
 _atom_site_type_symbol
 _atom_site_label
 _atom_site_symmetry_multiplicity
 _atom_site_fract_x
 _atom_site_fract_y
 _atom_site_fract_z
 _atom_site_occupancy
  Ag  Ag0  1  0.864042  0.728087  0.048740  1
  Ag  Ag1  1  0.135956  0.271912  0.951260  1
  Ag  Ag2  1  0.864042  0.728087  0.451260  1
  Ag  Ag3  1  0.135956  0.271912  0.548740  1
  Ag  Ag4  1  0.405887  0.811772  0.633005  1
  Ag  Ag5  1  0.594113  0.188228  0.366996  1
  Ag  Ag6  1  0.594113  0.188228  0.133004  1
  Ag  Ag7  1  0.405887  0.811772  0.866995  1
  O  O8  1  0.499999  -0.000000  0.500000  1
  O  O9  1  0.499999  -0.000000  0.000000  1
  O  O10  1  0.024683  0.049365  0.846276  1
  O  O11  1  0.975317  0.950635  0.153725  1
  O  O12  1  0.975317  0.950635  0.346275  1
  O  O13  1  0.024683  0.049365  0.653725  1
  O  O14  1  0.786838  0.573678  0.922946  1
  O  O15  1  0.213161  0.426323  0.077054  1
  O  O16  1  0.213161  0.426323  0.422946  1
  O  O17  1  0.786838  0.573678  0.577054  1
  O  O18  1  0.320367  0.640735  0.750000  1
  O  O19  1  0.679631  0.359264  0.250000  1
