# generated using pymatgen
data_Ca3Fe2(RhO6)2
_symmetry_space_group_name_H-M   'P 1'
_cell_length_a   6.39441438
_cell_length_b   6.39459381
_cell_length_c   6.39535291
_cell_angle_alpha   92.56103451
_cell_angle_beta   92.55100042
_cell_angle_gamma   92.51238074
_symmetry_Int_Tables_number   1
_chemical_formula_structural   Ca3Fe2(RhO6)2
_chemical_formula_sum   'Ca3 Fe2 Rh2 O12'
_cell_volume   260.70861489
_cell_formula_units_Z   1
loop_
 _symmetry_equiv_pos_site_id
 _symmetry_equiv_pos_as_xyz
  1  'x, y, z'
loop_
 _atom_site_type_symbol
 _atom_site_label
 _atom_site_symmetry_multiplicity
 _atom_site_fract_x
 _atom_site_fract_y
 _atom_site_fract_z
 _atom_site_occupancy
  Ca  Ca0  1  0.377270  0.122669  0.750076  1
  Ca  Ca1  1  0.122605  0.750174  0.377260  1
  Ca  Ca2  1  0.749970  0.377314  0.122585  1
  Fe  Fe3  1  0.250025  0.249958  0.250069  1
  Fe  Fe4  1  0.750047  0.749933  0.750011  1
  Rh  Rh5  1  0.995422  0.995211  0.995400  1
  Rh  Rh6  1  0.504838  0.504672  0.504706  1
  O  O7  1  0.795141  0.596669  0.462179  1
  O  O8  1  0.596830  0.462187  0.795123  1
  O  O9  1  0.462157  0.795399  0.596828  1
  O  O10  1  0.037772  0.903204  0.704848  1
  O  O11  1  0.903322  0.704802  0.037755  1
  O  O12  1  0.704583  0.037815  0.903203  1
  O  O13  1  0.208176  0.398927  0.519220  1
  O  O14  1  0.398681  0.519293  0.208163  1
  O  O15  1  0.519272  0.207910  0.398701  1
  O  O16  1  0.980763  0.101248  0.291789  1
  O  O17  1  0.292058  0.980714  0.101248  1
  O  O18  1  0.101067  0.291902  0.980836  1
