# generated using pymatgen
data_CaMnF5
_symmetry_space_group_name_H-M   'P 1'
_cell_length_a   5.53962437
_cell_length_b   8.04973117
_cell_length_c   10.06684144
_cell_angle_alpha   90.00000000
_cell_angle_beta   90.00000000
_cell_angle_gamma   111.01330864
_symmetry_Int_Tables_number   1
_chemical_formula_structural   CaMnF5
_chemical_formula_sum   'Ca4 Mn4 F20'
_cell_volume   419.05200471
_cell_formula_units_Z   4
loop_
 _symmetry_equiv_pos_site_id
 _symmetry_equiv_pos_as_xyz
  1  'x, y, z'
loop_
 _atom_site_type_symbol
 _atom_site_label
 _atom_site_symmetry_multiplicity
 _atom_site_fract_x
 _atom_site_fract_y
 _atom_site_fract_z
 _atom_site_occupancy
  Ca  Ca0  1  0.469202  0.744348  0.020746  1
  Ca  Ca1  1  0.530798  0.755652  0.520746  1
  Ca  Ca2  1  0.530798  0.255652  0.979254  1
  Ca  Ca3  1  0.469202  0.244348  0.479254  1
  Mn  Mn4  1  0.886177  0.597960  0.753177  1
  Mn  Mn5  1  0.113823  0.902040  0.253177  1
  Mn  Mn6  1  0.113823  0.402040  0.246823  1
  Mn  Mn7  1  0.886177  0.097960  0.746823  1
  F  F8  1  0.610438  0.558556  0.881933  1
  F  F9  1  0.389562  0.941444  0.381933  1
  F  F10  1  0.389562  0.441444  0.118067  1
  F  F11  1  0.610438  0.058556  0.618067  1
  F  F12  1  0.643053  0.503359  0.611667  1
  F  F13  1  0.356947  0.996641  0.111667  1
  F  F14  1  0.356947  0.496641  0.388333  1
  F  F15  1  0.643053  0.003359  0.888333  1
  F  F16  1  0.879915  0.809233  0.391091  1
  F  F17  1  0.120085  0.690767  0.891091  1
  F  F18  1  0.120085  0.190767  0.608909  1
  F  F19  1  0.879915  0.309233  0.108909  1
  F  F20  1  0.836532  0.862009  0.135897  1
  F  F21  1  0.163468  0.637991  0.635897  1
  F  F22  1  0.163468  0.137991  0.864103  1
  F  F23  1  0.836532  0.362009  0.364103  1
  F  F24  1  0.827690  0.832775  0.693016  1
  F  F25  1  0.172310  0.667225  0.193016  1
  F  F26  1  0.172310  0.167225  0.306984  1
  F  F27  1  0.827690  0.332775  0.806984  1
