# generated using pymatgen
data_CaTi2(CuO4)2
_symmetry_space_group_name_H-M   'P 1'
_cell_length_a   6.40749150
_cell_length_b   8.81998996
_cell_length_c   12.50329043
_cell_angle_alpha   90.00000000
_cell_angle_beta   84.16042747
_cell_angle_gamma   90.00000000
_symmetry_Int_Tables_number   1
_chemical_formula_structural   CaTi2(CuO4)2
_chemical_formula_sum   'Ca4 Ti8 Cu8 O32'
_cell_volume   702.94425459
_cell_formula_units_Z   4
loop_
 _symmetry_equiv_pos_site_id
 _symmetry_equiv_pos_as_xyz
  1  'x, y, z'
loop_
 _atom_site_type_symbol
 _atom_site_label
 _atom_site_symmetry_multiplicity
 _atom_site_fract_x
 _atom_site_fract_y
 _atom_site_fract_z
 _atom_site_occupancy
  Ca  Ca0  1  0.150553  0.165795  0.018281  1
  Ca  Ca1  1  0.849447  0.834205  0.981719  1
  Ca  Ca2  1  0.849447  0.665795  0.481719  1
  Ca  Ca3  1  0.150553  0.334205  0.518281  1
  Ti  Ti4  1  0.087618  0.459123  0.829524  1
  Ti  Ti5  1  0.087618  0.040877  0.329524  1
  Ti  Ti6  1  0.596923  0.090318  0.151489  1
  Ti  Ti7  1  0.912382  0.959123  0.670476  1
  Ti  Ti8  1  0.403077  0.909682  0.848511  1
  Ti  Ti9  1  0.403077  0.590318  0.348511  1
  Ti  Ti10  1  0.596923  0.409682  0.651489  1
  Ti  Ti11  1  0.912382  0.540877  0.170476  1
  Cu  Cu12  1  0.759349  0.183277  0.844283  1
  Cu  Cu13  1  0.390530  0.056307  0.629281  1
  Cu  Cu14  1  0.609470  0.943693  0.370719  1
  Cu  Cu15  1  0.240651  0.816723  0.155717  1
  Cu  Cu16  1  0.759349  0.316723  0.344283  1
  Cu  Cu17  1  0.390530  0.443693  0.129281  1
  Cu  Cu18  1  0.240651  0.683277  0.655717  1
  Cu  Cu19  1  0.609470  0.556307  0.870719  1
  O  O20  1  0.023087  0.240209  0.362145  1
  O  O21  1  0.671848  0.004087  0.614995  1
  O  O22  1  0.187894  0.581479  0.446805  1
  O  O23  1  0.812106  0.081479  0.053195  1
  O  O24  1  0.023087  0.259791  0.862145  1
  O  O25  1  0.976913  0.759791  0.637855  1
  O  O26  1  0.111447  0.094813  0.609548  1
  O  O27  1  0.509186  0.891313  0.143027  1
  O  O28  1  0.509186  0.608687  0.643027  1
  O  O29  1  0.312830  0.879177  0.704530  1
  O  O30  1  0.687170  0.379177  0.795470  1
  O  O31  1  0.490814  0.108687  0.856973  1
  O  O32  1  0.888553  0.905187  0.390452  1
  O  O33  1  0.854954  0.512525  0.317777  1
  O  O34  1  0.440968  0.257374  0.601897  1
  O  O35  1  0.440968  0.242626  0.101897  1
  O  O36  1  0.145046  0.012525  0.182223  1
  O  O37  1  0.490814  0.391313  0.356973  1
  O  O38  1  0.145046  0.487475  0.682223  1
  O  O39  1  0.812106  0.418521  0.553195  1
  O  O40  1  0.671848  0.495913  0.114995  1
  O  O41  1  0.687170  0.120823  0.295470  1
  O  O42  1  0.976913  0.740209  0.137855  1
  O  O43  1  0.111447  0.405187  0.109548  1
  O  O44  1  0.187894  0.918521  0.946805  1
  O  O45  1  0.559032  0.757374  0.898103  1
  O  O46  1  0.328152  0.995913  0.385005  1
  O  O47  1  0.328152  0.504087  0.885005  1
  O  O48  1  0.888553  0.594813  0.890452  1
  O  O49  1  0.559032  0.742626  0.398103  1
  O  O50  1  0.312830  0.620823  0.204530  1
  O  O51  1  0.854954  0.987475  0.817777  1
