# generated using pymatgen
data_Sr2YVCu2O7
_symmetry_space_group_name_H-M   'P 1'
_cell_length_a   5.58374052
_cell_length_b   5.65708137
_cell_length_c   12.63701433
_cell_angle_alpha   102.92856374
_cell_angle_beta   102.71895920
_cell_angle_gamma   90.18120792
_symmetry_Int_Tables_number   1
_chemical_formula_structural   Sr2YVCu2O7
_chemical_formula_sum   'Sr4 Y2 V2 Cu4 O14'
_cell_volume   378.93067396
_cell_formula_units_Z   2
loop_
 _symmetry_equiv_pos_site_id
 _symmetry_equiv_pos_as_xyz
  1  'x, y, z'
loop_
 _atom_site_type_symbol
 _atom_site_label
 _atom_site_symmetry_multiplicity
 _atom_site_fract_x
 _atom_site_fract_y
 _atom_site_fract_z
 _atom_site_occupancy
  Sr  Sr0  1  0.344956  0.334080  0.712879  1
  Sr  Sr1  1  0.629454  0.658661  0.287534  1
  Sr  Sr2  1  0.845187  0.870191  0.713365  1
  Sr  Sr3  1  0.130600  0.123041  0.287328  1
  Y  Y4  1  0.984416  0.997995  0.000404  1
  Y  Y5  1  0.484537  0.499432  0.000460  1
  V  V6  1  0.281017  0.671134  0.499849  1
  V  V7  1  0.777416  0.319310  0.500328  1
  Cu  Cu8  1  0.919640  0.432935  0.868251  1
  Cu  Cu9  1  0.050077  0.563927  0.132995  1
  Cu  Cu10  1  0.420051  0.929856  0.868881  1
  Cu  Cu11  1  0.550033  0.067811  0.133057  1
  O  O12  1  0.126703  0.369441  0.499453  1
  O  O13  1  0.620935  0.629232  0.499819  1
  O  O14  1  0.177664  0.189217  0.874536  1
  O  O15  1  0.298362  0.808856  0.125029  1
  O  O16  1  0.677449  0.179472  0.875008  1
  O  O17  1  0.799311  0.815546  0.126069  1
  O  O18  1  0.667451  0.679168  0.872004  1
  O  O19  1  0.797066  0.317290  0.130976  1
  O  O20  1  0.166725  0.687035  0.870595  1
  O  O21  1  0.297172  0.312983  0.130666  1
  O  O22  1  0.281224  0.855623  0.636927  1
  O  O23  1  0.637386  0.130773  0.361564  1
  O  O24  1  0.779960  0.275353  0.640485  1
  O  O25  1  0.144948  0.719252  0.362951  1
