# generated using pymatgen
data_Ti3AlF15
_symmetry_space_group_name_H-M   'P 1'
_cell_length_a   9.37462180
_cell_length_b   6.21973663
_cell_length_c   9.84054309
_cell_angle_alpha   90.00000000
_cell_angle_beta   90.00000000
_cell_angle_gamma   102.92997726
_symmetry_Int_Tables_number   1
_chemical_formula_structural   Ti3AlF15
_chemical_formula_sum   'Ti6 Al2 F30'
_cell_volume   559.23062436
_cell_formula_units_Z   2
loop_
 _symmetry_equiv_pos_site_id
 _symmetry_equiv_pos_as_xyz
  1  'x, y, z'
loop_
 _atom_site_type_symbol
 _atom_site_label
 _atom_site_symmetry_multiplicity
 _atom_site_fract_x
 _atom_site_fract_y
 _atom_site_fract_z
 _atom_site_occupancy
  Ti  Ti0  1  0.166667  0.000000  0.500000  1
  Ti  Ti1  1  0.498085  0.972394  0.444835  1
  Ti  Ti2  1  0.835248  0.027606  0.555165  1
  Ti  Ti3  1  0.166667  0.000000  0.000000  1
  Ti  Ti4  1  0.498085  0.972394  0.055165  1
  Ti  Ti5  1  0.835248  0.027606  0.944835  1
  Al  Al6  1  0.893526  0.426064  0.250000  1
  Al  Al7  1  0.439807  0.573936  0.750000  1
  F  F8  1  0.063436  0.577806  0.250000  1
  F  F9  1  0.497972  0.876013  0.250000  1
  F  F10  1  0.755040  0.551343  0.250000  1
  F  F11  1  0.269897  0.422194  0.750000  1
  F  F12  1  0.578294  0.448657  0.750000  1
  F  F13  1  0.835361  0.123987  0.750000  1
  F  F14  1  0.040346  0.158504  0.602402  1
  F  F15  1  0.363779  0.093653  0.579460  1
  F  F16  1  0.652889  0.122159  0.582973  1
  F  F17  1  0.292988  0.841496  0.397598  1
  F  F18  1  0.680444  0.877841  0.417027  1
  F  F19  1  0.969554  0.906347  0.420540  1
  F  F20  1  0.122489  0.770069  0.885656  1
  F  F21  1  0.463813  0.741430  0.898121  1
  F  F22  1  0.806248  0.760727  0.879821  1
  F  F23  1  0.210845  0.229931  0.114344  1
  F  F24  1  0.527085  0.239273  0.120179  1
  F  F25  1  0.869520  0.258570  0.101879  1
  F  F26  1  0.210845  0.229931  0.385656  1
  F  F27  1  0.527085  0.239273  0.379821  1
  F  F28  1  0.869520  0.258570  0.398121  1
  F  F29  1  0.122489  0.770069  0.614344  1
  F  F30  1  0.463813  0.741430  0.601879  1
  F  F31  1  0.806248  0.760727  0.620179  1
  F  F32  1  0.040346  0.158504  0.897598  1
  F  F33  1  0.363779  0.093653  0.920540  1
  F  F34  1  0.652889  0.122159  0.917027  1
  F  F35  1  0.292988  0.841496  0.102402  1
  F  F36  1  0.680444  0.877841  0.082973  1
  F  F37  1  0.969554  0.906347  0.079460  1
