# generated using pymatgen
data_Ca3(CuO3)2
_symmetry_space_group_name_H-M   'P 1'
_cell_length_a   6.77976597
_cell_length_b   3.70558471
_cell_length_c   6.56494717
_cell_angle_alpha   106.39304786
_cell_angle_beta   105.14282872
_cell_angle_gamma   90.00000260
_symmetry_Int_Tables_number   1
_chemical_formula_structural   Ca3(CuO3)2
_chemical_formula_sum   'Ca3 Cu2 O6'
_cell_volume   152.24761387
_cell_formula_units_Z   1
loop_
 _symmetry_equiv_pos_site_id
 _symmetry_equiv_pos_as_xyz
  1  'x, y, z'
loop_
 _atom_site_type_symbol
 _atom_site_label
 _atom_site_symmetry_multiplicity
 _atom_site_fract_x
 _atom_site_fract_y
 _atom_site_fract_z
 _atom_site_occupancy
  Ca  Ca0  1  0.180249  0.843091  0.686183  1
  Ca  Ca1  1  0.660462  0.841722  0.683443  1
  Ca  Ca2  1  0.827141  0.148409  0.296818  1
  Cu  Cu3  1  0.015908  0.507055  0.014110  1
  Cu  Cu4  1  0.493842  0.512885  0.025771  1
  O  O5  1  0.974591  0.986774  0.973548  1
  O  O6  1  0.513501  0.991178  0.982355  1
  O  O7  1  0.416446  0.357112  0.714223  1
  O  O8  1  0.933276  0.346246  0.692490  1
  O  O9  1  0.045620  0.655468  0.310937  1
  O  O10  1  0.614387  0.660906  0.321812  1
