# generated using pymatgen
data_Ca(SnO2)2
_symmetry_space_group_name_H-M   'P 1'
_cell_length_a   3.30681255
_cell_length_b   9.35996420
_cell_length_c   7.41063703
_cell_angle_alpha   80.63048083
_cell_angle_beta   77.10052831
_cell_angle_gamma   79.87986957
_symmetry_Int_Tables_number   1
_chemical_formula_structural   Ca(SnO2)2
_chemical_formula_sum   'Ca2 Sn4 O8'
_cell_volume   218.27151853
_cell_formula_units_Z   2
loop_
 _symmetry_equiv_pos_site_id
 _symmetry_equiv_pos_as_xyz
  1  'x, y, z'
loop_
 _atom_site_type_symbol
 _atom_site_label
 _atom_site_symmetry_multiplicity
 _atom_site_fract_x
 _atom_site_fract_y
 _atom_site_fract_z
 _atom_site_occupancy
  Ca  Ca0  1  0.327604  0.193119  0.161318  1
  Ca  Ca1  1  0.674646  0.784925  0.871826  1
  Sn  Sn2  1  0.641167  0.130537  0.596029  1
  Sn  Sn3  1  0.112282  0.555634  0.221204  1
  Sn  Sn4  1  0.890176  0.422305  0.811773  1
  Sn  Sn5  1  0.361212  0.847638  0.436980  1
  O  O6  1  0.854996  0.739573  0.557036  1
  O  O7  1  0.475429  0.218637  0.838429  1
  O  O8  1  0.526822  0.759542  0.194657  1
  O  O9  1  0.147303  0.238616  0.476095  1
  O  O10  1  0.178526  0.965344  0.685248  1
  O  O11  1  0.771535  0.362160  0.105256  1
  O  O12  1  0.823853  0.012857  0.347841  1
  O  O13  1  0.230760  0.615913  0.927749  1
