# generated using pymatgen
data_Al2Bi2O7
_symmetry_space_group_name_H-M   'P 1'
_cell_length_a   7.18471795
_cell_length_b   7.18467842
_cell_length_c   7.18468548
_cell_angle_alpha   59.99928228
_cell_angle_beta   59.99947294
_cell_angle_gamma   59.99944349
_symmetry_Int_Tables_number   1
_chemical_formula_structural   Al2Bi2O7
_chemical_formula_sum   'Al4 Bi4 O14'
_cell_volume   262.24300251
_cell_formula_units_Z   2
loop_
 _symmetry_equiv_pos_site_id
 _symmetry_equiv_pos_as_xyz
  1  'x, y, z'
loop_
 _atom_site_type_symbol
 _atom_site_label
 _atom_site_symmetry_multiplicity
 _atom_site_fract_x
 _atom_site_fract_y
 _atom_site_fract_z
 _atom_site_occupancy
  Al  Al0  1  0.500089  0.999733  0.500089  1
  Al  Al1  1  0.999733  0.500089  0.500089  1
  Al  Al2  1  0.500089  0.500089  0.999734  1
  Al  Al3  1  0.500089  0.500089  0.500089  1
  Bi  Bi4  1  0.000001  0.499997  1.000000  1
  Bi  Bi5  1  0.499997  0.000002  0.000001  1
  Bi  Bi6  1  0.000001  0.000002  0.499997  1
  Bi  Bi7  1  0.000002  0.000001  0.000000  1
  O  O8  1  0.624999  0.625003  0.625002  1
  O  O9  1  0.375000  0.374998  0.374998  1
  O  O10  1  0.409116  0.840884  0.840883  1
  O  O11  1  0.159218  0.590781  0.590783  1
  O  O12  1  0.840882  0.409114  0.840884  1
  O  O13  1  0.840883  0.840881  0.409115  1
  O  O14  1  0.409122  0.409118  0.840880  1
  O  O15  1  0.409119  0.840882  0.409117  1
  O  O16  1  0.840879  0.409118  0.409121  1
  O  O17  1  0.590781  0.590783  0.159218  1
  O  O18  1  0.159217  0.159216  0.590787  1
  O  O19  1  0.590785  0.159215  0.159217  1
  O  O20  1  0.590781  0.159218  0.590782  1
  O  O21  1  0.159217  0.590786  0.159215  1
