# generated using pymatgen
data_Ba2Mg2Tl2W3O10
_symmetry_space_group_name_H-M   'P 1'
_cell_length_a   4.15312909
_cell_length_b   3.99055353
_cell_length_c   19.44517588
_cell_angle_alpha   96.17908525
_cell_angle_beta   95.66681617
_cell_angle_gamma   90.05727645
_symmetry_Int_Tables_number   1
_chemical_formula_structural   Ba2Mg2Tl2W3O10
_chemical_formula_sum   'Ba2 Mg2 Tl2 W3 O10'
_cell_volume   318.81030125
_cell_formula_units_Z   1
loop_
 _symmetry_equiv_pos_site_id
 _symmetry_equiv_pos_as_xyz
  1  'x, y, z'
loop_
 _atom_site_type_symbol
 _atom_site_label
 _atom_site_symmetry_multiplicity
 _atom_site_fract_x
 _atom_site_fract_y
 _atom_site_fract_z
 _atom_site_occupancy
  Ba  Ba0  1  0.093270  0.159778  0.318012  1
  Ba  Ba1  1  0.768284  0.827531  0.680677  1
  Mg  Mg2  1  0.901609  0.898775  0.902789  1
  Mg  Mg3  1  0.023132  0.031026  0.094503  1
  Tl  Tl4  1  0.695860  0.717973  0.441524  1
  Tl  Tl5  1  0.252012  0.274289  0.557308  1
  W  W6  1  0.358980  0.372148  0.832455  1
  W  W7  1  0.547128  0.575837  0.166900  1
  W  W8  1  0.390451  0.575172  0.999458  1
  O  O9  1  0.380122  0.887743  0.856501  1
  O  O10  1  0.279881  0.329045  0.731688  1
  O  O11  1  0.866871  0.366026  0.852839  1
  O  O12  1  0.853130  0.777200  0.560308  1
  O  O13  1  0.865159  0.669812  0.997803  1
  O  O14  1  0.034390  0.553602  0.145336  1
  O  O15  1  0.548627  0.634544  0.267544  1
  O  O16  1  0.553691  0.065296  0.143527  1
  O  O17  1  0.291553  0.209555  0.438269  1
  O  O18  1  0.296938  0.092610  0.003524  1
