# generated using pymatgen
data_Ca2CrSbO6
_symmetry_space_group_name_H-M   'P 1'
_cell_length_a   5.45034683
_cell_length_b   5.59317776
_cell_length_c   7.84815681
_cell_angle_alpha   90.00000000
_cell_angle_beta   90.00000000
_cell_angle_gamma   89.93120848
_symmetry_Int_Tables_number   1
_chemical_formula_structural   Ca2CrSbO6
_chemical_formula_sum   'Ca4 Cr2 Sb2 O12'
_cell_volume   239.24899424
_cell_formula_units_Z   2
loop_
 _symmetry_equiv_pos_site_id
 _symmetry_equiv_pos_as_xyz
  1  'x, y, z'
loop_
 _atom_site_type_symbol
 _atom_site_label
 _atom_site_symmetry_multiplicity
 _atom_site_fract_x
 _atom_site_fract_y
 _atom_site_fract_z
 _atom_site_occupancy
  Ca  Ca0  1  0.515560  0.565510  0.750000  1
  Ca  Ca1  1  0.484440  0.434490  0.250000  1
  Ca  Ca2  1  0.995588  0.040339  0.750000  1
  Ca  Ca3  1  0.004412  0.959661  0.250000  1
  Cr  Cr4  1  0.500000  0.000000  0.500000  1
  Cr  Cr5  1  0.500000  0.000000  0.000000  1
  Sb  Sb6  1  0.000000  0.500000  0.500000  1
  Sb  Sb7  1  0.000000  0.500000  0.000000  1
  O  O8  1  0.294115  0.697708  0.452263  1
  O  O9  1  0.195936  0.207796  0.048452  1
  O  O10  1  0.705885  0.302292  0.952263  1
  O  O11  1  0.804064  0.792204  0.548452  1
  O  O12  1  0.195936  0.207796  0.451548  1
  O  O13  1  0.804064  0.792204  0.951548  1
  O  O14  1  0.903050  0.529297  0.250000  1
  O  O15  1  0.294115  0.697708  0.047737  1
  O  O16  1  0.412875  0.972215  0.750000  1
  O  O17  1  0.705885  0.302292  0.547737  1
  O  O18  1  0.096950  0.470703  0.750000  1
  O  O19  1  0.587125  0.027785  0.250000  1
