# generated using pymatgen
data_Ti4(FeO4)3
_symmetry_space_group_name_H-M   'P 1'
_cell_length_a   6.48235367
_cell_length_b   6.48235329
_cell_length_c   6.48235421
_cell_angle_alpha   109.47122052
_cell_angle_beta   109.47121927
_cell_angle_gamma   109.47122318
_symmetry_Int_Tables_number   1
_chemical_formula_structural   Ti4(FeO4)3
_chemical_formula_sum   'Ti4 Fe3 O12'
_cell_volume   209.68930493
_cell_formula_units_Z   1
loop_
 _symmetry_equiv_pos_site_id
 _symmetry_equiv_pos_as_xyz
  1  'x, y, z'
loop_
 _atom_site_type_symbol
 _atom_site_label
 _atom_site_symmetry_multiplicity
 _atom_site_fract_x
 _atom_site_fract_y
 _atom_site_fract_z
 _atom_site_occupancy
  Ti  Ti0  1  0.000000  0.000000  0.500001  1
  Ti  Ti1  1  0.000000  0.500000  0.000000  1
  Ti  Ti2  1  0.500000  0.500000  0.500000  1
  Ti  Ti3  1  0.500000  0.000000  0.000000  1
  Fe  Fe4  1  0.500000  0.500000  0.000001  1
  Fe  Fe5  1  0.000000  0.500000  0.499999  1
  Fe  Fe6  1  0.500000  0.000000  0.499999  1
  O  O7  1  0.497994  0.809751  0.688243  1
  O  O8  1  0.121508  0.809751  0.311756  1
  O  O9  1  0.878493  0.190250  0.688244  1
  O  O10  1  0.190249  0.311755  0.502006  1
  O  O11  1  0.311757  0.502006  0.190250  1
  O  O12  1  0.688244  0.497994  0.809750  1
  O  O13  1  0.809750  0.311755  0.121507  1
  O  O14  1  0.688243  0.878493  0.190249  1
  O  O15  1  0.502007  0.190250  0.311757  1
  O  O16  1  0.190249  0.688244  0.878494  1
  O  O17  1  0.809751  0.688244  0.497995  1
  O  O18  1  0.311757  0.121507  0.809752  1
