# generated using pymatgen
data_Ca(FeO2)4
_symmetry_space_group_name_H-M   'P 1'
_cell_length_a   6.48383357
_cell_length_b   6.48383339
_cell_length_c   6.48383420
_cell_angle_alpha   53.27026406
_cell_angle_beta   53.27026007
_cell_angle_gamma   53.27026471
_symmetry_Int_Tables_number   1
_chemical_formula_structural   Ca(FeO2)4
_chemical_formula_sum   'Ca1 Fe4 O8'
_cell_volume   162.36838310
_cell_formula_units_Z   1
loop_
 _symmetry_equiv_pos_site_id
 _symmetry_equiv_pos_as_xyz
  1  'x, y, z'
loop_
 _atom_site_type_symbol
 _atom_site_label
 _atom_site_symmetry_multiplicity
 _atom_site_fract_x
 _atom_site_fract_y
 _atom_site_fract_z
 _atom_site_occupancy
  Ca  Ca0  1  0.500000  0.500001  0.499999  1
  Fe  Fe1  1  0.500001  0.999999  0.500001  1
  Fe  Fe2  1  0.999999  0.500000  0.500001  1
  Fe  Fe3  1  0.500000  0.500000  0.000000  1
  Fe  Fe4  1  0.000000  0.000000  0.000000  1
  O  O5  1  0.770682  0.276843  0.770682  1
  O  O6  1  0.229317  0.229318  0.723157  1
  O  O7  1  0.229317  0.723158  0.229317  1
  O  O8  1  0.723156  0.229318  0.229318  1
  O  O9  1  0.272679  0.272680  0.272679  1
  O  O10  1  0.727321  0.727321  0.727321  1
  O  O11  1  0.276844  0.770683  0.770682  1
  O  O12  1  0.770683  0.770683  0.276843  1
