# generated using pymatgen
data_CaHo(BiO3)2
_symmetry_space_group_name_H-M   'P 1'
_cell_length_a   5.81583034
_cell_length_b   6.11010567
_cell_length_c   8.55695652
_cell_angle_alpha   89.99979321
_cell_angle_beta   90.00069035
_cell_angle_gamma   89.92199887
_symmetry_Int_Tables_number   1
_chemical_formula_structural   CaHo(BiO3)2
_chemical_formula_sum   'Ca2 Ho2 Bi4 O12'
_cell_volume   304.07405999
_cell_formula_units_Z   2
loop_
 _symmetry_equiv_pos_site_id
 _symmetry_equiv_pos_as_xyz
  1  'x, y, z'
loop_
 _atom_site_type_symbol
 _atom_site_label
 _atom_site_symmetry_multiplicity
 _atom_site_fract_x
 _atom_site_fract_y
 _atom_site_fract_z
 _atom_site_occupancy
  Ca  Ca0  1  0.497872  0.459125  0.749996  1
  Ca  Ca1  1  0.998086  0.040156  0.250006  1
  Ho  Ho2  1  0.029296  0.932895  0.749978  1
  Ho  Ho3  1  0.529879  0.568085  0.250036  1
  Bi  Bi4  1  0.003912  0.495339  0.000361  1
  Bi  Bi5  1  0.003922  0.495331  0.499643  1
  Bi  Bi6  1  0.503938  0.004934  0.500297  1
  Bi  Bi7  1  0.503946  0.004943  0.999705  1
  O  O8  1  0.166345  0.428473  0.250001  1
  O  O9  1  0.164646  0.168840  0.927197  1
  O  O10  1  0.164644  0.168834  0.572794  1
  O  O11  1  0.299958  0.705224  0.915961  1
  O  O12  1  0.299972  0.705225  0.584012  1
  O  O13  1  0.364924  0.911575  0.250005  1
  O  O14  1  0.667740  0.071677  0.750004  1
  O  O15  1  0.666191  0.332315  0.427229  1
  O  O16  1  0.666196  0.332315  0.072787  1
  O  O17  1  0.801249  0.793727  0.083950  1
  O  O18  1  0.801241  0.793729  0.416036  1
  O  O19  1  0.866040  0.587255  0.750005  1
