# generated using pymatgen
data_YCo(WO4)2
_symmetry_space_group_name_H-M   'P 1'
_cell_length_a   5.19026074
_cell_length_b   5.89878153
_cell_length_c   9.95496283
_cell_angle_alpha   89.89553708
_cell_angle_beta   93.44942317
_cell_angle_gamma   90.03417418
_symmetry_Int_Tables_number   1
_chemical_formula_structural   YCo(WO4)2
_chemical_formula_sum   'Y2 Co2 W4 O16'
_cell_volume   304.23055620
_cell_formula_units_Z   2
loop_
 _symmetry_equiv_pos_site_id
 _symmetry_equiv_pos_as_xyz
  1  'x, y, z'
loop_
 _atom_site_type_symbol
 _atom_site_label
 _atom_site_symmetry_multiplicity
 _atom_site_fract_x
 _atom_site_fract_y
 _atom_site_fract_z
 _atom_site_occupancy
  Y  Y0  1  0.250029  0.671178  0.250117  1
  Y  Y1  1  0.749857  0.347754  0.750165  1
  Co  Co2  1  0.747279  0.325894  0.249981  1
  Co  Co3  1  0.250120  0.730279  0.749444  1
  W  W4  1  0.248542  0.160875  0.492397  1
  W  W5  1  0.251512  0.160788  0.007644  1
  W  W6  1  0.745862  0.830334  0.502071  1
  W  W7  1  0.754379  0.829964  0.997670  1
  O  O8  1  0.406700  0.349238  0.139505  1
  O  O9  1  0.094250  0.349799  0.360494  1
  O  O10  1  0.576627  0.640994  0.859117  1
  O  O11  1  0.923303  0.641433  0.641301  1
  O  O12  1  0.446022  0.912673  0.611311  1
  O  O13  1  0.054165  0.913434  0.888529  1
  O  O14  1  0.550022  0.090588  0.388643  1
  O  O15  1  0.951561  0.090172  0.111510  1
  O  O16  1  0.872905  0.609599  0.122711  1
  O  O17  1  0.626619  0.610095  0.377757  1
  O  O18  1  0.109048  0.374810  0.891113  1
  O  O19  1  0.391173  0.374275  0.608720  1
  O  O20  1  0.423382  0.880226  0.097013  1
  O  O21  1  0.557926  0.112414  0.904119  1
  O  O22  1  0.077057  0.880747  0.402760  1
  O  O23  1  0.941659  0.112441  0.595904  1
