# generated using pymatgen
data_Mg3Cu2(GeO4)3
_symmetry_space_group_name_H-M   'P 1'
_cell_length_a   10.38337766
_cell_length_b   10.38337715
_cell_length_c   10.38337727
_cell_angle_alpha   109.47122089
_cell_angle_beta   109.47121990
_cell_angle_gamma   109.47121991
_symmetry_Int_Tables_number   1
_chemical_formula_structural   Mg3Cu2(GeO4)3
_chemical_formula_sum   'Mg12 Cu8 Ge12 O48'
_cell_volume   861.77527317
_cell_formula_units_Z   4
loop_
 _symmetry_equiv_pos_site_id
 _symmetry_equiv_pos_as_xyz
  1  'x, y, z'
loop_
 _atom_site_type_symbol
 _atom_site_label
 _atom_site_symmetry_multiplicity
 _atom_site_fract_x
 _atom_site_fract_y
 _atom_site_fract_z
 _atom_site_occupancy
  Mg  Mg0  1  0.625000  0.250000  0.875000  1
  Mg  Mg1  1  0.875000  0.750000  0.625000  1
  Mg  Mg2  1  0.750000  0.625000  0.875000  1
  Mg  Mg3  1  0.250000  0.875000  0.625000  1
  Mg  Mg4  1  0.875000  0.625000  0.250000  1
  Mg  Mg5  1  0.625000  0.875000  0.750000  1
  Mg  Mg6  1  0.375000  0.750000  0.125000  1
  Mg  Mg7  1  0.125000  0.250000  0.375000  1
  Mg  Mg8  1  0.250000  0.375000  0.125000  1
  Mg  Mg9  1  0.750000  0.125000  0.375000  1
  Mg  Mg10  1  0.125000  0.375000  0.750000  1
  Mg  Mg11  1  0.375000  0.125000  0.250000  1
  Cu  Cu12  1  0.500000  0.500000  0.500000  1
  Cu  Cu13  1  0.500000  0.500000  0.000000  1
  Cu  Cu14  1  0.500000  0.000000  0.500000  1
  Cu  Cu15  1  0.000000  0.500000  0.500000  1
  Cu  Cu16  1  0.500000  0.000000  0.000000  1
  Cu  Cu17  1  0.000000  0.000000  0.500000  1
  Cu  Cu18  1  0.000000  0.500000  0.000000  1
  Cu  Cu19  1  0.000000  0.000000  0.000000  1
  Ge  Ge20  1  0.875000  0.125000  0.750000  1
  Ge  Ge21  1  0.125000  0.875000  0.250000  1
  Ge  Ge22  1  0.250000  0.625000  0.375000  1
  Ge  Ge23  1  0.125000  0.750000  0.875000  1
  Ge  Ge24  1  0.750000  0.875000  0.125000  1
  Ge  Ge25  1  0.375000  0.250000  0.625000  1
  Ge  Ge26  1  0.625000  0.750000  0.375000  1
  Ge  Ge27  1  0.875000  0.250000  0.125000  1
  Ge  Ge28  1  0.250000  0.125000  0.875000  1
  Ge  Ge29  1  0.750000  0.375000  0.625000  1
  Ge  Ge30  1  0.375000  0.625000  0.750000  1
  Ge  Ge31  1  0.625000  0.375000  0.250000  1
  O  O32  1  0.789558  0.418490  0.819253  1
  O  O33  1  0.081510  0.871068  0.400763  1
  O  O34  1  0.680747  0.099237  0.970304  1
  O  O35  1  0.710442  0.529696  0.628932  1
  O  O36  1  0.710442  0.680747  0.081510  1
  O  O37  1  0.529696  0.628932  0.710442  1
  O  O38  1  0.099237  0.628932  0.418490  1
  O  O39  1  0.628932  0.710442  0.529696  1
  O  O40  1  0.400763  0.819253  0.529696  1
  O  O41  1  0.871068  0.970304  0.789558  1
  O  O42  1  0.970304  0.789558  0.871068  1
  O  O43  1  0.081510  0.710442  0.680747  1
  O  O44  1  0.628932  0.418490  0.099237  1
  O  O45  1  0.529696  0.400763  0.819253  1
  O  O46  1  0.680747  0.081510  0.710442  1
  O  O47  1  0.418490  0.099237  0.628932  1
  O  O48  1  0.819253  0.529696  0.400763  1
  O  O49  1  0.400763  0.081510  0.871068  1
  O  O50  1  0.099237  0.970304  0.680747  1
  O  O51  1  0.599237  0.180747  0.470304  1
  O  O52  1  0.970304  0.680747  0.099237  1
  O  O53  1  0.819253  0.789558  0.418490  1
  O  O54  1  0.871068  0.400763  0.081510  1
  O  O55  1  0.789558  0.871068  0.970304  1
  O  O56  1  0.210442  0.581510  0.180747  1
  O  O57  1  0.918490  0.128932  0.599237  1
  O  O58  1  0.319253  0.900763  0.029696  1
  O  O59  1  0.289558  0.470304  0.371068  1
  O  O60  1  0.289558  0.319253  0.918490  1
  O  O61  1  0.470304  0.371068  0.289558  1
  O  O62  1  0.900763  0.371068  0.581510  1
  O  O63  1  0.371068  0.289558  0.470304  1
  O  O64  1  0.210442  0.128932  0.029696  1
  O  O65  1  0.128932  0.599237  0.918490  1
  O  O66  1  0.180747  0.210442  0.581510  1
  O  O67  1  0.581510  0.180747  0.210442  1
  O  O68  1  0.029696  0.319253  0.900763  1
  O  O69  1  0.900763  0.029696  0.319253  1
  O  O70  1  0.599237  0.918490  0.128932  1
  O  O71  1  0.180747  0.470304  0.599237  1
  O  O72  1  0.581510  0.900763  0.371068  1
  O  O73  1  0.319253  0.918490  0.289558  1
  O  O74  1  0.470304  0.599237  0.180747  1
  O  O75  1  0.371068  0.581510  0.900763  1
  O  O76  1  0.918490  0.289558  0.319253  1
  O  O77  1  0.029696  0.210442  0.128932  1
  O  O78  1  0.128932  0.029696  0.210442  1
  O  O79  1  0.418490  0.819253  0.789558  1
