# generated using pymatgen
data_Mg(FeO2)2
_symmetry_space_group_name_H-M   'P 1'
_cell_length_a   6.10369286
_cell_length_b   5.96498117
_cell_length_c   5.96325641
_cell_angle_alpha   87.53386719
_cell_angle_beta   120.72583146
_cell_angle_gamma   120.73815559
_symmetry_Int_Tables_number   1
_chemical_formula_structural   Mg(FeO2)2
_chemical_formula_sum   'Mg2 Fe4 O8'
_cell_volume   153.26573540
_cell_formula_units_Z   2
loop_
 _symmetry_equiv_pos_site_id
 _symmetry_equiv_pos_as_xyz
  1  'x, y, z'
loop_
 _atom_site_type_symbol
 _atom_site_label
 _atom_site_symmetry_multiplicity
 _atom_site_fract_x
 _atom_site_fract_y
 _atom_site_fract_z
 _atom_site_occupancy
  Mg  Mg0  1  0.000006  0.999997  0.000005  1
  Mg  Mg1  1  0.500001  -0.000001  -0.000002  1
  Fe  Fe2  1  0.500006  0.000004  0.500005  1
  Fe  Fe3  1  0.500006  0.500001  0.500003  1
  Fe  Fe4  1  0.000002  0.499993  -0.000002  1
  Fe  Fe5  1  0.000013  0.500000  0.500009  1
  O  O6  1  0.028768  0.744281  0.255105  1
  O  O7  1  0.494517  0.750395  0.738001  1
  O  O8  1  0.469844  0.744023  0.253882  1
  O  O9  1  0.993183  0.738210  0.748790  1
  O  O10  1  0.530159  0.255970  0.746124  1
  O  O11  1  0.505486  0.249602  0.262000  1
  O  O12  1  0.006822  0.261781  0.251217  1
  O  O13  1  0.971234  0.255710  0.744904  1
