# generated using pymatgen
data_Ti2ZnO4
_symmetry_space_group_name_H-M   'P 1'
_cell_length_a   6.15080104
_cell_length_b   5.95639246
_cell_length_c   5.95639203
_cell_angle_alpha   59.99999557
_cell_angle_beta   61.04015675
_cell_angle_gamma   61.04015923
_symmetry_Int_Tables_number   1
_chemical_formula_structural   Ti2ZnO4
_chemical_formula_sum   'Ti4 Zn2 O8'
_cell_volume   156.68781426
_cell_formula_units_Z   2
loop_
 _symmetry_equiv_pos_site_id
 _symmetry_equiv_pos_as_xyz
  1  'x, y, z'
loop_
 _atom_site_type_symbol
 _atom_site_label
 _atom_site_symmetry_multiplicity
 _atom_site_fract_x
 _atom_site_fract_y
 _atom_site_fract_z
 _atom_site_occupancy
  Ti  Ti0  1  0.260538  0.246487  0.246487  1
  Ti  Ti1  1  0.628950  0.139491  0.615780  1
  Ti  Ti2  1  0.628950  0.615780  0.139491  1
  Ti  Ti3  1  0.628950  0.615780  0.615780  1
  Zn  Zn4  1  0.014402  0.995200  0.995200  1
  Zn  Zn5  1  0.105921  0.631360  0.631360  1
  O  O6  1  0.380147  0.378960  0.378960  1
  O  O7  1  0.380147  0.378960  0.861931  1
  O  O8  1  0.380147  0.861931  0.378960  1
  O  O9  1  0.894846  0.368385  0.368385  1
  O  O10  1  0.407246  0.864251  0.864251  1
  O  O11  1  0.846586  0.401480  0.875967  1
  O  O12  1  0.846586  0.875967  0.401480  1
  O  O13  1  0.846586  0.875967  0.875967  1
