# generated using pymatgen
data_Mg2Ni3O8
_symmetry_space_group_name_H-M   'P 1'
_cell_length_a   5.72953011
_cell_length_b   5.72952992
_cell_length_c   9.16958813
_cell_angle_alpha   90.00000000
_cell_angle_beta   90.00000000
_cell_angle_gamma   120.00000113
_symmetry_Int_Tables_number   1
_chemical_formula_structural   Mg2Ni3O8
_chemical_formula_sum   'Mg4 Ni6 O16'
_cell_volume   260.68644752
_cell_formula_units_Z   2
loop_
 _symmetry_equiv_pos_site_id
 _symmetry_equiv_pos_as_xyz
  1  'x, y, z'
loop_
 _atom_site_type_symbol
 _atom_site_label
 _atom_site_symmetry_multiplicity
 _atom_site_fract_x
 _atom_site_fract_y
 _atom_site_fract_z
 _atom_site_occupancy
  Mg  Mg0  1  0.666667  0.333334  0.027134  1
  Mg  Mg1  1  0.333333  0.666666  0.527135  1
  Mg  Mg2  1  0.666667  0.333334  0.418546  1
  Mg  Mg3  1  0.333333  0.666666  0.918547  1
  Ni  Ni4  1  0.670328  0.835164  0.246858  1
  Ni  Ni5  1  0.835165  0.164837  0.746858  1
  Ni  Ni6  1  0.164837  0.329673  0.246858  1
  Ni  Ni7  1  0.835163  0.670328  0.746858  1
  Ni  Ni8  1  0.329673  0.164837  0.746858  1
  Ni  Ni9  1  0.164837  0.835164  0.246858  1
  O  O10  1  0.843737  0.156264  0.142550  1
  O  O11  1  0.687473  0.843737  0.642549  1
  O  O12  1  0.156264  0.312528  0.642549  1
  O  O13  1  0.843736  0.687473  0.142550  1
  O  O14  1  0.312527  0.156264  0.142550  1
  O  O15  1  0.156264  0.843737  0.642549  1
  O  O16  1  0.519228  0.480771  0.863172  1
  O  O17  1  0.038457  0.519228  0.363171  1
  O  O18  1  0.480772  0.961544  0.363171  1
  O  O19  1  0.519228  0.038457  0.863172  1
  O  O20  1  0.000000  -0.000000  0.349851  1
  O  O21  1  0.000000  -0.000000  0.849851  1
  O  O22  1  0.333333  0.666666  0.140232  1
  O  O23  1  0.961542  0.480771  0.863172  1
  O  O24  1  0.480771  0.519228  0.363171  1
  O  O25  1  0.666667  0.333334  0.640232  1
