# generated using pymatgen
data_Ba2AlTlV2O7
_symmetry_space_group_name_H-M   'P 1'
_cell_length_a   3.48910723
_cell_length_b   3.99065062
_cell_length_c   16.30518362
_cell_angle_alpha   83.16701172
_cell_angle_beta   89.98007713
_cell_angle_gamma   90.00349593
_symmetry_Int_Tables_number   1
_chemical_formula_structural   Ba2AlTlV2O7
_chemical_formula_sum   'Ba2 Al1 Tl1 V2 O7'
_cell_volume   225.41767371
_cell_formula_units_Z   1
loop_
 _symmetry_equiv_pos_site_id
 _symmetry_equiv_pos_as_xyz
  1  'x, y, z'
loop_
 _atom_site_type_symbol
 _atom_site_label
 _atom_site_symmetry_multiplicity
 _atom_site_fract_x
 _atom_site_fract_y
 _atom_site_fract_z
 _atom_site_occupancy
  Ba  Ba0  1  0.500577  0.441775  0.190327  1
  Ba  Ba1  1  0.499780  0.444682  0.775715  1
  Al  Al2  1  0.500090  0.378141  0.475160  1
  Tl  Tl3  1  0.999564  0.942090  0.972815  1
  V  V4  1  0.000214  0.931982  0.360475  1
  V  V5  1  0.999925  0.007734  0.633386  1
  O  O6  1  0.000452  0.903977  0.245892  1
  O  O7  1  0.000142  0.550125  0.452361  1
  O  O8  1  0.500201  0.140278  0.384335  1
  O  O9  1  0.500006  0.095843  0.565217  1
  O  O10  1  0.499337  0.658106  0.047807  1
  O  O11  1  0.999895  0.533310  0.642454  1
  O  O12  1  0.999815  0.971956  0.754058  1
