# generated using pymatgen
data_Ba2CaTi2CuF14
_symmetry_space_group_name_H-M   'P 1'
_cell_length_a   5.57239114
_cell_length_b   7.70683779
_cell_length_c   15.25835842
_cell_angle_alpha   93.16626919
_cell_angle_beta   90.06121951
_cell_angle_gamma   111.25474587
_symmetry_Int_Tables_number   1
_chemical_formula_structural   Ba2CaTi2CuF14
_chemical_formula_sum   'Ba4 Ca2 Ti4 Cu2 F28'
_cell_volume   609.61571213
_cell_formula_units_Z   2
loop_
 _symmetry_equiv_pos_site_id
 _symmetry_equiv_pos_as_xyz
  1  'x, y, z'
loop_
 _atom_site_type_symbol
 _atom_site_label
 _atom_site_symmetry_multiplicity
 _atom_site_fract_x
 _atom_site_fract_y
 _atom_site_fract_z
 _atom_site_occupancy
  Ba  Ba0  1  0.093724  0.357680  0.623041  1
  Ba  Ba1  1  0.263120  0.359046  0.122750  1
  Ba  Ba2  1  0.903192  0.641476  0.376927  1
  Ba  Ba3  1  0.737169  0.642032  0.877454  1
  Ca  Ca4  1  0.427558  0.999152  0.749821  1
  Ca  Ca5  1  0.571692  0.000893  0.249831  1
  Ti  Ti6  1  0.100826  0.248731  0.876238  1
  Ti  Ti7  1  0.900127  0.751235  0.123632  1
  Ti  Ti8  1  0.146611  0.248842  0.376448  1
  Ti  Ti9  1  0.851053  0.750358  0.623890  1
  Cu  Cu10  1  0.501558  0.000630  0.000224  1
  Cu  Cu11  1  0.496804  0.996809  0.500096  1
  F  F12  1  0.914404  0.994206  0.343977  1
  F  F13  1  0.892619  0.302514  0.450885  1
  F  F14  1  0.106160  0.698093  0.549334  1
  F  F15  1  0.639684  0.491034  0.604448  1
  F  F16  1  0.619413  0.098927  0.618876  1
  F  F17  1  0.521507  0.899968  0.880849  1
  F  F18  1  0.409707  0.304037  0.950762  1
  F  F19  1  0.921331  0.005256  0.156779  1
  F  F20  1  0.351370  0.319375  0.779314  1
  F  F21  1  0.359702  0.507382  0.395982  1
  F  F22  1  0.829778  0.234136  0.791152  1
  F  F23  1  0.143504  0.506660  0.896842  1
  F  F24  1  0.403482  0.235490  0.291637  1
  F  F25  1  0.173135  0.764737  0.207697  1
  F  F26  1  0.480336  0.102112  0.119164  1
  F  F27  1  0.650235  0.680376  0.220858  1
  F  F28  1  0.084899  0.816282  0.019622  1
  F  F29  1  0.082887  0.005716  0.656120  1
  F  F30  1  0.917148  0.183353  0.980485  1
  F  F31  1  0.728375  0.812173  0.519532  1
  F  F32  1  0.591269  0.698651  0.049373  1
  F  F33  1  0.592710  0.763689  0.708126  1
  F  F34  1  0.963175  0.316714  0.279290  1
  F  F35  1  0.267650  0.184667  0.480380  1
  F  F36  1  0.377822  0.898720  0.380549  1
  F  F37  1  0.080421  0.994454  0.843646  1
  F  F38  1  0.033995  0.682842  0.721107  1
  F  F39  1  0.854280  0.492823  0.103010  1
