# generated using pymatgen
data_Ca(BiO3)2
_symmetry_space_group_name_H-M   'P 1'
_cell_length_a   5.67182693
_cell_length_b   5.91557857
_cell_length_c   8.16907125
_cell_angle_alpha   90.00508561
_cell_angle_beta   89.99998934
_cell_angle_gamma   89.99570066
_symmetry_Int_Tables_number   1
_chemical_formula_structural   Ca(BiO3)2
_chemical_formula_sum   'Ca2 Bi4 O12'
_cell_volume   274.08980295
_cell_formula_units_Z   2
loop_
 _symmetry_equiv_pos_site_id
 _symmetry_equiv_pos_as_xyz
  1  'x, y, z'
loop_
 _atom_site_type_symbol
 _atom_site_label
 _atom_site_symmetry_multiplicity
 _atom_site_fract_x
 _atom_site_fract_y
 _atom_site_fract_z
 _atom_site_occupancy
  Ca  Ca0  1  0.521775  0.577603  0.250076  1
  Ca  Ca1  1  0.021863  0.922422  0.749894  1
  Bi  Bi2  1  0.504153  0.013058  0.000146  1
  Bi  Bi3  1  0.004151  0.486983  0.999853  1
  Bi  Bi4  1  0.004352  0.486978  0.500083  1
  Bi  Bi5  1  0.504367  0.013064  0.499883  1
  O  O6  1  0.679559  0.319352  0.439290  1
  O  O7  1  0.179580  0.180714  0.560734  1
  O  O8  1  0.796411  0.788966  0.053195  1
  O  O9  1  0.296461  0.711009  0.946915  1
  O  O10  1  0.296959  0.710723  0.552760  1
  O  O11  1  0.796945  0.789299  0.447124  1
  O  O12  1  0.179215  0.180580  0.939377  1
  O  O13  1  0.679211  0.319453  0.060585  1
  O  O14  1  0.126752  0.471411  0.249952  1
  O  O15  1  0.626726  0.028353  0.750037  1
  O  O16  1  0.401825  0.958255  0.250034  1
  O  O17  1  0.901876  0.541839  0.749953  1
