# generated using pymatgen
data_Mg2Nb2CoO8
_symmetry_space_group_name_H-M   'P 1'
_cell_length_a   5.20126109
_cell_length_b   6.03706967
_cell_length_c   10.03364491
_cell_angle_alpha   107.47929703
_cell_angle_beta   89.92097904
_cell_angle_gamma   90.01609893
_symmetry_Int_Tables_number   1
_chemical_formula_structural   Mg2Nb2CoO8
_chemical_formula_sum   'Mg4 Nb4 Co2 O16'
_cell_volume   300.51219555
_cell_formula_units_Z   2
loop_
 _symmetry_equiv_pos_site_id
 _symmetry_equiv_pos_as_xyz
  1  'x, y, z'
loop_
 _atom_site_type_symbol
 _atom_site_label
 _atom_site_symmetry_multiplicity
 _atom_site_fract_x
 _atom_site_fract_y
 _atom_site_fract_z
 _atom_site_occupancy
  Mg  Mg0  1  0.753664  0.414012  0.543883  1
  Mg  Mg1  1  0.747731  0.870341  0.457456  1
  Mg  Mg2  1  0.247911  0.586936  0.457345  1
  Mg  Mg3  1  0.253724  0.130276  0.543113  1
  Nb  Nb4  1  0.742889  0.283804  0.231455  1
  Nb  Nb5  1  0.758411  0.053906  0.769833  1
  Nb  Nb6  1  0.258208  0.716510  0.769947  1
  Nb  Nb7  1  0.242800  0.946648  0.231017  1
  Co  Co8  1  0.749611  0.647266  0.000626  1
  Co  Co9  1  0.249398  0.352821  0.000588  1
  O  O10  1  0.081953  0.184087  0.142005  1
  O  O11  1  0.420912  0.041141  0.858479  1
  O  O12  1  0.920753  0.817398  0.858493  1
  O  O13  1  0.581766  0.957443  0.142153  1
  O  O14  1  0.585137  0.430485  0.115808  1
  O  O15  1  0.916399  0.317608  0.885092  1
  O  O16  1  0.416076  0.567907  0.885285  1
  O  O17  1  0.084675  0.684127  0.115819  1
  O  O18  1  0.458575  0.292259  0.375550  1
  O  O19  1  0.042566  0.917818  0.625334  1
  O  O20  1  0.384193  0.836367  0.382343  1
  O  O21  1  0.117406  0.454852  0.618526  1
  O  O22  1  0.617146  0.164163  0.618554  1
  O  O23  1  0.884204  0.545783  0.382497  1
  O  O24  1  0.958606  0.082640  0.375226  1
  O  O25  1  0.542655  0.708260  0.625329  1
