# generated using pymatgen
data_Ca5Sc2(CoO6)2
_symmetry_space_group_name_H-M   'P 1'
_cell_length_a   6.37737523
_cell_length_b   6.42407720
_cell_length_c   6.42407744
_cell_angle_alpha   91.11057996
_cell_angle_beta   93.59942946
_cell_angle_gamma   93.59941925
_symmetry_Int_Tables_number   1
_chemical_formula_structural   Ca5Sc2(CoO6)2
_chemical_formula_sum   'Ca5 Sc2 Co2 O12'
_cell_volume   262.07722953
_cell_formula_units_Z   1
loop_
 _symmetry_equiv_pos_site_id
 _symmetry_equiv_pos_as_xyz
  1  'x, y, z'
loop_
 _atom_site_type_symbol
 _atom_site_label
 _atom_site_symmetry_multiplicity
 _atom_site_fract_x
 _atom_site_fract_y
 _atom_site_fract_z
 _atom_site_occupancy
  Ca  Ca0  1  0.111478  0.741521  0.377617  1
  Ca  Ca1  1  0.388522  0.122383  0.758479  1
  Ca  Ca2  1  0.624319  0.887838  0.245655  1
  Ca  Ca3  1  0.875681  0.254345  0.612162  1
  Ca  Ca4  1  0.250000  0.615500  0.884500  1
  Sc  Sc5  1  0.250000  0.250690  0.249310  1
  Sc  Sc6  1  0.750000  0.744166  0.755834  1
  Co  Co7  1  0.496747  0.501863  0.496616  1
  Co  Co8  1  0.003253  0.003384  0.998137  1
  O  O9  1  0.969851  0.071007  0.289708  1
  O  O10  1  0.044625  0.914517  0.715067  1
  O  O11  1  0.924665  0.723954  0.043635  1
  O  O12  1  0.293302  0.960469  0.087726  1
  O  O13  1  0.530149  0.210292  0.428993  1
  O  O14  1  0.715484  0.029976  0.901417  1
  O  O15  1  0.575335  0.456365  0.776046  1
  O  O16  1  0.206698  0.412274  0.539531  1
  O  O17  1  0.393721  0.555532  0.221222  1
  O  O18  1  0.455375  0.784933  0.585483  1
  O  O19  1  0.106279  0.278778  0.944468  1
  O  O20  1  0.784516  0.598583  0.470024  1
