# generated using pymatgen
data_Mg(MnS2)2
_symmetry_space_group_name_H-M   'P 1'
_cell_length_a   7.17003102
_cell_length_b   7.17003219
_cell_length_c   7.37460827
_cell_angle_alpha   119.08650867
_cell_angle_beta   119.08651297
_cell_angle_gamma   89.99999346
_symmetry_Int_Tables_number   1
_chemical_formula_structural   Mg(MnS2)2
_chemical_formula_sum   'Mg2 Mn4 S8'
_cell_volume   275.31700153
_cell_formula_units_Z   2
loop_
 _symmetry_equiv_pos_site_id
 _symmetry_equiv_pos_as_xyz
  1  'x, y, z'
loop_
 _atom_site_type_symbol
 _atom_site_label
 _atom_site_symmetry_multiplicity
 _atom_site_fract_x
 _atom_site_fract_y
 _atom_site_fract_z
 _atom_site_occupancy
  Mg  Mg0  1  0.375000  0.625000  0.750000  1
  Mg  Mg1  1  0.625000  0.375000  0.250000  1
  Mn  Mn2  1  0.000000  0.000000  0.500000  1
  Mn  Mn3  1  0.000000  0.500000  0.000000  1
  Mn  Mn4  1  0.500000  0.000000  0.500000  1
  Mn  Mn5  1  0.000000  0.000000  0.000000  1
  S  S6  1  0.763875  0.785426  0.527750  1
  S  S7  1  0.757677  0.236125  0.972250  1
  S  S8  1  0.214574  0.236125  0.972250  1
  S  S9  1  0.236125  0.214574  0.472250  1
  S  S10  1  0.236125  0.757677  0.472250  1
  S  S11  1  0.242323  0.763875  0.027750  1
  S  S12  1  0.763875  0.242323  0.527750  1
  S  S13  1  0.785426  0.763875  0.027750  1
