# generated using pymatgen
data_CaTi2O4
_symmetry_space_group_name_H-M   'P 1'
_cell_length_a   5.13164783
_cell_length_b   5.91148690
_cell_length_c   11.37182589
_cell_angle_alpha   90.02523658
_cell_angle_beta   90.00175760
_cell_angle_gamma   89.96115156
_symmetry_Int_Tables_number   1
_chemical_formula_structural   CaTi2O4
_chemical_formula_sum   'Ca4 Ti8 O16'
_cell_volume   344.97183251
_cell_formula_units_Z   4
loop_
 _symmetry_equiv_pos_site_id
 _symmetry_equiv_pos_as_xyz
  1  'x, y, z'
loop_
 _atom_site_type_symbol
 _atom_site_label
 _atom_site_symmetry_multiplicity
 _atom_site_fract_x
 _atom_site_fract_y
 _atom_site_fract_z
 _atom_site_occupancy
  Ca  Ca0  1  0.840473  0.249924  0.750022  1
  Ca  Ca1  1  0.159586  0.750074  0.249992  1
  Ca  Ca2  1  0.539149  0.250079  0.250045  1
  Ca  Ca3  1  0.460848  0.749918  0.749923  1
  Ti  Ti4  1  0.527012  0.749850  0.489503  1
  Ti  Ti5  1  0.526794  0.749706  0.010499  1
  Ti  Ti6  1  0.473050  0.250149  0.510530  1
  Ti  Ti7  1  0.473180  0.250292  0.989523  1
  Ti  Ti8  1  0.999904  0.500085  0.499996  1
  Ti  Ti9  1  0.000029  0.000042  0.000001  1
  Ti  Ti10  1  0.999912  0.999916  0.499997  1
  Ti  Ti11  1  0.000017  0.499961  0.000000  1
  O  O12  1  0.845295  0.750361  0.392169  1
  O  O13  1  0.845172  0.750201  0.107807  1
  O  O14  1  0.154759  0.249642  0.607779  1
  O  O15  1  0.154827  0.249805  0.892217  1
  O  O16  1  0.174307  0.749874  0.590268  1
  O  O17  1  0.174309  0.750052  0.909760  1
  O  O18  1  0.825659  0.250125  0.409752  1
  O  O19  1  0.825702  0.249949  0.090230  1
  O  O20  1  0.660933  0.503023  0.606443  1
  O  O21  1  0.661206  0.996777  0.893760  1
  O  O22  1  0.338815  0.003406  0.393712  1
  O  O23  1  0.339018  0.496798  0.106453  1
  O  O24  1  0.339048  0.496932  0.393571  1
  O  O25  1  0.338822  0.003212  0.106222  1
  O  O26  1  0.661167  0.996639  0.606302  1
  O  O27  1  0.661006  0.503211  0.893524  1
