# generated using pymatgen
data_VZnAsO5
_symmetry_space_group_name_H-M   'P 1'
_cell_length_a   8.20291745
_cell_length_b   6.22604441
_cell_length_c   8.36207820
_cell_angle_alpha   89.99996058
_cell_angle_beta   89.98264376
_cell_angle_gamma   89.73478393
_symmetry_Int_Tables_number   1
_chemical_formula_structural   VZnAsO5
_chemical_formula_sum   'V4 Zn4 As4 O20'
_cell_volume   427.06119128
_cell_formula_units_Z   4
loop_
 _symmetry_equiv_pos_site_id
 _symmetry_equiv_pos_as_xyz
  1  'x, y, z'
loop_
 _atom_site_type_symbol
 _atom_site_label
 _atom_site_symmetry_multiplicity
 _atom_site_fract_x
 _atom_site_fract_y
 _atom_site_fract_z
 _atom_site_occupancy
  V  V0  1  0.995200  0.489866  0.745002  1
  V  V1  1  0.504776  0.510162  0.244982  1
  V  V2  1  0.495142  0.010318  0.256071  1
  V  V3  1  0.004853  0.989707  0.756081  1
  Zn  Zn4  1  0.893918  0.660431  0.067528  1
  Zn  Zn5  1  0.606148  0.339534  0.567497  1
  Zn  Zn6  1  0.401571  0.839552  0.931270  1
  Zn  Zn7  1  0.098493  0.160476  0.431269  1
  As  As8  1  0.667295  0.254740  0.934369  1
  As  As9  1  0.832947  0.745175  0.434038  1
  As  As10  1  0.166930  0.243475  0.066366  1
  As  As11  1  0.332822  0.756439  0.566098  1
  O  O12  1  0.861497  0.238129  0.854273  1
  O  O13  1  0.638470  0.761894  0.354200  1
  O  O14  1  0.361469  0.262030  0.146993  1
  O  O15  1  0.138576  0.738013  0.647025  1
  O  O16  1  0.532942  0.294947  0.780809  1
  O  O17  1  0.966941  0.704991  0.281069  1
  O  O18  1  0.030505  0.204781  0.217169  1
  O  O19  1  0.469650  0.795176  0.717359  1
  O  O20  1  0.621035  0.020146  0.033576  1
  O  O21  1  0.878962  0.979946  0.533607  1
  O  O22  1  0.118668  0.477831  0.966696  1
  O  O23  1  0.381309  0.522232  0.466729  1
  O  O24  1  0.674368  0.476552  0.062278  1
  O  O25  1  0.825561  0.523449  0.562355  1
  O  O26  1  0.175094  0.021711  0.938608  1
  O  O27  1  0.324922  0.978224  0.438659  1
  O  O28  1  0.895682  0.745161  0.850361  1
  O  O29  1  0.604304  0.254874  0.350354  1
  O  O30  1  0.397922  0.756463  0.148637  1
  O  O31  1  0.102025  0.243574  0.648669  1
