# generated using pymatgen
data_CaV2S5
_symmetry_space_group_name_H-M   'P 1'
_cell_length_a   4.23592682
_cell_length_b   5.95370338
_cell_length_c   14.24657327
_cell_angle_alpha   90.02466339
_cell_angle_beta   89.99996229
_cell_angle_gamma   89.99971101
_symmetry_Int_Tables_number   1
_chemical_formula_structural   CaV2S5
_chemical_formula_sum   'Ca2 V4 S10'
_cell_volume   359.29073485
_cell_formula_units_Z   2
loop_
 _symmetry_equiv_pos_site_id
 _symmetry_equiv_pos_as_xyz
  1  'x, y, z'
loop_
 _atom_site_type_symbol
 _atom_site_label
 _atom_site_symmetry_multiplicity
 _atom_site_fract_x
 _atom_site_fract_y
 _atom_site_fract_z
 _atom_site_occupancy
  Ca  Ca0  1  0.750000  0.876442  0.250337  1
  Ca  Ca1  1  0.249999  0.127802  0.749359  1
  V  V2  1  0.249999  0.395831  0.097817  1
  V  V3  1  0.750002  0.602975  0.902533  1
  V  V4  1  0.750000  0.604149  0.597584  1
  V  V5  1  0.249998  0.394798  0.402097  1
  S  S6  1  0.749994  0.463009  0.750088  1
  S  S7  1  0.250002  0.535485  0.249968  1
  S  S8  1  0.749998  0.557678  0.070153  1
  S  S9  1  0.250000  0.442012  0.930002  1
  S  S10  1  0.749999  0.558280  0.429498  1
  S  S11  1  0.250000  0.441871  0.570203  1
  S  S12  1  0.250000  0.042158  0.378857  1
  S  S13  1  0.750001  0.957422  0.620685  1
  S  S14  1  0.750000  0.957718  0.879853  1
  S  S15  1  0.249999  0.042371  0.120965  1
