# generated using pymatgen
data_MgCr2O4
_symmetry_space_group_name_H-M   'P 1'
_cell_length_a   5.96174591
_cell_length_b   6.00638583
_cell_length_c   17.83683788
_cell_angle_alpha   59.68921509
_cell_angle_beta   62.19304204
_cell_angle_gamma   59.71898429
_symmetry_Int_Tables_number   1
_chemical_formula_structural   MgCr2O4
_chemical_formula_sum   'Mg6 Cr12 O24'
_cell_volume   456.50823750
_cell_formula_units_Z   6
loop_
 _symmetry_equiv_pos_site_id
 _symmetry_equiv_pos_as_xyz
  1  'x, y, z'
loop_
 _atom_site_type_symbol
 _atom_site_label
 _atom_site_symmetry_multiplicity
 _atom_site_fract_x
 _atom_site_fract_y
 _atom_site_fract_z
 _atom_site_occupancy
  Mg  Mg0  1  0.133698  0.120732  0.041602  1
  Mg  Mg1  1  0.502354  0.501083  0.331839  1
  Mg  Mg2  1  0.007650  0.497626  0.165711  1
  Mg  Mg3  1  0.498511  0.499355  0.667604  1
  Mg  Mg4  1  0.000284  0.500670  0.499461  1
  Mg  Mg5  1  0.996893  0.501180  0.833574  1
  Cr  Cr6  1  0.503852  0.000692  0.165732  1
  Cr  Cr7  1  0.127495  0.123455  0.375231  1
  Cr  Cr8  1  0.495191  0.498017  0.002888  1
  Cr  Cr9  1  0.503856  0.498289  0.165733  1
  Cr  Cr10  1  0.500706  0.000066  0.499641  1
  Cr  Cr11  1  0.123561  0.126974  0.707512  1
  Cr  Cr12  1  0.500716  0.500293  0.499643  1
  Cr  Cr13  1  0.492654  0.003207  0.834514  1
  Cr  Cr14  1  0.876150  0.877217  0.289826  1
  Cr  Cr15  1  0.492670  0.500548  0.834522  1
  Cr  Cr16  1  0.873010  0.875396  0.625364  1
  Cr  Cr17  1  0.863573  0.878119  0.959973  1
  O  O18  1  0.267855  0.264856  0.083856  1
  O  O19  1  0.288310  0.241851  0.242849  1
  O  O20  1  0.267620  0.715711  0.083926  1
  O  O21  1  0.722267  0.255400  0.088903  1
  O  O22  1  0.257060  0.260632  0.417367  1
  O  O23  1  0.276892  0.755177  0.237778  1
  O  O24  1  0.281378  0.246920  0.575074  1
  O  O25  1  0.752533  0.268315  0.246806  1
  O  O26  1  0.256592  0.730299  0.417520  1
  O  O27  1  0.724026  0.751111  0.091114  1
  O  O28  1  0.727267  0.245946  0.426787  1
  O  O29  1  0.752125  0.738807  0.246930  1
  O  O30  1  0.250800  0.259327  0.751725  1
  O  O31  1  0.272459  0.754632  0.572908  1
  O  O32  1  0.745408  0.268744  0.582258  1
  O  O33  1  0.250430  0.734747  0.751877  1
  O  O34  1  0.270457  0.256028  0.905921  1
  O  O35  1  0.720064  0.753830  0.423946  1
  O  O36  1  0.722118  0.245367  0.762238  1
  O  O37  1  0.744950  0.739005  0.582407  1
  O  O38  1  0.276338  0.746041  0.910668  1
  O  O39  1  0.732175  0.274324  0.918472  1
  O  O40  1  0.716275  0.752042  0.759723  1
  O  O41  1  0.731775  0.737968  0.918576  1
