# generated using pymatgen
data_Ca(NiO2)2
_symmetry_space_group_name_H-M   'P 1'
_cell_length_a   6.19648233
_cell_length_b   6.21352748
_cell_length_c   18.05625075
_cell_angle_alpha   60.13663225
_cell_angle_beta   60.40014797
_cell_angle_gamma   58.81067239
_symmetry_Int_Tables_number   1
_chemical_formula_structural   Ca(NiO2)2
_chemical_formula_sum   'Ca6 Ni12 O24'
_cell_volume   488.93867382
_cell_formula_units_Z   6
loop_
 _symmetry_equiv_pos_site_id
 _symmetry_equiv_pos_as_xyz
  1  'x, y, z'
loop_
 _atom_site_type_symbol
 _atom_site_label
 _atom_site_symmetry_multiplicity
 _atom_site_fract_x
 _atom_site_fract_y
 _atom_site_fract_z
 _atom_site_occupancy
  Ca  Ca0  1  0.123861  0.125451  0.042074  1
  Ca  Ca1  1  0.115728  0.110947  0.386604  1
  Ca  Ca2  1  0.501799  0.502399  0.996377  1
  Ca  Ca3  1  0.107706  0.108614  0.726456  1
  Ca  Ca4  1  0.884843  0.885480  0.283111  1
  Ca  Ca5  1  0.866561  0.868381  0.631116  1
  Ni  Ni6  1  0.999189  0.499280  0.169933  1
  Ni  Ni7  1  0.492085  0.493789  0.172427  1
  Ni  Ni8  1  0.999690  0.493785  0.502655  1
  Ni  Ni9  1  0.497855  0.998590  0.170556  1
  Ni  Ni10  1  0.502651  0.497690  0.336100  1
  Ni  Ni11  1  0.496488  0.494743  0.502368  1
  Ni  Ni12  1  0.015616  0.501719  0.828648  1
  Ni  Ni13  1  0.495806  0.998321  0.502891  1
  Ni  Ni14  1  0.502382  0.016598  0.828304  1
  Ni  Ni15  1  0.499110  0.503562  0.660657  1
  Ni  Ni16  1  0.498807  0.500042  0.827753  1
  Ni  Ni17  1  0.880402  0.880508  0.952753  1
  O  O18  1  0.243442  0.246420  0.107548  1
  O  O19  1  0.256897  0.261095  0.244089  1
  O  O20  1  0.240324  0.693025  0.108263  1
  O  O21  1  0.691293  0.238797  0.110249  1
  O  O22  1  0.324222  0.735056  0.239555  1
  O  O23  1  0.276960  0.259438  0.426719  1
  O  O24  1  0.731540  0.325575  0.241819  1
  O  O25  1  0.756258  0.753837  0.077883  1
  O  O26  1  0.281253  0.679411  0.425837  1
  O  O27  1  0.243152  0.251665  0.571485  1
  O  O28  1  0.736367  0.734244  0.237736  1
  O  O29  1  0.685994  0.275439  0.429809  1
  O  O30  1  0.305303  0.716287  0.575803  1
  O  O31  1  0.293929  0.293545  0.739355  1
  O  O32  1  0.717307  0.308697  0.577402  1
  O  O33  1  0.753984  0.742567  0.433608  1
  O  O34  1  0.280945  0.278583  0.892046  1
  O  O35  1  0.283691  0.696845  0.738966  1
  O  O36  1  0.711864  0.724216  0.582219  1
  O  O37  1  0.694818  0.291406  0.738735  1
  O  O38  1  0.250529  0.776466  0.899440  1
  O  O39  1  0.717042  0.719204  0.777554  1
  O  O40  1  0.775771  0.251312  0.900337  1
  O  O41  1  0.766532  0.766975  0.902759  1
