# generated using pymatgen
data_HoV2ZnO6
_symmetry_space_group_name_H-M   'P 1'
_cell_length_a   5.26780651
_cell_length_b   5.44116780
_cell_length_c   7.62430789
_cell_angle_alpha   90.00192492
_cell_angle_beta   90.38571609
_cell_angle_gamma   90.00715052
_symmetry_Int_Tables_number   1
_chemical_formula_structural   HoV2ZnO6
_chemical_formula_sum   'Ho2 V4 Zn2 O12'
_cell_volume   218.53072950
_cell_formula_units_Z   2
loop_
 _symmetry_equiv_pos_site_id
 _symmetry_equiv_pos_as_xyz
  1  'x, y, z'
loop_
 _atom_site_type_symbol
 _atom_site_label
 _atom_site_symmetry_multiplicity
 _atom_site_fract_x
 _atom_site_fract_y
 _atom_site_fract_z
 _atom_site_occupancy
  Ho  Ho0  1  0.015441  0.931102  0.748916  1
  Ho  Ho1  1  0.515513  0.568924  0.248849  1
  V  V2  1  0.000443  0.487817  0.002580  1
  V  V3  1  0.998557  0.481601  0.498486  1
  V  V4  1  0.500353  0.012159  0.502566  1
  V  V5  1  0.498587  0.018375  0.998459  1
  Zn  Zn6  1  0.497008  0.482945  0.750171  1
  Zn  Zn7  1  0.997069  0.016973  0.250323  1
  O  O8  1  0.111359  0.447302  0.251896  1
  O  O9  1  0.191091  0.193079  0.936889  1
  O  O10  1  0.177399  0.205984  0.559413  1
  O  O11  1  0.324515  0.702619  0.940585  1
  O  O12  1  0.311519  0.692609  0.561983  1
  O  O13  1  0.372643  0.961960  0.249069  1
  O  O14  1  0.611342  0.052630  0.751845  1
  O  O15  1  0.690898  0.307068  0.436967  1
  O  O16  1  0.677505  0.293997  0.059459  1
  O  O17  1  0.811652  0.807408  0.061916  1
  O  O18  1  0.824471  0.797450  0.440578  1
  O  O19  1  0.872634  0.537998  0.749051  1
