# generated using pymatgen
data_Ca(NiO2)2
_symmetry_space_group_name_H-M   'P 1'
_cell_length_a   6.07991059
_cell_length_b   6.25030234
_cell_length_c   6.25191515
_cell_angle_alpha   89.97059327
_cell_angle_beta   120.75910821
_cell_angle_gamma   120.95046950
_symmetry_Int_Tables_number   1
_chemical_formula_structural   Ca(NiO2)2
_chemical_formula_sum   'Ca2 Ni4 O8'
_cell_volume   163.60470162
_cell_formula_units_Z   2
loop_
 _symmetry_equiv_pos_site_id
 _symmetry_equiv_pos_as_xyz
  1  'x, y, z'
loop_
 _atom_site_type_symbol
 _atom_site_label
 _atom_site_symmetry_multiplicity
 _atom_site_fract_x
 _atom_site_fract_y
 _atom_site_fract_z
 _atom_site_occupancy
  Ca  Ca0  1  0.249667  0.127165  0.877454  1
  Ca  Ca1  1  0.750255  0.872882  0.122475  1
  Ni  Ni2  1  0.499991  0.000007  0.499999  1
  Ni  Ni3  1  0.500059  0.500058  0.500043  1
  Ni  Ni4  1  0.000014  0.499941  0.000009  1
  Ni  Ni5  1  0.999992  0.499968  0.499968  1
  O  O6  1  0.049316  0.737972  0.237822  1
  O  O7  1  0.454735  0.760893  0.688783  1
  O  O8  1  0.452108  0.685814  0.258584  1
  O  O9  1  0.955747  0.694027  0.689382  1
  O  O10  1  0.547980  0.314145  0.741502  1
  O  O11  1  0.545133  0.239062  0.311139  1
  O  O12  1  0.044531  0.306087  0.310763  1
  O  O13  1  0.950473  0.261979  0.762077  1
