# generated using pymatgen
data_CaSi2SnO6
_symmetry_space_group_name_H-M   'P 1'
_cell_length_a   5.53437915
_cell_length_b   9.66423090
_cell_length_c   20.44430292
_cell_angle_alpha   90.00000000
_cell_angle_beta   90.00000000
_cell_angle_gamma   90.00000000
_symmetry_Int_Tables_number   1
_chemical_formula_structural   CaSi2SnO6
_chemical_formula_sum   'Ca8 Si16 Sn8 O48'
_cell_volume   1093.47413170
_cell_formula_units_Z   8
loop_
 _symmetry_equiv_pos_site_id
 _symmetry_equiv_pos_as_xyz
  1  'x, y, z'
loop_
 _atom_site_type_symbol
 _atom_site_label
 _atom_site_symmetry_multiplicity
 _atom_site_fract_x
 _atom_site_fract_y
 _atom_site_fract_z
 _atom_site_occupancy
  Ca  Ca0  1  0.625185  0.143118  0.625277  1
  Ca  Ca1  1  0.374815  0.856882  0.374723  1
  Ca  Ca2  1  0.625185  0.643118  0.874723  1
  Ca  Ca3  1  0.125185  0.856882  0.874723  1
  Ca  Ca4  1  0.874815  0.143118  0.125277  1
  Ca  Ca5  1  0.374815  0.356882  0.125277  1
  Ca  Ca6  1  0.125185  0.356882  0.625277  1
  Ca  Ca7  1  0.874815  0.643118  0.374723  1
  Si  Si8  1  0.505041  0.661208  0.237295  1
  Si  Si9  1  0.733790  0.838087  0.513114  1
  Si  Si10  1  0.766210  0.838087  0.013114  1
  Si  Si11  1  0.994959  0.161208  0.762705  1
  Si  Si12  1  0.005041  0.338792  0.262705  1
  Si  Si13  1  0.494959  0.838792  0.737295  1
  Si  Si14  1  0.233790  0.661913  0.513114  1
  Si  Si15  1  0.733790  0.338087  0.986886  1
  Si  Si16  1  0.766210  0.338087  0.486886  1
  Si  Si17  1  0.994959  0.661208  0.737295  1
  Si  Si18  1  0.494959  0.338792  0.762705  1
  Si  Si19  1  0.505041  0.161208  0.262705  1
  Si  Si20  1  0.266210  0.161913  0.486886  1
  Si  Si21  1  0.005041  0.838792  0.237295  1
  Si  Si22  1  0.266210  0.661913  0.013114  1
  Si  Si23  1  0.233790  0.161913  0.986886  1
  Sn  Sn24  1  0.373654  0.956778  0.123388  1
  Sn  Sn25  1  0.626346  0.043222  0.876612  1
  Sn  Sn26  1  0.873654  0.043222  0.376612  1
  Sn  Sn27  1  0.126346  0.956778  0.623388  1
  Sn  Sn28  1  0.373654  0.456778  0.376612  1
  Sn  Sn29  1  0.626346  0.543222  0.623388  1
  Sn  Sn30  1  0.873654  0.543222  0.123388  1
  Sn  Sn31  1  0.126346  0.456778  0.876612  1
  O  O32  1  0.972148  0.521584  0.694193  1
  O  O33  1  0.264073  0.020925  0.945384  1
  O  O34  1  0.027852  0.478416  0.305807  1
  O  O35  1  0.736091  0.352233  0.067473  1
  O  O36  1  0.236091  0.147767  0.067473  1
  O  O37  1  0.969529  0.236141  0.967739  1
  O  O38  1  0.988632  0.644657  0.817686  1
  O  O39  1  0.011368  0.855343  0.317686  1
  O  O40  1  0.736091  0.852233  0.432527  1
  O  O41  1  0.988632  0.144657  0.682314  1
  O  O42  1  0.472148  0.478416  0.805807  1
  O  O43  1  0.763909  0.352233  0.567473  1
  O  O44  1  0.735927  0.979075  0.054616  1
  O  O45  1  0.488632  0.855343  0.817686  1
  O  O46  1  0.527852  0.021584  0.305807  1
  O  O47  1  0.264073  0.520925  0.554616  1
  O  O48  1  0.472148  0.978416  0.694193  1
  O  O49  1  0.252480  0.741962  0.718610  1
  O  O50  1  0.247520  0.741962  0.218610  1
  O  O51  1  0.530471  0.736141  0.032261  1
  O  O52  1  0.763909  0.852233  0.932527  1
  O  O53  1  0.511368  0.644657  0.317686  1
  O  O54  1  0.764073  0.479075  0.945384  1
  O  O55  1  0.252480  0.241962  0.781390  1
  O  O56  1  0.263909  0.147767  0.567473  1
  O  O57  1  0.511368  0.144657  0.182314  1
  O  O58  1  0.735927  0.479075  0.445384  1
  O  O59  1  0.236091  0.647767  0.432527  1
  O  O60  1  0.235927  0.520925  0.054616  1
  O  O61  1  0.752480  0.758038  0.718610  1
  O  O62  1  0.027852  0.978416  0.194193  1
  O  O63  1  0.747520  0.758038  0.218610  1
  O  O64  1  0.747520  0.258038  0.281390  1
  O  O65  1  0.764073  0.979075  0.554616  1
  O  O66  1  0.263909  0.647767  0.932527  1
  O  O67  1  0.235927  0.020925  0.445384  1
  O  O68  1  0.247520  0.241962  0.281390  1
  O  O69  1  0.030471  0.763859  0.032261  1
  O  O70  1  0.469529  0.763859  0.532261  1
  O  O71  1  0.752480  0.258038  0.781390  1
  O  O72  1  0.469529  0.263859  0.967739  1
  O  O73  1  0.530471  0.236141  0.467739  1
  O  O74  1  0.030471  0.263859  0.467739  1
  O  O75  1  0.488632  0.355343  0.682314  1
  O  O76  1  0.527852  0.521584  0.194193  1
  O  O77  1  0.969529  0.736141  0.532261  1
  O  O78  1  0.011368  0.355343  0.182314  1
  O  O79  1  0.972148  0.021584  0.805807  1
