# generated using pymatgen
data_Ba2Ca2Mn3Tl2O10
_symmetry_space_group_name_H-M   'P 1'
_cell_length_a   4.02827776
_cell_length_b   3.98735925
_cell_length_c   18.58739285
_cell_angle_alpha   96.08463671
_cell_angle_beta   96.36752918
_cell_angle_gamma   90.00023637
_symmetry_Int_Tables_number   1
_chemical_formula_structural   Ba2Ca2Mn3Tl2O10
_chemical_formula_sum   'Ba2 Ca2 Mn3 Tl2 O10'
_cell_volume   295.01999497
_cell_formula_units_Z   1
loop_
 _symmetry_equiv_pos_site_id
 _symmetry_equiv_pos_as_xyz
  1  'x, y, z'
loop_
 _atom_site_type_symbol
 _atom_site_label
 _atom_site_symmetry_multiplicity
 _atom_site_fract_x
 _atom_site_fract_y
 _atom_site_fract_z
 _atom_site_occupancy
  Ba  Ba0  1  0.085023  0.153457  0.290083  1
  Ba  Ba1  1  0.784882  0.845445  0.705731  1
  Ca  Ca2  1  0.888461  0.947733  0.906503  1
  Ca  Ca3  1  0.985586  0.054581  0.094125  1
  Mn  Mn4  1  0.340747  0.398904  0.813950  1
  Mn  Mn5  1  0.535597  0.604065  0.189319  1
  Mn  Mn6  1  0.436227  0.502388  0.000353  1
  Tl  Tl7  1  0.598072  0.720385  0.431879  1
  Tl  Tl8  1  0.195912  0.279455  0.560397  1
  O  O9  1  0.350213  0.907918  0.832558  1
  O  O10  1  0.284032  0.344004  0.704669  1
  O  O11  1  0.849588  0.407887  0.830879  1
  O  O12  1  0.818289  0.771587  0.542659  1
  O  O13  1  0.936959  0.503754  0.001789  1
  O  O14  1  0.027478  0.596165  0.173399  1
  O  O15  1  0.612829  0.662884  0.310361  1
  O  O16  1  0.524236  0.095352  0.171366  1
  O  O17  1  0.310403  0.218893  0.429265  1
  O  O18  1  0.436557  0.003102  0.001676  1
