# generated using pymatgen
data_MoWO6
_symmetry_space_group_name_H-M   'P 1'
_cell_length_a   5.36452445
_cell_length_b   5.42466125
_cell_length_c   7.62658379
_cell_angle_alpha   90.00000000
_cell_angle_beta   89.97269597
_cell_angle_gamma   90.00000000
_symmetry_Int_Tables_number   1
_chemical_formula_structural   MoWO6
_chemical_formula_sum   'Mo2 W2 O12'
_cell_volume   221.93911477
_cell_formula_units_Z   2
loop_
 _symmetry_equiv_pos_site_id
 _symmetry_equiv_pos_as_xyz
  1  'x, y, z'
loop_
 _atom_site_type_symbol
 _atom_site_label
 _atom_site_symmetry_multiplicity
 _atom_site_fract_x
 _atom_site_fract_y
 _atom_site_fract_z
 _atom_site_occupancy
  Mo  Mo0  1  0.500000  0.000000  0.000000  1
  Mo  Mo1  1  0.000001  0.499999  0.500000  1
  W  W2  1  0.500000  0.000000  0.499999  1
  W  W3  1  0.000000  0.499999  0.000000  1
  O  O4  1  0.722848  0.277244  0.472361  1
  O  O5  1  0.777152  0.777245  0.027639  1
  O  O6  1  0.277151  0.722756  0.527639  1
  O  O7  1  0.222849  0.222755  0.972361  1
  O  O8  1  0.222101  0.223679  0.528457  1
  O  O9  1  0.277899  0.723678  0.971543  1
  O  O10  1  0.777900  0.776321  0.471543  1
  O  O11  1  0.722100  0.276322  0.028457  1
  O  O12  1  0.055807  0.493989  0.250507  1
  O  O13  1  0.444194  0.993990  0.249492  1
  O  O14  1  0.555807  0.006010  0.750508  1
  O  O15  1  0.944194  0.506011  0.749493  1
