# generated using pymatgen
data_Ca2Co3O8
_symmetry_space_group_name_H-M   'P 1'
_cell_length_a   5.99563206
_cell_length_b   5.99563197
_cell_length_c   10.51276757
_cell_angle_alpha   90.00000000
_cell_angle_beta   90.00000000
_cell_angle_gamma   120.00000452
_symmetry_Int_Tables_number   1
_chemical_formula_structural   Ca2Co3O8
_chemical_formula_sum   'Ca4 Co6 O16'
_cell_volume   327.27860451
_cell_formula_units_Z   2
loop_
 _symmetry_equiv_pos_site_id
 _symmetry_equiv_pos_as_xyz
  1  'x, y, z'
loop_
 _atom_site_type_symbol
 _atom_site_label
 _atom_site_symmetry_multiplicity
 _atom_site_fract_x
 _atom_site_fract_y
 _atom_site_fract_z
 _atom_site_occupancy
  Ca  Ca0  1  0.666667  0.333334  0.024568  1
  Ca  Ca1  1  0.333333  0.666666  0.524569  1
  Ca  Ca2  1  0.666667  0.333334  0.425981  1
  Ca  Ca3  1  0.333333  0.666666  0.925982  1
  Co  Co4  1  0.672133  0.836067  0.246400  1
  Co  Co5  1  0.836068  0.163934  0.746401  1
  Co  Co6  1  0.163934  0.327868  0.246400  1
  Co  Co7  1  0.836066  0.672133  0.746401  1
  Co  Co8  1  0.327868  0.163934  0.746401  1
  Co  Co9  1  0.163934  0.836067  0.246400  1
  O  O10  1  0.848569  0.151432  0.161350  1
  O  O11  1  0.697137  0.848569  0.661349  1
  O  O12  1  0.151432  0.302864  0.661349  1
  O  O13  1  0.848568  0.697137  0.161350  1
  O  O14  1  0.302863  0.151432  0.161350  1
  O  O15  1  0.151432  0.848569  0.661349  1
  O  O16  1  0.524451  0.475548  0.842310  1
  O  O17  1  0.048905  0.524451  0.342309  1
  O  O18  1  0.475549  0.951096  0.342309  1
  O  O19  1  0.524451  0.048905  0.842310  1
  O  O20  1  -0.000000  -0.000000  0.358605  1
  O  O21  1  0.000000  -0.000000  0.858605  1
  O  O22  1  0.333333  0.666666  0.134167  1
  O  O23  1  0.951094  0.475548  0.842310  1
  O  O24  1  0.475548  0.524451  0.342309  1
  O  O25  1  0.666667  0.333334  0.634167  1
