# generated using pymatgen
data_CaCoNi2O7
_symmetry_space_group_name_H-M   'P 1'
_cell_length_a   6.74010346
_cell_length_b   10.91671893
_cell_length_c   14.21547351
_cell_angle_alpha   90.00000000
_cell_angle_beta   90.00000000
_cell_angle_gamma   103.29731780
_symmetry_Int_Tables_number   1
_chemical_formula_structural   CaCoNi2O7
_chemical_formula_sum   'Ca8 Co8 Ni16 O56'
_cell_volume   1017.92902889
_cell_formula_units_Z   8
loop_
 _symmetry_equiv_pos_site_id
 _symmetry_equiv_pos_as_xyz
  1  'x, y, z'
loop_
 _atom_site_type_symbol
 _atom_site_label
 _atom_site_symmetry_multiplicity
 _atom_site_fract_x
 _atom_site_fract_y
 _atom_site_fract_z
 _atom_site_occupancy
  Ca  Ca0  1  0.092252  0.732605  0.506434  1
  Ca  Ca1  1  0.335147  0.982313  0.874046  1
  Ca  Ca2  1  0.664853  0.517687  0.374046  1
  Ca  Ca3  1  0.664853  0.017687  0.125954  1
  Ca  Ca4  1  0.335147  0.482313  0.625954  1
  Ca  Ca5  1  0.092252  0.232605  0.993566  1
  Ca  Ca6  1  0.907748  0.267395  0.493566  1
  Ca  Ca7  1  0.907748  0.767395  0.006434  1
  Co  Co8  1  0.623522  0.083322  0.678151  1
  Co  Co9  1  0.376478  0.416678  0.178151  1
  Co  Co10  1  0.376478  0.916678  0.321849  1
  Co  Co11  1  0.623522  0.583322  0.821849  1
  Co  Co12  1  0.990161  0.242341  0.755222  1
  Co  Co13  1  0.009839  0.257659  0.255222  1
  Co  Co14  1  0.009839  0.757659  0.244778  1
  Co  Co15  1  0.990161  0.742341  0.744778  1
  Ni  Ni16  1  0.832206  0.973567  0.861816  1
  Ni  Ni17  1  0.393452  0.677556  0.015198  1
  Ni  Ni18  1  0.393452  0.177556  0.484802  1
  Ni  Ni19  1  0.606548  0.322444  0.984802  1
  Ni  Ni20  1  0.504079  0.804192  0.702116  1
  Ni  Ni21  1  0.495921  0.695808  0.202116  1
  Ni  Ni22  1  0.495921  0.195808  0.297884  1
  Ni  Ni23  1  0.504079  0.304192  0.797884  1
  Ni  Ni24  1  0.606548  0.822444  0.515198  1
  Ni  Ni25  1  0.882629  0.476025  0.146149  1
  Ni  Ni26  1  0.117371  0.023975  0.646149  1
  Ni  Ni27  1  0.117371  0.523975  0.853851  1
  Ni  Ni28  1  0.167794  0.526433  0.361816  1
  Ni  Ni29  1  0.832206  0.473567  0.638184  1
  Ni  Ni30  1  0.167794  0.026433  0.138184  1
  Ni  Ni31  1  0.882629  0.976025  0.353851  1
  O  O32  1  0.764423  0.952828  0.982668  1
  O  O33  1  0.235577  0.547172  0.482668  1
  O  O34  1  0.235577  0.047172  0.017332  1
  O  O35  1  0.764423  0.452828  0.517332  1
  O  O36  1  0.000557  0.867000  0.839653  1
  O  O37  1  0.999443  0.633000  0.339653  1
  O  O38  1  0.999443  0.133000  0.160347  1
  O  O39  1  0.000557  0.367000  0.660347  1
  O  O40  1  0.013435  0.126565  0.846124  1
  O  O41  1  0.986565  0.373435  0.346124  1
  O  O42  1  0.986565  0.873435  0.153876  1
  O  O43  1  0.013435  0.626565  0.653876  1
  O  O44  1  0.643913  0.927475  0.283911  1
  O  O45  1  0.356087  0.572525  0.783911  1
  O  O46  1  0.356087  0.072525  0.716089  1
  O  O47  1  0.643913  0.427475  0.216089  1
  O  O48  1  0.973776  0.144451  0.354394  1
  O  O49  1  0.026224  0.355549  0.854394  1
  O  O50  1  0.026224  0.855549  0.645606  1
  O  O51  1  0.973776  0.644451  0.145606  1
  O  O52  1  0.080598  0.882458  0.337485  1
  O  O53  1  0.386095  0.832700  0.426682  1
  O  O54  1  0.919402  0.617542  0.837485  1
  O  O55  1  0.080598  0.382458  0.162515  1
  O  O56  1  0.727287  0.703413  0.470581  1
  O  O57  1  0.272713  0.796587  0.970581  1
  O  O58  1  0.272713  0.296587  0.529419  1
  O  O59  1  0.727287  0.203413  0.029419  1
  O  O60  1  0.805385  0.950646  0.476159  1
  O  O61  1  0.194615  0.549354  0.976159  1
  O  O62  1  0.194615  0.049354  0.523841  1
  O  O63  1  0.805385  0.450646  0.023841  1
  O  O64  1  0.427964  0.203542  0.911924  1
  O  O65  1  0.572036  0.296458  0.411924  1
  O  O66  1  0.572036  0.796458  0.088076  1
  O  O67  1  0.427964  0.703542  0.588076  1
  O  O68  1  0.703778  0.214009  0.761189  1
  O  O69  1  0.296222  0.285991  0.261189  1
  O  O70  1  0.296222  0.785991  0.238811  1
  O  O71  1  0.703778  0.714009  0.738811  1
  O  O72  1  0.618290  0.460858  0.719421  1
  O  O73  1  0.381710  0.039142  0.219421  1
  O  O74  1  0.381710  0.539142  0.280579  1
  O  O75  1  0.618290  0.960858  0.780579  1
  O  O76  1  0.264056  0.271889  0.726477  1
  O  O77  1  0.735944  0.228111  0.226477  1
  O  O78  1  0.735944  0.728111  0.273523  1
  O  O79  1  0.264056  0.771889  0.773523  1
  O  O80  1  0.545884  0.427760  0.886646  1
  O  O81  1  0.454116  0.072240  0.386646  1
  O  O82  1  0.454116  0.572240  0.113354  1
  O  O83  1  0.545884  0.927760  0.613354  1
  O  O84  1  0.386095  0.332700  0.073318  1
  O  O85  1  0.613905  0.167300  0.573318  1
  O  O86  1  0.613905  0.667300  0.926682  1
  O  O87  1  0.919402  0.117542  0.662515  1
