# generated using pymatgen
data_ZnCr3O7
_symmetry_space_group_name_H-M   'P 1'
_cell_length_a   5.38805925
_cell_length_b   10.33785333
_cell_length_c   9.95865649
_cell_angle_alpha   90.00000000
_cell_angle_beta   90.00000000
_cell_angle_gamma   90.00000000
_symmetry_Int_Tables_number   1
_chemical_formula_structural   ZnCr3O7
_chemical_formula_sum   'Zn4 Cr12 O28'
_cell_volume   554.70678914
_cell_formula_units_Z   4
loop_
 _symmetry_equiv_pos_site_id
 _symmetry_equiv_pos_as_xyz
  1  'x, y, z'
loop_
 _atom_site_type_symbol
 _atom_site_label
 _atom_site_symmetry_multiplicity
 _atom_site_fract_x
 _atom_site_fract_y
 _atom_site_fract_z
 _atom_site_occupancy
  Zn  Zn0  1  0.636489  0.750000  0.954646  1
  Zn  Zn1  1  0.136489  0.250000  0.545354  1
  Zn  Zn2  1  0.363511  0.250000  0.045354  1
  Zn  Zn3  1  0.863511  0.750000  0.454646  1
  Cr  Cr4  1  0.292346  0.023451  0.308998  1
  Cr  Cr5  1  0.792346  0.976549  0.191002  1
  Cr  Cr6  1  0.707654  0.523451  0.691002  1
  Cr  Cr7  1  0.207654  0.476549  0.808998  1
  Cr  Cr8  1  0.297139  0.750000  0.226978  1
  Cr  Cr9  1  0.797139  0.250000  0.273023  1
  Cr  Cr10  1  0.702861  0.250000  0.773022  1
  Cr  Cr11  1  0.202861  0.750000  0.726978  1
  Cr  Cr12  1  0.792346  0.523451  0.191002  1
  Cr  Cr13  1  0.292346  0.476549  0.308998  1
  Cr  Cr14  1  0.207654  0.023451  0.808998  1
  Cr  Cr15  1  0.707654  0.976549  0.691002  1
  O  O16  1  0.948523  0.118829  0.713464  1
  O  O17  1  0.448523  0.881171  0.786536  1
  O  O18  1  0.051477  0.618829  0.286536  1
  O  O19  1  0.551477  0.381171  0.213464  1
  O  O20  1  0.051477  0.881171  0.286536  1
  O  O21  1  0.551477  0.118829  0.213464  1
  O  O22  1  0.948523  0.381171  0.713464  1
  O  O23  1  0.448523  0.618829  0.786536  1
  O  O24  1  0.470342  0.116851  0.718084  1
  O  O25  1  0.970342  0.883149  0.781916  1
  O  O26  1  0.529658  0.616851  0.281916  1
  O  O27  1  0.029658  0.383149  0.218084  1
  O  O28  1  0.529658  0.883149  0.281916  1
  O  O29  1  0.029658  0.116851  0.218084  1
  O  O30  1  0.470342  0.383149  0.718084  1
  O  O31  1  0.970342  0.616851  0.781916  1
  O  O32  1  0.184761  0.750000  0.553198  1
  O  O33  1  0.684761  0.250000  0.946802  1
  O  O34  1  0.815239  0.250000  0.446802  1
  O  O35  1  0.315239  0.750000  0.053198  1
  O  O36  1  0.224783  0.411391  0.965354  1
  O  O37  1  0.724783  0.588609  0.534646  1
  O  O38  1  0.775217  0.911391  0.034646  1
  O  O39  1  0.275217  0.088609  0.465354  1
  O  O40  1  0.775217  0.588609  0.034646  1
  O  O41  1  0.275217  0.411391  0.465354  1
  O  O42  1  0.224783  0.088609  0.965354  1
  O  O43  1  0.724783  0.911391  0.534646  1
