# generated using pymatgen
data_MgCu(SiO3)2
_symmetry_space_group_name_H-M   'P 1'
_cell_length_a   5.25840380
_cell_length_b   6.81388159
_cell_length_c   6.81388185
_cell_angle_alpha   85.32506570
_cell_angle_beta   74.76362038
_cell_angle_gamma   74.76362443
_symmetry_Int_Tables_number   1
_chemical_formula_structural   MgCu(SiO3)2
_chemical_formula_sum   'Mg2 Cu2 Si4 O12'
_cell_volume   227.26041851
_cell_formula_units_Z   2
loop_
 _symmetry_equiv_pos_site_id
 _symmetry_equiv_pos_as_xyz
  1  'x, y, z'
loop_
 _atom_site_type_symbol
 _atom_site_label
 _atom_site_symmetry_multiplicity
 _atom_site_fract_x
 _atom_site_fract_y
 _atom_site_fract_z
 _atom_site_occupancy
  Mg  Mg0  1  0.750000  0.244264  0.755736  1
  Mg  Mg1  1  0.250001  0.755736  0.244265  1
  Cu  Cu2  1  0.249999  0.108511  0.891490  1
  Cu  Cu3  1  0.749999  0.891491  0.108510  1
  Si  Si4  1  0.254533  0.204245  0.382788  1
  Si  Si5  1  0.245466  0.617212  0.795755  1
  Si  Si6  1  0.754533  0.382788  0.204245  1
  Si  Si7  1  0.745467  0.795755  0.617212  1
  O  O8  1  0.499993  0.316086  0.373994  1
  O  O9  1  0.000007  0.626005  0.683915  1
  O  O10  1  0.500008  0.683915  0.626006  1
  O  O11  1  -0.000008  0.373995  0.316085  1
  O  O12  1  0.133443  0.133716  0.612551  1
  O  O13  1  0.366557  0.387448  0.866283  1
  O  O14  1  0.866557  0.866284  0.387449  1
  O  O15  1  0.633442  0.612551  0.133717  1
  O  O16  1  0.867547  0.216262  0.019046  1
  O  O17  1  0.632453  0.980954  0.783737  1
  O  O18  1  0.367546  0.019046  0.216263  1
  O  O19  1  0.132454  0.783738  0.980954  1
