# generated using pymatgen
data_Sr2AlGaNi2O7
_symmetry_space_group_name_H-M   'P 1'
_cell_length_a   5.64540098
_cell_length_b   5.17611631
_cell_length_c   11.70623079
_cell_angle_alpha   102.81326831
_cell_angle_beta   96.46205393
_cell_angle_gamma   89.99814978
_symmetry_Int_Tables_number   1
_chemical_formula_structural   Sr2AlGaNi2O7
_chemical_formula_sum   'Sr4 Al2 Ga2 Ni4 O14'
_cell_volume   331.32358908
_cell_formula_units_Z   2
loop_
 _symmetry_equiv_pos_site_id
 _symmetry_equiv_pos_as_xyz
  1  'x, y, z'
loop_
 _atom_site_type_symbol
 _atom_site_label
 _atom_site_symmetry_multiplicity
 _atom_site_fract_x
 _atom_site_fract_y
 _atom_site_fract_z
 _atom_site_occupancy
  Sr  Sr0  1  0.252615  0.143453  0.298775  1
  Sr  Sr1  1  0.746410  0.853621  0.698337  1
  Sr  Sr2  1  0.752822  0.649354  0.298643  1
  Sr  Sr3  1  0.246425  0.338638  0.698551  1
  Al  Al4  1  0.499700  0.497518  -0.001472  1
  Al  Al5  1  -0.000200  0.994316  -0.001476  1
  Ga  Ga6  1  0.206559  0.803514  0.502383  1
  Ga  Ga7  1  0.706468  0.192859  0.502318  1
  Ni  Ni8  1  0.364796  0.956909  0.884805  1
  Ni  Ni9  1  0.137490  0.571088  0.112850  1
  Ni  Ni10  1  0.864806  0.420651  0.884893  1
  Ni  Ni11  1  0.637446  0.035628  0.112826  1
  O  O12  1  0.825865  0.339326  0.057635  1
  O  O13  1  0.874888  0.871261  0.505937  1
  O  O14  1  0.325788  0.212121  0.057693  1
  O  O15  1  0.809291  0.379136  0.654825  1
  O  O16  1  0.529412  0.271323  0.856361  1
  O  O17  1  0.029474  0.077625  0.856411  1
  O  O18  1  0.374770  0.128988  0.506027  1
  O  O19  1  0.176841  0.652426  0.940836  1
  O  O20  1  0.676918  0.781338  0.940800  1
  O  O21  1  0.309113  0.769485  0.654716  1
  O  O22  1  0.211467  0.628378  0.344802  1
  O  O23  1  0.711512  0.210768  0.344910  1
  O  O24  1  0.971742  0.912564  0.141407  1
  O  O25  1  0.471804  0.723095  0.141431  1
