# generated using pymatgen
data_AlCu3(NiO3)4
_symmetry_space_group_name_H-M   'P 1'
_cell_length_a   6.24255510
_cell_length_b   6.24110736
_cell_length_c   6.20118858
_cell_angle_alpha   109.48826658
_cell_angle_beta   109.66572857
_cell_angle_gamma   109.70602344
_symmetry_Int_Tables_number   1
_chemical_formula_structural   AlCu3(NiO3)4
_chemical_formula_sum   'Al1 Cu3 Ni4 O12'
_cell_volume   184.95246166
_cell_formula_units_Z   1
loop_
 _symmetry_equiv_pos_site_id
 _symmetry_equiv_pos_as_xyz
  1  'x, y, z'
loop_
 _atom_site_type_symbol
 _atom_site_label
 _atom_site_symmetry_multiplicity
 _atom_site_fract_x
 _atom_site_fract_y
 _atom_site_fract_z
 _atom_site_occupancy
  Al  Al0  1  0.000386  0.000241  0.999931  1
  Cu  Cu1  1  0.499981  0.999991  0.499991  1
  Cu  Cu2  1  0.500019  0.500006  -0.000016  1
  Cu  Cu3  1  -0.000004  0.500024  0.500011  1
  Ni  Ni4  1  0.500009  0.999957  0.999977  1
  Ni  Ni5  1  0.000017  0.000050  0.500047  1
  Ni  Ni6  1  0.999985  0.500002  0.000004  1
  Ni  Ni7  1  0.499983  0.499990  0.499991  1
  O  O8  1  0.824806  0.309085  0.134746  1
  O  O9  1  0.175152  0.690949  0.865283  1
  O  O10  1  0.840602  0.706217  0.551049  1
  O  O11  1  0.304247  0.467454  0.168638  1
  O  O12  1  0.465143  0.167108  0.301568  1
  O  O13  1  0.133581  0.834047  0.298656  1
  O  O14  1  0.700815  0.865969  0.167197  1
  O  O15  1  0.534750  0.832834  0.698358  1
  O  O16  1  0.159372  0.293782  0.448966  1
  O  O17  1  0.695664  0.532406  0.831297  1
  O  O18  1  0.866434  0.165935  0.701420  1
  O  O19  1  0.299059  0.133955  0.832886  1
