# generated using pymatgen
data_YCrO4
_symmetry_space_group_name_H-M   'P 1'
_cell_length_a   6.00001685
_cell_length_b   6.00001624
_cell_length_c   6.00001636
_cell_angle_alpha   73.99168588
_cell_angle_beta   73.99167668
_cell_angle_gamma   116.64404082
_symmetry_Int_Tables_number   1
_chemical_formula_structural   YCrO4
_chemical_formula_sum   'Y2 Cr2 O8'
_cell_volume   164.30039586
_cell_formula_units_Z   2
loop_
 _symmetry_equiv_pos_site_id
 _symmetry_equiv_pos_as_xyz
  1  'x, y, z'
loop_
 _atom_site_type_symbol
 _atom_site_label
 _atom_site_symmetry_multiplicity
 _atom_site_fract_x
 _atom_site_fract_y
 _atom_site_fract_z
 _atom_site_occupancy
  Y  Y0  1  0.875000  0.625000  0.250000  1
  Y  Y1  1  0.125000  0.375000  0.750000  1
  Cr  Cr2  1  0.625000  0.875000  0.750000  1
  Cr  Cr3  1  0.375000  0.125000  0.250000  1
  O  O4  1  0.366034  0.299595  0.433562  1
  O  O5  1  0.799598  0.233170  0.566428  1
  O  O6  1  0.799598  0.866027  0.933572  1
  O  O7  1  0.733158  0.299595  0.066438  1
  O  O8  1  0.200405  0.766842  0.433562  1
  O  O9  1  0.633973  0.700402  0.566428  1
  O  O10  1  0.266830  0.700402  0.933572  1
  O  O11  1  0.200405  0.133966  0.066438  1
