# generated using pymatgen
data_Ba2Tl2Zn3(CuO3)4
_symmetry_space_group_name_H-M   'P 1'
_cell_length_a   3.82418212
_cell_length_b   3.82418206
_cell_length_c   20.94634545
_cell_angle_alpha   95.23754377
_cell_angle_beta   95.23754425
_cell_angle_gamma   89.99999539
_symmetry_Int_Tables_number   1
_chemical_formula_structural   Ba2Tl2Zn3(CuO3)4
_chemical_formula_sum   'Ba2 Tl2 Zn3 Cu4 O12'
_cell_volume   303.76373690
_cell_formula_units_Z   1
loop_
 _symmetry_equiv_pos_site_id
 _symmetry_equiv_pos_as_xyz
  1  'x, y, z'
loop_
 _atom_site_type_symbol
 _atom_site_label
 _atom_site_symmetry_multiplicity
 _atom_site_fract_x
 _atom_site_fract_y
 _atom_site_fract_z
 _atom_site_occupancy
  Ba  Ba0  1  0.153767  0.153767  0.307533  1
  Ba  Ba1  1  0.846233  0.846233  0.692467  1
  Tl  Tl2  1  0.722502  0.722502  0.445003  1
  Tl  Tl3  1  0.277498  0.277498  0.554997  1
  Zn  Zn4  1  0.073130  0.073130  0.146259  1
  Zn  Zn5  1  0.926870  0.926870  0.853741  1
  Zn  Zn6  1  0.000000  0.000000  0.000000  1
  Cu  Cu7  1  0.536231  0.536231  0.072462  1
  Cu  Cu8  1  0.396120  0.396120  0.792240  1
  Cu  Cu9  1  0.603880  0.603880  0.207760  1
  Cu  Cu10  1  0.463769  0.463769  0.927538  1
  O  O11  1  0.395877  0.895877  0.791754  1
  O  O12  1  0.534760  0.034760  0.069521  1
  O  O13  1  0.226482  0.226482  0.452965  1
  O  O14  1  0.965240  0.465240  0.930479  1
  O  O15  1  0.773518  0.773518  0.547035  1
  O  O16  1  0.104123  0.604123  0.208246  1
  O  O17  1  0.604123  0.104123  0.208246  1
  O  O18  1  0.327326  0.327326  0.654651  1
  O  O19  1  0.895877  0.395877  0.791754  1
  O  O20  1  0.034760  0.534760  0.069521  1
  O  O21  1  0.465240  0.965240  0.930479  1
  O  O22  1  0.672674  0.672674  0.345349  1
