# generated using pymatgen
data_MgV4O10
_symmetry_space_group_name_H-M   'P 1'
_cell_length_a   3.53767097
_cell_length_b   4.95117905
_cell_length_c   11.57872553
_cell_angle_alpha   90.01470014
_cell_angle_beta   89.99980999
_cell_angle_gamma   89.99670003
_symmetry_Int_Tables_number   1
_chemical_formula_structural   MgV4O10
_chemical_formula_sum   'Mg1 V4 O10'
_cell_volume   202.80880881
_cell_formula_units_Z   1
loop_
 _symmetry_equiv_pos_site_id
 _symmetry_equiv_pos_as_xyz
  1  'x, y, z'
loop_
 _atom_site_type_symbol
 _atom_site_label
 _atom_site_symmetry_multiplicity
 _atom_site_fract_x
 _atom_site_fract_y
 _atom_site_fract_z
 _atom_site_occupancy
  Mg  Mg0  1  0.250049  0.189157  0.749856  1
  V  V1  1  0.250001  0.410894  0.101492  1
  V  V2  1  0.749994  0.605612  0.899272  1
  V  V3  1  0.749988  0.605716  0.600790  1
  V  V4  1  0.250005  0.411073  0.398458  1
  O  O5  1  0.750021  0.418322  0.749984  1
  O  O6  1  0.250000  0.525721  0.249996  1
  O  O7  1  0.749996  0.530478  0.070000  1
  O  O8  1  0.250007  0.451496  0.923097  1
  O  O9  1  0.749997  0.530662  0.430049  1
  O  O10  1  0.250004  0.451628  0.576932  1
  O  O11  1  0.250013  0.087044  0.388616  1
  O  O12  1  0.749951  0.935743  0.634517  1
  O  O13  1  0.749966  0.935593  0.865637  1
  O  O14  1  0.250012  0.086873  0.111325  1
