# generated using pymatgen
data_MgTa2O6
_symmetry_space_group_name_H-M   'P 1'
_cell_length_a   5.22954977
_cell_length_b   5.51099610
_cell_length_c   7.60865196
_cell_angle_alpha   89.99609133
_cell_angle_beta   90.00035617
_cell_angle_gamma   89.99691327
_symmetry_Int_Tables_number   1
_chemical_formula_structural   MgTa2O6
_chemical_formula_sum   'Mg2 Ta4 O12'
_cell_volume   219.28156457
_cell_formula_units_Z   2
loop_
 _symmetry_equiv_pos_site_id
 _symmetry_equiv_pos_as_xyz
  1  'x, y, z'
loop_
 _atom_site_type_symbol
 _atom_site_label
 _atom_site_symmetry_multiplicity
 _atom_site_fract_x
 _atom_site_fract_y
 _atom_site_fract_z
 _atom_site_occupancy
  Mg  Mg0  1  0.524565  0.571143  0.249982  1
  Mg  Mg1  1  0.024534  0.928888  0.749975  1
  Ta  Ta2  1  0.509504  0.010654  0.001600  1
  Ta  Ta3  1  0.009533  0.489391  0.998387  1
  Ta  Ta4  1  0.009703  0.489404  0.501652  1
  Ta  Ta5  1  0.509663  0.010678  0.498312  1
  O  O6  1  0.675910  0.318918  0.434719  1
  O  O7  1  0.175869  0.181076  0.565243  1
  O  O8  1  0.781105  0.779919  0.051025  1
  O  O9  1  0.281144  0.720031  0.949001  1
  O  O10  1  0.281397  0.719909  0.550924  1
  O  O11  1  0.781384  0.780099  0.449067  1
  O  O12  1  0.175750  0.181103  0.934763  1
  O  O13  1  0.675803  0.318838  0.065251  1
  O  O14  1  0.137811  0.476138  0.249976  1
  O  O15  1  0.637752  0.023848  0.750020  1
  O  O16  1  0.415337  0.959212  0.250008  1
  O  O17  1  0.915417  0.540811  0.749987  1
