# generated using pymatgen
data_MgMnF5
_symmetry_space_group_name_H-M   'P 1'
_cell_length_a   5.09558208
_cell_length_b   7.81173509
_cell_length_c   9.58871148
_cell_angle_alpha   90.00000000
_cell_angle_beta   90.00000000
_cell_angle_gamma   109.97592569
_symmetry_Int_Tables_number   1
_chemical_formula_structural   MgMnF5
_chemical_formula_sum   'Mg4 Mn4 F20'
_cell_volume   358.71847965
_cell_formula_units_Z   4
loop_
 _symmetry_equiv_pos_site_id
 _symmetry_equiv_pos_as_xyz
  1  'x, y, z'
loop_
 _atom_site_type_symbol
 _atom_site_label
 _atom_site_symmetry_multiplicity
 _atom_site_fract_x
 _atom_site_fract_y
 _atom_site_fract_z
 _atom_site_occupancy
  Mg  Mg0  1  0.476898  0.771633  0.010656  1
  Mg  Mg1  1  0.523102  0.728367  0.510656  1
  Mg  Mg2  1  0.523102  0.228367  0.989344  1
  Mg  Mg3  1  0.476898  0.271633  0.489344  1
  Mn  Mn4  1  0.887701  0.613943  0.756216  1
  Mn  Mn5  1  0.112299  0.886057  0.256216  1
  Mn  Mn6  1  0.112299  0.386057  0.243784  1
  Mn  Mn7  1  0.887701  0.113943  0.743784  1
  F  F8  1  0.594304  0.607805  0.883842  1
  F  F9  1  0.405696  0.892195  0.383842  1
  F  F10  1  0.405696  0.392195  0.116158  1
  F  F11  1  0.594304  0.107805  0.616158  1
  F  F12  1  0.633542  0.501016  0.608458  1
  F  F13  1  0.366458  0.998984  0.108458  1
  F  F14  1  0.366458  0.498984  0.391542  1
  F  F15  1  0.633542  0.001016  0.891542  1
  F  F16  1  0.861394  0.773909  0.394182  1
  F  F17  1  0.138606  0.726091  0.894182  1
  F  F18  1  0.138606  0.226091  0.605818  1
  F  F19  1  0.861394  0.273909  0.105818  1
  F  F20  1  0.812459  0.853908  0.131282  1
  F  F21  1  0.187541  0.646092  0.631282  1
  F  F22  1  0.187541  0.146092  0.868718  1
  F  F23  1  0.812459  0.353908  0.368718  1
  F  F24  1  0.799657  0.844145  0.664075  1
  F  F25  1  0.200343  0.655855  0.164075  1
  F  F26  1  0.200343  0.155855  0.335925  1
  F  F27  1  0.799657  0.344145  0.835925  1
