# generated using pymatgen
data_Mg2Fe3O8
_symmetry_space_group_name_H-M   'P 1'
_cell_length_a   5.94604983
_cell_length_b   5.94604920
_cell_length_c   9.40449063
_cell_angle_alpha   90.00000000
_cell_angle_beta   90.00000000
_cell_angle_gamma   120.00000353
_symmetry_Int_Tables_number   1
_chemical_formula_structural   Mg2Fe3O8
_chemical_formula_sum   'Mg4 Fe6 O16'
_cell_volume   287.95388181
_cell_formula_units_Z   2
loop_
 _symmetry_equiv_pos_site_id
 _symmetry_equiv_pos_as_xyz
  1  'x, y, z'
loop_
 _atom_site_type_symbol
 _atom_site_label
 _atom_site_symmetry_multiplicity
 _atom_site_fract_x
 _atom_site_fract_y
 _atom_site_fract_z
 _atom_site_occupancy
  Mg  Mg0  1  0.666667  0.333334  0.024574  1
  Mg  Mg1  1  0.333333  0.666666  0.524575  1
  Mg  Mg2  1  0.666667  0.333334  0.417823  1
  Mg  Mg3  1  0.333333  0.666666  0.917824  1
  Fe  Fe4  1  0.671739  0.835870  0.245233  1
  Fe  Fe5  1  0.835871  0.164131  0.745233  1
  Fe  Fe6  1  0.164131  0.328262  0.245233  1
  Fe  Fe7  1  0.835869  0.671739  0.745233  1
  Fe  Fe8  1  0.328262  0.164131  0.745233  1
  Fe  Fe9  1  0.164131  0.835870  0.245233  1
  O  O10  1  0.838036  0.161965  0.143468  1
  O  O11  1  0.676071  0.838036  0.643467  1
  O  O12  1  0.161965  0.323930  0.643467  1
  O  O13  1  0.838035  0.676071  0.143468  1
  O  O14  1  0.323929  0.161965  0.143468  1
  O  O15  1  0.161965  0.838036  0.643467  1
  O  O16  1  0.518903  0.481096  0.865862  1
  O  O17  1  0.037809  0.518903  0.365861  1
  O  O18  1  0.481097  0.962192  0.365861  1
  O  O19  1  0.518903  0.037809  0.865862  1
  O  O20  1  -0.000000  0.000000  0.356887  1
  O  O21  1  -0.000000  0.000000  0.856887  1
  O  O22  1  0.333333  0.666666  0.130530  1
  O  O23  1  0.962190  0.481096  0.865862  1
  O  O24  1  0.481096  0.518903  0.365861  1
  O  O25  1  0.666667  0.333334  0.630530  1
