# generated using pymatgen
data_Sr2V2GaO7
_symmetry_space_group_name_H-M   'P 1'
_cell_length_a   5.43163039
_cell_length_b   5.51458005
_cell_length_c   11.80503325
_cell_angle_alpha   103.43601198
_cell_angle_beta   103.29231223
_cell_angle_gamma   89.99865666
_symmetry_Int_Tables_number   1
_chemical_formula_structural   Sr2V2GaO7
_chemical_formula_sum   'Sr4 V4 Ga2 O14'
_cell_volume   334.17333435
_cell_formula_units_Z   2
loop_
 _symmetry_equiv_pos_site_id
 _symmetry_equiv_pos_as_xyz
  1  'x, y, z'
loop_
 _atom_site_type_symbol
 _atom_site_label
 _atom_site_symmetry_multiplicity
 _atom_site_fract_x
 _atom_site_fract_y
 _atom_site_fract_z
 _atom_site_occupancy
  Sr  Sr0  1  0.150148  0.161015  0.294812  1
  Sr  Sr1  1  0.855429  0.839374  0.705243  1
  Sr  Sr2  1  0.650173  0.634227  0.294942  1
  Sr  Sr3  1  0.355264  0.366260  0.705104  1
  V  V4  1  0.437043  0.932061  0.862235  1
  V  V5  1  0.074328  0.570950  0.137808  1
  V  V6  1  0.936755  0.429927  0.862799  1
  V  V7  1  0.574746  0.068319  0.137741  1
  Ga  Ga8  1  0.203853  0.827676  0.500160  1
  Ga  Ga9  1  0.703811  0.172795  0.499769  1
  O  O10  1  0.809974  0.307553  0.138658  1
  O  O11  1  0.855626  0.863346  0.499919  1
  O  O12  1  0.310039  0.332460  0.138615  1
  O  O13  1  0.845499  0.361202  0.654666  1
  O  O14  1  0.694281  0.189476  0.851923  1
  O  O15  1  0.194211  0.162621  0.852373  1
  O  O16  1  0.355710  0.136818  0.499972  1
  O  O17  1  0.171333  0.668016  0.861469  1
  O  O18  1  0.671276  0.693025  0.861485  1
  O  O19  1  0.344827  0.795928  0.655805  1
  O  O20  1  0.190216  0.639448  0.344901  1
  O  O21  1  0.689044  0.204489  0.344107  1
  O  O22  1  0.842309  0.811019  0.148061  1
  O  O23  1  0.342041  0.838095  0.147899  1
