# generated using pymatgen
data_Sr2YAlV2O7
_symmetry_space_group_name_H-M   'P 1'
_cell_length_a   11.74095323
_cell_length_b   11.74095323
_cell_length_c   11.74095323
_cell_angle_alpha   40.26934374
_cell_angle_beta   151.37520620
_cell_angle_gamma   152.28089040
_symmetry_Int_Tables_number   1
_chemical_formula_structural   Sr2YAlV2O7
_chemical_formula_sum   'Sr4 Y2 Al2 V4 O14'
_cell_volume   359.93967184
_cell_formula_units_Z   2
loop_
 _symmetry_equiv_pos_site_id
 _symmetry_equiv_pos_as_xyz
  1  'x, y, z'
loop_
 _atom_site_type_symbol
 _atom_site_label
 _atom_site_symmetry_multiplicity
 _atom_site_fract_x
 _atom_site_fract_y
 _atom_site_fract_z
 _atom_site_occupancy
  Sr  Sr0  1  0.036427  0.855025  0.867556  1
  Sr  Sr1  1  0.987468  0.168871  0.132444  1
  Sr  Sr2  1  0.036427  0.668871  0.681402  1
  Sr  Sr3  1  0.987468  0.355025  0.318598  1
  Y  Y4  1  0.010917  0.510917  0.500000  1
  Y  Y5  1  0.010917  0.010917  -0.000000  1
  Al  Al6  1  0.567382  0.740972  0.326410  1
  Al  Al7  1  0.414562  0.240972  0.673590  1
  V  V8  1  0.520716  0.445022  0.924969  1
  V  V9  1  0.520051  0.595746  0.075031  1
  V  V10  1  0.520716  0.095746  0.575695  1
  V  V11  1  0.520051  0.945022  0.424305  1
  O  O12  1  0.010153  0.934735  0.575418  1
  O  O13  1  0.359317  0.434735  0.424582  1
  O  O14  1  0.440260  0.162982  0.143581  1
  O  O15  1  0.019403  0.296680  0.856419  1
  O  O16  1  0.440260  0.796680  0.777277  1
  O  O17  1  0.019403  0.662982  0.222723  1
  O  O18  1  0.614468  0.745538  0.722572  1
  O  O19  1  0.022967  0.891895  0.277428  1
  O  O20  1  0.614468  0.391895  0.368929  1
  O  O21  1  0.022967  0.245538  0.631071  1
  O  O22  1  0.476747  0.856254  0.261384  1
  O  O23  1  0.594869  0.215361  0.738616  1
  O  O24  1  0.476747  0.715361  0.120493  1
  O  O25  1  0.594869  0.356254  0.879507  1
